MODEL 1
REMARK VINA RESULT:     -10.8      0.000      0.000
REMARK SMILES Cc1ccc(/C=C(\NC(=O)c2cccc(C)c2)C(=O)OCCOCCOCCOCCOC(=O)c2ccc(-c3c4nc(c(-c5cc(S(=O)(=O)[O-])ccc5F)c5ccc([nH]5)c(-c5cc(S(=O)(=O)[O-])ccc5F)c5nc(c(-c6cc(S(=O)(=O)[O-])ccc6F)c6ccc3[nH]6)C=C5)C=C4)cc2)cc1
REMARK SMILES IDX 27 1 26 2 25 3 24 4 23 5 22 6 21 7 20 8 18 9 19 10 7 11 6 12
REMARK SMILES IDX 5 13 1 14 2 15 3 16 99 17 4 18 98 19 8 20 9 21 10 23 11 24
REMARK SMILES IDX 12 25 17 26 13 27 15 28 14 29 16 30 28 31 29 32 30 33 31 34
REMARK SMILES IDX 32 35 33 36 34 37 35 38 36 39 97 40 37 41 96 42 38 43 39 44
REMARK SMILES IDX 40 45 90 46 41 47 95 48 89 49 91 50 42 51 94 52 88 53 87 54
REMARK SMILES IDX 43 56 75 57 55 58 74 59 56 60 59 61 73 62 92 63 57 64 58 65
REMARK SMILES IDX 72 67 93 68 60 69 44 70 45 71 53 72 46 73 52 74 54 75 51 76
REMARK SMILES IDX 47 77 48 78 49 79 50 80 76 81 77 82 85 83 78 84 84 85 86 86
REMARK SMILES IDX 83 87 79 88 80 89 81 90 82 91 61 92 62 93 70 94 63 95 69 96
REMARK SMILES IDX 71 97 68 98 64 99 65 100 66 101 67 102
REMARK H PARENT 8 22 91 55 59 66
REMARK Flexibility Score: inf
ROOT
ATOM      1  C   UNL A   1      41.319  20.921  26.298  1.00  0.00     0.188 C 
ENDROOT
BRANCH   1   2
ATOM      2  O   UNL A   1      39.900  20.980  26.187  1.00  0.00    -0.377 OA
BRANCH   2   3
ATOM      3  C   UNL A   1      39.320  22.236  26.481  1.00  0.00     0.188 C 
BRANCH   3   4
ATOM      4  C   UNL A   1      38.064  22.488  25.635  1.00  0.00     0.188 C 
BRANCH   4   5
ATOM      5  O   UNL A   1      36.862  21.882  26.120  1.00  0.00    -0.376 OA
BRANCH   5   6
ATOM      6  C   UNL A   1      35.731  22.745  25.997  1.00  0.00     0.202 C 
BRANCH   6   7
ATOM      7  C   UNL A   1      34.779  22.770  27.196  1.00  0.00     0.261 C 
BRANCH   7   8
ATOM      8  O   UNL A   1      33.627  23.538  26.874  1.00  0.00    -0.459 OA
BRANCH   8   9
ATOM      9  C   UNL A   1      32.431  22.992  26.730  1.00  0.00     0.354 C 
ATOM     10  O   UNL A   1      31.585  23.020  27.626  1.00  0.00    -0.244 OA
BRANCH   9  11
ATOM     11  C   UNL A   1      32.108  22.600  25.245  1.00  0.00     0.128 C 
ATOM     12  C   UNL A   1      32.399  21.254  25.221  1.00  0.00     0.042 C 
BRANCH  12  13
ATOM     13  C   UNL A   1      32.554  19.824  24.772  1.00  0.00    -0.023 A 
ATOM     14  C   UNL A   1      33.558  15.629  24.141  1.00  0.00     0.044 C 
ATOM     15  C   UNL A   1      33.035  17.020  24.355  1.00  0.00    -0.051 A 
ATOM     16  C   UNL A   1      32.792  17.906  23.288  1.00  0.00     0.004 A 
ATOM     17  C   UNL A   1      32.877  17.498  25.644  1.00  0.00     0.004 A 
ATOM     18  C   UNL A   1      32.540  19.292  23.492  1.00  0.00     0.008 A 
ATOM     19  C   UNL A   1      32.644  18.861  25.837  1.00  0.00     0.008 A 
ENDBRANCH  12  13
BRANCH  11  20
ATOM     20  N   UNL A   1      31.492  23.563  24.307  1.00  0.00    -0.316 N 
ATOM     21  C   UNL A   1      32.391  24.419  23.438  1.00  0.00     0.255 C 
ATOM     22  H   UNL A   1      30.513  23.645  24.247  1.00  0.00     0.170 HD
ATOM     23  O   UNL A   1      33.523  24.109  23.847  1.00  0.00    -0.269 OA
BRANCH  21  24
ATOM     24  C   UNL A   1      32.192  25.989  22.335  1.00  0.00     0.040 A 
ATOM     25  C   UNL A   1      33.366  27.664  22.139  1.00  0.00     0.014 A 
ATOM     26  C   UNL A   1      30.590  26.225  22.931  1.00  0.00     0.017 A 
ATOM     27  C   UNL A   1      32.558  29.231  22.668  1.00  0.00     0.001 A 
ATOM     28  C   UNL A   1      29.957  27.727  23.245  1.00  0.00    -0.050 A 
ATOM     29  C   UNL A   1      30.867  29.173  23.112  1.00  0.00     0.003 A 
ATOM     30  C   UNL A   1      28.460  27.583  23.423  1.00  0.00     0.044 C 
ENDBRANCH  21  24
ENDBRANCH  11  20
ENDBRANCH   9  11
ENDBRANCH   8   9
ENDBRANCH   7   8
ENDBRANCH   6   7
ENDBRANCH   5   6
ENDBRANCH   4   5
ENDBRANCH   3   4
ENDBRANCH   2   3
ENDBRANCH   1   2
BRANCH   1  31
ATOM     31  C   UNL A   1      41.785  19.490  26.123  1.00  0.00     0.188 C 
BRANCH  31  32
ATOM     32  O   UNL A   1      42.604  19.378  24.969  1.00  0.00    -0.376 OA
BRANCH  32  33
ATOM     33  C   UNL A   1      43.911  18.877  25.098  1.00  0.00     0.202 C 
BRANCH  33  34
ATOM     34  C   UNL A   1      44.962  19.986  25.156  1.00  0.00     0.261 C 
BRANCH  34  35
ATOM     35  O   UNL A   1      44.640  21.024  24.202  1.00  0.00    -0.460 OA
BRANCH  35  36
ATOM     36  C   UNL A   1      44.277  22.224  24.746  1.00  0.00     0.338 C 
ATOM     37  O   UNL A   1      43.482  22.993  24.229  1.00  0.00    -0.246 OA
BRANCH  36  38
ATOM     38  C   UNL A   1      45.148  22.545  25.923  1.00  0.00     0.060 A 
ATOM     39  C   UNL A   1      44.628  22.486  27.213  1.00  0.00     0.016 A 
ATOM     40  C   UNL A   1      46.266  23.326  25.726  1.00  0.00     0.016 A 
ATOM     41  C   UNL A   1      44.959  23.506  28.137  1.00  0.00     0.010 A 
ATOM     42  C   UNL A   1      46.479  24.374  26.621  1.00  0.00     0.010 A 
ATOM     43  C   UNL A   1      45.720  24.609  27.779  1.00  0.00    -0.014 A 
BRANCH  43  44
ATOM     44  C   UNL A   1      45.989  25.912  28.579  1.00  0.00     0.031 A 
ATOM     45  C   UNL A   1      44.471  26.889  28.073  1.00  0.00     0.074 A 
ATOM     46  C   UNL A   1      47.108  25.936  29.733  1.00  0.00     0.049 A 
ATOM     47  N   UNL A   1      43.932  28.026  28.506  1.00  0.00    -0.248 NA
ATOM     48  C   UNL A   1      43.525  26.441  26.990  1.00  0.00     0.031 C 
ATOM     49  C   UNL A   1      47.356  26.577  31.324  1.00  0.00     0.029 A 
ATOM     50  N   UNL A   1      48.292  26.750  29.608  1.00  0.00    -0.354 N 
ATOM     51  C   UNL A   1      42.593  28.222  28.128  1.00  0.00     0.074 A 
ATOM     52  C   UNL A   1      42.406  27.183  27.150  1.00  0.00     0.031 C 
ATOM     53  C   UNL A   1      48.006  27.831  31.527  1.00  0.00     0.029 A 
ATOM     54  C   UNL A   1      48.236  28.427  30.222  1.00  0.00     0.049 A 
ATOM     55  H   UNL A   1      49.110  26.392  29.193  1.00  0.00     0.167 HD
ATOM     56  C   UNL A   1      41.747  29.120  28.782  1.00  0.00     0.034 A 
ATOM     57  C   UNL A   1      48.064  29.665  28.956  1.00  0.00     0.034 A 
ATOM     58  C   UNL A   1      42.443  30.171  29.511  1.00  0.00     0.049 A 
ATOM     59  C   UNL A   1      47.558  31.073  29.419  1.00  0.00     0.074 A 
ATOM     60  C   UNL A   1      42.446  30.583  30.836  1.00  0.00     0.029 A 
ATOM     61  N   UNL A   1      43.141  31.132  28.821  1.00  0.00    -0.354 N 
ATOM     62  N   UNL A   1      46.390  31.294  29.963  1.00  0.00    -0.248 NA
ATOM     63  C   UNL A   1      48.260  32.342  29.116  1.00  0.00     0.031 C 
ATOM     64  C   UNL A   1      43.370  31.631  30.977  1.00  0.00     0.029 A 
ATOM     65  C   UNL A   1      43.789  31.959  29.709  1.00  0.00     0.049 A 
ATOM     66  H   UNL A   1      43.173  31.216  27.841  1.00  0.00     0.167 HD
ATOM     67  C   UNL A   1      46.035  32.580  29.550  1.00  0.00     0.074 A 
ATOM     68  C   UNL A   1      47.272  33.238  29.212  1.00  0.00     0.031 C 
ATOM     69  C   UNL A   1      44.747  32.906  29.224  1.00  0.00     0.034 A 
BRANCH  56  70
ATOM     70  C   UNL A   1      40.198  29.095  29.061  1.00  0.00     0.023 A 
ATOM     71  C   UNL A   1      39.469  30.341  29.062  1.00  0.00     0.031 A 
ATOM     72  C   UNL A   1      39.474  28.021  29.595  1.00  0.00     0.131 A 
ATOM     73  C   UNL A   1      38.213  30.513  29.690  1.00  0.00     0.055 A 
ATOM     74  C   UNL A   1      38.172  28.173  30.142  1.00  0.00     0.041 A 
ATOM     75  F   UNL A   1      40.005  26.792  29.660  1.00  0.00    -0.206 F 
ATOM     76  C   UNL A   1      37.552  29.422  30.223  1.00  0.00     0.022 A 
BRANCH  73  77
ATOM     77  S   UNL A   1      37.503  32.192  29.896  1.00  0.00     0.124 S 
ATOM     78  O   UNL A   1      36.353  32.169  28.999  1.00  0.00    -0.237 OA
ATOM     79  O   UNL A   1      37.206  32.246  31.323  1.00  0.00    -0.237 OA
ATOM     80  O   UNL A   1      38.588  33.077  29.468  1.00  0.00    -0.744 OA
ENDBRANCH  73  77
ENDBRANCH  56  70
BRANCH  57  81
ATOM     81  C   UNL A   1      48.118  28.682  26.976  1.00  0.00     0.023 A 
ATOM     82  C   UNL A   1      49.546  27.795  26.487  1.00  0.00     0.031 A 
ATOM     83  C   UNL A   1      47.298  28.035  25.927  1.00  0.00     0.131 A 
ATOM     84  C   UNL A   1      49.887  26.615  25.816  1.00  0.00     0.055 A 
ATOM     85  C   UNL A   1      47.734  26.939  24.968  1.00  0.00     0.041 A 
ATOM     86  F   UNL A   1      46.004  28.300  25.684  1.00  0.00    -0.206 F 
ATOM     87  C   UNL A   1      48.955  26.208  24.940  1.00  0.00     0.022 A 
BRANCH  84  88
ATOM     88  S   UNL A   1      51.298  25.575  26.531  1.00  0.00     0.124 S 
ATOM     89  O   UNL A   1      50.581  24.566  27.302  1.00  0.00    -0.237 OA
ATOM     90  O   UNL A   1      52.005  25.037  25.364  1.00  0.00    -0.237 OA
ATOM     91  O   UNL A   1      52.075  26.529  27.316  1.00  0.00    -0.744 OA
ENDBRANCH  84  88
ENDBRANCH  57  81
BRANCH  69  92
ATOM     92  C   UNL A   1      44.310  34.044  28.323  1.00  0.00     0.023 A 
ATOM     93  C   UNL A   1      44.269  35.371  28.767  1.00  0.00     0.031 A 
ATOM     94  C   UNL A   1      44.046  33.860  26.949  1.00  0.00     0.131 A 
ATOM     95  C   UNL A   1      43.876  36.427  27.936  1.00  0.00     0.055 A 
ATOM     96  C   UNL A   1      43.705  34.923  26.095  1.00  0.00     0.041 A 
ATOM     97  F   UNL A   1      44.126  32.648  26.382  1.00  0.00    -0.206 F 
ATOM     98  C   UNL A   1      43.587  36.216  26.595  1.00  0.00     0.022 A 
BRANCH  95  99
ATOM     99  S   UNL A   1      43.641  38.040  28.723  1.00  0.00     0.124 S 
ATOM    100  O   UNL A   1      43.426  37.665  30.120  1.00  0.00    -0.237 OA
ATOM    101  O   UNL A   1      44.906  38.711  28.442  1.00  0.00    -0.237 OA
ATOM    102  O   UNL A   1      42.471  38.588  28.043  1.00  0.00    -0.744 OA
ENDBRANCH  95  99
ENDBRANCH  69  92
ENDBRANCH  43  44
ENDBRANCH  36  38
ENDBRANCH  35  36
ENDBRANCH  34  35
ENDBRANCH  33  34
ENDBRANCH  32  33
ENDBRANCH  31  32
ENDBRANCH   1  31
TORSDOF 26
ENDMDL
MODEL 2
REMARK VINA RESULT:     -10.7      2.701      5.630
REMARK SMILES Cc1ccc(/C=C(\NC(=O)c2cccc(C)c2)C(=O)OCCOCCOCCOCCOC(=O)c2ccc(-c3c4nc(c(-c5cc(S(=O)(=O)[O-])ccc5F)c5ccc([nH]5)c(-c5cc(S(=O)(=O)[O-])ccc5F)c5nc(c(-c6cc(S(=O)(=O)[O-])ccc6F)c6ccc3[nH]6)C=C5)C=C4)cc2)cc1
REMARK SMILES IDX 27 1 26 2 25 3 24 4 23 5 22 6 21 7 20 8 18 9 19 10 7 11 6 12
REMARK SMILES IDX 5 13 1 14 2 15 3 16 99 17 4 18 98 19 8 20 9 21 10 23 11 24
REMARK SMILES IDX 12 25 17 26 13 27 15 28 14 29 16 30 28 31 29 32 30 33 31 34
REMARK SMILES IDX 32 35 33 36 34 37 35 38 36 39 97 40 37 41 96 42 38 43 39 44
REMARK SMILES IDX 40 45 90 46 41 47 95 48 89 49 91 50 42 51 94 52 88 53 87 54
REMARK SMILES IDX 43 56 75 57 55 58 74 59 56 60 59 61 73 62 92 63 57 64 58 65
REMARK SMILES IDX 72 67 93 68 60 69 44 70 45 71 53 72 46 73 52 74 54 75 51 76
REMARK SMILES IDX 47 77 48 78 49 79 50 80 76 81 77 82 85 83 78 84 84 85 86 86
REMARK SMILES IDX 83 87 79 88 80 89 81 90 82 91 61 92 62 93 70 94 63 95 69 96
REMARK SMILES IDX 71 97 68 98 64 99 65 100 66 101 67 102
REMARK H PARENT 8 22 91 55 59 66
REMARK Flexibility Score: inf
ROOT
ATOM      1  C   UNL A   1      35.979  23.592  25.067  1.00  0.00     0.188 C 
ENDROOT
BRANCH   1   2
ATOM      2  O   UNL A   1      34.997  24.355  24.371  1.00  0.00    -0.377 OA
BRANCH   2   3
ATOM      3  C   UNL A   1      34.773  23.975  23.027  1.00  0.00     0.188 C 
BRANCH   3   4
ATOM      4  C   UNL A   1      33.515  24.642  22.455  1.00  0.00     0.188 C 
BRANCH   4   5
ATOM      5  O   UNL A   1      33.745  25.785  21.626  1.00  0.00    -0.376 OA
BRANCH   5   6
ATOM      6  C   UNL A   1      33.174  26.975  22.171  1.00  0.00     0.202 C 
BRANCH   6   7
ATOM      7  C   UNL A   1      31.644  27.041  22.171  1.00  0.00     0.261 C 
BRANCH   7   8
ATOM      8  O   UNL A   1      31.218  28.235  22.813  1.00  0.00    -0.459 OA
BRANCH   8   9
ATOM      9  C   UNL A   1      30.406  28.226  23.857  1.00  0.00     0.354 C 
ATOM     10  O   UNL A   1      29.203  28.474  23.755  1.00  0.00    -0.244 OA
BRANCH   9  11
ATOM     11  C   UNL A   1      31.053  27.581  25.134  1.00  0.00     0.128 C 
ATOM     12  C   UNL A   1      31.916  28.564  25.562  1.00  0.00     0.042 C 
BRANCH  12  13
ATOM     13  C   UNL A   1      32.918  29.346  26.372  1.00  0.00    -0.023 A 
ATOM     14  C   UNL A   1      35.610  32.261  28.178  1.00  0.00     0.044 C 
ATOM     15  C   UNL A   1      34.618  31.227  27.727  1.00  0.00    -0.051 A 
ATOM     16  C   UNL A   1      34.950  29.864  27.613  1.00  0.00     0.004 A 
ATOM     17  C   UNL A   1      33.361  31.627  27.309  1.00  0.00     0.004 A 
ATOM     18  C   UNL A   1      34.104  28.928  26.955  1.00  0.00     0.008 A 
ATOM     19  C   UNL A   1      32.542  30.706  26.652  1.00  0.00     0.008 A 
ENDBRANCH  12  13
BRANCH  11  20
ATOM     20  N   UNL A   1      30.583  26.284  25.668  1.00  0.00    -0.316 N 
ATOM     21  C   UNL A   1      31.601  25.295  26.198  1.00  0.00     0.255 C 
ATOM     22  H   UNL A   1      29.623  26.068  25.681  1.00  0.00     0.170 HD
ATOM     23  O   UNL A   1      32.676  25.864  25.939  1.00  0.00    -0.269 OA
BRANCH  21  24
ATOM     24  C   UNL A   1      31.622  23.428  26.680  1.00  0.00     0.040 A 
ATOM     25  C   UNL A   1      32.879  22.360  27.906  1.00  0.00     0.014 A 
ATOM     26  C   UNL A   1      31.591  22.980  25.015  1.00  0.00     0.017 A 
ATOM     27  C   UNL A   1      33.859  21.058  27.050  1.00  0.00     0.001 A 
ATOM     28  C   UNL A   1      32.442  21.689  24.412  1.00  0.00    -0.050 A 
ATOM     29  C   UNL A   1      33.515  20.749  25.363  1.00  0.00     0.003 A 
ATOM     30  C   UNL A   1      31.928  21.390  23.019  1.00  0.00     0.044 C 
ENDBRANCH  21  24
ENDBRANCH  11  20
ENDBRANCH   9  11
ENDBRANCH   8   9
ENDBRANCH   7   8
ENDBRANCH   6   7
ENDBRANCH   5   6
ENDBRANCH   4   5
ENDBRANCH   3   4
ENDBRANCH   2   3
ENDBRANCH   1   2
BRANCH   1  31
ATOM     31  C   UNL A   1      36.418  22.423  24.209  1.00  0.00     0.188 C 
BRANCH  31  32
ATOM     32  O   UNL A   1      37.706  21.979  24.606  1.00  0.00    -0.376 OA
BRANCH  32  33
ATOM     33  C   UNL A   1      37.878  20.649  25.024  1.00  0.00     0.202 C 
BRANCH  33  34
ATOM     34  C   UNL A   1      39.215  20.421  25.730  1.00  0.00     0.261 C 
BRANCH  34  35
ATOM     35  O   UNL A   1      39.994  21.641  25.718  1.00  0.00    -0.460 OA
BRANCH  35  36
ATOM     36  C   UNL A   1      40.448  22.053  26.940  1.00  0.00     0.338 C 
ATOM     37  O   UNL A   1      40.542  21.322  27.913  1.00  0.00    -0.246 OA
BRANCH  36  38
ATOM     38  C   UNL A   1      40.594  23.545  26.963  1.00  0.00     0.060 A 
ATOM     39  C   UNL A   1      41.709  24.147  26.389  1.00  0.00     0.016 A 
ATOM     40  C   UNL A   1      39.911  24.261  27.923  1.00  0.00     0.016 A 
ATOM     41  C   UNL A   1      42.342  25.216  27.067  1.00  0.00     0.010 A 
ATOM     42  C   UNL A   1      40.624  25.237  28.620  1.00  0.00     0.010 A 
ATOM     43  C   UNL A   1      41.938  25.635  28.326  1.00  0.00    -0.014 A 
BRANCH  43  44
ATOM     44  C   UNL A   1      42.640  26.619  29.300  1.00  0.00     0.031 A 
ATOM     45  C   UNL A   1      41.506  28.098  29.097  1.00  0.00     0.074 A 
ATOM     46  C   UNL A   1      43.744  26.080  30.338  1.00  0.00     0.049 A 
ATOM     47  N   UNL A   1      41.378  29.246  29.756  1.00  0.00    -0.248 NA
ATOM     48  C   UNL A   1      40.430  28.174  28.046  1.00  0.00     0.031 C 
ATOM     49  C   UNL A   1      44.237  26.308  31.983  1.00  0.00     0.029 A 
ATOM     50  N   UNL A   1      45.123  26.490  30.241  1.00  0.00    -0.354 N 
ATOM     51  C   UNL A   1      40.164  29.918  29.536  1.00  0.00     0.074 A 
ATOM     52  C   UNL A   1      39.619  29.186  28.423  1.00  0.00     0.031 C 
ATOM     53  C   UNL A   1      45.265  27.236  32.329  1.00  0.00     0.029 A 
ATOM     54  C   UNL A   1      45.633  27.959  31.122  1.00  0.00     0.049 A 
ATOM     55  H   UNL A   1      45.767  25.975  29.703  1.00  0.00     0.167 HD
ATOM     56  C   UNL A   1      39.677  30.901  30.400  1.00  0.00     0.034 A 
ATOM     57  C   UNL A   1      45.831  29.397  30.096  1.00  0.00     0.034 A 
ATOM     58  C   UNL A   1      40.699  31.529  31.226  1.00  0.00     0.049 A 
ATOM     59  C   UNL A   1      45.824  30.783  30.824  1.00  0.00     0.074 A 
ATOM     60  C   UNL A   1      40.878  31.670  32.594  1.00  0.00     0.029 A 
ATOM     61  N   UNL A   1      41.648  32.331  30.641  1.00  0.00    -0.354 N 
ATOM     62  N   UNL A   1      44.809  31.256  31.499  1.00  0.00    -0.248 NA
ATOM     63  C   UNL A   1      46.890  31.801  30.670  1.00  0.00     0.031 C 
ATOM     64  C   UNL A   1      42.096  32.331  32.820  1.00  0.00     0.029 A 
ATOM     65  C   UNL A   1      42.558  32.737  31.590  1.00  0.00     0.049 A 
ATOM     66  H   UNL A   1      41.674  32.578  29.688  1.00  0.00     0.167 HD
ATOM     67  C   UNL A   1      44.877  32.641  31.334  1.00  0.00     0.074 A 
ATOM     68  C   UNL A   1      46.248  32.928  30.998  1.00  0.00     0.031 C 
ATOM     69  C   UNL A   1      43.755  33.408  31.182  1.00  0.00     0.034 A 
BRANCH  56  70
ATOM     70  C   UNL A   1      38.213  31.312  30.809  1.00  0.00     0.023 A 
ATOM     71  C   UNL A   1      38.002  32.578  31.469  1.00  0.00     0.031 A 
ATOM     72  C   UNL A   1      37.102  30.459  30.863  1.00  0.00     0.131 A 
ATOM     73  C   UNL A   1      36.857  32.878  32.242  1.00  0.00     0.055 A 
ATOM     74  C   UNL A   1      35.913  30.798  31.561  1.00  0.00     0.041 A 
ATOM     75  F   UNL A   1      37.130  29.248  30.292  1.00  0.00    -0.206 F 
ATOM     76  C   UNL A   1      35.798  31.989  32.281  1.00  0.00     0.022 A 
BRANCH  73  77
ATOM     77  S   UNL A   1      36.809  34.389  33.281  1.00  0.00     0.124 S 
ATOM     78  O   UNL A   1      35.857  35.237  32.573  1.00  0.00    -0.237 OA
ATOM     79  O   UNL A   1      36.379  33.879  34.577  1.00  0.00    -0.237 OA
ATOM     80  O   UNL A   1      38.192  34.870  33.248  1.00  0.00    -0.744 OA
ENDBRANCH  73  77
ENDBRANCH  56  70
BRANCH  57  81
ATOM     81  C   UNL A   1      45.499  28.826  27.985  1.00  0.00     0.023 A 
ATOM     82  C   UNL A   1      46.294  27.407  27.335  1.00  0.00     0.031 A 
ATOM     83  C   UNL A   1      44.533  28.857  26.864  1.00  0.00     0.131 A 
ATOM     84  C   UNL A   1      46.021  26.333  26.481  1.00  0.00     0.055 A 
ATOM     85  C   UNL A   1      44.403  27.846  25.736  1.00  0.00     0.041 A 
ATOM     86  F   UNL A   1      43.580  29.788  26.690  1.00  0.00    -0.206 F 
ATOM     87  C   UNL A   1      45.071  26.600  25.571  1.00  0.00     0.022 A 
BRANCH  84  88
ATOM     88  S   UNL A   1      46.643  24.621  26.997  1.00  0.00     0.124 S 
ATOM     89  O   UNL A   1      46.897  24.798  28.422  1.00  0.00    -0.237 OA
ATOM     90  O   UNL A   1      45.536  23.706  26.701  1.00  0.00    -0.237 OA
ATOM     91  O   UNL A   1      47.829  24.415  26.171  1.00  0.00    -0.744 OA
ENDBRANCH  84  88
ENDBRANCH  57  81
BRANCH  69  92
ATOM     92  C   UNL A   1      43.681  34.769  30.520  1.00  0.00     0.023 A 
ATOM     93  C   UNL A   1      44.025  35.946  31.198  1.00  0.00     0.031 A 
ATOM     94  C   UNL A   1      43.391  34.928  29.148  1.00  0.00     0.131 A 
ATOM     95  C   UNL A   1      43.969  37.205  30.589  1.00  0.00     0.055 A 
ATOM     96  C   UNL A   1      43.388  36.183  28.515  1.00  0.00     0.041 A 
ATOM     97  F   UNL A   1      43.119  33.872  28.369  1.00  0.00    -0.206 F 
ATOM     98  C   UNL A   1      43.648  37.339  29.245  1.00  0.00     0.022 A 
BRANCH  95  99
ATOM     99  S   UNL A   1      44.207  38.642  31.663  1.00  0.00     0.124 S 
ATOM    100  O   UNL A   1      43.661  39.723  30.844  1.00  0.00    -0.237 OA
ATOM    101  O   UNL A   1      43.418  38.286  32.838  1.00  0.00    -0.237 OA
ATOM    102  O   UNL A   1      45.653  38.687  31.863  1.00  0.00    -0.744 OA
ENDBRANCH  95  99
ENDBRANCH  69  92
ENDBRANCH  43  44
ENDBRANCH  36  38
ENDBRANCH  35  36
ENDBRANCH  34  35
ENDBRANCH  33  34
ENDBRANCH  32  33
ENDBRANCH  31  32
ENDBRANCH   1  31
TORSDOF 26
ENDMDL
MODEL 3
REMARK VINA RESULT:     -10.3      4.522      9.196
REMARK SMILES Cc1ccc(/C=C(\NC(=O)c2cccc(C)c2)C(=O)OCCOCCOCCOCCOC(=O)c2ccc(-c3c4nc(c(-c5cc(S(=O)(=O)[O-])ccc5F)c5ccc([nH]5)c(-c5cc(S(=O)(=O)[O-])ccc5F)c5nc(c(-c6cc(S(=O)(=O)[O-])ccc6F)c6ccc3[nH]6)C=C5)C=C4)cc2)cc1
REMARK SMILES IDX 27 1 26 2 25 3 24 4 23 5 22 6 21 7 20 8 18 9 19 10 7 11 6 12
REMARK SMILES IDX 5 13 1 14 2 15 3 16 99 17 4 18 98 19 8 20 9 21 10 23 11 24
REMARK SMILES IDX 12 25 17 26 13 27 15 28 14 29 16 30 28 31 29 32 30 33 31 34
REMARK SMILES IDX 32 35 33 36 34 37 35 38 36 39 97 40 37 41 96 42 38 43 39 44
REMARK SMILES IDX 40 45 90 46 41 47 95 48 89 49 91 50 42 51 94 52 88 53 87 54
REMARK SMILES IDX 43 56 75 57 55 58 74 59 56 60 59 61 73 62 92 63 57 64 58 65
REMARK SMILES IDX 72 67 93 68 60 69 44 70 45 71 53 72 46 73 52 74 54 75 51 76
REMARK SMILES IDX 47 77 48 78 49 79 50 80 76 81 77 82 85 83 78 84 84 85 86 86
REMARK SMILES IDX 83 87 79 88 80 89 81 90 82 91 61 92 62 93 70 94 63 95 69 96
REMARK SMILES IDX 71 97 68 98 64 99 65 100 66 101 67 102
REMARK H PARENT 8 22 91 55 59 66
REMARK Flexibility Score: inf
ROOT
ATOM      1  C   UNL A   1      41.834  24.775  28.375  1.00  0.00     0.188 C 
ENDROOT
BRANCH   1   2
ATOM      2  O   UNL A   1      41.489  23.721  27.481  1.00  0.00    -0.377 OA
BRANCH   2   3
ATOM      3  C   UNL A   1      40.130  23.330  27.499  1.00  0.00     0.188 C 
BRANCH   3   4
ATOM      4  C   UNL A   1      39.931  21.952  26.854  1.00  0.00     0.188 C 
BRANCH   4   5
ATOM      5  O   UNL A   1      39.242  21.952  25.600  1.00  0.00    -0.376 OA
BRANCH   5   6
ATOM      6  C   UNL A   1      37.824  22.006  25.761  1.00  0.00     0.202 C 
BRANCH   6   7
ATOM      7  C   UNL A   1      37.180  23.378  25.542  1.00  0.00     0.261 C 
BRANCH   7   8
ATOM      8  O   UNL A   1      35.854  23.212  25.058  1.00  0.00    -0.459 OA
BRANCH   8   9
ATOM      9  C   UNL A   1      34.891  24.079  25.323  1.00  0.00     0.354 C 
ATOM     10  O   UNL A   1      35.089  25.295  25.341  1.00  0.00    -0.244 OA
BRANCH   9  11
ATOM     11  C   UNL A   1      33.460  23.434  25.303  1.00  0.00     0.128 C 
ATOM     12  C   UNL A   1      33.718  22.144  24.898  1.00  0.00     0.042 C 
BRANCH  12  13
ATOM     13  C   UNL A   1      33.555  20.691  24.532  1.00  0.00    -0.023 A 
ATOM     14  C   UNL A   1      33.925  16.538  23.259  1.00  0.00     0.044 C 
ATOM     15  C   UNL A   1      33.725  17.902  23.855  1.00  0.00    -0.051 A 
ATOM     16  C   UNL A   1      32.558  18.657  23.633  1.00  0.00     0.004 A 
ATOM     17  C   UNL A   1      34.756  18.493  24.564  1.00  0.00     0.004 A 
ATOM     18  C   UNL A   1      32.466  20.034  23.980  1.00  0.00     0.008 A 
ATOM     19  C   UNL A   1      34.665  19.848  24.888  1.00  0.00     0.008 A 
ENDBRANCH  12  13
BRANCH  11  20
ATOM     20  N   UNL A   1      32.274  24.166  25.798  1.00  0.00    -0.316 N 
ATOM     21  C   UNL A   1      31.449  24.976  24.818  1.00  0.00     0.255 C 
ATOM     22  H   UNL A   1      32.024  24.127  26.749  1.00  0.00     0.170 HD
ATOM     23  O   UNL A   1      32.104  24.862  23.768  1.00  0.00    -0.269 OA
BRANCH  21  24
ATOM     24  C   UNL A   1      30.076  26.327  24.923  1.00  0.00     0.040 A 
ATOM     25  C   UNL A   1      28.648  26.914  23.567  1.00  0.00     0.014 A 
ATOM     26  C   UNL A   1      31.248  27.507  25.381  1.00  0.00     0.017 A 
ATOM     27  C   UNL A   1      28.823  28.646  22.973  1.00  0.00     0.001 A 
ATOM     28  C   UNL A   1      31.198  29.079  24.853  1.00  0.00    -0.050 A 
ATOM     29  C   UNL A   1      30.045  29.651  23.721  1.00  0.00     0.003 A 
ATOM     30  C   UNL A   1      32.155  29.894  25.698  1.00  0.00     0.044 C 
ENDBRANCH  21  24
ENDBRANCH  11  20
ENDBRANCH   9  11
ENDBRANCH   8   9
ENDBRANCH   7   8
ENDBRANCH   6   7
ENDBRANCH   5   6
ENDBRANCH   4   5
ENDBRANCH   3   4
ENDBRANCH   2   3
ENDBRANCH   1   2
BRANCH   1  31
ATOM     31  C   UNL A   1      41.177  26.063  27.924  1.00  0.00     0.188 C 
BRANCH  31  32
ATOM     32  O   UNL A   1      40.549  26.706  29.023  1.00  0.00    -0.376 OA
BRANCH  32  33
ATOM     33  C   UNL A   1      39.344  27.398  28.818  1.00  0.00     0.202 C 
BRANCH  33  34
ATOM     34  C   UNL A   1      38.648  27.768  30.128  1.00  0.00     0.261 C 
BRANCH  34  35
ATOM     35  O   UNL A   1      39.540  27.539  31.244  1.00  0.00    -0.460 OA
BRANCH  35  36
ATOM     36  C   UNL A   1      39.142  28.088  32.431  1.00  0.00     0.338 C 
ATOM     37  O   UNL A   1      38.033  27.926  32.917  1.00  0.00    -0.246 OA
BRANCH  36  38
ATOM     38  C   UNL A   1      40.162  29.073  32.916  1.00  0.00     0.060 A 
ATOM     39  C   UNL A   1      40.804  29.915  32.014  1.00  0.00     0.016 A 
ATOM     40  C   UNL A   1      40.793  28.835  34.118  1.00  0.00     0.016 A 
ATOM     41  C   UNL A   1      42.196  30.137  32.147  1.00  0.00     0.010 A 
ATOM     42  C   UNL A   1      42.180  28.980  34.153  1.00  0.00     0.010 A 
ATOM     43  C   UNL A   1      42.961  29.479  33.098  1.00  0.00    -0.014 A 
BRANCH  43  44
ATOM     44  C   UNL A   1      44.506  29.425  33.242  1.00  0.00     0.031 A 
ATOM     45  C   UNL A   1      44.844  27.876  32.241  1.00  0.00     0.074 A 
ATOM     46  C   UNL A   1      45.311  30.702  33.797  1.00  0.00     0.049 A 
ATOM     47  N   UNL A   1      45.957  27.317  31.775  1.00  0.00    -0.248 NA
ATOM     48  C   UNL A   1      43.755  26.963  31.743  1.00  0.00     0.031 C 
ATOM     49  C   UNL A   1      46.777  31.575  33.495  1.00  0.00     0.029 A 
ATOM     50  N   UNL A   1      46.019  30.650  35.052  1.00  0.00    -0.354 N 
ATOM     51  C   UNL A   1      45.757  26.375  30.751  1.00  0.00     0.074 A 
ATOM     52  C   UNL A   1      44.331  26.188  30.796  1.00  0.00     0.031 C 
ATOM     53  C   UNL A   1      47.976  31.285  34.213  1.00  0.00     0.029 A 
ATOM     54  C   UNL A   1      47.725  30.117  35.040  1.00  0.00     0.049 A 
ATOM     55  H   UNL A   1      45.575  30.902  35.893  1.00  0.00     0.167 HD
ATOM     56  C   UNL A   1      46.774  25.978  29.881  1.00  0.00     0.034 A 
ATOM     57  C   UNL A   1      47.974  28.447  35.599  1.00  0.00     0.034 A 
ATOM     58  C   UNL A   1      48.118  26.196  30.396  1.00  0.00     0.049 A 
ATOM     59  C   UNL A   1      49.326  27.769  35.197  1.00  0.00     0.074 A 
ATOM     60  C   UNL A   1      49.220  26.906  29.941  1.00  0.00     0.029 A 
ATOM     61  N   UNL A   1      48.567  25.456  31.463  1.00  0.00    -0.354 N 
ATOM     62  N   UNL A   1      49.699  27.540  33.965  1.00  0.00    -0.248 NA
ATOM     63  C   UNL A   1      50.250  27.132  36.165  1.00  0.00     0.031 C 
ATOM     64  C   UNL A   1      50.244  26.803  30.895  1.00  0.00     0.029 A 
ATOM     65  C   UNL A   1      49.818  25.892  31.834  1.00  0.00     0.049 A 
ATOM     66  H   UNL A   1      48.070  24.725  31.896  1.00  0.00     0.167 HD
ATOM     67  C   UNL A   1      50.461  26.372  34.026  1.00  0.00     0.074 A 
ATOM     68  C   UNL A   1      50.926  26.280  35.387  1.00  0.00     0.031 C 
ATOM     69  C   UNL A   1      50.402  25.415  33.050  1.00  0.00     0.034 A 
BRANCH  56  70
ATOM     70  C   UNL A   1      46.754  25.540  28.368  1.00  0.00     0.023 A 
ATOM     71  C   UNL A   1      47.182  26.483  27.364  1.00  0.00     0.031 A 
ATOM     72  C   UNL A   1      46.096  24.420  27.843  1.00  0.00     0.131 A 
ATOM     73  C   UNL A   1      46.831  26.385  25.997  1.00  0.00     0.055 A 
ATOM     74  C   UNL A   1      45.825  24.274  26.457  1.00  0.00     0.041 A 
ATOM     75  F   UNL A   1      45.642  23.445  28.642  1.00  0.00    -0.206 F 
ATOM     76  C   UNL A   1      46.159  25.269  25.535  1.00  0.00     0.022 A 
BRANCH  73  77
ATOM     77  S   UNL A   1      47.168  27.778  24.852  1.00  0.00     0.124 S 
ATOM     78  O   UNL A   1      48.373  28.377  25.417  1.00  0.00    -0.237 OA
ATOM     79  O   UNL A   1      47.323  27.111  23.565  1.00  0.00    -0.237 OA
ATOM     80  O   UNL A   1      45.968  28.610  24.963  1.00  0.00    -0.744 OA
ENDBRANCH  73  77
ENDBRANCH  56  70
BRANCH  57  81
ATOM     81  C   UNL A   1      46.037  27.616  36.269  1.00  0.00     0.023 A 
ATOM     82  C   UNL A   1      45.224  26.413  35.291  1.00  0.00     0.031 A 
ATOM     83  C   UNL A   1      45.211  27.282  37.451  1.00  0.00     0.131 A 
ATOM     84  C   UNL A   1      44.492  25.231  35.450  1.00  0.00     0.055 A 
ATOM     85  C   UNL A   1      44.176  26.174  37.565  1.00  0.00     0.041 A 
ATOM     86  F   UNL A   1      45.280  27.899  38.643  1.00  0.00    -0.206 F 
ATOM     87  C   UNL A   1      43.861  25.146  36.631  1.00  0.00     0.022 A 
BRANCH  84  88
ATOM     88  S   UNL A   1      44.853  23.807  34.256  1.00  0.00     0.124 S 
ATOM     89  O   UNL A   1      45.027  22.677  35.162  1.00  0.00    -0.237 OA
ATOM     90  O   UNL A   1      43.662  23.708  33.407  1.00  0.00    -0.237 OA
ATOM     91  O   UNL A   1      46.058  24.236  33.552  1.00  0.00    -0.744 OA
ENDBRANCH  84  88
ENDBRANCH  57  81
BRANCH  69  92
ATOM     92  C   UNL A   1      50.753  23.950  33.208  1.00  0.00     0.023 A 
ATOM     93  C   UNL A   1      49.848  23.019  33.734  1.00  0.00     0.031 A 
ATOM     94  C   UNL A   1      51.958  23.405  32.715  1.00  0.00     0.131 A 
ATOM     95  C   UNL A   1      50.164  21.663  33.872  1.00  0.00     0.055 A 
ATOM     96  C   UNL A   1      52.260  22.035  32.799  1.00  0.00     0.041 A 
ATOM     97  F   UNL A   1      52.878  24.178  32.119  1.00  0.00    -0.206 F 
ATOM     98  C   UNL A   1      51.371  21.156  33.411  1.00  0.00     0.022 A 
BRANCH  95  99
ATOM     99  S   UNL A   1      48.986  20.640  34.790  1.00  0.00     0.124 S 
ATOM    100  O   UNL A   1      49.859  19.961  35.746  1.00  0.00    -0.237 OA
ATOM    101  O   UNL A   1      48.087  21.639  35.362  1.00  0.00    -0.237 OA
ATOM    102  O   UNL A   1      48.404  19.780  33.764  1.00  0.00    -0.744 OA
ENDBRANCH  95  99
ENDBRANCH  69  92
ENDBRANCH  43  44
ENDBRANCH  36  38
ENDBRANCH  35  36
ENDBRANCH  34  35
ENDBRANCH  33  34
ENDBRANCH  32  33
ENDBRANCH  31  32
ENDBRANCH   1  31
TORSDOF 26
ENDMDL
