MODEL 1
REMARK VINA RESULT:      -7.1      0.000      0.000
REMARK SMILES O=C(OCCOCCOCCOCCOC(=O)c1ccc2nc(-c3cc(F)cc(Br)c3)[nH]c2c1)c1ccc(-c2c3nc(c(-c4cc(S(=O)(=O)[O-])ccc4F)c4ccc([nH]4)c(-c4cc(S(=O)(=O)[O-])ccc4F)c4nc(c(-c5cc(S(=O)(=O)[O-])ccc5F)c5ccc2[nH]5)C=C4)C=C3)cc1
REMARK SMILES IDX 8 1 7 2 6 3 5 4 4 5 3 6 2 7 1 8 35 9 36 10 97 11 37 12 96 13
REMARK SMILES IDX 38 14 39 15 40 16 90 17 41 18 95 19 89 20 91 21 42 22 94 23
REMARK SMILES IDX 88 24 87 25 43 27 75 28 55 29 74 30 56 31 59 32 73 33 92 34
REMARK SMILES IDX 57 35 58 36 72 38 93 39 60 40 44 41 45 42 53 43 46 44 52 45
REMARK SMILES IDX 54 46 51 47 47 48 48 49 49 50 50 51 76 52 77 53 85 54 78 55
REMARK SMILES IDX 84 56 86 57 83 58 79 59 80 60 81 61 82 62 61 63 62 64 70 65
REMARK SMILES IDX 63 66 69 67 71 68 68 69 64 70 65 71 66 72 67 73 9 74 10 75
REMARK SMILES IDX 11 76 12 77 13 78 14 79 15 80 16 81 17 82 18 83 19 84 34 85
REMARK SMILES IDX 20 86 33 87 21 88 32 89 22 90 23 91 24 93 25 94 31 95 26 96
REMARK SMILES IDX 29 97 27 98 28 99 30 100
REMARK H PARENT 91 26 59 37 32 92
REMARK Flexibility Score: inf
ROOT
ATOM      1  C   UNL A   1      40.643  32.180  45.757  1.00  0.00     0.188 C 
ENDROOT
BRANCH   1   2
ATOM      2  C   UNL A   1      41.183  32.963  46.953  1.00  0.00     0.188 C 
BRANCH   2   3
ATOM      3  O   UNL A   1      42.200  33.881  46.546  1.00  0.00    -0.376 OA
BRANCH   3   4
ATOM      4  C   UNL A   1      42.691  33.725  45.214  1.00  0.00     0.202 C 
BRANCH   4   5
ATOM      5  C   UNL A   1      42.825  35.023  44.416  1.00  0.00     0.261 C 
BRANCH   5   6
ATOM      6  O   UNL A   1      42.058  35.003  43.206  1.00  0.00    -0.460 OA
BRANCH   6   7
ATOM      7  C   UNL A   1      41.717  36.062  42.429  1.00  0.00     0.338 C 
ATOM      8  O   UNL A   1      41.119  36.997  42.963  1.00  0.00    -0.246 OA
BRANCH   7   9
ATOM      9  C   UNL A   1      42.007  36.166  40.963  1.00  0.00     0.060 A 
ATOM     10  C   UNL A   1      41.172  36.740  40.001  1.00  0.00     0.016 A 
ATOM     11  C   UNL A   1      43.264  35.702  40.538  1.00  0.00     0.016 A 
ATOM     12  C   UNL A   1      41.527  36.809  38.663  1.00  0.00     0.010 A 
ATOM     13  C   UNL A   1      43.641  35.774  39.194  1.00  0.00     0.010 A 
ATOM     14  C   UNL A   1      42.752  36.301  38.252  1.00  0.00    -0.014 A 
BRANCH  14  15
ATOM     15  C   UNL A   1      42.964  36.125  36.807  1.00  0.00     0.031 A 
ATOM     16  C   UNL A   1      43.541  37.286  36.060  1.00  0.00     0.074 A 
ATOM     17  C   UNL A   1      42.770  34.928  36.230  1.00  0.00     0.049 A 
ATOM     18  N   UNL A   1      43.704  37.455  34.779  1.00  0.00    -0.248 NA
ATOM     19  C   UNL A   1      44.001  38.415  36.886  1.00  0.00     0.031 C 
ATOM     20  C   UNL A   1      42.372  33.708  36.937  1.00  0.00     0.029 A 
ATOM     21  N   UNL A   1      42.891  34.537  34.926  1.00  0.00    -0.354 N 
ATOM     22  C   UNL A   1      44.243  38.731  34.640  1.00  0.00     0.074 A 
ATOM     23  C   UNL A   1      44.372  39.288  35.966  1.00  0.00     0.031 C 
ATOM     24  C   UNL A   1      42.265  32.707  36.049  1.00  0.00     0.029 A 
ATOM     25  C   UNL A   1      42.503  33.236  34.711  1.00  0.00     0.049 A 
ATOM     26  H   UNL A   1      43.222  35.129  34.212  1.00  0.00     0.167 HD
ATOM     27  C   UNL A   1      44.575  39.371  33.495  1.00  0.00     0.034 A 
ATOM     28  C   UNL A   1      42.297  32.583  33.550  1.00  0.00     0.034 A 
ATOM     29  C   UNL A   1      44.398  38.762  32.201  1.00  0.00     0.049 A 
ATOM     30  C   UNL A   1      42.552  33.347  32.275  1.00  0.00     0.074 A 
ATOM     31  C   UNL A   1      44.610  39.300  30.947  1.00  0.00     0.029 A 
ATOM     32  N   UNL A   1      43.943  37.458  32.007  1.00  0.00    -0.354 N 
ATOM     33  N   UNL A   1      42.972  34.587  32.128  1.00  0.00    -0.248 NA
ATOM     34  C   UNL A   1      42.299  32.644  31.014  1.00  0.00     0.031 C 
ATOM     35  C   UNL A   1      44.215  38.348  29.998  1.00  0.00     0.029 A 
ATOM     36  C   UNL A   1      43.836  37.184  30.656  1.00  0.00     0.049 A 
ATOM     37  H   UNL A   1      43.728  36.824  32.728  1.00  0.00     0.167 HD
ATOM     38  C   UNL A   1      43.049  34.807  30.758  1.00  0.00     0.074 A 
ATOM     39  C   UNL A   1      42.642  33.564  30.123  1.00  0.00     0.031 C 
ATOM     40  C   UNL A   1      43.421  35.923  30.078  1.00  0.00     0.034 A 
BRANCH  27  41
ATOM     41  C   UNL A   1      45.018  40.809  33.627  1.00  0.00     0.023 A 
ATOM     42  C   UNL A   1      44.098  41.873  33.680  1.00  0.00     0.031 A 
ATOM     43  C   UNL A   1      46.385  41.130  33.542  1.00  0.00     0.131 A 
ATOM     44  C   UNL A   1      44.546  43.195  33.520  1.00  0.00     0.055 A 
ATOM     45  C   UNL A   1      46.830  42.452  33.485  1.00  0.00     0.041 A 
ATOM     46  F   UNL A   1      47.311  40.162  33.456  1.00  0.00    -0.206 F 
ATOM     47  C   UNL A   1      45.908  43.493  33.448  1.00  0.00     0.022 A 
BRANCH  44  48
ATOM     48  S   UNL A   1      43.317  44.491  33.186  1.00  0.00     0.124 S 
ATOM     49  O   UNL A   1      43.915  45.646  33.855  1.00  0.00    -0.237 OA
ATOM     50  O   UNL A   1      43.296  44.539  31.729  1.00  0.00    -0.237 OA
ATOM     51  O   UNL A   1      42.100  43.981  33.814  1.00  0.00    -0.744 OA
ENDBRANCH  44  48
ENDBRANCH  27  41
BRANCH  28  52
ATOM     52  C   UNL A   1      41.730  31.203  33.555  1.00  0.00     0.023 A 
ATOM     53  C   UNL A   1      40.420  30.935  33.128  1.00  0.00     0.031 A 
ATOM     54  C   UNL A   1      42.510  30.114  33.994  1.00  0.00     0.131 A 
ATOM     55  C   UNL A   1      39.926  29.619  33.164  1.00  0.00     0.055 A 
ATOM     56  C   UNL A   1      42.031  28.802  33.982  1.00  0.00     0.041 A 
ATOM     57  F   UNL A   1      43.768  30.308  34.422  1.00  0.00    -0.206 F 
ATOM     58  C   UNL A   1      40.728  28.550  33.572  1.00  0.00     0.022 A 
BRANCH  55  59
ATOM     59  S   UNL A   1      38.190  29.322  32.726  1.00  0.00     0.124 S 
ATOM     60  O   UNL A   1      38.195  29.586  31.292  1.00  0.00    -0.237 OA
ATOM     61  O   UNL A   1      38.012  27.929  33.122  1.00  0.00    -0.237 OA
ATOM     62  O   UNL A   1      37.462  30.296  33.537  1.00  0.00    -0.744 OA
ENDBRANCH  55  59
ENDBRANCH  28  52
BRANCH  40  63
ATOM     63  C   UNL A   1      43.449  35.823  28.577  1.00  0.00     0.023 A 
ATOM     64  C   UNL A   1      44.449  35.105  27.903  1.00  0.00     0.031 A 
ATOM     65  C   UNL A   1      42.430  36.426  27.819  1.00  0.00     0.131 A 
ATOM     66  C   UNL A   1      44.428  35.037  26.504  1.00  0.00     0.055 A 
ATOM     67  C   UNL A   1      42.382  36.305  26.431  1.00  0.00     0.041 A 
ATOM     68  F   UNL A   1      41.452  37.123  28.420  1.00  0.00    -0.206 F 
ATOM     69  C   UNL A   1      43.389  35.613  25.766  1.00  0.00     0.022 A 
BRANCH  66  70
ATOM     70  S   UNL A   1      45.812  34.236  25.651  1.00  0.00     0.124 S 
ATOM     71  O   UNL A   1      45.784  32.894  26.224  1.00  0.00    -0.237 OA
ATOM     72  O   UNL A   1      45.421  34.340  24.249  1.00  0.00    -0.237 OA
ATOM     73  O   UNL A   1      46.966  35.050  26.034  1.00  0.00    -0.744 OA
ENDBRANCH  66  70
ENDBRANCH  40  63
ENDBRANCH  14  15
ENDBRANCH   7   9
ENDBRANCH   6   7
ENDBRANCH   5   6
ENDBRANCH   4   5
ENDBRANCH   3   4
ENDBRANCH   2   3
ENDBRANCH   1   2
BRANCH   1  74
ATOM     74  O   UNL A   1      39.222  32.036  45.724  1.00  0.00    -0.377 OA
BRANCH  74  75
ATOM     75  C   UNL A   1      38.548  32.680  44.645  1.00  0.00     0.188 C 
BRANCH  75  76
ATOM     76  C   UNL A   1      38.173  34.170  44.799  1.00  0.00     0.188 C 
BRANCH  76  77
ATOM     77  O   UNL A   1      37.495  34.694  43.671  1.00  0.00    -0.376 OA
BRANCH  77  78
ATOM     78  C   UNL A   1      38.205  34.682  42.442  1.00  0.00     0.202 C 
BRANCH  78  79
ATOM     79  C   UNL A   1      37.617  33.884  41.263  1.00  0.00     0.261 C 
BRANCH  79  80
ATOM     80  O   UNL A   1      38.459  33.698  40.110  1.00  0.00    -0.460 OA
BRANCH  80  81
ATOM     81  C   UNL A   1      38.153  32.743  39.204  1.00  0.00     0.338 C 
ATOM     82  O   UNL A   1      37.568  31.694  39.403  1.00  0.00    -0.246 OA
BRANCH  81  83
ATOM     83  C   UNL A   1      38.468  33.308  37.864  1.00  0.00     0.062 A 
ATOM     84  C   UNL A   1      39.031  34.587  37.763  1.00  0.00     0.018 A 
ATOM     85  C   UNL A   1      38.030  32.608  36.719  1.00  0.00     0.044 A 
ATOM     86  C   UNL A   1      39.165  35.211  36.514  1.00  0.00     0.031 A 
ATOM     87  C   UNL A   1      38.120  33.287  35.496  1.00  0.00     0.067 A 
ATOM     88  C   UNL A   1      38.688  34.551  35.371  1.00  0.00     0.089 A 
ATOM     89  N   UNL A   1      37.709  32.981  34.220  1.00  0.00    -0.338 N 
ATOM     90  N   UNL A   1      38.690  34.960  34.063  1.00  0.00    -0.229 NA
ATOM     91  C   UNL A   1      38.124  33.988  33.377  1.00  0.00     0.138 A 
ATOM     92  H   UNL A   1      37.203  32.178  33.955  1.00  0.00     0.168 HD
BRANCH  91  93
ATOM     93  C   UNL A   1      38.060  33.909  31.925  1.00  0.00     0.021 A 
ATOM     94  C   UNL A   1      38.994  34.550  31.107  1.00  0.00     0.051 A 
ATOM     95  C   UNL A   1      37.067  33.109  31.340  1.00  0.00     0.027 A 
ATOM     96  C   UNL A   1      38.921  34.383  29.724  1.00  0.00     0.125 A 
ATOM     97  C   UNL A   1      37.009  32.960  29.955  1.00  0.00     0.021 A 
ATOM     98  F   UNL A   1      39.826  34.984  28.940  1.00  0.00    -0.207 F 
ATOM     99  C   UNL A   1      37.936  33.596  29.137  1.00  0.00     0.055 A 
ATOM    100  Br  UNL A   1      35.666  31.872  29.189  1.00  0.00    -0.051 Br
ENDBRANCH  91  93
ENDBRANCH  81  83
ENDBRANCH  80  81
ENDBRANCH  79  80
ENDBRANCH  78  79
ENDBRANCH  77  78
ENDBRANCH  76  77
ENDBRANCH  75  76
ENDBRANCH  74  75
ENDBRANCH   1  74
TORSDOF 24
ENDMDL
MODEL 2
REMARK VINA RESULT:      -6.9      6.384     11.904
REMARK SMILES O=C(OCCOCCOCCOCCOC(=O)c1ccc2nc(-c3cc(F)cc(Br)c3)[nH]c2c1)c1ccc(-c2c3nc(c(-c4cc(S(=O)(=O)[O-])ccc4F)c4ccc([nH]4)c(-c4cc(S(=O)(=O)[O-])ccc4F)c4nc(c(-c5cc(S(=O)(=O)[O-])ccc5F)c5ccc2[nH]5)C=C4)C=C3)cc1
REMARK SMILES IDX 8 1 7 2 6 3 5 4 4 5 3 6 2 7 1 8 35 9 36 10 97 11 37 12 96 13
REMARK SMILES IDX 38 14 39 15 40 16 90 17 41 18 95 19 89 20 91 21 42 22 94 23
REMARK SMILES IDX 88 24 87 25 43 27 75 28 55 29 74 30 56 31 59 32 73 33 92 34
REMARK SMILES IDX 57 35 58 36 72 38 93 39 60 40 44 41 45 42 53 43 46 44 52 45
REMARK SMILES IDX 54 46 51 47 47 48 48 49 49 50 50 51 76 52 77 53 85 54 78 55
REMARK SMILES IDX 84 56 86 57 83 58 79 59 80 60 81 61 82 62 61 63 62 64 70 65
REMARK SMILES IDX 63 66 69 67 71 68 68 69 64 70 65 71 66 72 67 73 9 74 10 75
REMARK SMILES IDX 11 76 12 77 13 78 14 79 15 80 16 81 17 82 18 83 19 84 34 85
REMARK SMILES IDX 20 86 33 87 21 88 32 89 22 90 23 91 24 93 25 94 31 95 26 96
REMARK SMILES IDX 29 97 27 98 28 99 30 100
REMARK H PARENT 91 26 59 37 32 92
REMARK Flexibility Score: inf
ROOT
ATOM      1  C   UNL A   1      36.297  34.188  29.297  1.00  0.00     0.188 C 
ENDROOT
BRANCH   1   2
ATOM      2  C   UNL A   1      35.056  33.390  29.696  1.00  0.00     0.188 C 
BRANCH   2   3
ATOM      3  O   UNL A   1      33.862  34.072  29.307  1.00  0.00    -0.376 OA
BRANCH   3   4
ATOM      4  C   UNL A   1      33.354  33.757  28.009  1.00  0.00     0.202 C 
BRANCH   4   5
ATOM      5  C   UNL A   1      33.124  32.268  27.747  1.00  0.00     0.261 C 
BRANCH   5   6
ATOM      6  O   UNL A   1      34.306  31.607  27.277  1.00  0.00    -0.460 OA
BRANCH   6   7
ATOM      7  C   UNL A   1      34.712  30.345  27.564  1.00  0.00     0.338 C 
ATOM      8  O   UNL A   1      33.921  29.424  27.355  1.00  0.00    -0.246 OA
BRANCH   7   9
ATOM      9  C   UNL A   1      36.054  29.995  28.133  1.00  0.00     0.060 A 
ATOM     10  C   UNL A   1      37.289  30.238  27.529  1.00  0.00     0.016 A 
ATOM     11  C   UNL A   1      36.061  29.436  29.423  1.00  0.00     0.016 A 
ATOM     12  C   UNL A   1      38.488  29.896  28.136  1.00  0.00     0.010 A 
ATOM     13  C   UNL A   1      37.261  29.094  30.053  1.00  0.00     0.010 A 
ATOM     14  C   UNL A   1      38.475  29.298  29.388  1.00  0.00    -0.014 A 
BRANCH  14  15
ATOM     15  C   UNL A   1      39.726  28.688  29.863  1.00  0.00     0.031 A 
ATOM     16  C   UNL A   1      40.323  29.253  31.113  1.00  0.00     0.074 A 
ATOM     17  C   UNL A   1      40.220  27.592  29.266  1.00  0.00     0.049 A 
ATOM     18  N   UNL A   1      41.472  29.005  31.675  1.00  0.00    -0.248 NA
ATOM     19  C   UNL A   1      39.497  30.238  31.831  1.00  0.00     0.031 C 
ATOM     20  C   UNL A   1      39.592  26.888  28.146  1.00  0.00     0.029 A 
ATOM     21  N   UNL A   1      41.354  26.872  29.523  1.00  0.00    -0.354 N 
ATOM     22  C   UNL A   1      41.529  29.839  32.787  1.00  0.00     0.074 A 
ATOM     23  C   UNL A   1      40.301  30.599  32.815  1.00  0.00     0.031 C 
ATOM     24  C   UNL A   1      40.363  25.845  27.800  1.00  0.00     0.029 A 
ATOM     25  C   UNL A   1      41.571  25.861  28.617  1.00  0.00     0.049 A 
ATOM     26  H   UNL A   1      41.955  27.060  30.279  1.00  0.00     0.167 HD
ATOM     27  C   UNL A   1      42.534  29.959  33.685  1.00  0.00     0.034 A 
ATOM     28  C   UNL A   1      42.663  25.093  28.434  1.00  0.00     0.034 A 
ATOM     29  C   UNL A   1      43.744  29.182  33.583  1.00  0.00     0.049 A 
ATOM     30  C   UNL A   1      43.829  25.321  29.363  1.00  0.00     0.074 A 
ATOM     31  C   UNL A   1      44.884  29.238  34.360  1.00  0.00     0.029 A 
ATOM     32  N   UNL A   1      43.965  28.204  32.615  1.00  0.00    -0.354 N 
ATOM     33  N   UNL A   1      43.932  26.173  30.362  1.00  0.00    -0.248 NA
ATOM     34  C   UNL A   1      45.026  24.503  29.144  1.00  0.00     0.031 C 
ATOM     35  C   UNL A   1      45.819  28.347  33.816  1.00  0.00     0.029 A 
ATOM     36  C   UNL A   1      45.233  27.672  32.753  1.00  0.00     0.049 A 
ATOM     37  H   UNL A   1      43.312  27.931  31.931  1.00  0.00     0.167 HD
ATOM     38  C   UNL A   1      45.198  25.984  30.901  1.00  0.00     0.074 A 
ATOM     39  C   UNL A   1      45.818  24.926  30.121  1.00  0.00     0.031 C 
ATOM     40  C   UNL A   1      45.802  26.615  31.941  1.00  0.00     0.034 A 
BRANCH  27  41
ATOM     41  C   UNL A   1      42.387  31.044  34.726  1.00  0.00     0.023 A 
ATOM     42  C   UNL A   1      42.838  32.359  34.504  1.00  0.00     0.031 A 
ATOM     43  C   UNL A   1      41.932  30.717  36.016  1.00  0.00     0.131 A 
ATOM     44  C   UNL A   1      42.939  33.255  35.582  1.00  0.00     0.055 A 
ATOM     45  C   UNL A   1      41.942  31.645  37.059  1.00  0.00     0.041 A 
ATOM     46  F   UNL A   1      41.520  29.472  36.301  1.00  0.00    -0.206 F 
ATOM     47  C   UNL A   1      42.471  32.915  36.852  1.00  0.00     0.022 A 
BRANCH  44  48
ATOM     48  S   UNL A   1      43.892  34.785  35.348  1.00  0.00     0.124 S 
ATOM     49  O   UNL A   1      42.976  35.584  34.537  1.00  0.00    -0.237 OA
ATOM     50  O   UNL A   1      44.096  35.242  36.717  1.00  0.00    -0.237 OA
ATOM     51  O   UNL A   1      45.096  34.336  34.651  1.00  0.00    -0.744 OA
ENDBRANCH  44  48
ENDBRANCH  27  41
BRANCH  28  52
ATOM     52  C   UNL A   1      42.732  24.147  27.282  1.00  0.00     0.023 A 
ATOM     53  C   UNL A   1      42.154  22.869  27.333  1.00  0.00     0.031 A 
ATOM     54  C   UNL A   1      43.390  24.520  26.092  1.00  0.00     0.131 A 
ATOM     55  C   UNL A   1      42.257  22.008  26.225  1.00  0.00     0.055 A 
ATOM     56  C   UNL A   1      43.447  23.680  24.978  1.00  0.00     0.041 A 
ATOM     57  F   UNL A   1      43.969  25.727  25.986  1.00  0.00    -0.206 F 
ATOM     58  C   UNL A   1      42.885  22.412  25.044  1.00  0.00     0.022 A 
BRANCH  55  59
ATOM     59  S   UNL A   1      41.610  20.319  26.366  1.00  0.00     0.124 S 
ATOM     60  O   UNL A   1      40.185  20.525  26.139  1.00  0.00    -0.237 OA
ATOM     61  O   UNL A   1      42.336  19.627  25.305  1.00  0.00    -0.237 OA
ATOM     62  O   UNL A   1      41.975  19.926  27.725  1.00  0.00    -0.744 OA
ENDBRANCH  55  59
ENDBRANCH  28  52
BRANCH  40  63
ATOM     63  C   UNL A   1      47.179  26.138  32.317  1.00  0.00     0.023 A 
ATOM     64  C   UNL A   1      47.378  25.167  33.310  1.00  0.00     0.031 A 
ATOM     65  C   UNL A   1      48.301  26.639  31.634  1.00  0.00     0.131 A 
ATOM     66  C   UNL A   1      48.679  24.750  33.620  1.00  0.00     0.055 A 
ATOM     67  C   UNL A   1      49.587  26.177  31.906  1.00  0.00     0.041 A 
ATOM     68  F   UNL A   1      48.159  27.569  30.676  1.00  0.00    -0.206 F 
ATOM     69  C   UNL A   1      49.782  25.233  32.909  1.00  0.00     0.022 A 
BRANCH  66  70
ATOM     70  S   UNL A   1      48.921  23.612  35.009  1.00  0.00     0.124 S 
ATOM     71  O   UNL A   1      48.768  24.501  36.157  1.00  0.00    -0.237 OA
ATOM     72  O   UNL A   1      47.852  22.639  34.809  1.00  0.00    -0.237 OA
ATOM     73  O   UNL A   1      50.273  23.098  34.799  1.00  0.00    -0.744 OA
ENDBRANCH  66  70
ENDBRANCH  40  63
ENDBRANCH  14  15
ENDBRANCH   7   9
ENDBRANCH   6   7
ENDBRANCH   5   6
ENDBRANCH   4   5
ENDBRANCH   3   4
ENDBRANCH   2   3
ENDBRANCH   1   2
BRANCH   1  74
ATOM     74  O   UNL A   1      37.542  33.553  29.590  1.00  0.00    -0.377 OA
BRANCH  74  75
ATOM     75  C   UNL A   1      37.575  32.739  30.760  1.00  0.00     0.188 C 
BRANCH  75  76
ATOM     76  C   UNL A   1      37.291  33.403  32.125  1.00  0.00     0.188 C 
BRANCH  76  77
ATOM     77  O   UNL A   1      38.347  34.233  32.573  1.00  0.00    -0.376 OA
BRANCH  77  78
ATOM     78  C   UNL A   1      39.169  33.711  33.606  1.00  0.00     0.202 C 
BRANCH  78  79
ATOM     79  C   UNL A   1      39.563  34.641  34.770  1.00  0.00     0.261 C 
BRANCH  79  80
ATOM     80  O   UNL A   1      38.541  34.953  35.735  1.00  0.00    -0.460 OA
BRANCH  80  81
ATOM     81  C   UNL A   1      37.768  33.964  36.235  1.00  0.00     0.338 C 
ATOM     82  O   UNL A   1      37.065  33.188  35.614  1.00  0.00    -0.246 OA
BRANCH  81  83
ATOM     83  C   UNL A   1      38.101  33.849  37.681  1.00  0.00     0.062 A 
ATOM     84  C   UNL A   1      38.936  34.802  38.280  1.00  0.00     0.018 A 
ATOM     85  C   UNL A   1      37.707  32.683  38.372  1.00  0.00     0.044 A 
ATOM     86  C   UNL A   1      39.410  34.614  39.586  1.00  0.00     0.031 A 
ATOM     87  C   UNL A   1      38.251  32.497  39.650  1.00  0.00     0.067 A 
ATOM     88  C   UNL A   1      39.070  33.436  40.269  1.00  0.00     0.089 A 
ATOM     89  N   UNL A   1      38.186  31.465  40.557  1.00  0.00    -0.338 N 
ATOM     90  N   UNL A   1      39.423  33.025  41.528  1.00  0.00    -0.229 NA
ATOM     91  C   UNL A   1      38.856  31.848  41.698  1.00  0.00     0.138 A 
ATOM     92  H   UNL A   1      37.737  30.600  40.414  1.00  0.00     0.168 HD
BRANCH  91  93
ATOM     93  C   UNL A   1      38.816  31.105  42.949  1.00  0.00     0.021 A 
ATOM     94  C   UNL A   1      37.627  30.578  43.460  1.00  0.00     0.051 A 
ATOM     95  C   UNL A   1      40.022  30.860  43.621  1.00  0.00     0.027 A 
ATOM     96  C   UNL A   1      37.661  29.820  44.630  1.00  0.00     0.125 A 
ATOM     97  C   UNL A   1      40.034  30.102  44.793  1.00  0.00     0.021 A 
ATOM     98  F   UNL A   1      36.524  29.300  45.111  1.00  0.00    -0.207 F 
ATOM     99  C   UNL A   1      38.853  29.576  45.304  1.00  0.00     0.055 A 
ATOM    100  Br  UNL A   1      41.672  29.778  45.678  1.00  0.00    -0.051 Br
ENDBRANCH  91  93
ENDBRANCH  81  83
ENDBRANCH  80  81
ENDBRANCH  79  80
ENDBRANCH  78  79
ENDBRANCH  77  78
ENDBRANCH  76  77
ENDBRANCH  75  76
ENDBRANCH  74  75
ENDBRANCH   1  74
TORSDOF 24
ENDMDL
MODEL 3
REMARK VINA RESULT:      -6.6      3.872     10.175
REMARK SMILES O=C(OCCOCCOCCOCCOC(=O)c1ccc2nc(-c3cc(F)cc(Br)c3)[nH]c2c1)c1ccc(-c2c3nc(c(-c4cc(S(=O)(=O)[O-])ccc4F)c4ccc([nH]4)c(-c4cc(S(=O)(=O)[O-])ccc4F)c4nc(c(-c5cc(S(=O)(=O)[O-])ccc5F)c5ccc2[nH]5)C=C4)C=C3)cc1
REMARK SMILES IDX 8 1 7 2 6 3 5 4 4 5 3 6 2 7 1 8 35 9 36 10 97 11 37 12 96 13
REMARK SMILES IDX 38 14 39 15 40 16 90 17 41 18 95 19 89 20 91 21 42 22 94 23
REMARK SMILES IDX 88 24 87 25 43 27 75 28 55 29 74 30 56 31 59 32 73 33 92 34
REMARK SMILES IDX 57 35 58 36 72 38 93 39 60 40 44 41 45 42 53 43 46 44 52 45
REMARK SMILES IDX 54 46 51 47 47 48 48 49 49 50 50 51 76 52 77 53 85 54 78 55
REMARK SMILES IDX 84 56 86 57 83 58 79 59 80 60 81 61 82 62 61 63 62 64 70 65
REMARK SMILES IDX 63 66 69 67 71 68 68 69 64 70 65 71 66 72 67 73 9 74 10 75
REMARK SMILES IDX 11 76 12 77 13 78 14 79 15 80 16 81 17 82 18 83 19 84 34 85
REMARK SMILES IDX 20 86 33 87 21 88 32 89 22 90 23 91 24 93 25 94 31 95 26 96
REMARK SMILES IDX 29 97 27 98 28 99 30 100
REMARK H PARENT 91 26 59 37 32 92
REMARK Flexibility Score: inf
ROOT
ATOM      1  C   UNL A   1      52.209  44.881  36.342  1.00  0.00     0.188 C 
ENDROOT
BRANCH   1   2
ATOM      2  C   UNL A   1      51.356  44.256  35.238  1.00  0.00     0.188 C 
BRANCH   2   3
ATOM      3  O   UNL A   1      51.998  43.105  34.685  1.00  0.00    -0.376 OA
BRANCH   3   4
ATOM      4  C   UNL A   1      51.197  42.291  33.827  1.00  0.00     0.202 C 
BRANCH   4   5
ATOM      5  C   UNL A   1      51.599  40.816  33.773  1.00  0.00     0.261 C 
BRANCH   5   6
ATOM      6  O   UNL A   1      50.933  40.031  34.769  1.00  0.00    -0.460 OA
BRANCH   6   7
ATOM      7  C   UNL A   1      50.623  38.712  34.706  1.00  0.00     0.338 C 
ATOM      8  O   UNL A   1      51.552  37.904  34.668  1.00  0.00    -0.246 OA
BRANCH   7   9
ATOM      9  C   UNL A   1      49.227  38.170  34.666  1.00  0.00     0.060 A 
ATOM     10  C   UNL A   1      48.868  36.821  34.735  1.00  0.00     0.016 A 
ATOM     11  C   UNL A   1      48.188  39.116  34.624  1.00  0.00     0.016 A 
ATOM     12  C   UNL A   1      47.545  36.408  34.707  1.00  0.00     0.010 A 
ATOM     13  C   UNL A   1      46.849  38.715  34.605  1.00  0.00     0.010 A 
ATOM     14  C   UNL A   1      46.533  37.353  34.615  1.00  0.00    -0.014 A 
BRANCH  14  15
ATOM     15  C   UNL A   1      45.181  36.872  34.293  1.00  0.00     0.031 A 
ATOM     16  C   UNL A   1      44.205  36.789  35.423  1.00  0.00     0.074 A 
ATOM     17  C   UNL A   1      44.821  36.652  33.018  1.00  0.00     0.049 A 
ATOM     18  N   UNL A   1      43.006  36.280  35.454  1.00  0.00    -0.248 NA
ATOM     19  C   UNL A   1      44.651  37.370  36.701  1.00  0.00     0.031 C 
ATOM     20  C   UNL A   1      45.676  36.880  31.851  1.00  0.00     0.029 A 
ATOM     21  N   UNL A   1      43.643  36.201  32.491  1.00  0.00    -0.354 N 
ATOM     22  C   UNL A   1      42.571  36.436  36.767  1.00  0.00     0.074 A 
ATOM     23  C   UNL A   1      43.638  37.081  37.497  1.00  0.00     0.031 C 
ATOM     24  C   UNL A   1      44.996  36.548  30.742  1.00  0.00     0.029 A 
ATOM     25  C   UNL A   1      43.697  36.008  31.130  1.00  0.00     0.049 A 
ATOM     26  H   UNL A   1      42.838  36.029  33.031  1.00  0.00     0.167 HD
ATOM     27  C   UNL A   1      41.389  36.049  37.301  1.00  0.00     0.034 A 
ATOM     28  C   UNL A   1      42.816  35.395  30.315  1.00  0.00     0.034 A 
ATOM     29  C   UNL A   1      40.378  35.389  36.517  1.00  0.00     0.049 A 
ATOM     30  C   UNL A   1      41.555  34.856  30.944  1.00  0.00     0.074 A 
ATOM     31  C   UNL A   1      39.164  34.866  36.920  1.00  0.00     0.029 A 
ATOM     32  N   UNL A   1      40.483  35.149  35.147  1.00  0.00    -0.354 N 
ATOM     33  N   UNL A   1      41.174  34.913  32.203  1.00  0.00    -0.248 NA
ATOM     34  C   UNL A   1      40.613  34.165  30.060  1.00  0.00     0.031 C 
ATOM     35  C   UNL A   1      38.572  34.249  35.810  1.00  0.00     0.029 A 
ATOM     36  C   UNL A   1      39.374  34.459  34.695  1.00  0.00     0.049 A 
ATOM     37  H   UNL A   1      41.238  35.431  34.583  1.00  0.00     0.167 HD
ATOM     38  C   UNL A   1      39.939  34.279  32.260  1.00  0.00     0.074 A 
ATOM     39  C   UNL A   1      39.636  33.857  30.903  1.00  0.00     0.031 C 
ATOM     40  C   UNL A   1      39.124  34.061  33.325  1.00  0.00     0.034 A 
BRANCH  27  41
ATOM     41  C   UNL A   1      41.232  36.223  38.794  1.00  0.00     0.023 A 
ATOM     42  C   UNL A   1      40.813  37.439  39.365  1.00  0.00     0.031 A 
ATOM     43  C   UNL A   1      41.660  35.204  39.665  1.00  0.00     0.131 A 
ATOM     44  C   UNL A   1      40.948  37.647  40.748  1.00  0.00     0.055 A 
ATOM     45  C   UNL A   1      41.696  35.384  41.049  1.00  0.00     0.041 A 
ATOM     46  F   UNL A   1      42.102  34.033  39.181  1.00  0.00    -0.206 F 
ATOM     47  C   UNL A   1      41.364  36.619  41.596  1.00  0.00     0.022 A 
BRANCH  44  48
ATOM     48  S   UNL A   1      40.787  39.340  41.389  1.00  0.00     0.124 S 
ATOM     49  O   UNL A   1      41.186  40.135  40.229  1.00  0.00    -0.237 OA
ATOM     50  O   UNL A   1      39.377  39.407  41.754  1.00  0.00    -0.237 OA
ATOM     51  O   UNL A   1      41.726  39.374  42.509  1.00  0.00    -0.744 OA
ENDBRANCH  44  48
ENDBRANCH  27  41
BRANCH  28  52
ATOM     52  C   UNL A   1      43.153  35.170  28.879  1.00  0.00     0.023 A 
ATOM     53  C   UNL A   1      43.980  34.114  28.465  1.00  0.00     0.031 A 
ATOM     54  C   UNL A   1      42.637  36.026  27.884  1.00  0.00     0.131 A 
ATOM     55  C   UNL A   1      44.278  33.952  27.100  1.00  0.00     0.055 A 
ATOM     56  C   UNL A   1      42.897  35.830  26.526  1.00  0.00     0.041 A 
ATOM     57  F   UNL A   1      41.846  37.058  28.219  1.00  0.00    -0.206 F 
ATOM     58  C   UNL A   1      43.729  34.792  26.128  1.00  0.00     0.022 A 
BRANCH  55  59
ATOM     59  S   UNL A   1      45.450  32.657  26.608  1.00  0.00     0.124 S 
ATOM     60  O   UNL A   1      44.553  31.586  26.188  1.00  0.00    -0.237 OA
ATOM     61  O   UNL A   1      46.203  33.316  25.547  1.00  0.00    -0.237 OA
ATOM     62  O   UNL A   1      46.203  32.394  27.833  1.00  0.00    -0.744 OA
ENDBRANCH  55  59
ENDBRANCH  28  52
BRANCH  40  63
ATOM     63  C   UNL A   1      37.811  33.381  33.045  1.00  0.00     0.023 A 
ATOM     64  C   UNL A   1      36.656  34.110  32.725  1.00  0.00     0.031 A 
ATOM     65  C   UNL A   1      37.736  31.977  33.060  1.00  0.00     0.131 A 
ATOM     66  C   UNL A   1      35.458  33.430  32.466  1.00  0.00     0.055 A 
ATOM     67  C   UNL A   1      36.557  31.305  32.744  1.00  0.00     0.041 A 
ATOM     68  F   UNL A   1      38.816  31.238  33.361  1.00  0.00    -0.206 F 
ATOM     69  C   UNL A   1      35.407  32.033  32.452  1.00  0.00     0.022 A 
BRANCH  66  70
ATOM     70  S   UNL A   1      33.947  34.396  32.208  1.00  0.00     0.124 S 
ATOM     71  O   UNL A   1      33.011  33.741  33.116  1.00  0.00    -0.237 OA
ATOM     72  O   UNL A   1      34.366  35.742  32.587  1.00  0.00    -0.237 OA
ATOM     73  O   UNL A   1      33.663  34.214  30.786  1.00  0.00    -0.744 OA
ENDBRANCH  66  70
ENDBRANCH  40  63
ENDBRANCH  14  15
ENDBRANCH   7   9
ENDBRANCH   6   7
ENDBRANCH   5   6
ENDBRANCH   4   5
ENDBRANCH   3   4
ENDBRANCH   2   3
ENDBRANCH   1   2
BRANCH   1  74
ATOM     74  O   UNL A   1      51.604  44.896  37.635  1.00  0.00    -0.377 OA
BRANCH  74  75
ATOM     75  C   UNL A   1      50.425  45.687  37.770  1.00  0.00     0.188 C 
BRANCH  75  76
ATOM     76  C   UNL A   1      49.130  44.997  38.254  1.00  0.00     0.188 C 
BRANCH  76  77
ATOM     77  O   UNL A   1      48.008  45.280  37.437  1.00  0.00    -0.376 OA
BRANCH  77  78
ATOM     78  C   UNL A   1      47.497  44.203  36.667  1.00  0.00     0.202 C 
BRANCH  78  79
ATOM     79  C   UNL A   1      46.415  43.301  37.293  1.00  0.00     0.261 C 
BRANCH  79  80
ATOM     80  O   UNL A   1      45.202  43.112  36.542  1.00  0.00    -0.460 OA
BRANCH  80  81
ATOM     81  C   UNL A   1      44.783  41.860  36.252  1.00  0.00     0.338 C 
ATOM     82  O   UNL A   1      44.770  40.894  36.992  1.00  0.00    -0.246 OA
BRANCH  81  83
ATOM     83  C   UNL A   1      44.127  41.928  34.918  1.00  0.00     0.062 A 
ATOM     84  C   UNL A   1      42.906  42.601  34.776  1.00  0.00     0.018 A 
ATOM     85  C   UNL A   1      44.667  41.160  33.863  1.00  0.00     0.044 A 
ATOM     86  C   UNL A   1      42.182  42.521  33.578  1.00  0.00     0.031 A 
ATOM     87  C   UNL A   1      43.886  41.050  32.704  1.00  0.00     0.067 A 
ATOM     88  C   UNL A   1      42.679  41.722  32.537  1.00  0.00     0.089 A 
ATOM     89  N   UNL A   1      44.026  40.326  31.544  1.00  0.00    -0.338 N 
ATOM     90  N   UNL A   1      42.149  41.475  31.297  1.00  0.00    -0.229 NA
ATOM     91  C   UNL A   1      42.989  40.656  30.699  1.00  0.00     0.138 A 
ATOM     92  H   UNL A   1      44.745  39.681  31.350  1.00  0.00     0.168 HD
BRANCH  91  93
ATOM     93  C   UNL A   1      42.923  40.254  29.301  1.00  0.00     0.021 A 
ATOM     94  C   UNL A   1      41.778  40.459  28.526  1.00  0.00     0.051 A 
ATOM     95  C   UNL A   1      44.068  39.707  28.706  1.00  0.00     0.027 A 
ATOM     96  C   UNL A   1      41.795  40.113  27.175  1.00  0.00     0.125 A 
ATOM     97  C   UNL A   1      44.062  39.364  27.353  1.00  0.00     0.021 A 
ATOM     98  F   UNL A   1      40.704  40.325  26.428  1.00  0.00    -0.207 F 
ATOM     99  C   UNL A   1      42.926  39.566  26.579  1.00  0.00     0.055 A 
ATOM    100  Br  UNL A   1      45.620  38.634  26.570  1.00  0.00    -0.051 Br
ENDBRANCH  91  93
ENDBRANCH  81  83
ENDBRANCH  80  81
ENDBRANCH  79  80
ENDBRANCH  78  79
ENDBRANCH  77  78
ENDBRANCH  76  77
ENDBRANCH  75  76
ENDBRANCH  74  75
ENDBRANCH   1  74
TORSDOF 24
ENDMDL
