MODEL 1
REMARK VINA RESULT:      -9.4      0.000      0.000
REMARK SMILES CS(=O)(=O)Nc1ccc(-c2cc(Cl)cc3c2O[C@@H](C(F)(F)F)C(C(=O)OCCOCCOCCOCCOC(=O)c2ccc(-c4c5nc(c(-c6cc(S(=O)(=O)[O-])ccc6F)c6ccc([nH]6)c(-c6cc(S(=O)(=O)[O-])ccc6F)c6nc(c(-c7cc(S(=O)(=O)[O-])ccc7F)c7ccc4[nH]7)C=C6)C=C5)cc2)=C3)cc1
REMARK SMILES IDX 32 1 31 2 30 3 29 4 28 5 27 6 26 7 24 8 25 9 23 10 10 11
REMARK SMILES IDX 11 12 16 13 12 14 15 15 17 16 13 17 14 18 104 19 18 20 9 21
REMARK SMILES IDX 6 22 7 23 106 24 8 25 105 26 5 27 2 29 1 30 3 31 4 32 19 33
REMARK SMILES IDX 20 34 21 35 22 36 33 37 34 38 35 39 36 40 37 41 38 42 39 43
REMARK SMILES IDX 40 44 41 45 42 46 103 47 43 48 102 49 44 50 45 51 46 52
REMARK SMILES IDX 96 53 47 54 101 55 95 56 97 57 48 58 100 59 94 60 93 61
REMARK SMILES IDX 49 63 81 64 61 65 80 66 62 67 65 68 79 69 98 70 63 71 64 72
REMARK SMILES IDX 78 74 99 75 66 76 50 77 51 78 59 79 52 80 58 81 60 82 57 83
REMARK SMILES IDX 53 84 54 85 55 86 56 87 82 88 83 89 91 90 84 91 90 92 92 93
REMARK SMILES IDX 89 94 85 95 86 96 87 97 88 98 67 99 68 100 76 101 69 102
REMARK SMILES IDX 75 103 77 104 74 105 70 106 71 107 72 108 73 109
REMARK H PARENT 5 28 97 62 65 73
REMARK Flexibility Score: inf
ROOT
ATOM      1  O   UNL A   1      33.644  33.732  30.303  1.00  0.00    -0.377 OA
ENDROOT
BRANCH   1   2
ATOM      2  C   UNL A   1      33.933  34.464  29.127  1.00  0.00     0.188 C 
BRANCH   2   3
ATOM      3  C   UNL A   1      33.548  33.696  27.856  1.00  0.00     0.188 C 
BRANCH   3   4
ATOM      4  O   UNL A   1      32.150  33.489  27.698  1.00  0.00    -0.376 OA
BRANCH   4   5
ATOM      5  C   UNL A   1      31.696  32.694  26.603  1.00  0.00     0.202 C 
BRANCH   5   6
ATOM      6  C   UNL A   1      31.472  31.188  26.812  1.00  0.00     0.261 C 
BRANCH   6   7
ATOM      7  O   UNL A   1      31.265  30.520  25.548  1.00  0.00    -0.460 OA
BRANCH   7   8
ATOM      8  C   UNL A   1      32.220  29.651  25.179  1.00  0.00     0.338 C 
ATOM      9  O   UNL A   1      32.964  29.796  24.217  1.00  0.00    -0.246 OA
BRANCH   8  10
ATOM     10  C   UNL A   1      32.419  28.564  26.171  1.00  0.00     0.087 C 
ATOM     11  C   UNL A   1      34.176  25.123  24.665  1.00  0.00     0.026 A 
ATOM     12  C   UNL A   1      33.866  25.096  23.283  1.00  0.00     0.033 A 
ATOM     13  C   UNL A   1      33.574  26.165  25.398  1.00  0.00     0.135 A 
ATOM     14  C   UNL A   1      32.774  25.799  22.775  1.00  0.00     0.042 A 
ATOM     15  C   UNL A   1      32.347  26.684  24.951  1.00  0.00     0.019 A 
ATOM     16  O   UNL A   1      34.296  26.869  26.358  1.00  0.00    -0.475 OA
ATOM     17  Cl  UNL A   1      32.398  25.692  21.104  1.00  0.00    -0.084 Cl
ATOM     18  C   UNL A   1      31.947  26.511  23.631  1.00  0.00     0.032 A 
ATOM     19  C   UNL A   1      31.585  27.552  25.874  1.00  0.00     0.027 C 
ATOM     20  C   UNL A   1      33.694  28.137  26.881  1.00  0.00     0.316 C 
BRANCH  11  21
ATOM     21  C   UNL A   1      34.486  23.763  25.235  1.00  0.00    -0.014 A 
ATOM     22  C   UNL A   1      34.314  20.911  25.431  1.00  0.00     0.048 A 
ATOM     23  C   UNL A   1      35.344  21.524  24.713  1.00  0.00     0.027 A 
ATOM     24  C   UNL A   1      33.462  21.721  26.172  1.00  0.00     0.027 A 
ATOM     25  C   UNL A   1      35.446  22.926  24.637  1.00  0.00     0.011 A 
ATOM     26  C   UNL A   1      33.551  23.127  26.080  1.00  0.00     0.011 A 
BRANCH  22  27
ATOM     27  N   UNL A   1      34.119  19.515  25.209  1.00  0.00    -0.284 N 
ATOM     28  H   UNL A   1      34.779  18.911  25.621  1.00  0.00     0.180 HD
BRANCH  27  29
ATOM     29  S   UNL A   1      32.906  18.790  24.333  1.00  0.00     0.229 S 
ATOM     30  C   UNL A   1      33.740  17.465  23.475  1.00  0.00     0.183 C 
ATOM     31  O   UNL A   1      32.370  19.718  23.363  1.00  0.00    -0.207 OA
ATOM     32  O   UNL A   1      32.047  18.171  25.323  1.00  0.00    -0.207 OA
ENDBRANCH  27  29
ENDBRANCH  22  27
ENDBRANCH  11  21
BRANCH  20  33
ATOM     33  C   UNL A   1      34.706  29.231  27.306  1.00  0.00     0.430 C 
ATOM     34  F   UNL A   1      35.801  29.168  26.501  1.00  0.00    -0.167 F 
ATOM     35  F   UNL A   1      34.184  30.471  27.142  1.00  0.00    -0.167 F 
ATOM     36  F   UNL A   1      35.161  29.158  28.563  1.00  0.00    -0.167 F 
ENDBRANCH  20  33
ENDBRANCH   8  10
ENDBRANCH   7   8
ENDBRANCH   6   7
ENDBRANCH   5   6
ENDBRANCH   4   5
ENDBRANCH   3   4
ENDBRANCH   2   3
ENDBRANCH   1   2
BRANCH   1  37
ATOM     37  C   UNL A   1      34.742  33.090  30.941  1.00  0.00     0.188 C 
BRANCH  37  38
ATOM     38  C   UNL A   1      35.965  33.920  31.387  1.00  0.00     0.188 C 
BRANCH  38  39
ATOM     39  O   UNL A   1      35.634  35.059  32.186  1.00  0.00    -0.376 OA
BRANCH  39  40
ATOM     40  C   UNL A   1      34.668  34.862  33.212  1.00  0.00     0.202 C 
BRANCH  40  41
ATOM     41  C   UNL A   1      35.213  34.155  34.461  1.00  0.00     0.261 C 
BRANCH  41  42
ATOM     42  O   UNL A   1      36.628  33.915  34.457  1.00  0.00    -0.460 OA
BRANCH  42  43
ATOM     43  C   UNL A   1      37.145  33.279  35.531  1.00  0.00     0.338 C 
ATOM     44  O   UNL A   1      36.718  33.306  36.673  1.00  0.00    -0.246 OA
BRANCH  43  45
ATOM     45  C   UNL A   1      38.200  32.364  35.048  1.00  0.00     0.060 A 
ATOM     46  C   UNL A   1      38.323  31.104  35.648  1.00  0.00     0.016 A 
ATOM     47  C   UNL A   1      39.042  32.737  33.997  1.00  0.00     0.016 A 
ATOM     48  C   UNL A   1      39.324  30.228  35.226  1.00  0.00     0.010 A 
ATOM     49  C   UNL A   1      40.054  31.868  33.589  1.00  0.00     0.010 A 
ATOM     50  C   UNL A   1      40.222  30.626  34.227  1.00  0.00    -0.014 A 
BRANCH  50  51
ATOM     51  C   UNL A   1      41.471  29.858  34.014  1.00  0.00     0.031 A 
ATOM     52  C   UNL A   1      42.526  29.926  35.084  1.00  0.00     0.074 A 
ATOM     53  C   UNL A   1      41.668  29.126  32.905  1.00  0.00     0.049 A 
ATOM     54  N   UNL A   1      43.718  29.390  35.116  1.00  0.00    -0.248 NA
ATOM     55  C   UNL A   1      42.186  30.718  36.275  1.00  0.00     0.031 C 
ATOM     56  C   UNL A   1      40.708  28.965  31.816  1.00  0.00     0.029 A 
ATOM     57  N   UNL A   1      42.757  28.391  32.509  1.00  0.00    -0.354 N 
ATOM     58  C   UNL A   1      44.271  29.780  36.330  1.00  0.00     0.074 A 
ATOM     59  C   UNL A   1      43.301  30.636  36.980  1.00  0.00     0.031 C 
ATOM     60  C   UNL A   1      41.258  28.193  30.863  1.00  0.00     0.029 A 
ATOM     61  C   UNL A   1      42.620  27.833  31.261  1.00  0.00     0.049 A 
ATOM     62  H   UNL A   1      43.561  28.274  33.066  1.00  0.00     0.167 HD
ATOM     63  C   UNL A   1      45.474  29.448  36.860  1.00  0.00     0.034 A 
ATOM     64  C   UNL A   1      43.503  27.136  30.517  1.00  0.00     0.034 A 
ATOM     65  C   UNL A   1      46.442  28.623  36.182  1.00  0.00     0.049 A 
ATOM     66  C   UNL A   1      44.874  26.849  31.083  1.00  0.00     0.074 A 
ATOM     67  C   UNL A   1      47.685  28.208  36.625  1.00  0.00     0.029 A 
ATOM     68  N   UNL A   1      46.283  28.103  34.902  1.00  0.00    -0.354 N 
ATOM     69  N   UNL A   1      45.381  27.198  32.245  1.00  0.00    -0.248 NA
ATOM     70  C   UNL A   1      45.788  26.068  30.240  1.00  0.00     0.031 C 
ATOM     71  C   UNL A   1      48.307  27.505  35.587  1.00  0.00     0.029 A 
ATOM     72  C   UNL A   1      47.422  27.407  34.524  1.00  0.00     0.049 A 
ATOM     73  H   UNL A   1      45.480  28.214  34.345  1.00  0.00     0.167 HD
ATOM     74  C   UNL A   1      46.662  26.654  32.281  1.00  0.00     0.074 A 
ATOM     75  C   UNL A   1      46.847  25.947  31.030  1.00  0.00     0.031 C 
ATOM     76  C   UNL A   1      47.599  26.723  33.263  1.00  0.00     0.034 A 
BRANCH  63  77
ATOM     77  C   UNL A   1      45.815  30.044  38.206  1.00  0.00     0.023 A 
ATOM     78  C   UNL A   1      45.375  29.457  39.407  1.00  0.00     0.031 A 
ATOM     79  C   UNL A   1      46.522  31.256  38.288  1.00  0.00     0.131 A 
ATOM     80  C   UNL A   1      45.561  30.129  40.624  1.00  0.00     0.055 A 
ATOM     81  C   UNL A   1      46.782  31.874  39.512  1.00  0.00     0.041 A 
ATOM     82  F   UNL A   1      46.945  31.878  37.176  1.00  0.00    -0.206 F 
ATOM     83  C   UNL A   1      46.284  31.322  40.688  1.00  0.00     0.022 A 
BRANCH  80  84
ATOM     84  S   UNL A   1      44.686  29.518  42.092  1.00  0.00     0.124 S 
ATOM     85  O   UNL A   1      43.488  30.354  42.092  1.00  0.00    -0.237 OA
ATOM     86  O   UNL A   1      44.483  28.110  41.774  1.00  0.00    -0.237 OA
ATOM     87  O   UNL A   1      45.621  29.783  43.184  1.00  0.00    -0.744 OA
ENDBRANCH  80  84
ENDBRANCH  63  77
BRANCH  64  88
ATOM     88  C   UNL A   1      43.139  26.699  29.139  1.00  0.00     0.023 A 
ATOM     89  C   UNL A   1      42.818  25.361  28.857  1.00  0.00     0.031 A 
ATOM     90  C   UNL A   1      43.138  27.617  28.074  1.00  0.00     0.131 A 
ATOM     91  C   UNL A   1      42.538  24.975  27.537  1.00  0.00     0.055 A 
ATOM     92  C   UNL A   1      42.815  27.237  26.772  1.00  0.00     0.041 A 
ATOM     93  F   UNL A   1      43.440  28.908  28.291  1.00  0.00    -0.206 F 
ATOM     94  C   UNL A   1      42.521  25.905  26.495  1.00  0.00     0.022 A 
BRANCH  91  95
ATOM     95  S   UNL A   1      42.244  23.218  27.186  1.00  0.00     0.124 S 
ATOM     96  O   UNL A   1      43.527  22.625  27.548  1.00  0.00    -0.237 OA
ATOM     97  O   UNL A   1      41.124  22.915  28.070  1.00  0.00    -0.237 OA
ATOM     98  O   UNL A   1      41.930  23.205  25.759  1.00  0.00    -0.744 OA
ENDBRANCH  91  95
ENDBRANCH  64  88
BRANCH  76  99
ATOM     99  C   UNL A   1      48.894  25.978  33.037  1.00  0.00     0.023 A 
ATOM    100  C   UNL A   1      49.092  24.669  33.511  1.00  0.00     0.031 A 
ATOM    101  C   UNL A   1      49.945  26.592  32.333  1.00  0.00     0.131 A 
ATOM    102  C   UNL A   1      50.329  24.035  33.315  1.00  0.00     0.055 A 
ATOM    103  C   UNL A   1      51.152  25.933  32.090  1.00  0.00     0.041 A 
ATOM    104  F   UNL A   1      49.813  27.841  31.859  1.00  0.00    -0.206 F 
ATOM    105  C   UNL A   1      51.353  24.651  32.593  1.00  0.00     0.022 A 
BRANCH 102 106
ATOM    106  S   UNL A   1      50.617  22.422  34.095  1.00  0.00     0.124 S 
ATOM    107  O   UNL A   1      52.002  22.543  34.540  1.00  0.00    -0.237 OA
ATOM    108  O   UNL A   1      49.608  22.399  35.149  1.00  0.00    -0.237 OA
ATOM    109  O   UNL A   1      50.397  21.470  33.007  1.00  0.00    -0.744 OA
ENDBRANCH 102 106
ENDBRANCH  76  99
ENDBRANCH  50  51
ENDBRANCH  43  45
ENDBRANCH  42  43
ENDBRANCH  41  42
ENDBRANCH  40  41
ENDBRANCH  39  40
ENDBRANCH  38  39
ENDBRANCH  37  38
ENDBRANCH   1  37
TORSDOF 27
ENDMDL
MODEL 2
REMARK VINA RESULT:      -9.0      5.223      8.171
REMARK SMILES CS(=O)(=O)Nc1ccc(-c2cc(Cl)cc3c2O[C@@H](C(F)(F)F)C(C(=O)OCCOCCOCCOCCOC(=O)c2ccc(-c4c5nc(c(-c6cc(S(=O)(=O)[O-])ccc6F)c6ccc([nH]6)c(-c6cc(S(=O)(=O)[O-])ccc6F)c6nc(c(-c7cc(S(=O)(=O)[O-])ccc7F)c7ccc4[nH]7)C=C6)C=C5)cc2)=C3)cc1
REMARK SMILES IDX 32 1 31 2 30 3 29 4 28 5 27 6 26 7 24 8 25 9 23 10 10 11
REMARK SMILES IDX 11 12 16 13 12 14 15 15 17 16 13 17 14 18 104 19 18 20 9 21
REMARK SMILES IDX 6 22 7 23 106 24 8 25 105 26 5 27 2 29 1 30 3 31 4 32 19 33
REMARK SMILES IDX 20 34 21 35 22 36 33 37 34 38 35 39 36 40 37 41 38 42 39 43
REMARK SMILES IDX 40 44 41 45 42 46 103 47 43 48 102 49 44 50 45 51 46 52
REMARK SMILES IDX 96 53 47 54 101 55 95 56 97 57 48 58 100 59 94 60 93 61
REMARK SMILES IDX 49 63 81 64 61 65 80 66 62 67 65 68 79 69 98 70 63 71 64 72
REMARK SMILES IDX 78 74 99 75 66 76 50 77 51 78 59 79 52 80 58 81 60 82 57 83
REMARK SMILES IDX 53 84 54 85 55 86 56 87 82 88 83 89 91 90 84 91 90 92 92 93
REMARK SMILES IDX 89 94 85 95 86 96 87 97 88 98 67 99 68 100 76 101 69 102
REMARK SMILES IDX 75 103 77 104 74 105 70 106 71 107 72 108 73 109
REMARK H PARENT 5 28 97 62 65 73
REMARK Flexibility Score: inf
ROOT
ATOM      1  O   UNL A   1      37.672  32.945  34.708  1.00  0.00    -0.377 OA
ENDROOT
BRANCH   1   2
ATOM      2  C   UNL A   1      38.923  33.348  34.184  1.00  0.00     0.188 C 
BRANCH   2   3
ATOM      3  C   UNL A   1      39.086  32.957  32.709  1.00  0.00     0.188 C 
BRANCH   3   4
ATOM      4  O   UNL A   1      40.438  32.872  32.272  1.00  0.00    -0.376 OA
BRANCH   4   5
ATOM      5  C   UNL A   1      40.695  32.608  30.893  1.00  0.00     0.202 C 
BRANCH   5   6
ATOM      6  C   UNL A   1      39.525  32.225  29.974  1.00  0.00     0.261 C 
BRANCH   6   7
ATOM      7  O   UNL A   1      39.421  30.790  29.846  1.00  0.00    -0.460 OA
BRANCH   7   8
ATOM      8  C   UNL A   1      38.254  30.324  29.375  1.00  0.00     0.338 C 
ATOM      9  O   UNL A   1      37.379  31.014  28.866  1.00  0.00    -0.246 OA
BRANCH   8  10
ATOM     10  C   UNL A   1      38.194  28.841  29.360  1.00  0.00     0.087 C 
ATOM     11  C   UNL A   1      41.838  26.949  28.779  1.00  0.00     0.026 A 
ATOM     12  C   UNL A   1      42.650  27.869  28.071  1.00  0.00     0.033 A 
ATOM     13  C   UNL A   1      40.504  27.354  28.983  1.00  0.00     0.135 A 
ATOM     14  C   UNL A   1      42.086  28.901  27.322  1.00  0.00     0.042 A 
ATOM     15  C   UNL A   1      39.915  28.232  28.058  1.00  0.00     0.019 A 
ATOM     16  O   UNL A   1      39.877  27.144  30.209  1.00  0.00    -0.475 OA
ATOM     17  Cl  UNL A   1      43.103  29.959  26.432  1.00  0.00    -0.084 Cl
ATOM     18  C   UNL A   1      40.708  29.018  27.229  1.00  0.00     0.032 A 
ATOM     19  C   UNL A   1      38.449  28.412  28.111  1.00  0.00     0.027 C 
ATOM     20  C   UNL A   1      38.581  27.855  30.451  1.00  0.00     0.316 C 
BRANCH  11  21
ATOM     21  C   UNL A   1      42.262  25.514  28.598  1.00  0.00    -0.014 A 
ATOM     22  C   UNL A   1      42.698  23.081  27.151  1.00  0.00     0.048 A 
ATOM     23  C   UNL A   1      43.729  24.007  27.332  1.00  0.00     0.027 A 
ATOM     24  C   UNL A   1      41.498  23.300  27.817  1.00  0.00     0.027 A 
ATOM     25  C   UNL A   1      43.525  25.191  28.066  1.00  0.00     0.011 A 
ATOM     26  C   UNL A   1      41.286  24.497  28.536  1.00  0.00     0.011 A 
BRANCH  22  27
ATOM     27  N   UNL A   1      42.906  22.075  26.161  1.00  0.00    -0.284 N 
ATOM     28  H   UNL A   1      42.208  21.385  26.088  1.00  0.00     0.180 HD
BRANCH  27  29
ATOM     29  S   UNL A   1      44.193  21.933  25.118  1.00  0.00     0.229 S 
ATOM     30  C   UNL A   1      45.575  22.547  26.066  1.00  0.00     0.183 C 
ATOM     31  O   UNL A   1      43.995  22.782  23.965  1.00  0.00    -0.207 OA
ATOM     32  O   UNL A   1      44.395  20.505  24.963  1.00  0.00    -0.207 OA
ENDBRANCH  27  29
ENDBRANCH  22  27
ENDBRANCH  11  21
BRANCH  20  33
ATOM     33  C   UNL A   1      38.291  28.233  31.926  1.00  0.00     0.430 C 
ATOM     34  F   UNL A   1      38.208  27.098  32.673  1.00  0.00    -0.167 F 
ATOM     35  F   UNL A   1      39.304  28.962  32.452  1.00  0.00    -0.167 F 
ATOM     36  F   UNL A   1      37.159  28.911  32.150  1.00  0.00    -0.167 F 
ENDBRANCH  20  33
ENDBRANCH   8  10
ENDBRANCH   7   8
ENDBRANCH   6   7
ENDBRANCH   5   6
ENDBRANCH   4   5
ENDBRANCH   3   4
ENDBRANCH   2   3
ENDBRANCH   1   2
BRANCH   1  37
ATOM     37  C   UNL A   1      37.315  33.472  35.981  1.00  0.00     0.188 C 
BRANCH  37  38
ATOM     38  C   UNL A   1      37.818  32.782  37.268  1.00  0.00     0.188 C 
BRANCH  38  39
ATOM     39  O   UNL A   1      38.642  33.615  38.089  1.00  0.00    -0.376 OA
BRANCH  39  40
ATOM     40  C   UNL A   1      38.638  33.342  39.485  1.00  0.00     0.202 C 
BRANCH  40  41
ATOM     41  C   UNL A   1      40.036  33.270  40.115  1.00  0.00     0.261 C 
BRANCH  41  42
ATOM     42  O   UNL A   1      40.995  32.493  39.384  1.00  0.00    -0.460 OA
BRANCH  42  43
ATOM     43  C   UNL A   1      42.038  33.158  38.840  1.00  0.00     0.338 C 
ATOM     44  O   UNL A   1      42.611  34.127  39.309  1.00  0.00    -0.246 OA
BRANCH  43  45
ATOM     45  C   UNL A   1      42.512  32.382  37.677  1.00  0.00     0.060 A 
ATOM     46  C   UNL A   1      43.889  32.188  37.514  1.00  0.00     0.016 A 
ATOM     47  C   UNL A   1      41.603  31.829  36.769  1.00  0.00     0.016 A 
ATOM     48  C   UNL A   1      44.365  31.477  36.412  1.00  0.00     0.010 A 
ATOM     49  C   UNL A   1      42.082  31.134  35.659  1.00  0.00     0.010 A 
ATOM     50  C   UNL A   1      43.466  30.987  35.457  1.00  0.00    -0.014 A 
BRANCH  50  51
ATOM     51  C   UNL A   1      43.967  30.538  34.137  1.00  0.00     0.031 A 
ATOM     52  C   UNL A   1      44.353  29.092  33.989  1.00  0.00     0.074 A 
ATOM     53  C   UNL A   1      44.082  31.386  33.101  1.00  0.00     0.049 A 
ATOM     54  N   UNL A   1      44.861  28.465  32.960  1.00  0.00    -0.248 NA
ATOM     55  C   UNL A   1      44.143  28.245  35.172  1.00  0.00     0.031 C 
ATOM     56  C   UNL A   1      43.714  32.799  33.120  1.00  0.00     0.029 A 
ATOM     57  N   UNL A   1      44.558  31.176  31.831  1.00  0.00    -0.354 N 
ATOM     58  C   UNL A   1      45.033  27.148  33.372  1.00  0.00     0.074 A 
ATOM     59  C   UNL A   1      44.617  27.082  34.758  1.00  0.00     0.031 C 
ATOM     60  C   UNL A   1      43.996  33.337  31.920  1.00  0.00     0.029 A 
ATOM     61  C   UNL A   1      44.593  32.314  31.061  1.00  0.00     0.049 A 
ATOM     62  H   UNL A   1      44.847  30.294  31.502  1.00  0.00     0.167 HD
ATOM     63  C   UNL A   1      45.485  26.088  32.659  1.00  0.00     0.034 A 
ATOM     64  C   UNL A   1      45.077  32.509  29.818  1.00  0.00     0.034 A 
ATOM     65  C   UNL A   1      45.927  26.180  31.289  1.00  0.00     0.049 A 
ATOM     66  C   UNL A   1      45.661  31.337  29.065  1.00  0.00     0.074 A 
ATOM     67  C   UNL A   1      46.390  25.174  30.462  1.00  0.00     0.029 A 
ATOM     68  N   UNL A   1      45.982  27.358  30.552  1.00  0.00    -0.354 N 
ATOM     69  N   UNL A   1      45.794  30.087  29.451  1.00  0.00    -0.248 NA
ATOM     70  C   UNL A   1      46.154  31.601  27.707  1.00  0.00     0.031 C 
ATOM     71  C   UNL A   1      46.797  25.753  29.254  1.00  0.00     0.029 A 
ATOM     72  C   UNL A   1      46.510  27.109  29.294  1.00  0.00     0.049 A 
ATOM     73  H   UNL A   1      45.689  28.239  30.875  1.00  0.00     0.167 HD
ATOM     74  C   UNL A   1      46.360  29.412  28.372  1.00  0.00     0.074 A 
ATOM     75  C   UNL A   1      46.534  30.391  27.318  1.00  0.00     0.031 C 
ATOM     76  C   UNL A   1      46.696  28.100  28.259  1.00  0.00     0.034 A 
BRANCH  63  77
ATOM     77  C   UNL A   1      45.580  24.766  33.385  1.00  0.00     0.023 A 
ATOM     78  C   UNL A   1      46.739  24.390  34.087  1.00  0.00     0.031 A 
ATOM     79  C   UNL A   1      44.526  23.839  33.311  1.00  0.00     0.131 A 
ATOM     80  C   UNL A   1      46.856  23.090  34.601  1.00  0.00     0.055 A 
ATOM     81  C   UNL A   1      44.615  22.578  33.903  1.00  0.00     0.041 A 
ATOM     82  F   UNL A   1      43.405  24.130  32.634  1.00  0.00    -0.206 F 
ATOM     83  C   UNL A   1      45.792  22.189  34.535  1.00  0.00     0.022 A 
BRANCH  80  84
ATOM     84  S   UNL A   1      48.481  22.535  35.188  1.00  0.00     0.124 S 
ATOM     85  O   UNL A   1      48.360  22.737  36.630  1.00  0.00    -0.237 OA
ATOM     86  O   UNL A   1      48.521  21.148  34.738  1.00  0.00    -0.237 OA
ATOM     87  O   UNL A   1      49.415  23.437  34.516  1.00  0.00    -0.744 OA
ENDBRANCH  80  84
ENDBRANCH  63  77
BRANCH  64  88
ATOM     88  C   UNL A   1      45.073  33.874  29.219  1.00  0.00     0.023 A 
ATOM     89  C   UNL A   1      43.975  34.347  28.483  1.00  0.00     0.031 A 
ATOM     90  C   UNL A   1      46.191  34.717  29.354  1.00  0.00     0.131 A 
ATOM     91  C   UNL A   1      44.030  35.616  27.885  1.00  0.00     0.055 A 
ATOM     92  C   UNL A   1      46.223  35.995  28.795  1.00  0.00     0.041 A 
ATOM     93  F   UNL A   1      47.267  34.312  30.047  1.00  0.00    -0.206 F 
ATOM     94  C   UNL A   1      45.141  36.448  28.047  1.00  0.00     0.022 A 
BRANCH  91  95
ATOM     95  S   UNL A   1      42.645  36.149  26.840  1.00  0.00     0.124 S 
ATOM     96  O   UNL A   1      41.496  35.759  27.650  1.00  0.00    -0.237 OA
ATOM     97  O   UNL A   1      42.889  37.582  26.720  1.00  0.00    -0.237 OA
ATOM     98  O   UNL A   1      42.833  35.383  25.610  1.00  0.00    -0.744 OA
ENDBRANCH  91  95
ENDBRANCH  64  88
BRANCH  76  99
ATOM     99  C   UNL A   1      47.248  27.641  26.928  1.00  0.00     0.023 A 
ATOM    100  C   UNL A   1      48.629  27.560  26.684  1.00  0.00     0.031 A 
ATOM    101  C   UNL A   1      46.370  27.279  25.890  1.00  0.00     0.131 A 
ATOM    102  C   UNL A   1      49.094  27.171  25.417  1.00  0.00     0.055 A 
ATOM    103  C   UNL A   1      46.838  26.836  24.652  1.00  0.00     0.041 A 
ATOM    104  F   UNL A   1      45.041  27.339  26.067  1.00  0.00    -0.206 F 
ATOM    105  C   UNL A   1      48.208  26.792  24.406  1.00  0.00     0.022 A 
BRANCH 102 106
ATOM    106  S   UNL A   1      50.874  27.251  25.076  1.00  0.00     0.124 S 
ATOM    107  O   UNL A   1      51.364  28.040  26.202  1.00  0.00    -0.237 OA
ATOM    108  O   UNL A   1      51.255  25.842  25.071  1.00  0.00    -0.237 OA
ATOM    109  O   UNL A   1      50.945  27.917  23.777  1.00  0.00    -0.744 OA
ENDBRANCH 102 106
ENDBRANCH  76  99
ENDBRANCH  50  51
ENDBRANCH  43  45
ENDBRANCH  42  43
ENDBRANCH  41  42
ENDBRANCH  40  41
ENDBRANCH  39  40
ENDBRANCH  38  39
ENDBRANCH  37  38
ENDBRANCH   1  37
TORSDOF 27
ENDMDL
MODEL 3
REMARK VINA RESULT:      -8.8      4.283      6.650
REMARK SMILES CS(=O)(=O)Nc1ccc(-c2cc(Cl)cc3c2O[C@@H](C(F)(F)F)C(C(=O)OCCOCCOCCOCCOC(=O)c2ccc(-c4c5nc(c(-c6cc(S(=O)(=O)[O-])ccc6F)c6ccc([nH]6)c(-c6cc(S(=O)(=O)[O-])ccc6F)c6nc(c(-c7cc(S(=O)(=O)[O-])ccc7F)c7ccc4[nH]7)C=C6)C=C5)cc2)=C3)cc1
REMARK SMILES IDX 32 1 31 2 30 3 29 4 28 5 27 6 26 7 24 8 25 9 23 10 10 11
REMARK SMILES IDX 11 12 16 13 12 14 15 15 17 16 13 17 14 18 104 19 18 20 9 21
REMARK SMILES IDX 6 22 7 23 106 24 8 25 105 26 5 27 2 29 1 30 3 31 4 32 19 33
REMARK SMILES IDX 20 34 21 35 22 36 33 37 34 38 35 39 36 40 37 41 38 42 39 43
REMARK SMILES IDX 40 44 41 45 42 46 103 47 43 48 102 49 44 50 45 51 46 52
REMARK SMILES IDX 96 53 47 54 101 55 95 56 97 57 48 58 100 59 94 60 93 61
REMARK SMILES IDX 49 63 81 64 61 65 80 66 62 67 65 68 79 69 98 70 63 71 64 72
REMARK SMILES IDX 78 74 99 75 66 76 50 77 51 78 59 79 52 80 58 81 60 82 57 83
REMARK SMILES IDX 53 84 54 85 55 86 56 87 82 88 83 89 91 90 84 91 90 92 92 93
REMARK SMILES IDX 89 94 85 95 86 96 87 97 88 98 67 99 68 100 76 101 69 102
REMARK SMILES IDX 75 103 77 104 74 105 70 106 71 107 72 108 73 109
REMARK H PARENT 5 28 97 62 65 73
REMARK Flexibility Score: inf
ROOT
ATOM      1  O   UNL A   1      33.665  33.519  30.248  1.00  0.00    -0.377 OA
ENDROOT
BRANCH   1   2
ATOM      2  C   UNL A   1      33.956  34.358  29.146  1.00  0.00     0.188 C 
BRANCH   2   3
ATOM      3  C   UNL A   1      33.571  33.714  27.808  1.00  0.00     0.188 C 
BRANCH   3   4
ATOM      4  O   UNL A   1      32.171  33.535  27.627  1.00  0.00    -0.376 OA
BRANCH   4   5
ATOM      5  C   UNL A   1      31.719  32.764  26.514  1.00  0.00     0.202 C 
BRANCH   5   6
ATOM      6  C   UNL A   1      31.405  31.273  26.714  1.00  0.00     0.261 C 
BRANCH   6   7
ATOM      7  O   UNL A   1      31.214  30.614  25.442  1.00  0.00    -0.460 OA
BRANCH   7   8
ATOM      8  C   UNL A   1      32.134  29.695  25.112  1.00  0.00     0.338 C 
ATOM      9  O   UNL A   1      32.883  29.769  24.146  1.00  0.00    -0.246 OA
BRANCH   8  10
ATOM     10  C   UNL A   1      32.292  28.645  26.150  1.00  0.00     0.087 C 
ATOM     11  C   UNL A   1      34.150  25.171  24.855  1.00  0.00     0.026 A 
ATOM     12  C   UNL A   1      33.911  25.094  23.461  1.00  0.00     0.033 A 
ATOM     13  C   UNL A   1      33.503  26.231  25.520  1.00  0.00     0.135 A 
ATOM     14  C   UNL A   1      32.840  25.768  22.875  1.00  0.00     0.042 A 
ATOM     15  C   UNL A   1      32.297  26.722  24.995  1.00  0.00     0.019 A 
ATOM     16  O   UNL A   1      34.171  26.975  26.490  1.00  0.00    -0.475 OA
ATOM     17  Cl  UNL A   1      32.550  25.600  21.191  1.00  0.00    -0.084 Cl
ATOM     18  C   UNL A   1      31.966  26.500  23.662  1.00  0.00     0.032 A 
ATOM     19  C   UNL A   1      31.482  27.614  25.847  1.00  0.00     0.027 C 
ATOM     20  C   UNL A   1      33.532  28.255  26.937  1.00  0.00     0.316 C 
BRANCH  11  21
ATOM     21  C   UNL A   1      34.442  23.834  25.487  1.00  0.00    -0.014 A 
ATOM     22  C   UNL A   1      34.287  20.988  25.771  1.00  0.00     0.048 A 
ATOM     23  C   UNL A   1      35.348  21.589  25.087  1.00  0.00     0.027 A 
ATOM     24  C   UNL A   1      33.389  21.814  26.438  1.00  0.00     0.027 A 
ATOM     25  C   UNL A   1      35.441  22.988  24.969  1.00  0.00     0.011 A 
ATOM     26  C   UNL A   1      33.470  23.217  26.303  1.00  0.00     0.011 A 
BRANCH  22  27
ATOM     27  N   UNL A   1      34.117  19.584  25.587  1.00  0.00    -0.284 N 
ATOM     28  H   UNL A   1      34.769  19.003  26.041  1.00  0.00     0.180 HD
BRANCH  27  29
ATOM     29  S   UNL A   1      32.944  18.816  24.692  1.00  0.00     0.229 S 
ATOM     30  C   UNL A   1      33.861  17.625  23.730  1.00  0.00     0.183 C 
ATOM     31  O   UNL A   1      32.306  19.755  23.798  1.00  0.00    -0.207 OA
ATOM     32  O   UNL A   1      32.168  18.064  25.658  1.00  0.00    -0.207 OA
ENDBRANCH  27  29
ENDBRANCH  22  27
ENDBRANCH  11  21
BRANCH  20  33
ATOM     33  C   UNL A   1      34.513  29.373  27.375  1.00  0.00     0.430 C 
ATOM     34  F   UNL A   1      35.403  28.865  28.270  1.00  0.00    -0.167 F 
ATOM     35  F   UNL A   1      35.242  29.822  26.325  1.00  0.00    -0.167 F 
ATOM     36  F   UNL A   1      33.963  30.444  27.960  1.00  0.00    -0.167 F 
ENDBRANCH  20  33
ENDBRANCH   8  10
ENDBRANCH   7   8
ENDBRANCH   6   7
ENDBRANCH   5   6
ENDBRANCH   4   5
ENDBRANCH   3   4
ENDBRANCH   2   3
ENDBRANCH   1   2
BRANCH   1  37
ATOM     37  C   UNL A   1      34.761  32.813  30.818  1.00  0.00     0.188 C 
BRANCH  37  38
ATOM     38  C   UNL A   1      36.014  33.584  31.286  1.00  0.00     0.188 C 
BRANCH  38  39
ATOM     39  O   UNL A   1      35.751  34.559  32.299  1.00  0.00    -0.376 OA
BRANCH  39  40
ATOM     40  C   UNL A   1      35.365  34.068  33.577  1.00  0.00     0.202 C 
BRANCH  40  41
ATOM     41  C   UNL A   1      36.430  33.204  34.265  1.00  0.00     0.261 C 
BRANCH  41  42
ATOM     42  O   UNL A   1      37.775  33.691  34.156  1.00  0.00    -0.460 OA
BRANCH  42  43
ATOM     43  C   UNL A   1      38.622  33.391  35.166  1.00  0.00     0.338 C 
ATOM     44  O   UNL A   1      38.419  33.544  36.359  1.00  0.00    -0.246 OA
BRANCH  43  45
ATOM     45  C   UNL A   1      39.759  32.642  34.594  1.00  0.00     0.060 A 
ATOM     46  C   UNL A   1      41.038  32.857  35.122  1.00  0.00     0.016 A 
ATOM     47  C   UNL A   1      39.560  31.718  33.564  1.00  0.00     0.016 A 
ATOM     48  C   UNL A   1      42.134  32.178  34.586  1.00  0.00     0.010 A 
ATOM     49  C   UNL A   1      40.658  31.054  33.018  1.00  0.00     0.010 A 
ATOM     50  C   UNL A   1      41.954  31.310  33.502  1.00  0.00    -0.014 A 
BRANCH  50  51
ATOM     51  C   UNL A   1      43.128  30.856  32.721  1.00  0.00     0.031 A 
ATOM     52  C   UNL A   1      43.439  31.580  31.440  1.00  0.00     0.074 A 
ATOM     53  C   UNL A   1      43.894  29.832  33.131  1.00  0.00     0.049 A 
ATOM     54  N   UNL A   1      44.374  31.348  30.556  1.00  0.00    -0.248 NA
ATOM     55  C   UNL A   1      42.564  32.714  31.111  1.00  0.00     0.031 C 
ATOM     56  C   UNL A   1      43.705  29.075  34.366  1.00  0.00     0.029 A 
ATOM     57  N   UNL A   1      44.982  29.243  32.536  1.00  0.00    -0.354 N 
ATOM     58  C   UNL A   1      44.200  32.307  29.565  1.00  0.00     0.074 A 
ATOM     59  C   UNL A   1      43.041  33.091  29.937  1.00  0.00     0.031 C 
ATOM     60  C   UNL A   1      44.636  28.108  34.429  1.00  0.00     0.029 A 
ATOM     61  C   UNL A   1      45.465  28.157  33.225  1.00  0.00     0.049 A 
ATOM     62  H   UNL A   1      45.379  29.569  31.696  1.00  0.00     0.167 HD
ATOM     63  C   UNL A   1      44.944  32.523  28.452  1.00  0.00     0.034 A 
ATOM     64  C   UNL A   1      46.445  27.289  32.903  1.00  0.00     0.034 A 
ATOM     65  C   UNL A   1      46.074  31.709  28.081  1.00  0.00     0.049 A 
ATOM     66  C   UNL A   1      47.209  27.487  31.615  1.00  0.00     0.074 A 
ATOM     67  C   UNL A   1      46.911  31.841  26.987  1.00  0.00     0.029 A 
ATOM     68  N   UNL A   1      46.514  30.594  28.785  1.00  0.00    -0.354 N 
ATOM     69  N   UNL A   1      47.056  28.415  30.696  1.00  0.00    -0.248 NA
ATOM     70  C   UNL A   1      48.280  26.525  31.325  1.00  0.00     0.031 C 
ATOM     71  C   UNL A   1      47.804  30.764  26.988  1.00  0.00     0.029 A 
ATOM     72  C   UNL A   1      47.583  30.004  28.127  1.00  0.00     0.049 A 
ATOM     73  H   UNL A   1      46.123  30.270  29.627  1.00  0.00     0.167 HD
ATOM     74  C   UNL A   1      48.032  28.163  29.734  1.00  0.00     0.074 A 
ATOM     75  C   UNL A   1      48.771  27.003  30.189  1.00  0.00     0.031 C 
ATOM     76  C   UNL A   1      48.299  28.835  28.583  1.00  0.00     0.034 A 
BRANCH  63  77
ATOM     77  C   UNL A   1      44.499  33.643  27.541  1.00  0.00     0.023 A 
ATOM     78  C   UNL A   1      44.542  34.989  27.948  1.00  0.00     0.031 A 
ATOM     79  C   UNL A   1      43.952  33.355  26.278  1.00  0.00     0.131 A 
ATOM     80  C   UNL A   1      43.961  35.982  27.145  1.00  0.00     0.055 A 
ATOM     81  C   UNL A   1      43.457  34.360  25.445  1.00  0.00     0.041 A 
ATOM     82  F   UNL A   1      43.860  32.088  25.845  1.00  0.00    -0.206 F 
ATOM     83  C   UNL A   1      43.441  35.680  25.885  1.00  0.00     0.022 A 
BRANCH  80  84
ATOM     84  S   UNL A   1      43.728  37.637  27.851  1.00  0.00     0.124 S 
ATOM     85  O   UNL A   1      43.409  38.424  26.662  1.00  0.00    -0.237 OA
ATOM     86  O   UNL A   1      42.633  37.427  28.791  1.00  0.00    -0.237 OA
ATOM     87  O   UNL A   1      45.023  37.937  28.457  1.00  0.00    -0.744 OA
ENDBRANCH  80  84
ENDBRANCH  63  77
BRANCH  64  88
ATOM     88  C   UNL A   1      46.735  26.126  33.790  1.00  0.00     0.023 A 
ATOM     89  C   UNL A   1      45.983  24.943  33.715  1.00  0.00     0.031 A 
ATOM     90  C   UNL A   1      47.759  26.198  34.753  1.00  0.00     0.131 A 
ATOM     91  C   UNL A   1      46.247  23.891  34.606  1.00  0.00     0.055 A 
ATOM     92  C   UNL A   1      48.046  25.133  35.606  1.00  0.00     0.041 A 
ATOM     93  F   UNL A   1      48.506  27.308  34.867  1.00  0.00    -0.206 F 
ATOM     94  C   UNL A   1      47.281  23.972  35.542  1.00  0.00     0.022 A 
BRANCH  91  95
ATOM     95  S   UNL A   1      45.179  22.423  34.563  1.00  0.00     0.124 S 
ATOM     96  O   UNL A   1      44.788  22.300  35.962  1.00  0.00    -0.237 OA
ATOM     97  O   UNL A   1      44.131  22.837  33.636  1.00  0.00    -0.237 OA
ATOM     98  O   UNL A   1      46.066  21.373  34.066  1.00  0.00    -0.744 OA
ENDBRANCH  91  95
ENDBRANCH  64  88
BRANCH  76  99
ATOM     99  C   UNL A   1      49.470  28.353  27.758  1.00  0.00     0.023 A 
ATOM    100  C   UNL A   1      50.774  28.833  27.966  1.00  0.00     0.031 A 
ATOM    101  C   UNL A   1      49.271  27.396  26.747  1.00  0.00     0.131 A 
ATOM    102  C   UNL A   1      51.822  28.389  27.144  1.00  0.00     0.055 A 
ATOM    103  C   UNL A   1      50.327  26.914  25.972  1.00  0.00     0.041 A 
ATOM    104  F   UNL A   1      48.046  26.904  26.503  1.00  0.00    -0.206 F 
ATOM    105  C   UNL A   1      51.610  27.420  26.160  1.00  0.00     0.022 A 
BRANCH 102 106
ATOM    106  S   UNL A   1      53.455  29.160  27.315  1.00  0.00     0.124 S 
ATOM    107  O   UNL A   1      54.041  28.927  25.999  1.00  0.00    -0.237 OA
ATOM    108  O   UNL A   1      53.116  30.545  27.626  1.00  0.00    -0.237 OA
ATOM    109  O   UNL A   1      54.074  28.414  28.410  1.00  0.00    -0.744 OA
ENDBRANCH 102 106
ENDBRANCH  76  99
ENDBRANCH  50  51
ENDBRANCH  43  45
ENDBRANCH  42  43
ENDBRANCH  41  42
ENDBRANCH  40  41
ENDBRANCH  39  40
ENDBRANCH  38  39
ENDBRANCH  37  38
ENDBRANCH   1  37
TORSDOF 27
ENDMDL
