MODEL 1
REMARK VINA RESULT:      -8.4      0.000      0.000
REMARK SMILES Cc1csc(C[N@H+]2CCC[C@@H](CC(=O)OCCOCCOCCOCCOC(=O)c3ccc(-c4c5nc(c(-c6cc(S(=O)(=O)[O-])ccc6F)c6ccc([nH]6)c(-c6cc(S(=O)(=O)[O-])ccc6F)c6nc(c(-c7cc(S(=O)(=O)[O-])ccc7F)c7ccc4[nH]7)C=C6)C=C5)cc3)C2)n1
REMARK SMILES IDX 21 1 20 2 19 3 18 4 17 5 16 6 15 7 13 8 14 9 12 10 11 11
REMARK SMILES IDX 7 12 8 13 93 14 9 16 10 17 6 18 5 19 1 20 2 21 3 22 94 23
REMARK SMILES IDX 4 24 22 25 23 26 24 27 25 28 26 29 27 30 28 31 29 32 30 33
REMARK SMILES IDX 31 34 92 35 32 36 91 37 33 38 34 39 35 40 85 41 36 42 90 43
REMARK SMILES IDX 84 44 86 45 37 46 89 47 83 48 82 49 38 51 70 52 50 53 69 54
REMARK SMILES IDX 51 55 54 56 68 57 87 58 52 59 53 60 67 62 88 63 55 64 39 65
REMARK SMILES IDX 40 66 48 67 41 68 47 69 49 70 46 71 42 72 43 73 44 74 45 75
REMARK SMILES IDX 71 76 72 77 80 78 73 79 79 80 81 81 78 82 74 83 75 84 76 85
REMARK SMILES IDX 77 86 56 87 57 88 65 89 58 90 64 91 66 92 63 93 59 94 60 95
REMARK SMILES IDX 61 96 62 97
REMARK H PARENT 7 15 86 50 54 61
REMARK Flexibility Score: inf
ROOT
ATOM      1  O   UNL A   1      35.725  32.081  28.402  1.00  0.00    -0.377 OA
ENDROOT
BRANCH   1   2
ATOM      2  C   UNL A   1      34.610  31.608  27.672  1.00  0.00     0.188 C 
BRANCH   2   3
ATOM      3  C   UNL A   1      34.323  30.111  27.805  1.00  0.00     0.188 C 
BRANCH   3   4
ATOM      4  O   UNL A   1      34.415  29.328  26.624  1.00  0.00    -0.376 OA
BRANCH   4   5
ATOM      5  C   UNL A   1      33.602  28.160  26.528  1.00  0.00     0.202 C 
BRANCH   5   6
ATOM      6  C   UNL A   1      32.105  28.272  26.872  1.00  0.00     0.261 C 
BRANCH   6   7
ATOM      7  O   UNL A   1      31.229  27.852  25.801  1.00  0.00    -0.463 OA
BRANCH   7   8
ATOM      8  C   UNL A   1      31.157  28.678  24.730  1.00  0.00     0.306 C 
ATOM      9  O   UNL A   1      31.033  29.897  24.824  1.00  0.00    -0.252 OA
BRANCH   8  10
ATOM     10  C   UNL A   1      31.465  28.050  23.379  1.00  0.00     0.132 C 
BRANCH  10  11
ATOM     11  C   UNL A   1      31.446  26.546  23.006  1.00  0.00     0.055 C 
ATOM     12  N   UNL A   1      32.935  24.507  23.066  1.00  0.00    -0.329 N 
ATOM     13  C   UNL A   1      31.925  23.769  23.822  1.00  0.00     0.262 C 
ATOM     14  C   UNL A   1      32.831  25.942  23.352  1.00  0.00     0.266 C 
ATOM     15  H   UNL A   1      32.747  24.366  22.074  1.00  0.00     0.348 HD
ATOM     16  C   UNL A   1      30.527  24.189  23.371  1.00  0.00     0.062 C 
ATOM     17  C   UNL A   1      30.277  25.696  23.508  1.00  0.00     0.016 C 
BRANCH  12  18
ATOM     18  C   UNL A   1      34.308  23.987  23.281  1.00  0.00     0.331 C 
BRANCH  18  19
ATOM     19  C   UNL A   1      34.465  22.793  24.202  1.00  0.00     0.147 A 
ATOM     20  C   UNL A   1      34.266  19.232  24.739  1.00  0.00     0.067 C 
ATOM     21  C   UNL A   1      34.452  20.692  24.938  1.00  0.00     0.049 A 
ATOM     22  C   UNL A   1      34.890  21.323  26.084  1.00  0.00     0.090 A 
ATOM     23  N   UNL A   1      34.175  21.544  23.882  1.00  0.00    -0.240 NA
ATOM     24  S   UNL A   1      34.998  23.014  25.826  1.00  0.00    -0.121 S 
ENDBRANCH  18  19
ENDBRANCH  12  18
ENDBRANCH  10  11
ENDBRANCH   8  10
ENDBRANCH   7   8
ENDBRANCH   6   7
ENDBRANCH   5   6
ENDBRANCH   4   5
ENDBRANCH   3   4
ENDBRANCH   2   3
ENDBRANCH   1   2
BRANCH   1  25
ATOM     25  C   UNL A   1      35.875  33.469  28.692  1.00  0.00     0.188 C 
BRANCH  25  26
ATOM     26  C   UNL A   1      35.066  34.476  27.873  1.00  0.00     0.188 C 
BRANCH  26  27
ATOM     27  O   UNL A   1      34.406  35.535  28.571  1.00  0.00    -0.376 OA
BRANCH  27  28
ATOM     28  C   UNL A   1      33.122  35.286  29.131  1.00  0.00     0.202 C 
BRANCH  28  29
ATOM     29  C   UNL A   1      32.523  36.414  29.972  1.00  0.00     0.261 C 
BRANCH  29  30
ATOM     30  O   UNL A   1      33.224  36.623  31.205  1.00  0.00    -0.460 OA
BRANCH  30  31
ATOM     31  C   UNL A   1      32.954  35.717  32.174  1.00  0.00     0.338 C 
ATOM     32  O   UNL A   1      31.891  35.556  32.759  1.00  0.00    -0.246 OA
BRANCH  31  33
ATOM     33  C   UNL A   1      34.108  34.818  32.334  1.00  0.00     0.060 A 
ATOM     34  C   UNL A   1      33.895  33.550  32.889  1.00  0.00     0.016 A 
ATOM     35  C   UNL A   1      35.396  35.245  32.001  1.00  0.00     0.016 A 
ATOM     36  C   UNL A   1      34.976  32.709  33.140  1.00  0.00     0.010 A 
ATOM     37  C   UNL A   1      36.479  34.409  32.269  1.00  0.00     0.010 A 
ATOM     38  C   UNL A   1      36.275  33.150  32.862  1.00  0.00    -0.014 A 
BRANCH  38  39
ATOM     39  C   UNL A   1      37.443  32.367  33.323  1.00  0.00     0.031 A 
ATOM     40  C   UNL A   1      38.102  32.754  34.616  1.00  0.00     0.074 A 
ATOM     41  C   UNL A   1      37.914  31.348  32.584  1.00  0.00     0.049 A 
ATOM     42  N   UNL A   1      39.215  32.319  35.142  1.00  0.00    -0.248 NA
ATOM     43  C   UNL A   1      37.412  33.777  35.416  1.00  0.00     0.031 C 
ATOM     44  C   UNL A   1      37.310  30.855  31.347  1.00  0.00     0.029 A 
ATOM     45  N   UNL A   1      39.023  30.560  32.755  1.00  0.00    -0.354 N 
ATOM     46  C   UNL A   1      39.370  33.025  36.330  1.00  0.00     0.074 A 
ATOM     47  C   UNL A   1      38.250  33.935  36.430  1.00  0.00     0.031 C 
ATOM     48  C   UNL A   1      38.072  29.863  30.857  1.00  0.00     0.029 A 
ATOM     49  C   UNL A   1      39.243  29.692  31.713  1.00  0.00     0.049 A 
ATOM     50  H   UNL A   1      39.605  30.611  33.549  1.00  0.00     0.167 HD
ATOM     51  C   UNL A   1      40.361  32.918  37.249  1.00  0.00     0.034 A 
ATOM     52  C   UNL A   1      40.297  28.889  31.458  1.00  0.00     0.034 A 
ATOM     53  C   UNL A   1      41.474  32.011  37.112  1.00  0.00     0.049 A 
ATOM     54  C   UNL A   1      41.448  28.874  32.436  1.00  0.00     0.074 A 
ATOM     55  C   UNL A   1      42.523  31.797  37.987  1.00  0.00     0.029 A 
ATOM     56  N   UNL A   1      41.692  31.180  36.019  1.00  0.00    -0.354 N 
ATOM     57  N   UNL A   1      41.584  29.534  33.564  1.00  0.00    -0.248 NA
ATOM     58  C   UNL A   1      42.590  28.011  32.105  1.00  0.00     0.031 C 
ATOM     59  C   UNL A   1      43.418  30.907  37.386  1.00  0.00     0.029 A 
ATOM     60  C   UNL A   1      42.885  30.494  36.175  1.00  0.00     0.049 A 
ATOM     61  H   UNL A   1      41.087  31.093  35.248  1.00  0.00     0.167 HD
ATOM     62  C   UNL A   1      42.815  29.146  34.087  1.00  0.00     0.074 A 
ATOM     63  C   UNL A   1      43.373  28.183  33.162  1.00  0.00     0.031 C 
ATOM     64  C   UNL A   1      43.430  29.547  35.229  1.00  0.00     0.034 A 
BRANCH  51  65
ATOM     65  C   UNL A   1      40.315  33.844  38.439  1.00  0.00     0.023 A 
ATOM     66  C   UNL A   1      39.616  33.513  39.612  1.00  0.00     0.031 A 
ATOM     67  C   UNL A   1      40.967  35.090  38.391  1.00  0.00     0.131 A 
ATOM     68  C   UNL A   1      39.529  34.443  40.661  1.00  0.00     0.055 A 
ATOM     69  C   UNL A   1      40.945  35.976  39.470  1.00  0.00     0.041 A 
ATOM     70  F   UNL A   1      41.628  35.473  37.287  1.00  0.00    -0.206 F 
ATOM     71  C   UNL A   1      40.212  35.660  40.609  1.00  0.00     0.022 A 
BRANCH  68  72
ATOM     72  S   UNL A   1      38.393  34.098  42.031  1.00  0.00     0.124 S 
ATOM     73  O   UNL A   1      39.012  34.843  43.124  1.00  0.00    -0.237 OA
ATOM     74  O   UNL A   1      37.128  34.627  41.534  1.00  0.00    -0.237 OA
ATOM     75  O   UNL A   1      38.451  32.643  42.167  1.00  0.00    -0.744 OA
ENDBRANCH  68  72
ENDBRANCH  51  65
BRANCH  52  76
ATOM     76  C   UNL A   1      40.351  28.088  30.201  1.00  0.00     0.023 A 
ATOM     77  C   UNL A   1      41.234  28.427  29.165  1.00  0.00     0.031 A 
ATOM     78  C   UNL A   1      39.481  27.001  29.994  1.00  0.00     0.131 A 
ATOM     79  C   UNL A   1      41.197  27.718  27.954  1.00  0.00     0.055 A 
ATOM     80  C   UNL A   1      39.491  26.260  28.811  1.00  0.00     0.041 A 
ATOM     81  F   UNL A   1      38.609  26.637  30.948  1.00  0.00    -0.206 F 
ATOM     82  C   UNL A   1      40.345  26.627  27.776  1.00  0.00     0.022 A 
BRANCH  79  83
ATOM     83  S   UNL A   1      42.214  28.311  26.574  1.00  0.00     0.124 S 
ATOM     84  O   UNL A   1      41.250  29.099  25.814  1.00  0.00    -0.237 OA
ATOM     85  O   UNL A   1      43.254  29.064  27.266  1.00  0.00    -0.237 OA
ATOM     86  O   UNL A   1      42.662  27.078  25.928  1.00  0.00    -0.744 OA
ENDBRANCH  79  83
ENDBRANCH  52  76
BRANCH  64  87
ATOM     87  C   UNL A   1      44.764  28.921  35.552  1.00  0.00     0.023 A 
ATOM     88  C   UNL A   1      45.973  29.510  35.144  1.00  0.00     0.031 A 
ATOM     89  C   UNL A   1      44.827  27.731  36.300  1.00  0.00     0.131 A 
ATOM     90  C   UNL A   1      47.192  28.887  35.451  1.00  0.00     0.055 A 
ATOM     91  C   UNL A   1      46.044  27.150  36.658  1.00  0.00     0.041 A 
ATOM     92  F   UNL A   1      43.702  27.124  36.712  1.00  0.00    -0.206 F 
ATOM     93  C   UNL A   1      47.235  27.723  36.224  1.00  0.00     0.022 A 
BRANCH  90  94
ATOM     94  S   UNL A   1      48.722  29.579  34.766  1.00  0.00     0.124 S 
ATOM     95  O   UNL A   1      49.031  30.634  35.726  1.00  0.00    -0.237 OA
ATOM     96  O   UNL A   1      49.618  28.429  34.771  1.00  0.00    -0.237 OA
ATOM     97  O   UNL A   1      48.321  30.047  33.440  1.00  0.00    -0.744 OA
ENDBRANCH  90  94
ENDBRANCH  64  87
ENDBRANCH  38  39
ENDBRANCH  31  33
ENDBRANCH  30  31
ENDBRANCH  29  30
ENDBRANCH  28  29
ENDBRANCH  27  28
ENDBRANCH  26  27
ENDBRANCH  25  26
ENDBRANCH   1  25
TORSDOF 26
ENDMDL
MODEL 2
REMARK VINA RESULT:      -8.3      8.038     10.679
REMARK SMILES Cc1csc(C[N@H+]2CCC[C@@H](CC(=O)OCCOCCOCCOCCOC(=O)c3ccc(-c4c5nc(c(-c6cc(S(=O)(=O)[O-])ccc6F)c6ccc([nH]6)c(-c6cc(S(=O)(=O)[O-])ccc6F)c6nc(c(-c7cc(S(=O)(=O)[O-])ccc7F)c7ccc4[nH]7)C=C6)C=C5)cc3)C2)n1
REMARK SMILES IDX 21 1 20 2 19 3 18 4 17 5 16 6 15 7 13 8 14 9 12 10 11 11
REMARK SMILES IDX 7 12 8 13 93 14 9 16 10 17 6 18 5 19 1 20 2 21 3 22 94 23
REMARK SMILES IDX 4 24 22 25 23 26 24 27 25 28 26 29 27 30 28 31 29 32 30 33
REMARK SMILES IDX 31 34 92 35 32 36 91 37 33 38 34 39 35 40 85 41 36 42 90 43
REMARK SMILES IDX 84 44 86 45 37 46 89 47 83 48 82 49 38 51 70 52 50 53 69 54
REMARK SMILES IDX 51 55 54 56 68 57 87 58 52 59 53 60 67 62 88 63 55 64 39 65
REMARK SMILES IDX 40 66 48 67 41 68 47 69 49 70 46 71 42 72 43 73 44 74 45 75
REMARK SMILES IDX 71 76 72 77 80 78 73 79 79 80 81 81 78 82 74 83 75 84 76 85
REMARK SMILES IDX 77 86 56 87 57 88 65 89 58 90 64 91 66 92 63 93 59 94 60 95
REMARK SMILES IDX 61 96 62 97
REMARK H PARENT 7 15 86 50 54 61
REMARK Flexibility Score: inf
ROOT
ATOM      1  O   UNL A   1      33.157  30.067  27.323  1.00  0.00    -0.377 OA
ENDROOT
BRANCH   1   2
ATOM      2  C   UNL A   1      32.072  30.597  26.587  1.00  0.00     0.188 C 
BRANCH   2   3
ATOM      3  C   UNL A   1      31.924  30.068  25.158  1.00  0.00     0.188 C 
BRANCH   3   4
ATOM      4  O   UNL A   1      30.675  29.489  24.810  1.00  0.00    -0.376 OA
BRANCH   4   5
ATOM      5  C   UNL A   1      29.913  30.110  23.776  1.00  0.00     0.202 C 
BRANCH   5   6
ATOM      6  C   UNL A   1      30.110  29.633  22.326  1.00  0.00     0.261 C 
BRANCH   6   7
ATOM      7  O   UNL A   1      30.128  28.193  22.185  1.00  0.00    -0.463 OA
BRANCH   7   8
ATOM      8  C   UNL A   1      31.309  27.582  22.444  1.00  0.00     0.306 C 
ATOM      9  O   UNL A   1      32.400  28.117  22.261  1.00  0.00    -0.252 OA
BRANCH   8  10
ATOM     10  C   UNL A   1      31.229  26.262  23.195  1.00  0.00     0.132 C 
BRANCH  10  11
ATOM     11  C   UNL A   1      32.217  25.070  23.125  1.00  0.00     0.055 C 
ATOM     12  N   UNL A   1      32.511  22.730  24.028  1.00  0.00    -0.329 N 
ATOM     13  C   UNL A   1      32.633  22.202  22.671  1.00  0.00     0.262 C 
ATOM     14  C   UNL A   1      31.673  23.934  24.027  1.00  0.00     0.266 C 
ATOM     15  H   UNL A   1      33.444  22.993  24.346  1.00  0.00     0.348 HD
ATOM     16  C   UNL A   1      33.350  23.215  21.780  1.00  0.00     0.062 C 
ATOM     17  C   UNL A   1      32.654  24.581  21.742  1.00  0.00     0.016 C 
BRANCH  12  18
ATOM     18  C   UNL A   1      32.039  21.714  25.001  1.00  0.00     0.331 C 
BRANCH  18  19
ATOM     19  C   UNL A   1      32.728  20.363  24.988  1.00  0.00     0.147 A 
ATOM     20  C   UNL A   1      32.513  16.763  24.992  1.00  0.00     0.067 C 
ATOM     21  C   UNL A   1      33.025  18.157  25.004  1.00  0.00     0.049 A 
ATOM     22  C   UNL A   1      34.345  18.556  24.952  1.00  0.00     0.090 A 
ATOM     23  N   UNL A   1      32.112  19.197  25.063  1.00  0.00    -0.240 NA
ATOM     24  S   UNL A   1      34.448  20.266  24.936  1.00  0.00    -0.121 S 
ENDBRANCH  18  19
ENDBRANCH  12  18
ENDBRANCH  10  11
ENDBRANCH   8  10
ENDBRANCH   7   8
ENDBRANCH   6   7
ENDBRANCH   5   6
ENDBRANCH   4   5
ENDBRANCH   3   4
ENDBRANCH   2   3
ENDBRANCH   1   2
BRANCH   1  25
ATOM     25  C   UNL A   1      34.416  30.733  27.353  1.00  0.00     0.188 C 
BRANCH  25  26
ATOM     26  C   UNL A   1      34.745  31.617  28.558  1.00  0.00     0.188 C 
BRANCH  26  27
ATOM     27  O   UNL A   1      34.054  32.863  28.687  1.00  0.00    -0.376 OA
BRANCH  27  28
ATOM     28  C   UNL A   1      34.290  33.656  29.844  1.00  0.00     0.202 C 
BRANCH  28  29
ATOM     29  C   UNL A   1      35.442  33.207  30.744  1.00  0.00     0.261 C 
BRANCH  29  30
ATOM     30  O   UNL A   1      36.651  33.942  30.510  1.00  0.00    -0.460 OA
BRANCH  30  31
ATOM     31  C   UNL A   1      37.698  33.575  31.286  1.00  0.00     0.338 C 
ATOM     32  O   UNL A   1      37.673  32.835  32.259  1.00  0.00    -0.246 OA
BRANCH  31  33
ATOM     33  C   UNL A   1      38.943  34.089  30.694  1.00  0.00     0.060 A 
ATOM     34  C   UNL A   1      38.944  34.437  29.337  1.00  0.00     0.016 A 
ATOM     35  C   UNL A   1      40.115  34.164  31.451  1.00  0.00     0.016 A 
ATOM     36  C   UNL A   1      40.126  34.839  28.722  1.00  0.00     0.010 A 
ATOM     37  C   UNL A   1      41.302  34.550  30.829  1.00  0.00     0.010 A 
ATOM     38  C   UNL A   1      41.317  34.864  29.458  1.00  0.00    -0.014 A 
BRANCH  38  39
ATOM     39  C   UNL A   1      42.612  35.073  28.775  1.00  0.00     0.031 A 
ATOM     40  C   UNL A   1      43.578  33.924  28.700  1.00  0.00     0.074 A 
ATOM     41  C   UNL A   1      42.924  36.273  28.257  1.00  0.00     0.049 A 
ATOM     42  N   UNL A   1      44.817  33.908  28.290  1.00  0.00    -0.248 NA
ATOM     43  C   UNL A   1      43.073  32.620  29.158  1.00  0.00     0.031 C 
ATOM     44  C   UNL A   1      42.034  37.432  28.224  1.00  0.00     0.029 A 
ATOM     45  N   UNL A   1      44.083  36.722  27.679  1.00  0.00    -0.354 N 
ATOM     46  C   UNL A   1      45.250  32.597  28.453  1.00  0.00     0.074 A 
ATOM     47  C   UNL A   1      44.147  31.856  29.026  1.00  0.00     0.031 C 
ATOM     48  C   UNL A   1      42.691  38.469  27.677  1.00  0.00     0.029 A 
ATOM     49  C   UNL A   1      44.061  38.062  27.377  1.00  0.00     0.049 A 
ATOM     50  H   UNL A   1      44.857  36.139  27.498  1.00  0.00     0.167 HD
ATOM     51  C   UNL A   1      46.460  32.067  28.152  1.00  0.00     0.034 A 
ATOM     52  C   UNL A   1      45.051  38.874  26.954  1.00  0.00     0.034 A 
ATOM     53  C   UNL A   1      47.547  32.837  27.597  1.00  0.00     0.049 A 
ATOM     54  C   UNL A   1      46.426  38.288  26.738  1.00  0.00     0.074 A 
ATOM     55  C   UNL A   1      48.808  32.405  27.228  1.00  0.00     0.029 A 
ATOM     56  N   UNL A   1      47.506  34.204  27.349  1.00  0.00    -0.354 N 
ATOM     57  N   UNL A   1      46.827  37.044  26.881  1.00  0.00    -0.248 NA
ATOM     58  C   UNL A   1      47.484  39.213  26.307  1.00  0.00     0.031 C 
ATOM     59  C   UNL A   1      49.556  33.522  26.843  1.00  0.00     0.029 A 
ATOM     60  C   UNL A   1      48.736  34.639  26.883  1.00  0.00     0.049 A 
ATOM     61  H   UNL A   1      46.718  34.778  27.484  1.00  0.00     0.167 HD
ATOM     62  C   UNL A   1      48.176  37.036  26.536  1.00  0.00     0.074 A 
ATOM     63  C   UNL A   1      48.515  38.392  26.160  1.00  0.00     0.031 C 
ATOM     64  C   UNL A   1      49.056  36.002  26.528  1.00  0.00     0.034 A 
BRANCH  51  65
ATOM     65  C   UNL A   1      46.688  30.611  28.476  1.00  0.00     0.023 A 
ATOM     66  C   UNL A   1      46.357  29.588  27.571  1.00  0.00     0.031 A 
ATOM     67  C   UNL A   1      47.227  30.239  29.721  1.00  0.00     0.131 A 
ATOM     68  C   UNL A   1      46.505  28.244  27.949  1.00  0.00     0.055 A 
ATOM     69  C   UNL A   1      47.449  28.902  30.059  1.00  0.00     0.041 A 
ATOM     70  F   UNL A   1      47.537  31.170  30.637  1.00  0.00    -0.206 F 
ATOM     71  C   UNL A   1      47.075  27.895  29.176  1.00  0.00     0.022 A 
BRANCH  68  72
ATOM     72  S   UNL A   1      45.810  26.960  26.873  1.00  0.00     0.124 S 
ATOM     73  O   UNL A   1      45.333  27.749  25.741  1.00  0.00    -0.237 OA
ATOM     74  O   UNL A   1      46.963  26.106  26.615  1.00  0.00    -0.237 OA
ATOM     75  O   UNL A   1      44.759  26.359  27.692  1.00  0.00    -0.744 OA
ENDBRANCH  68  72
ENDBRANCH  51  65
BRANCH  52  76
ATOM     76  C   UNL A   1      44.805  40.334  26.771  1.00  0.00     0.023 A 
ATOM     77  C   UNL A   1      44.303  40.836  25.560  1.00  0.00     0.031 A 
ATOM     78  C   UNL A   1      45.120  41.257  27.785  1.00  0.00     0.131 A 
ATOM     79  C   UNL A   1      44.174  42.222  25.378  1.00  0.00     0.055 A 
ATOM     80  C   UNL A   1      44.932  42.630  27.621  1.00  0.00     0.041 A 
ATOM     81  F   UNL A   1      45.613  40.834  28.960  1.00  0.00    -0.206 F 
ATOM     82  C   UNL A   1      44.468  43.121  26.405  1.00  0.00     0.022 A 
BRANCH  79  83
ATOM     83  S   UNL A   1      43.708  42.839  23.737  1.00  0.00     0.124 S 
ATOM     84  O   UNL A   1      43.509  44.259  24.001  1.00  0.00    -0.237 OA
ATOM     85  O   UNL A   1      44.881  42.493  22.941  1.00  0.00    -0.237 OA
ATOM     86  O   UNL A   1      42.496  42.085  23.422  1.00  0.00    -0.744 OA
ENDBRANCH  79  83
ENDBRANCH  52  76
BRANCH  64  87
ATOM     87  C   UNL A   1      50.464  36.297  26.072  1.00  0.00     0.023 A 
ATOM     88  C   UNL A   1      51.519  36.447  26.988  1.00  0.00     0.031 A 
ATOM     89  C   UNL A   1      50.757  36.404  24.700  1.00  0.00     0.131 A 
ATOM     90  C   UNL A   1      52.811  36.736  26.522  1.00  0.00     0.055 A 
ATOM     91  C   UNL A   1      52.055  36.628  24.240  1.00  0.00     0.041 A 
ATOM     92  F   UNL A   1      49.785  36.273  23.782  1.00  0.00    -0.206 F 
ATOM     93  C   UNL A   1      53.089  36.806  25.155  1.00  0.00     0.022 A 
BRANCH  90  94
ATOM     94  S   UNL A   1      54.113  37.092  27.733  1.00  0.00     0.124 S 
ATOM     95  O   UNL A   1      55.322  36.799  26.970  1.00  0.00    -0.237 OA
ATOM     96  O   UNL A   1      53.879  38.498  28.042  1.00  0.00    -0.237 OA
ATOM     97  O   UNL A   1      53.829  36.163  28.825  1.00  0.00    -0.744 OA
ENDBRANCH  90  94
ENDBRANCH  64  87
ENDBRANCH  38  39
ENDBRANCH  31  33
ENDBRANCH  30  31
ENDBRANCH  29  30
ENDBRANCH  28  29
ENDBRANCH  27  28
ENDBRANCH  26  27
ENDBRANCH  25  26
ENDBRANCH   1  25
TORSDOF 26
ENDMDL
MODEL 3
REMARK VINA RESULT:      -8.3      6.252     11.732
REMARK SMILES Cc1csc(C[N@H+]2CCC[C@@H](CC(=O)OCCOCCOCCOCCOC(=O)c3ccc(-c4c5nc(c(-c6cc(S(=O)(=O)[O-])ccc6F)c6ccc([nH]6)c(-c6cc(S(=O)(=O)[O-])ccc6F)c6nc(c(-c7cc(S(=O)(=O)[O-])ccc7F)c7ccc4[nH]7)C=C6)C=C5)cc3)C2)n1
REMARK SMILES IDX 21 1 20 2 19 3 18 4 17 5 16 6 15 7 13 8 14 9 12 10 11 11
REMARK SMILES IDX 7 12 8 13 93 14 9 16 10 17 6 18 5 19 1 20 2 21 3 22 94 23
REMARK SMILES IDX 4 24 22 25 23 26 24 27 25 28 26 29 27 30 28 31 29 32 30 33
REMARK SMILES IDX 31 34 92 35 32 36 91 37 33 38 34 39 35 40 85 41 36 42 90 43
REMARK SMILES IDX 84 44 86 45 37 46 89 47 83 48 82 49 38 51 70 52 50 53 69 54
REMARK SMILES IDX 51 55 54 56 68 57 87 58 52 59 53 60 67 62 88 63 55 64 39 65
REMARK SMILES IDX 40 66 48 67 41 68 47 69 49 70 46 71 42 72 43 73 44 74 45 75
REMARK SMILES IDX 71 76 72 77 80 78 73 79 79 80 81 81 78 82 74 83 75 84 76 85
REMARK SMILES IDX 77 86 56 87 57 88 65 89 58 90 64 91 66 92 63 93 59 94 60 95
REMARK SMILES IDX 61 96 62 97
REMARK H PARENT 7 15 86 50 54 61
REMARK Flexibility Score: inf
ROOT
ATOM      1  O   UNL A   1      37.376  23.017  24.047  1.00  0.00    -0.377 OA
ENDROOT
BRANCH   1   2
ATOM      2  C   UNL A   1      36.104  23.566  23.766  1.00  0.00     0.188 C 
BRANCH   2   3
ATOM      3  C   UNL A   1      35.417  24.271  24.938  1.00  0.00     0.188 C 
BRANCH   3   4
ATOM      4  O   UNL A   1      34.479  25.288  24.620  1.00  0.00    -0.376 OA
BRANCH   4   5
ATOM      5  C   UNL A   1      33.930  26.053  25.692  1.00  0.00     0.202 C 
BRANCH   5   6
ATOM      6  C   UNL A   1      33.268  27.405  25.371  1.00  0.00     0.261 C 
BRANCH   6   7
ATOM      7  O   UNL A   1      32.524  27.408  24.130  1.00  0.00    -0.463 OA
BRANCH   7   8
ATOM      8  C   UNL A   1      31.191  27.626  24.235  1.00  0.00     0.306 C 
ATOM      9  O   UNL A   1      30.701  28.737  24.429  1.00  0.00    -0.252 OA
BRANCH   8  10
ATOM     10  C   UNL A   1      30.291  26.454  23.874  1.00  0.00     0.132 C 
BRANCH  10  11
ATOM     11  C   UNL A   1      30.276  25.040  24.509  1.00  0.00     0.055 C 
ATOM     12  N   UNL A   1      31.445  22.809  24.322  1.00  0.00    -0.329 N 
ATOM     13  C   UNL A   1      31.781  22.846  25.744  1.00  0.00     0.262 C 
ATOM     14  C   UNL A   1      31.343  24.174  23.794  1.00  0.00     0.266 C 
ATOM     15  H   UNL A   1      30.533  22.363  24.228  1.00  0.00     0.348 HD
ATOM     16  C   UNL A   1      30.655  23.519  26.528  1.00  0.00     0.062 C 
ATOM     17  C   UNL A   1      30.343  24.937  26.035  1.00  0.00     0.016 C 
BRANCH  12  18
ATOM     18  C   UNL A   1      32.377  21.967  23.533  1.00  0.00     0.331 C 
BRANCH  18  19
ATOM     19  C   UNL A   1      32.871  20.684  24.174  1.00  0.00     0.147 A 
ATOM     20  C   UNL A   1      32.248  17.288  25.216  1.00  0.00     0.067 C 
ATOM     21  C   UNL A   1      32.888  18.606  24.971  1.00  0.00     0.049 A 
ATOM     22  C   UNL A   1      34.192  18.960  25.252  1.00  0.00     0.090 A 
ATOM     23  N   UNL A   1      32.132  19.611  24.391  1.00  0.00    -0.240 NA
ATOM     24  S   UNL A   1      34.493  20.569  24.745  1.00  0.00    -0.121 S 
ENDBRANCH  18  19
ENDBRANCH  12  18
ENDBRANCH  10  11
ENDBRANCH   8  10
ENDBRANCH   7   8
ENDBRANCH   6   7
ENDBRANCH   5   6
ENDBRANCH   4   5
ENDBRANCH   3   4
ENDBRANCH   2   3
ENDBRANCH   1   2
BRANCH   1  25
ATOM     25  C   UNL A   1      37.807  22.817  25.391  1.00  0.00     0.188 C 
BRANCH  25  26
ATOM     26  C   UNL A   1      38.385  21.455  25.776  1.00  0.00     0.188 C 
BRANCH  26  27
ATOM     27  O   UNL A   1      39.806  21.332  25.880  1.00  0.00    -0.376 OA
BRANCH  27  28
ATOM     28  C   UNL A   1      40.348  20.581  26.960  1.00  0.00     0.202 C 
BRANCH  28  29
ATOM     29  C   UNL A   1      41.659  19.845  26.678  1.00  0.00     0.261 C 
BRANCH  29  30
ATOM     30  O   UNL A   1      42.255  20.226  25.431  1.00  0.00    -0.460 OA
BRANCH  30  31
ATOM     31  C   UNL A   1      43.607  20.284  25.442  1.00  0.00     0.338 C 
ATOM     32  O   UNL A   1      44.388  19.379  25.182  1.00  0.00    -0.246 OA
BRANCH  31  33
ATOM     33  C   UNL A   1      44.031  21.674  25.675  1.00  0.00     0.060 A 
ATOM     34  C   UNL A   1      44.480  22.030  26.953  1.00  0.00     0.016 A 
ATOM     35  C   UNL A   1      43.926  22.631  24.663  1.00  0.00     0.016 A 
ATOM     36  C   UNL A   1      44.802  23.355  27.234  1.00  0.00     0.010 A 
ATOM     37  C   UNL A   1      44.232  23.961  24.950  1.00  0.00     0.010 A 
ATOM     38  C   UNL A   1      44.646  24.331  26.243  1.00  0.00    -0.014 A 
BRANCH  38  39
ATOM     39  C   UNL A   1      44.770  25.765  26.582  1.00  0.00     0.031 A 
ATOM     40  C   UNL A   1      46.113  26.423  26.442  1.00  0.00     0.074 A 
ATOM     41  C   UNL A   1      43.706  26.454  27.030  1.00  0.00     0.049 A 
ATOM     42  N   UNL A   1      46.497  27.613  26.817  1.00  0.00    -0.248 NA
ATOM     43  C   UNL A   1      47.165  25.621  25.797  1.00  0.00     0.031 C 
ATOM     44  C   UNL A   1      42.348  25.925  27.144  1.00  0.00     0.029 A 
ATOM     45  N   UNL A   1      43.607  27.740  27.494  1.00  0.00    -0.354 N 
ATOM     46  C   UNL A   1      47.841  27.702  26.468  1.00  0.00     0.074 A 
ATOM     47  C   UNL A   1      48.208  26.433  25.877  1.00  0.00     0.031 C 
ATOM     48  C   UNL A   1      41.555  26.874  27.670  1.00  0.00     0.029 A 
ATOM     49  C   UNL A   1      42.360  28.051  27.983  1.00  0.00     0.049 A 
ATOM     50  H   UNL A   1      44.356  28.380  27.478  1.00  0.00     0.167 HD
ATOM     51  C   UNL A   1      48.684  28.750  26.631  1.00  0.00     0.034 A 
ATOM     52  C   UNL A   1      41.936  29.143  28.650  1.00  0.00     0.034 A 
ATOM     53  C   UNL A   1      48.290  29.998  27.239  1.00  0.00     0.049 A 
ATOM     54  C   UNL A   1      42.925  30.252  28.927  1.00  0.00     0.074 A 
ATOM     55  C   UNL A   1      49.049  31.138  27.435  1.00  0.00     0.029 A 
ATOM     56  N   UNL A   1      47.032  30.261  27.768  1.00  0.00    -0.354 N 
ATOM     57  N   UNL A   1      44.191  30.336  28.585  1.00  0.00    -0.248 NA
ATOM     58  C   UNL A   1      42.430  31.410  29.685  1.00  0.00     0.031 C 
ATOM     59  C   UNL A   1      48.280  32.053  28.160  1.00  0.00     0.029 A 
ATOM     60  C   UNL A   1      47.011  31.524  28.337  1.00  0.00     0.049 A 
ATOM     61  H   UNL A   1      46.268  29.641  27.742  1.00  0.00     0.167 HD
ATOM     62  C   UNL A   1      44.635  31.565  29.064  1.00  0.00     0.074 A 
ATOM     63  C   UNL A   1      43.498  32.195  29.704  1.00  0.00     0.031 C 
ATOM     64  C   UNL A   1      45.869  32.126  28.984  1.00  0.00     0.034 A 
BRANCH  51  65
ATOM     65  C   UNL A   1      50.120  28.566  26.204  1.00  0.00     0.023 A 
ATOM     66  C   UNL A   1      50.550  28.855  24.899  1.00  0.00     0.031 A 
ATOM     67  C   UNL A   1      51.071  28.073  27.116  1.00  0.00     0.131 A 
ATOM     68  C   UNL A   1      51.876  28.587  24.523  1.00  0.00     0.055 A 
ATOM     69  C   UNL A   1      52.407  27.886  26.759  1.00  0.00     0.041 A 
ATOM     70  F   UNL A   1      50.713  27.753  28.370  1.00  0.00    -0.206 F 
ATOM     71  C   UNL A   1      52.814  28.131  25.452  1.00  0.00     0.022 A 
BRANCH  68  72
ATOM     72  S   UNL A   1      52.319  28.706  22.769  1.00  0.00     0.124 S 
ATOM     73  O   UNL A   1      53.670  29.258  22.842  1.00  0.00    -0.237 OA
ATOM     74  O   UNL A   1      52.219  27.321  22.323  1.00  0.00    -0.237 OA
ATOM     75  O   UNL A   1      51.312  29.613  22.220  1.00  0.00    -0.744 OA
ENDBRANCH  68  72
ENDBRANCH  51  65
BRANCH  52  76
ATOM     76  C   UNL A   1      40.537  29.221  29.163  1.00  0.00     0.023 A 
ATOM     77  C   UNL A   1      40.265  29.122  30.536  1.00  0.00     0.031 A 
ATOM     78  C   UNL A   1      39.446  29.341  28.282  1.00  0.00     0.131 A 
ATOM     79  C   UNL A   1      38.934  29.099  30.984  1.00  0.00     0.055 A 
ATOM     80  C   UNL A   1      38.128  29.380  28.739  1.00  0.00     0.041 A 
ATOM     81  F   UNL A   1      39.648  29.431  26.958  1.00  0.00    -0.206 F 
ATOM     82  C   UNL A   1      37.865  29.245  30.099  1.00  0.00     0.022 A 
BRANCH  79  83
ATOM     83  S   UNL A   1      38.620  28.773  32.741  1.00  0.00     0.124 S 
ATOM     84  O   UNL A   1      37.766  27.593  32.674  1.00  0.00    -0.237 OA
ATOM     85  O   UNL A   1      39.969  28.560  33.255  1.00  0.00    -0.237 OA
ATOM     86  O   UNL A   1      37.964  29.995  33.201  1.00  0.00    -0.744 OA
ENDBRANCH  79  83
ENDBRANCH  52  76
BRANCH  64  87
ATOM     87  C   UNL A   1      46.043  33.501  29.580  1.00  0.00     0.023 A 
ATOM     88  C   UNL A   1      45.782  34.665  28.837  1.00  0.00     0.031 A 
ATOM     89  C   UNL A   1      46.453  33.648  30.918  1.00  0.00     0.131 A 
ATOM     90  C   UNL A   1      45.973  35.925  29.424  1.00  0.00     0.055 A 
ATOM     91  C   UNL A   1      46.579  34.902  31.515  1.00  0.00     0.041 A 
ATOM     92  F   UNL A   1      46.720  32.569  31.672  1.00  0.00    -0.206 F 
ATOM     93  C   UNL A   1      46.348  36.050  30.764  1.00  0.00     0.022 A 
BRANCH  90  94
ATOM     94  S   UNL A   1      45.792  37.404  28.389  1.00  0.00     0.124 S 
ATOM     95  O   UNL A   1      44.396  37.312  27.974  1.00  0.00    -0.237 OA
ATOM     96  O   UNL A   1      46.110  38.480  29.321  1.00  0.00    -0.237 OA
ATOM     97  O   UNL A   1      46.771  37.198  27.324  1.00  0.00    -0.744 OA
ENDBRANCH  90  94
ENDBRANCH  64  87
ENDBRANCH  38  39
ENDBRANCH  31  33
ENDBRANCH  30  31
ENDBRANCH  29  30
ENDBRANCH  28  29
ENDBRANCH  27  28
ENDBRANCH  26  27
ENDBRANCH  25  26
ENDBRANCH   1  25
TORSDOF 26
ENDMDL
