MODEL 1
REMARK VINA RESULT:     -10.7      0.000      0.000
REMARK SMILES Cc1ccccc1C(=O)Nc1cc(C(=O)OCCOCCOCCOCCOC(=O)c2ccc(-c3c4nc(c(-c5cc(S(=O)(=O)[O-])ccc5F)c5ccc([nH]5)c(-c5cc(S(=O)(=O)[O-])ccc5F)c5nc(c(-c6cc(S(=O)(=O)[O-])ccc6F)c6ccc3[nH]6)C=C5)C=C4)cc2)ccc1N1CC[NH+](CC(=O)Nc2ccc(F)cc2)CC1
REMARK SMILES IDX 21 1 20 2 19 3 18 4 17 5 16 6 14 7 15 8 13 9 11 10 12 11
REMARK SMILES IDX 96 12 95 13 94 14 10 15 8 16 9 17 7 19 1 20 2 21 3 22 4 23
REMARK SMILES IDX 6 24 5 25 97 26 98 27 113 28 99 29 112 30 100 31 101 33
REMARK SMILES IDX 102 34 103 35 104 36 105 38 106 39 111 40 107 41 110 42
REMARK SMILES IDX 108 43 109 44 22 45 23 46 24 47 25 48 26 49 27 50 28 51
REMARK SMILES IDX 29 52 30 53 31 54 32 55 93 56 33 57 92 58 34 59 35 60 36 61
REMARK SMILES IDX 86 62 37 63 91 64 85 65 87 66 38 67 90 68 84 69 83 70 39 72
REMARK SMILES IDX 71 73 51 74 70 75 52 76 55 77 69 78 88 79 53 80 54 81 68 83
REMARK SMILES IDX 89 84 56 85 40 86 41 87 49 88 42 89 48 90 50 91 47 92 43 93
REMARK SMILES IDX 44 94 45 95 46 96 72 97 73 98 81 99 74 100 80 101 82 102
REMARK SMILES IDX 79 103 75 104 76 105 77 106 78 107 57 108 58 109 66 110
REMARK SMILES IDX 59 111 65 112 67 113 64 114 60 115 61 116 62 117 63 118
REMARK H PARENT 10 18 100 32 104 37 87 71 55 82
REMARK Flexibility Score: inf
ROOT
ATOM      1  C   UNL A   1      32.613  29.011  22.785  1.00  0.00     0.188 C 
ENDROOT
BRANCH   1   2
ATOM      2  C   UNL A   1      31.180  29.318  22.379  1.00  0.00     0.188 C 
BRANCH   2   3
ATOM      3  O   UNL A   1      30.273  29.971  23.260  1.00  0.00    -0.376 OA
BRANCH   3   4
ATOM      4  C   UNL A   1      28.909  29.924  22.817  1.00  0.00     0.202 C 
BRANCH   4   5
ATOM      5  C   UNL A   1      28.172  28.572  22.901  1.00  0.00     0.261 C 
BRANCH   5   6
ATOM      6  O   UNL A   1      29.059  27.456  22.993  1.00  0.00    -0.460 OA
BRANCH   6   7
ATOM      7  C   UNL A   1      28.693  26.505  23.866  1.00  0.00     0.338 C 
ATOM      8  O   UNL A   1      27.634  25.925  23.946  1.00  0.00    -0.246 OA
BRANCH   7   9
ATOM      9  C   UNL A   1      29.960  25.979  24.417  1.00  0.00     0.062 A 
ATOM     10  C   UNL A   1      32.056  24.795  24.284  1.00  0.00     0.065 A 
ATOM     11  C   UNL A   1      30.928  25.300  23.657  1.00  0.00     0.044 A 
ATOM     12  C   UNL A   1      32.119  24.774  25.723  1.00  0.00     0.061 A 
ATOM     13  C   UNL A   1      31.014  25.272  26.440  1.00  0.00     0.029 A 
ATOM     14  C   UNL A   1      29.998  25.952  25.804  1.00  0.00     0.018 A 
BRANCH  10  15
ATOM     15  N   UNL A   1      33.155  24.322  23.542  1.00  0.00    -0.320 N 
ATOM     16  C   UNL A   1      33.504  23.114  22.958  1.00  0.00     0.255 C 
ATOM     17  O   UNL A   1      34.305  23.223  22.011  1.00  0.00    -0.269 OA
ATOM     18  H   UNL A   1      33.840  25.016  23.404  1.00  0.00     0.170 HD
BRANCH  16  19
ATOM     19  C   UNL A   1      33.047  21.713  23.265  1.00  0.00     0.043 A 
ATOM     20  C   UNL A   1      31.795  20.980  21.111  1.00  0.00     0.045 C 
ATOM     21  C   UNL A   1      32.233  20.833  22.534  1.00  0.00    -0.038 A 
ATOM     22  C   UNL A   1      31.838  19.605  23.118  1.00  0.00     0.004 A 
ATOM     23  C   UNL A   1      32.388  19.144  24.305  1.00  0.00     0.000 A 
ATOM     24  C   UNL A   1      33.638  21.187  24.447  1.00  0.00     0.014 A 
ATOM     25  C   UNL A   1      33.339  19.914  24.944  1.00  0.00     0.001 A 
ENDBRANCH  16  19
ENDBRANCH  10  15
BRANCH  12  26
ATOM     26  N   UNL A   1      33.307  24.449  26.451  1.00  0.00    -0.359 N 
ATOM     27  C   UNL A   1      34.611  24.918  25.878  1.00  0.00     0.178 C 
ATOM     28  C   UNL A   1      33.344  23.017  26.770  1.00  0.00     0.178 C 
ATOM     29  C   UNL A   1      35.869  24.271  26.519  1.00  0.00     0.284 C 
ATOM     30  C   UNL A   1      34.553  22.697  27.652  1.00  0.00     0.284 C 
ATOM     31  N   UNL A   1      35.789  22.856  26.912  1.00  0.00    -0.324 N 
ATOM     32  H   UNL A   1      36.637  22.706  27.457  1.00  0.00     0.348 HD
BRANCH  31  33
ATOM     33  C   UNL A   1      36.028  21.757  25.943  1.00  0.00     0.364 C 
BRANCH  33  34
ATOM     34  C   UNL A   1      37.259  21.720  25.019  1.00  0.00     0.279 C 
ATOM     35  O   UNL A   1      37.072  21.396  23.831  1.00  0.00    -0.268 OA
ATOM     36  N   UNL A   1      38.539  22.140  25.292  1.00  0.00    -0.321 N 
ATOM     37  H   UNL A   1      38.986  22.350  24.439  1.00  0.00     0.170 HD
BRANCH  36  38
ATOM     38  C   UNL A   1      39.458  22.382  26.354  1.00  0.00     0.041 A 
ATOM     39  C   UNL A   1      39.560  23.720  26.783  1.00  0.00     0.029 A 
ATOM     40  C   UNL A   1      40.370  21.503  26.930  1.00  0.00     0.029 A 
ATOM     41  C   UNL A   1      40.502  24.135  27.743  1.00  0.00     0.041 A 
ATOM     42  C   UNL A   1      41.355  21.911  27.852  1.00  0.00     0.041 A 
ATOM     43  C   UNL A   1      41.400  23.223  28.268  1.00  0.00     0.123 A 
ATOM     44  F   UNL A   1      42.306  23.608  29.174  1.00  0.00    -0.207 F 
ENDBRANCH  36  38
ENDBRANCH  33  34
ENDBRANCH  31  33
ENDBRANCH  12  26
ENDBRANCH   7   9
ENDBRANCH   6   7
ENDBRANCH   5   6
ENDBRANCH   4   5
ENDBRANCH   3   4
ENDBRANCH   2   3
ENDBRANCH   1   2
BRANCH   1  45
ATOM     45  O   UNL A   1      32.666  27.990  23.771  1.00  0.00    -0.377 OA
BRANCH  45  46
ATOM     46  C   UNL A   1      32.681  28.535  25.084  1.00  0.00     0.188 C 
BRANCH  46  47
ATOM     47  C   UNL A   1      33.959  28.137  25.811  1.00  0.00     0.188 C 
BRANCH  47  48
ATOM     48  O   UNL A   1      34.163  28.697  27.106  1.00  0.00    -0.376 OA
BRANCH  48  49
ATOM     49  C   UNL A   1      34.833  29.936  27.270  1.00  0.00     0.202 C 
BRANCH  49  50
ATOM     50  C   UNL A   1      34.047  31.024  28.002  1.00  0.00     0.261 C 
BRANCH  50  51
ATOM     51  O   UNL A   1      34.607  32.319  27.704  1.00  0.00    -0.460 OA
BRANCH  51  52
ATOM     52  C   UNL A   1      34.337  33.294  28.617  1.00  0.00     0.338 C 
ATOM     53  O   UNL A   1      33.358  34.018  28.589  1.00  0.00    -0.246 OA
BRANCH  52  54
ATOM     54  C   UNL A   1      35.502  33.477  29.538  1.00  0.00     0.060 A 
ATOM     55  C   UNL A   1      36.746  33.893  29.025  1.00  0.00     0.016 A 
ATOM     56  C   UNL A   1      35.443  32.897  30.798  1.00  0.00     0.016 A 
ATOM     57  C   UNL A   1      37.941  33.541  29.683  1.00  0.00     0.010 A 
ATOM     58  C   UNL A   1      36.621  32.457  31.371  1.00  0.00     0.010 A 
ATOM     59  C   UNL A   1      37.885  32.715  30.805  1.00  0.00    -0.014 A 
BRANCH  59  60
ATOM     60  C   UNL A   1      38.987  31.852  31.321  1.00  0.00     0.031 A 
ATOM     61  C   UNL A   1      39.277  30.559  30.583  1.00  0.00     0.074 A 
ATOM     62  C   UNL A   1      39.920  32.463  32.103  1.00  0.00     0.049 A 
ATOM     63  N   UNL A   1      40.311  29.800  30.715  1.00  0.00    -0.248 NA
ATOM     64  C   UNL A   1      38.357  30.003  29.583  1.00  0.00     0.031 C 
ATOM     65  C   UNL A   1      41.368  32.274  32.091  1.00  0.00     0.029 A 
ATOM     66  N   UNL A   1      39.765  33.436  33.094  1.00  0.00    -0.354 N 
ATOM     67  C   UNL A   1      40.366  28.900  29.645  1.00  0.00     0.074 A 
ATOM     68  C   UNL A   1      39.084  29.036  29.012  1.00  0.00     0.031 C 
ATOM     69  C   UNL A   1      41.969  32.987  33.049  1.00  0.00     0.029 A 
ATOM     70  C   UNL A   1      40.926  33.445  33.906  1.00  0.00     0.049 A 
ATOM     71  H   UNL A   1      38.980  34.018  33.210  1.00  0.00     0.167 HD
ATOM     72  C   UNL A   1      41.540  28.239  29.365  1.00  0.00     0.034 A 
ATOM     73  C   UNL A   1      40.869  33.051  35.208  1.00  0.00     0.034 A 
ATOM     74  C   UNL A   1      42.499  28.407  30.472  1.00  0.00     0.049 A 
ATOM     75  C   UNL A   1      41.431  31.630  35.410  1.00  0.00     0.074 A 
ATOM     76  C   UNL A   1      43.816  28.821  30.584  1.00  0.00     0.029 A 
ATOM     77  N   UNL A   1      42.032  28.293  31.780  1.00  0.00    -0.354 N 
ATOM     78  N   UNL A   1      41.658  30.777  34.425  1.00  0.00    -0.248 NA
ATOM     79  C   UNL A   1      41.902  31.095  36.686  1.00  0.00     0.031 C 
ATOM     80  C   UNL A   1      44.062  29.121  31.957  1.00  0.00     0.029 A 
ATOM     81  C   UNL A   1      42.932  28.792  32.691  1.00  0.00     0.049 A 
ATOM     82  H   UNL A   1      41.162  27.901  32.023  1.00  0.00     0.167 HD
ATOM     83  C   UNL A   1      42.292  29.650  34.888  1.00  0.00     0.074 A 
ATOM     84  C   UNL A   1      42.423  29.910  36.313  1.00  0.00     0.031 C 
ATOM     85  C   UNL A   1      42.692  28.586  34.110  1.00  0.00     0.034 A 
BRANCH  72  86
ATOM     86  C   UNL A   1      41.958  27.569  28.031  1.00  0.00     0.023 A 
ATOM     87  C   UNL A   1      43.063  26.672  28.009  1.00  0.00     0.031 A 
ATOM     88  C   UNL A   1      41.416  27.828  26.753  1.00  0.00     0.131 A 
ATOM     89  C   UNL A   1      43.588  26.131  26.808  1.00  0.00     0.055 A 
ATOM     90  C   UNL A   1      41.901  27.245  25.563  1.00  0.00     0.041 A 
ATOM     91  F   UNL A   1      40.409  28.684  26.560  1.00  0.00    -0.206 F 
ATOM     92  C   UNL A   1      42.997  26.402  25.582  1.00  0.00     0.022 A 
BRANCH  89  93
ATOM     93  S   UNL A   1      45.072  25.074  26.853  1.00  0.00     0.124 S 
ATOM     94  O   UNL A   1      44.839  24.158  25.742  1.00  0.00    -0.237 OA
ATOM     95  O   UNL A   1      46.153  26.038  26.681  1.00  0.00    -0.237 OA
ATOM     96  O   UNL A   1      45.011  24.456  28.179  1.00  0.00    -0.744 OA
ENDBRANCH  89  93
ENDBRANCH  72  86
BRANCH  73  97
ATOM     97  C   UNL A   1      39.883  33.952  35.907  1.00  0.00     0.023 A 
ATOM     98  C   UNL A   1      38.761  33.228  36.422  1.00  0.00     0.031 A 
ATOM     99  C   UNL A   1      40.395  34.981  36.718  1.00  0.00     0.131 A 
ATOM    100  C   UNL A   1      38.444  33.297  37.796  1.00  0.00     0.055 A 
ATOM    101  C   UNL A   1      40.036  35.078  38.076  1.00  0.00     0.041 A 
ATOM    102  F   UNL A   1      41.432  35.722  36.298  1.00  0.00    -0.206 F 
ATOM    103  C   UNL A   1      39.116  34.187  38.634  1.00  0.00     0.022 A 
BRANCH 100 104
ATOM    104  S   UNL A   1      37.365  32.018  38.532  1.00  0.00     0.124 S 
ATOM    105  O   UNL A   1      36.072  32.691  38.565  1.00  0.00    -0.237 OA
ATOM    106  O   UNL A   1      37.488  30.911  37.589  1.00  0.00    -0.237 OA
ATOM    107  O   UNL A   1      37.975  31.766  39.837  1.00  0.00    -0.744 OA
ENDBRANCH 100 104
ENDBRANCH  73  97
BRANCH  85 108
ATOM    108  C   UNL A   1      42.942  27.171  34.620  1.00  0.00     0.023 A 
ATOM    109  C   UNL A   1      44.212  26.737  34.996  1.00  0.00     0.031 A 
ATOM    110  C   UNL A   1      41.892  26.244  34.875  1.00  0.00     0.131 A 
ATOM    111  C   UNL A   1      44.433  25.432  35.455  1.00  0.00     0.055 A 
ATOM    112  C   UNL A   1      42.097  24.984  35.447  1.00  0.00     0.041 A 
ATOM    113  F   UNL A   1      40.606  26.517  34.612  1.00  0.00    -0.206 F 
ATOM    114  C   UNL A   1      43.385  24.557  35.717  1.00  0.00     0.022 A 
BRANCH 111 115
ATOM    115  S   UNL A   1      46.150  24.899  35.588  1.00  0.00     0.124 S 
ATOM    116  O   UNL A   1      46.609  25.684  36.732  1.00  0.00    -0.237 OA
ATOM    117  O   UNL A   1      46.018  23.464  35.821  1.00  0.00    -0.237 OA
ATOM    118  O   UNL A   1      46.729  25.273  34.301  1.00  0.00    -0.744 OA
ENDBRANCH 111 115
ENDBRANCH  85 108
ENDBRANCH  59  60
ENDBRANCH  52  54
ENDBRANCH  51  52
ENDBRANCH  50  51
ENDBRANCH  49  50
ENDBRANCH  48  49
ENDBRANCH  47  48
ENDBRANCH  46  47
ENDBRANCH  45  46
ENDBRANCH   1  45
TORSDOF 29
ENDMDL
MODEL 2
REMARK VINA RESULT:      -9.8      5.150     10.077
REMARK SMILES Cc1ccccc1C(=O)Nc1cc(C(=O)OCCOCCOCCOCCOC(=O)c2ccc(-c3c4nc(c(-c5cc(S(=O)(=O)[O-])ccc5F)c5ccc([nH]5)c(-c5cc(S(=O)(=O)[O-])ccc5F)c5nc(c(-c6cc(S(=O)(=O)[O-])ccc6F)c6ccc3[nH]6)C=C5)C=C4)cc2)ccc1N1CC[NH+](CC(=O)Nc2ccc(F)cc2)CC1
REMARK SMILES IDX 21 1 20 2 19 3 18 4 17 5 16 6 14 7 15 8 13 9 11 10 12 11
REMARK SMILES IDX 96 12 95 13 94 14 10 15 8 16 9 17 7 19 1 20 2 21 3 22 4 23
REMARK SMILES IDX 6 24 5 25 97 26 98 27 113 28 99 29 112 30 100 31 101 33
REMARK SMILES IDX 102 34 103 35 104 36 105 38 106 39 111 40 107 41 110 42
REMARK SMILES IDX 108 43 109 44 22 45 23 46 24 47 25 48 26 49 27 50 28 51
REMARK SMILES IDX 29 52 30 53 31 54 32 55 93 56 33 57 92 58 34 59 35 60 36 61
REMARK SMILES IDX 86 62 37 63 91 64 85 65 87 66 38 67 90 68 84 69 83 70 39 72
REMARK SMILES IDX 71 73 51 74 70 75 52 76 55 77 69 78 88 79 53 80 54 81 68 83
REMARK SMILES IDX 89 84 56 85 40 86 41 87 49 88 42 89 48 90 50 91 47 92 43 93
REMARK SMILES IDX 44 94 45 95 46 96 72 97 73 98 81 99 74 100 80 101 82 102
REMARK SMILES IDX 79 103 75 104 76 105 77 106 78 107 57 108 58 109 66 110
REMARK SMILES IDX 59 111 65 112 67 113 64 114 60 115 61 116 62 117 63 118
REMARK H PARENT 10 18 100 32 104 37 87 71 55 82
REMARK Flexibility Score: inf
ROOT
ATOM      1  C   UNL A   1      34.630  23.980  24.644  1.00  0.00     0.188 C 
ENDROOT
BRANCH   1   2
ATOM      2  C   UNL A   1      34.007  24.777  23.509  1.00  0.00     0.188 C 
BRANCH   2   3
ATOM      3  O   UNL A   1      32.607  24.756  23.257  1.00  0.00    -0.376 OA
BRANCH   3   4
ATOM      4  C   UNL A   1      32.018  26.062  23.174  1.00  0.00     0.202 C 
BRANCH   4   5
ATOM      5  C   UNL A   1      32.761  27.230  23.854  1.00  0.00     0.261 C 
BRANCH   5   6
ATOM      6  O   UNL A   1      32.151  27.645  25.076  1.00  0.00    -0.460 OA
BRANCH   6   7
ATOM      7  C   UNL A   1      32.821  27.317  26.192  1.00  0.00     0.338 C 
ATOM      8  O   UNL A   1      33.111  26.214  26.597  1.00  0.00    -0.246 OA
BRANCH   7   9
ATOM      9  C   UNL A   1      33.528  28.552  26.595  1.00  0.00     0.062 A 
ATOM     10  C   UNL A   1      35.480  29.841  27.174  1.00  0.00     0.065 A 
ATOM     11  C   UNL A   1      34.922  28.652  26.733  1.00  0.00     0.044 A 
ATOM     12  C   UNL A   1      34.624  30.877  27.694  1.00  0.00     0.061 A 
ATOM     13  C   UNL A   1      33.238  30.629  27.735  1.00  0.00     0.029 A 
ATOM     14  C   UNL A   1      32.690  29.532  27.108  1.00  0.00     0.018 A 
BRANCH  10  15
ATOM     15  N   UNL A   1      36.868  30.069  27.103  1.00  0.00    -0.320 N 
ATOM     16  C   UNL A   1      37.986  29.554  27.741  1.00  0.00     0.255 C 
ATOM     17  O   UNL A   1      39.037  29.663  27.084  1.00  0.00    -0.269 OA
ATOM     18  H   UNL A   1      37.100  30.760  26.440  1.00  0.00     0.170 HD
BRANCH  16  19
ATOM     19  C   UNL A   1      38.119  28.863  29.072  1.00  0.00     0.043 A 
ATOM     20  C   UNL A   1      39.741  26.893  28.592  1.00  0.00     0.045 C 
ATOM     21  C   UNL A   1      38.776  27.674  29.426  1.00  0.00    -0.038 A 
ATOM     22  C   UNL A   1      38.631  27.165  30.740  1.00  0.00     0.004 A 
ATOM     23  C   UNL A   1      38.031  27.901  31.752  1.00  0.00     0.000 A 
ATOM     24  C   UNL A   1      37.564  29.618  30.142  1.00  0.00     0.014 A 
ATOM     25  C   UNL A   1      37.546  29.162  31.464  1.00  0.00     0.001 A 
ENDBRANCH  16  19
ENDBRANCH  10  15
BRANCH  12  26
ATOM     26  N   UNL A   1      35.085  32.197  27.996  1.00  0.00    -0.359 N 
ATOM     27  C   UNL A   1      35.916  32.366  29.233  1.00  0.00     0.178 C 
ATOM     28  C   UNL A   1      33.976  33.156  27.958  1.00  0.00     0.178 C 
ATOM     29  C   UNL A   1      36.113  33.839  29.684  1.00  0.00     0.284 C 
ATOM     30  C   UNL A   1      34.494  34.581  28.161  1.00  0.00     0.284 C 
ATOM     31  N   UNL A   1      34.984  34.766  29.511  1.00  0.00    -0.324 N 
ATOM     32  H   UNL A   1      35.391  35.682  29.698  1.00  0.00     0.348 HD
BRANCH  31  33
ATOM     33  C   UNL A   1      33.894  34.870  30.514  1.00  0.00     0.364 C 
BRANCH  33  34
ATOM     34  C   UNL A   1      34.094  35.527  31.891  1.00  0.00     0.279 C 
ATOM     35  O   UNL A   1      33.563  36.639  32.077  1.00  0.00    -0.268 OA
ATOM     36  N   UNL A   1      34.669  34.984  33.016  1.00  0.00    -0.321 N 
ATOM     37  H   UNL A   1      34.321  35.461  33.805  1.00  0.00     0.170 HD
BRANCH  36  38
ATOM     38  C   UNL A   1      35.584  33.987  33.461  1.00  0.00     0.041 A 
ATOM     39  C   UNL A   1      36.685  34.453  34.207  1.00  0.00     0.029 A 
ATOM     40  C   UNL A   1      35.615  32.633  33.141  1.00  0.00     0.029 A 
ATOM     41  C   UNL A   1      37.730  33.606  34.618  1.00  0.00     0.041 A 
ATOM     42  C   UNL A   1      36.680  31.782  33.497  1.00  0.00     0.041 A 
ATOM     43  C   UNL A   1      37.723  32.271  34.253  1.00  0.00     0.123 A 
ATOM     44  F   UNL A   1      38.716  31.458  34.631  1.00  0.00    -0.207 F 
ENDBRANCH  36  38
ENDBRANCH  33  34
ENDBRANCH  31  33
ENDBRANCH  12  26
ENDBRANCH   7   9
ENDBRANCH   6   7
ENDBRANCH   5   6
ENDBRANCH   4   5
ENDBRANCH   3   4
ENDBRANCH   2   3
ENDBRANCH   1   2
BRANCH   1  45
ATOM     45  O   UNL A   1      35.573  23.035  24.157  1.00  0.00    -0.377 OA
BRANCH  45  46
ATOM     46  C   UNL A   1      36.755  23.025  24.947  1.00  0.00     0.188 C 
BRANCH  46  47
ATOM     47  C   UNL A   1      37.471  21.688  24.818  1.00  0.00     0.188 C 
BRANCH  47  48
ATOM     48  O   UNL A   1      38.519  21.426  25.748  1.00  0.00    -0.376 OA
BRANCH  48  49
ATOM     49  C   UNL A   1      39.273  22.484  26.317  1.00  0.00     0.202 C 
BRANCH  49  50
ATOM     50  C   UNL A   1      40.445  22.062  27.203  1.00  0.00     0.261 C 
BRANCH  50  51
ATOM     51  O   UNL A   1      41.572  22.933  26.973  1.00  0.00    -0.460 OA
BRANCH  51  52
ATOM     52  C   UNL A   1      42.615  22.370  26.301  1.00  0.00     0.338 C 
ATOM     53  O   UNL A   1      42.501  21.537  25.419  1.00  0.00    -0.246 OA
BRANCH  52  54
ATOM     54  C   UNL A   1      43.912  22.772  26.929  1.00  0.00     0.060 A 
ATOM     55  C   UNL A   1      43.963  23.081  28.301  1.00  0.00     0.016 A 
ATOM     56  C   UNL A   1      44.947  23.178  26.098  1.00  0.00     0.016 A 
ATOM     57  C   UNL A   1      44.940  23.969  28.795  1.00  0.00     0.010 A 
ATOM     58  C   UNL A   1      45.825  24.136  26.568  1.00  0.00     0.010 A 
ATOM     59  C   UNL A   1      45.809  24.593  27.901  1.00  0.00    -0.014 A 
BRANCH  59  60
ATOM     60  C   UNL A   1      46.536  25.876  28.128  1.00  0.00     0.031 A 
ATOM     61  C   UNL A   1      48.051  25.850  28.076  1.00  0.00     0.074 A 
ATOM     62  C   UNL A   1      45.825  27.021  27.922  1.00  0.00     0.049 A 
ATOM     63  N   UNL A   1      48.848  26.862  28.014  1.00  0.00    -0.248 NA
ATOM     64  C   UNL A   1      48.816  24.596  28.094  1.00  0.00     0.031 C 
ATOM     65  C   UNL A   1      46.269  28.250  27.272  1.00  0.00     0.029 A 
ATOM     66  N   UNL A   1      44.499  27.325  28.241  1.00  0.00    -0.354 N 
ATOM     67  C   UNL A   1      50.127  26.424  27.653  1.00  0.00     0.074 A 
ATOM     68  C   UNL A   1      50.053  24.995  27.783  1.00  0.00     0.031 C 
ATOM     69  C   UNL A   1      45.327  29.198  27.310  1.00  0.00     0.029 A 
ATOM     70  C   UNL A   1      44.343  28.733  28.230  1.00  0.00     0.049 A 
ATOM     71  H   UNL A   1      43.791  26.671  28.441  1.00  0.00     0.167 HD
ATOM     72  C   UNL A   1      51.052  27.326  27.178  1.00  0.00     0.034 A 
ATOM     73  C   UNL A   1      44.086  29.414  29.381  1.00  0.00     0.034 A 
ATOM     74  C   UNL A   1      50.585  28.705  27.404  1.00  0.00     0.049 A 
ATOM     75  C   UNL A   1      45.338  30.128  29.925  1.00  0.00     0.074 A 
ATOM     76  C   UNL A   1      50.422  29.834  26.619  1.00  0.00     0.029 A 
ATOM     77  N   UNL A   1      50.004  29.018  28.632  1.00  0.00    -0.354 N 
ATOM     78  N   UNL A   1      46.570  29.876  29.517  1.00  0.00    -0.248 NA
ATOM     79  C   UNL A   1      45.315  31.253  30.858  1.00  0.00     0.031 C 
ATOM     80  C   UNL A   1      49.586  30.743  27.332  1.00  0.00     0.029 A 
ATOM     81  C   UNL A   1      49.326  30.213  28.588  1.00  0.00     0.049 A 
ATOM     82  H   UNL A   1      50.071  28.452  29.434  1.00  0.00     0.167 HD
ATOM     83  C   UNL A   1      47.463  30.762  30.070  1.00  0.00     0.074 A 
ATOM     84  C   UNL A   1      46.615  31.605  30.899  1.00  0.00     0.031 C 
ATOM     85  C   UNL A   1      48.818  30.785  29.824  1.00  0.00     0.034 A 
BRANCH  72  86
ATOM     86  C   UNL A   1      52.319  27.031  26.334  1.00  0.00     0.023 A 
ATOM     87  C   UNL A   1      52.318  27.317  24.939  1.00  0.00     0.031 A 
ATOM     88  C   UNL A   1      53.495  26.390  26.779  1.00  0.00     0.131 A 
ATOM     89  C   UNL A   1      53.386  26.949  24.081  1.00  0.00     0.055 A 
ATOM     90  C   UNL A   1      54.582  26.075  25.937  1.00  0.00     0.041 A 
ATOM     91  F   UNL A   1      53.664  25.994  28.043  1.00  0.00    -0.206 F 
ATOM     92  C   UNL A   1      54.530  26.342  24.580  1.00  0.00     0.022 A 
BRANCH  89  93
ATOM     93  S   UNL A   1      53.264  27.253  22.289  1.00  0.00     0.124 S 
ATOM     94  O   UNL A   1      52.025  26.570  21.938  1.00  0.00    -0.237 OA
ATOM     95  O   UNL A   1      53.245  28.709  22.214  1.00  0.00    -0.237 OA
ATOM     96  O   UNL A   1      54.478  26.631  21.755  1.00  0.00    -0.744 OA
ENDBRANCH  89  93
ENDBRANCH  72  86
BRANCH  73  97
ATOM     97  C   UNL A   1      42.798  28.871  29.945  1.00  0.00     0.023 A 
ATOM     98  C   UNL A   1      43.020  28.008  31.065  1.00  0.00     0.031 A 
ATOM     99  C   UNL A   1      41.699  29.746  30.033  1.00  0.00     0.131 A 
ATOM    100  C   UNL A   1      42.411  28.288  32.307  1.00  0.00     0.055 A 
ATOM    101  C   UNL A   1      41.059  29.983  31.265  1.00  0.00     0.041 A 
ATOM    102  F   UNL A   1      41.408  30.572  29.016  1.00  0.00    -0.206 F 
ATOM    103  C   UNL A   1      41.466  29.308  32.419  1.00  0.00     0.022 A 
BRANCH 100 104
ATOM    104  S   UNL A   1      43.073  27.512  33.825  1.00  0.00     0.124 S 
ATOM    105  O   UNL A   1      43.706  28.642  34.494  1.00  0.00    -0.237 OA
ATOM    106  O   UNL A   1      41.875  26.979  34.464  1.00  0.00    -0.237 OA
ATOM    107  O   UNL A   1      43.987  26.491  33.316  1.00  0.00    -0.744 OA
ENDBRANCH 100 104
ENDBRANCH  73  97
BRANCH  85 108
ATOM    108  C   UNL A   1      49.866  31.400  30.744  1.00  0.00     0.023 A 
ATOM    109  C   UNL A   1      50.746  30.615  31.487  1.00  0.00     0.031 A 
ATOM    110  C   UNL A   1      50.111  32.801  30.810  1.00  0.00     0.131 A 
ATOM    111  C   UNL A   1      51.700  31.189  32.337  1.00  0.00     0.055 A 
ATOM    112  C   UNL A   1      51.142  33.369  31.567  1.00  0.00     0.041 A 
ATOM    113  F   UNL A   1      49.384  33.695  30.126  1.00  0.00    -0.206 F 
ATOM    114  C   UNL A   1      51.932  32.559  32.363  1.00  0.00     0.022 A 
BRANCH 111 115
ATOM    115  S   UNL A   1      52.541  30.077  33.481  1.00  0.00     0.124 S 
ATOM    116  O   UNL A   1      53.936  30.466  33.288  1.00  0.00    -0.237 OA
ATOM    117  O   UNL A   1      51.956  30.446  34.766  1.00  0.00    -0.237 OA
ATOM    118  O   UNL A   1      52.189  28.747  32.991  1.00  0.00    -0.744 OA
ENDBRANCH 111 115
ENDBRANCH  85 108
ENDBRANCH  59  60
ENDBRANCH  52  54
ENDBRANCH  51  52
ENDBRANCH  50  51
ENDBRANCH  49  50
ENDBRANCH  48  49
ENDBRANCH  47  48
ENDBRANCH  46  47
ENDBRANCH  45  46
ENDBRANCH   1  45
TORSDOF 29
ENDMDL
MODEL 3
REMARK VINA RESULT:      -9.8      3.120      7.779
REMARK SMILES Cc1ccccc1C(=O)Nc1cc(C(=O)OCCOCCOCCOCCOC(=O)c2ccc(-c3c4nc(c(-c5cc(S(=O)(=O)[O-])ccc5F)c5ccc([nH]5)c(-c5cc(S(=O)(=O)[O-])ccc5F)c5nc(c(-c6cc(S(=O)(=O)[O-])ccc6F)c6ccc3[nH]6)C=C5)C=C4)cc2)ccc1N1CC[NH+](CC(=O)Nc2ccc(F)cc2)CC1
REMARK SMILES IDX 21 1 20 2 19 3 18 4 17 5 16 6 14 7 15 8 13 9 11 10 12 11
REMARK SMILES IDX 96 12 95 13 94 14 10 15 8 16 9 17 7 19 1 20 2 21 3 22 4 23
REMARK SMILES IDX 6 24 5 25 97 26 98 27 113 28 99 29 112 30 100 31 101 33
REMARK SMILES IDX 102 34 103 35 104 36 105 38 106 39 111 40 107 41 110 42
REMARK SMILES IDX 108 43 109 44 22 45 23 46 24 47 25 48 26 49 27 50 28 51
REMARK SMILES IDX 29 52 30 53 31 54 32 55 93 56 33 57 92 58 34 59 35 60 36 61
REMARK SMILES IDX 86 62 37 63 91 64 85 65 87 66 38 67 90 68 84 69 83 70 39 72
REMARK SMILES IDX 71 73 51 74 70 75 52 76 55 77 69 78 88 79 53 80 54 81 68 83
REMARK SMILES IDX 89 84 56 85 40 86 41 87 49 88 42 89 48 90 50 91 47 92 43 93
REMARK SMILES IDX 44 94 45 95 46 96 72 97 73 98 81 99 74 100 80 101 82 102
REMARK SMILES IDX 79 103 75 104 76 105 77 106 78 107 57 108 58 109 66 110
REMARK SMILES IDX 59 111 65 112 67 113 64 114 60 115 61 116 62 117 63 118
REMARK H PARENT 10 18 100 32 104 37 87 71 55 82
REMARK Flexibility Score: inf
ROOT
ATOM      1  C   UNL A   1      32.363  29.194  23.356  1.00  0.00     0.188 C 
ENDROOT
BRANCH   1   2
ATOM      2  C   UNL A   1      31.389  28.283  22.625  1.00  0.00     0.188 C 
BRANCH   2   3
ATOM      3  O   UNL A   1      29.982  28.488  22.679  1.00  0.00    -0.376 OA
BRANCH   3   4
ATOM      4  C   UNL A   1      29.276  27.449  23.372  1.00  0.00     0.202 C 
BRANCH   4   5
ATOM      5  C   UNL A   1      30.110  26.357  24.073  1.00  0.00     0.261 C 
BRANCH   5   6
ATOM      6  O   UNL A   1      30.128  26.494  25.494  1.00  0.00    -0.460 OA
BRANCH   6   7
ATOM      7  C   UNL A   1      30.191  25.342  26.180  1.00  0.00     0.338 C 
ATOM      8  O   UNL A   1      29.322  24.807  26.831  1.00  0.00    -0.246 OA
BRANCH   7   9
ATOM      9  C   UNL A   1      31.359  24.625  25.625  1.00  0.00     0.062 A 
ATOM     10  C   UNL A   1      32.429  22.976  24.230  1.00  0.00     0.065 A 
ATOM     11  C   UNL A   1      31.277  23.627  24.639  1.00  0.00     0.044 A 
ATOM     12  C   UNL A   1      33.652  23.167  24.968  1.00  0.00     0.061 A 
ATOM     13  C   UNL A   1      33.621  24.017  26.090  1.00  0.00     0.029 A 
ATOM     14  C   UNL A   1      32.525  24.808  26.355  1.00  0.00     0.018 A 
BRANCH  10  15
ATOM     15  N   UNL A   1      32.436  22.147  23.092  1.00  0.00    -0.320 N 
ATOM     16  C   UNL A   1      32.261  20.791  22.859  1.00  0.00     0.255 C 
ATOM     17  O   UNL A   1      31.875  20.524  21.706  1.00  0.00    -0.269 OA
ATOM     18  H   UNL A   1      32.606  22.651  22.263  1.00  0.00     0.170 HD
BRANCH  16  19
ATOM     19  C   UNL A   1      32.432  19.612  23.778  1.00  0.00     0.043 A 
ATOM     20  C   UNL A   1      32.884  17.627  22.166  1.00  0.00     0.045 C 
ATOM     21  C   UNL A   1      32.593  18.246  23.497  1.00  0.00    -0.038 A 
ATOM     22  C   UNL A   1      32.595  17.313  24.562  1.00  0.00     0.004 A 
ATOM     23  C   UNL A   1      32.648  17.712  25.889  1.00  0.00     0.000 A 
ATOM     24  C   UNL A   1      32.548  19.990  25.144  1.00  0.00     0.014 A 
ATOM     25  C   UNL A   1      32.685  19.062  26.181  1.00  0.00     0.001 A 
ENDBRANCH  16  19
ENDBRANCH  10  15
BRANCH  12  26
ATOM     26  N   UNL A   1      34.923  22.690  24.515  1.00  0.00    -0.359 N 
ATOM     27  C   UNL A   1      35.377  21.357  25.032  1.00  0.00     0.178 C 
ATOM     28  C   UNL A   1      35.956  23.716  24.693  1.00  0.00     0.178 C 
ATOM     29  C   UNL A   1      36.876  21.040  24.775  1.00  0.00     0.284 C 
ATOM     30  C   UNL A   1      37.285  23.245  24.097  1.00  0.00     0.284 C 
ATOM     31  N   UNL A   1      37.837  22.149  24.866  1.00  0.00    -0.324 N 
ATOM     32  H   UNL A   1      38.700  21.755  24.491  1.00  0.00     0.348 HD
BRANCH  31  33
ATOM     33  C   UNL A   1      38.413  22.585  26.163  1.00  0.00     0.364 C 
BRANCH  33  34
ATOM     34  C   UNL A   1      39.920  22.828  26.362  1.00  0.00     0.279 C 
ATOM     35  O   UNL A   1      40.669  21.833  26.324  1.00  0.00    -0.268 OA
ATOM     36  N   UNL A   1      40.584  24.029  26.436  1.00  0.00    -0.321 N 
ATOM     37  H   UNL A   1      41.524  23.881  26.181  1.00  0.00     0.170 HD
BRANCH  36  38
ATOM     38  C   UNL A   1      40.414  25.409  26.747  1.00  0.00     0.041 A 
ATOM     39  C   UNL A   1      41.157  26.312  25.961  1.00  0.00     0.029 A 
ATOM     40  C   UNL A   1      39.722  25.981  27.811  1.00  0.00     0.029 A 
ATOM     41  C   UNL A   1      41.181  27.695  26.219  1.00  0.00     0.041 A 
ATOM     42  C   UNL A   1      39.778  27.355  28.117  1.00  0.00     0.041 A 
ATOM     43  C   UNL A   1      40.493  28.207  27.304  1.00  0.00     0.123 A 
ATOM     44  F   UNL A   1      40.516  29.520  27.565  1.00  0.00    -0.207 F 
ENDBRANCH  36  38
ENDBRANCH  33  34
ENDBRANCH  31  33
ENDBRANCH  12  26
ENDBRANCH   7   9
ENDBRANCH   6   7
ENDBRANCH   5   6
ENDBRANCH   4   5
ENDBRANCH   3   4
ENDBRANCH   2   3
ENDBRANCH   1   2
BRANCH   1  45
ATOM     45  O   UNL A   1      31.873  29.552  24.640  1.00  0.00    -0.377 OA
BRANCH  45  46
ATOM     46  C   UNL A   1      32.782  29.176  25.667  1.00  0.00     0.188 C 
BRANCH  46  47
ATOM     47  C   UNL A   1      32.375  29.803  26.994  1.00  0.00     0.188 C 
BRANCH  47  48
ATOM     48  O   UNL A   1      33.219  30.833  27.504  1.00  0.00    -0.376 OA
BRANCH  48  49
ATOM     49  C   UNL A   1      32.839  32.196  27.424  1.00  0.00     0.202 C 
BRANCH  49  50
ATOM     50  C   UNL A   1      33.464  33.123  28.466  1.00  0.00     0.261 C 
BRANCH  50  51
ATOM     51  O   UNL A   1      34.500  32.423  29.186  1.00  0.00    -0.460 OA
BRANCH  51  52
ATOM     52  C   UNL A   1      35.768  32.873  28.965  1.00  0.00     0.338 C 
ATOM     53  O   UNL A   1      36.047  33.871  28.324  1.00  0.00    -0.246 OA
BRANCH  52  54
ATOM     54  C   UNL A   1      36.764  31.870  29.454  1.00  0.00     0.060 A 
ATOM     55  C   UNL A   1      36.522  31.161  30.646  1.00  0.00     0.016 A 
ATOM     56  C   UNL A   1      38.051  31.914  28.934  1.00  0.00     0.016 A 
ATOM     57  C   UNL A   1      37.597  30.677  31.417  1.00  0.00     0.010 A 
ATOM     58  C   UNL A   1      39.099  31.541  29.753  1.00  0.00     0.010 A 
ATOM     59  C   UNL A   1      38.904  30.970  31.027  1.00  0.00    -0.014 A 
BRANCH  59  60
ATOM     60  C   UNL A   1      40.104  30.997  31.913  1.00  0.00     0.031 A 
ATOM     61  C   UNL A   1      40.166  32.067  32.987  1.00  0.00     0.074 A 
ATOM     62  C   UNL A   1      40.818  29.841  32.003  1.00  0.00     0.049 A 
ATOM     63  N   UNL A   1      40.980  32.124  33.986  1.00  0.00    -0.248 NA
ATOM     64  C   UNL A   1      39.253  33.217  33.002  1.00  0.00     0.031 C 
ATOM     65  C   UNL A   1      41.412  29.240  33.193  1.00  0.00     0.029 A 
ATOM     66  N   UNL A   1      41.153  28.912  31.013  1.00  0.00    -0.354 N 
ATOM     67  C   UNL A   1      40.511  33.061  34.913  1.00  0.00     0.074 A 
ATOM     68  C   UNL A   1      39.468  33.753  34.209  1.00  0.00     0.031 C 
ATOM     69  C   UNL A   1      42.106  28.136  32.897  1.00  0.00     0.029 A 
ATOM     70  C   UNL A   1      42.236  28.126  31.478  1.00  0.00     0.049 A 
ATOM     71  H   UNL A   1      40.711  28.819  30.139  1.00  0.00     0.167 HD
ATOM     72  C   UNL A   1      40.993  33.050  36.202  1.00  0.00     0.034 A 
ATOM     73  C   UNL A   1      43.461  28.210  30.889  1.00  0.00     0.034 A 
ATOM     74  C   UNL A   1      42.178  32.177  36.298  1.00  0.00     0.049 A 
ATOM     75  C   UNL A   1      44.451  29.046  31.722  1.00  0.00     0.074 A 
ATOM     76  C   UNL A   1      42.564  31.122  37.107  1.00  0.00     0.029 A 
ATOM     77  N   UNL A   1      43.137  32.244  35.289  1.00  0.00    -0.354 N 
ATOM     78  N   UNL A   1      44.094  29.837  32.720  1.00  0.00    -0.248 NA
ATOM     79  C   UNL A   1      45.906  28.975  31.603  1.00  0.00     0.031 C 
ATOM     80  C   UNL A   1      43.653  30.459  36.467  1.00  0.00     0.029 A 
ATOM     81  C   UNL A   1      43.994  31.170  35.325  1.00  0.00     0.049 A 
ATOM     82  H   UNL A   1      43.195  32.973  34.630  1.00  0.00     0.167 HD
ATOM     83  C   UNL A   1      45.198  30.339  33.368  1.00  0.00     0.074 A 
ATOM     84  C   UNL A   1      46.305  29.757  32.624  1.00  0.00     0.031 C 
ATOM     85  C   UNL A   1      45.166  31.169  34.466  1.00  0.00     0.034 A 
BRANCH  72  86
ATOM     86  C   UNL A   1      40.338  33.662  37.466  1.00  0.00     0.023 A 
ATOM     87  C   UNL A   1      39.513  32.850  38.296  1.00  0.00     0.031 A 
ATOM     88  C   UNL A   1      40.378  35.016  37.862  1.00  0.00     0.131 A 
ATOM     89  C   UNL A   1      38.773  33.372  39.386  1.00  0.00     0.055 A 
ATOM     90  C   UNL A   1      39.686  35.526  38.982  1.00  0.00     0.041 A 
ATOM     91  F   UNL A   1      41.054  35.945  37.181  1.00  0.00    -0.206 F 
ATOM     92  C   UNL A   1      38.870  34.709  39.744  1.00  0.00     0.022 A 
BRANCH  89  93
ATOM     93  S   UNL A   1      37.655  32.289  40.335  1.00  0.00     0.124 S 
ATOM     94  O   UNL A   1      36.962  31.554  39.283  1.00  0.00    -0.237 OA
ATOM     95  O   UNL A   1      38.581  31.522  41.159  1.00  0.00    -0.237 OA
ATOM     96  O   UNL A   1      36.815  33.233  41.077  1.00  0.00    -0.744 OA
ENDBRANCH  89  93
ENDBRANCH  72  86
BRANCH  73  97
ATOM     97  C   UNL A   1      43.286  27.837  29.438  1.00  0.00     0.023 A 
ATOM     98  C   UNL A   1      43.998  28.719  28.564  1.00  0.00     0.031 A 
ATOM     99  C   UNL A   1      43.306  26.470  29.105  1.00  0.00     0.131 A 
ATOM    100  C   UNL A   1      44.953  28.205  27.662  1.00  0.00     0.055 A 
ATOM    101  C   UNL A   1      44.227  25.968  28.164  1.00  0.00     0.041 A 
ATOM    102  F   UNL A   1      42.646  25.579  29.860  1.00  0.00    -0.206 F 
ATOM    103  C   UNL A   1      45.103  26.828  27.498  1.00  0.00     0.022 A 
BRANCH 100 104
ATOM    104  S   UNL A   1      46.193  29.332  26.929  1.00  0.00     0.124 S 
ATOM    105  O   UNL A   1      46.143  30.472  27.837  1.00  0.00    -0.237 OA
ATOM    106  O   UNL A   1      47.414  28.536  26.967  1.00  0.00    -0.237 OA
ATOM    107  O   UNL A   1      45.677  29.578  25.583  1.00  0.00    -0.744 OA
ENDBRANCH 100 104
ENDBRANCH  73  97
BRANCH  85 108
ATOM    108  C   UNL A   1      46.295  32.100  34.894  1.00  0.00     0.023 A 
ATOM    109  C   UNL A   1      46.263  33.468  34.631  1.00  0.00     0.031 A 
ATOM    110  C   UNL A   1      47.387  31.670  35.701  1.00  0.00     0.131 A 
ATOM    111  C   UNL A   1      47.310  34.313  35.021  1.00  0.00     0.055 A 
ATOM    112  C   UNL A   1      48.371  32.536  36.192  1.00  0.00     0.041 A 
ATOM    113  F   UNL A   1      47.548  30.395  36.082  1.00  0.00    -0.206 F 
ATOM    114  C   UNL A   1      48.351  33.870  35.828  1.00  0.00     0.022 A 
BRANCH 111 115
ATOM    115  S   UNL A   1      47.304  35.981  34.335  1.00  0.00     0.124 S 
ATOM    116  O   UNL A   1      45.978  36.037  33.724  1.00  0.00    -0.237 OA
ATOM    117  O   UNL A   1      47.486  36.810  35.522  1.00  0.00    -0.237 OA
ATOM    118  O   UNL A   1      48.425  35.973  33.398  1.00  0.00    -0.744 OA
ENDBRANCH 111 115
ENDBRANCH  85 108
ENDBRANCH  59  60
ENDBRANCH  52  54
ENDBRANCH  51  52
ENDBRANCH  50  51
ENDBRANCH  49  50
ENDBRANCH  48  49
ENDBRANCH  47  48
ENDBRANCH  46  47
ENDBRANCH  45  46
ENDBRANCH   1  45
TORSDOF 29
ENDMDL
