MODEL 1
REMARK VINA RESULT:      -8.7      0.000      0.000
REMARK SMILES CC1=C(C)C[C@@H](C(=O)OCCOCCOCCOCCOC(=O)c2ccc(-c3c4nc(c(-c5cc(S(=O)(=O)[O-])ccc5F)c5ccc([nH]5)c(-c5cc(S(=O)(=O)[O-])ccc5F)c5nc(c(-c6cc(S(=O)(=O)[O-])ccc6F)c6ccc3[nH]6)C=C5)C=C4)cc2)[C@@H](C(=O)NCC[NH+]2CCOCC2)C1
REMARK SMILES IDX 14 1 13 2 12 3 11 4 10 5 9 6 7 7 8 8 6 9 1 10 2 11 3 12
REMARK SMILES IDX 99 13 4 14 5 15 87 16 88 17 89 18 90 19 91 21 92 22 93 23
REMARK SMILES IDX 94 24 98 25 95 27 97 28 96 29 15 30 16 31 17 32 18 33 19 34
REMARK SMILES IDX 20 35 21 36 22 37 23 38 24 39 25 40 86 41 26 42 85 43 27 44
REMARK SMILES IDX 28 45 29 46 79 47 30 48 84 49 78 50 80 51 31 52 83 53 77 54
REMARK SMILES IDX 76 55 32 57 64 58 44 59 63 60 45 61 48 62 62 63 81 64 46 65
REMARK SMILES IDX 47 66 61 68 82 69 49 70 33 71 34 72 42 73 35 74 41 75 43 76
REMARK SMILES IDX 40 77 36 78 37 79 38 80 39 81 65 82 66 83 74 84 67 85 73 86
REMARK SMILES IDX 75 87 72 88 68 89 69 90 70 91 71 92 50 93 51 94 59 95 52 96
REMARK SMILES IDX 58 97 60 98 57 99 53 100 54 101 55 102 56 103
REMARK H PARENT 90 20 93 26 80 56 48 67
REMARK Flexibility Score: inf
ROOT
ATOM      1  C   UNL A   1      38.572  23.428  26.496  1.00  0.00     0.188 C 
ENDROOT
BRANCH   1   2
ATOM      2  C   UNL A   1      37.255  23.867  25.832  1.00  0.00     0.188 C 
BRANCH   2   3
ATOM      3  O   UNL A   1      36.399  22.778  25.563  1.00  0.00    -0.376 OA
BRANCH   3   4
ATOM      4  C   UNL A   1      36.430  22.198  24.272  1.00  0.00     0.202 C 
BRANCH   4   5
ATOM      5  C   UNL A   1      35.824  22.968  23.085  1.00  0.00     0.261 C 
BRANCH   5   6
ATOM      6  O   UNL A   1      34.676  23.780  23.371  1.00  0.00    -0.463 OA
BRANCH   6   7
ATOM      7  C   UNL A   1      33.558  23.480  22.682  1.00  0.00     0.310 C 
ATOM      8  O   UNL A   1      33.442  22.473  21.986  1.00  0.00    -0.252 OA
BRANCH   7   9
ATOM      9  C   UNL A   1      32.392  24.423  22.920  1.00  0.00     0.116 C 
ATOM     10  C   UNL A   1      31.003  26.562  26.492  1.00  0.00     0.039 C 
ATOM     11  C   UNL A   1      31.404  26.140  25.107  1.00  0.00    -0.074 C 
ATOM     12  C   UNL A   1      32.612  26.400  24.570  1.00  0.00    -0.073 C 
ATOM     13  C   UNL A   1      30.454  25.246  24.338  1.00  0.00     0.045 C 
ATOM     14  C   UNL A   1      33.695  27.218  25.217  1.00  0.00     0.039 C 
ATOM     15  C   UNL A   1      32.969  25.827  23.224  1.00  0.00     0.046 C 
ATOM     16  C   UNL A   1      31.202  23.998  23.807  1.00  0.00     0.097 C 
BRANCH  16  17
ATOM     17  C   UNL A   1      31.442  23.144  25.056  1.00  0.00     0.224 C 
ATOM     18  O   UNL A   1      30.704  23.138  26.033  1.00  0.00    -0.275 OA
ATOM     19  N   UNL A   1      32.412  22.184  24.815  1.00  0.00    -0.350 N 
ATOM     20  H   UNL A   1      33.250  22.449  24.370  1.00  0.00     0.163 HD
BRANCH  19  21
ATOM     21  C   UNL A   1      32.225  20.799  25.204  1.00  0.00     0.177 C 
BRANCH  21  22
ATOM     22  C   UNL A   1      33.041  19.795  24.348  1.00  0.00     0.283 C 
BRANCH  22  23
ATOM     23  N   UNL A   1      32.313  18.541  24.123  1.00  0.00    -0.330 N 
ATOM     24  C   UNL A   1      32.413  17.593  25.243  1.00  0.00     0.291 C 
ATOM     25  C   UNL A   1      32.685  17.852  22.872  1.00  0.00     0.291 C 
ATOM     26  H   UNL A   1      31.343  18.845  24.043  1.00  0.00     0.348 HD
ATOM     27  C   UNL A   1      33.688  16.739  25.280  1.00  0.00     0.221 C 
ATOM     28  C   UNL A   1      33.972  17.018  22.962  1.00  0.00     0.221 C 
ATOM     29  O   UNL A   1      33.909  16.070  24.034  1.00  0.00    -0.370 OA
ENDBRANCH  22  23
ENDBRANCH  21  22
ENDBRANCH  19  21
ENDBRANCH  16  17
ENDBRANCH   7   9
ENDBRANCH   6   7
ENDBRANCH   5   6
ENDBRANCH   4   5
ENDBRANCH   3   4
ENDBRANCH   2   3
ENDBRANCH   1   2
BRANCH   1  30
ATOM     30  O   UNL A   1      39.303  22.337  25.946  1.00  0.00    -0.377 OA
BRANCH  30  31
ATOM     31  C   UNL A   1      40.124  21.536  26.810  1.00  0.00     0.188 C 
BRANCH  31  32
ATOM     32  C   UNL A   1      41.607  21.898  27.079  1.00  0.00     0.188 C 
BRANCH  32  33
ATOM     33  O   UNL A   1      42.553  21.175  26.300  1.00  0.00    -0.376 OA
BRANCH  33  34
ATOM     34  C   UNL A   1      43.405  21.964  25.479  1.00  0.00     0.202 C 
BRANCH  34  35
ATOM     35  C   UNL A   1      43.051  23.453  25.479  1.00  0.00     0.261 C 
BRANCH  35  36
ATOM     36  O   UNL A   1      44.176  24.319  25.696  1.00  0.00    -0.460 OA
BRANCH  36  37
ATOM     37  C   UNL A   1      44.761  24.266  26.915  1.00  0.00     0.338 C 
ATOM     38  O   UNL A   1      45.740  23.619  27.227  1.00  0.00    -0.246 OA
BRANCH  37  39
ATOM     39  C   UNL A   1      44.097  25.266  27.775  1.00  0.00     0.060 A 
ATOM     40  C   UNL A   1      44.583  26.574  27.791  1.00  0.00     0.016 A 
ATOM     41  C   UNL A   1      43.026  24.898  28.592  1.00  0.00     0.016 A 
ATOM     42  C   UNL A   1      44.036  27.500  28.680  1.00  0.00     0.010 A 
ATOM     43  C   UNL A   1      42.448  25.836  29.447  1.00  0.00     0.010 A 
ATOM     44  C   UNL A   1      42.999  27.122  29.549  1.00  0.00    -0.014 A 
BRANCH  44  45
ATOM     45  C   UNL A   1      42.675  27.993  30.709  1.00  0.00     0.031 A 
ATOM     46  C   UNL A   1      43.450  27.802  31.990  1.00  0.00     0.074 A 
ATOM     47  C   UNL A   1      41.765  28.978  30.609  1.00  0.00     0.049 A 
ATOM     48  N   UNL A   1      43.431  28.510  33.090  1.00  0.00    -0.248 NA
ATOM     49  C   UNL A   1      44.360  26.646  32.042  1.00  0.00     0.031 C 
ATOM     50  C   UNL A   1      40.935  29.249  29.436  1.00  0.00     0.029 A 
ATOM     51  N   UNL A   1      41.400  29.949  31.508  1.00  0.00    -0.354 N 
ATOM     52  C   UNL A   1      44.327  27.890  33.956  1.00  0.00     0.074 A 
ATOM     53  C   UNL A   1      44.809  26.705  33.283  1.00  0.00     0.031 C 
ATOM     54  C   UNL A   1      40.177  30.334  29.678  1.00  0.00     0.029 A 
ATOM     55  C   UNL A   1      40.459  30.828  31.023  1.00  0.00     0.049 A 
ATOM     56  H   UNL A   1      41.777  30.011  32.415  1.00  0.00     0.167 HD
ATOM     57  C   UNL A   1      44.741  28.286  35.185  1.00  0.00     0.034 A 
ATOM     58  C   UNL A   1      39.904  31.915  31.598  1.00  0.00     0.034 A 
ATOM     59  C   UNL A   1      44.255  29.470  35.846  1.00  0.00     0.049 A 
ATOM     60  C   UNL A   1      40.366  32.332  32.975  1.00  0.00     0.074 A 
ATOM     61  C   UNL A   1      44.617  29.982  37.079  1.00  0.00     0.029 A 
ATOM     62  N   UNL A   1      43.293  30.328  35.328  1.00  0.00    -0.354 N 
ATOM     63  N   UNL A   1      41.258  31.767  33.759  1.00  0.00    -0.248 NA
ATOM     64  C   UNL A   1      39.766  33.552  33.530  1.00  0.00     0.031 C 
ATOM     65  C   UNL A   1      43.832  31.113  37.333  1.00  0.00     0.029 A 
ATOM     66  C   UNL A   1      43.033  31.352  36.225  1.00  0.00     0.049 A 
ATOM     67  H   UNL A   1      42.859  30.223  34.450  1.00  0.00     0.167 HD
ATOM     68  C   UNL A   1      41.348  32.585  34.884  1.00  0.00     0.074 A 
ATOM     69  C   UNL A   1      40.437  33.690  34.664  1.00  0.00     0.031 C 
ATOM     70  C   UNL A   1      42.115  32.442  35.995  1.00  0.00     0.034 A 
BRANCH  57  71
ATOM     71  C   UNL A   1      45.746  27.405  35.889  1.00  0.00     0.023 A 
ATOM     72  C   UNL A   1      45.351  26.439  36.831  1.00  0.00     0.031 A 
ATOM     73  C   UNL A   1      47.123  27.570  35.657  1.00  0.00     0.131 A 
ATOM     74  C   UNL A   1      46.318  25.737  37.567  1.00  0.00     0.055 A 
ATOM     75  C   UNL A   1      48.080  26.807  36.330  1.00  0.00     0.041 A 
ATOM     76  F   UNL A   1      47.564  28.493  34.788  1.00  0.00    -0.206 F 
ATOM     77  C   UNL A   1      47.680  25.896  37.303  1.00  0.00     0.022 A 
BRANCH  74  78
ATOM     78  S   UNL A   1      45.776  24.732  38.976  1.00  0.00     0.124 S 
ATOM     79  O   UNL A   1      45.182  23.578  38.304  1.00  0.00    -0.237 OA
ATOM     80  O   UNL A   1      47.024  24.484  39.688  1.00  0.00    -0.237 OA
ATOM     81  O   UNL A   1      44.824  25.598  39.668  1.00  0.00    -0.744 OA
ENDBRANCH  74  78
ENDBRANCH  57  71
BRANCH  58  82
ATOM     82  C   UNL A   1      38.859  32.701  30.881  1.00  0.00     0.023 A 
ATOM     83  C   UNL A   1      37.491  32.461  31.092  1.00  0.00     0.031 A 
ATOM     84  C   UNL A   1      39.218  33.667  29.923  1.00  0.00     0.131 A 
ATOM     85  C   UNL A   1      36.534  33.137  30.320  1.00  0.00     0.055 A 
ATOM     86  C   UNL A   1      38.260  34.374  29.194  1.00  0.00     0.041 A 
ATOM     87  F   UNL A   1      40.511  33.936  29.683  1.00  0.00    -0.206 F 
ATOM     88  C   UNL A   1      36.909  34.100  29.381  1.00  0.00     0.022 A 
BRANCH  85  89
ATOM     89  S   UNL A   1      34.787  32.679  30.500  1.00  0.00     0.124 S 
ATOM     90  O   UNL A   1      34.641  31.653  29.473  1.00  0.00    -0.237 OA
ATOM     91  O   UNL A   1      34.736  32.214  31.882  1.00  0.00    -0.237 OA
ATOM     92  O   UNL A   1      34.077  33.929  30.239  1.00  0.00    -0.744 OA
ENDBRANCH  85  89
ENDBRANCH  58  82
BRANCH  70  93
ATOM     93  C   UNL A   1      42.031  33.536  37.033  1.00  0.00     0.023 A 
ATOM     94  C   UNL A   1      41.037  33.539  38.028  1.00  0.00     0.031 A 
ATOM     95  C   UNL A   1      42.942  34.607  37.007  1.00  0.00     0.131 A 
ATOM     96  C   UNL A   1      40.935  34.625  38.910  1.00  0.00     0.055 A 
ATOM     97  C   UNL A   1      42.875  35.652  37.929  1.00  0.00     0.041 A 
ATOM     98  F   UNL A   1      43.913  34.657  36.081  1.00  0.00    -0.206 F 
ATOM     99  C   UNL A   1      41.856  35.674  38.877  1.00  0.00     0.022 A 
BRANCH  96 100
ATOM    100  S   UNL A   1      39.505  34.707  40.025  1.00  0.00     0.124 S 
ATOM    101  O   UNL A   1      39.307  36.146  40.161  1.00  0.00    -0.237 OA
ATOM    102  O   UNL A   1      38.482  33.990  39.270  1.00  0.00    -0.237 OA
ATOM    103  O   UNL A   1      39.972  34.028  41.232  1.00  0.00    -0.744 OA
ENDBRANCH  96 100
ENDBRANCH  70  93
ENDBRANCH  44  45
ENDBRANCH  37  39
ENDBRANCH  36  37
ENDBRANCH  35  36
ENDBRANCH  34  35
ENDBRANCH  33  34
ENDBRANCH  32  33
ENDBRANCH  31  32
ENDBRANCH  30  31
ENDBRANCH   1  30
TORSDOF 27
ENDMDL
MODEL 2
REMARK VINA RESULT:      -8.3      4.210      7.015
REMARK SMILES CC1=C(C)C[C@@H](C(=O)OCCOCCOCCOCCOC(=O)c2ccc(-c3c4nc(c(-c5cc(S(=O)(=O)[O-])ccc5F)c5ccc([nH]5)c(-c5cc(S(=O)(=O)[O-])ccc5F)c5nc(c(-c6cc(S(=O)(=O)[O-])ccc6F)c6ccc3[nH]6)C=C5)C=C4)cc2)[C@@H](C(=O)NCC[NH+]2CCOCC2)C1
REMARK SMILES IDX 14 1 13 2 12 3 11 4 10 5 9 6 7 7 8 8 6 9 1 10 2 11 3 12
REMARK SMILES IDX 99 13 4 14 5 15 87 16 88 17 89 18 90 19 91 21 92 22 93 23
REMARK SMILES IDX 94 24 98 25 95 27 97 28 96 29 15 30 16 31 17 32 18 33 19 34
REMARK SMILES IDX 20 35 21 36 22 37 23 38 24 39 25 40 86 41 26 42 85 43 27 44
REMARK SMILES IDX 28 45 29 46 79 47 30 48 84 49 78 50 80 51 31 52 83 53 77 54
REMARK SMILES IDX 76 55 32 57 64 58 44 59 63 60 45 61 48 62 62 63 81 64 46 65
REMARK SMILES IDX 47 66 61 68 82 69 49 70 33 71 34 72 42 73 35 74 41 75 43 76
REMARK SMILES IDX 40 77 36 78 37 79 38 80 39 81 65 82 66 83 74 84 67 85 73 86
REMARK SMILES IDX 75 87 72 88 68 89 69 90 70 91 71 92 50 93 51 94 59 95 52 96
REMARK SMILES IDX 58 97 60 98 57 99 53 100 54 101 55 102 56 103
REMARK H PARENT 90 20 93 26 80 56 48 67
REMARK Flexibility Score: inf
ROOT
ATOM      1  C   UNL A   1      34.916  21.194  25.870  1.00  0.00     0.188 C 
ENDROOT
BRANCH   1   2
ATOM      2  C   UNL A   1      33.932  20.049  25.574  1.00  0.00     0.188 C 
BRANCH   2   3
ATOM      3  O   UNL A   1      33.356  20.153  24.289  1.00  0.00    -0.376 OA
BRANCH   3   4
ATOM      4  C   UNL A   1      33.438  21.392  23.612  1.00  0.00     0.202 C 
BRANCH   4   5
ATOM      5  C   UNL A   1      32.203  21.926  22.865  1.00  0.00     0.261 C 
BRANCH   5   6
ATOM      6  O   UNL A   1      32.119  23.351  22.708  1.00  0.00    -0.463 OA
BRANCH   6   7
ATOM      7  C   UNL A   1      33.121  23.924  22.013  1.00  0.00     0.310 C 
ATOM      8  O   UNL A   1      33.439  23.581  20.876  1.00  0.00    -0.252 OA
BRANCH   7   9
ATOM      9  C   UNL A   1      33.764  25.119  22.694  1.00  0.00     0.116 C 
ATOM     10  C   UNL A   1      32.647  27.450  26.242  1.00  0.00     0.039 C 
ATOM     11  C   UNL A   1      33.359  26.683  25.165  1.00  0.00    -0.074 C 
ATOM     12  C   UNL A   1      33.673  25.376  25.265  1.00  0.00    -0.073 C 
ATOM     13  C   UNL A   1      33.596  27.378  23.840  1.00  0.00     0.045 C 
ATOM     14  C   UNL A   1      33.454  24.519  26.480  1.00  0.00     0.039 C 
ATOM     15  C   UNL A   1      34.272  24.661  24.083  1.00  0.00     0.046 C 
ATOM     16  C   UNL A   1      33.077  26.502  22.673  1.00  0.00     0.097 C 
BRANCH  16  17
ATOM     17  C   UNL A   1      31.552  26.605  22.774  1.00  0.00     0.224 C 
ATOM     18  O   UNL A   1      30.880  26.010  23.608  1.00  0.00    -0.275 OA
ATOM     19  N   UNL A   1      31.080  27.660  22.011  1.00  0.00    -0.350 N 
ATOM     20  H   UNL A   1      31.407  27.771  21.089  1.00  0.00     0.163 HD
BRANCH  19  21
ATOM     21  C   UNL A   1      30.114  28.606  22.537  1.00  0.00     0.177 C 
BRANCH  21  22
ATOM     22  C   UNL A   1      30.206  30.015  21.893  1.00  0.00     0.283 C 
BRANCH  22  23
ATOM     23  N   UNL A   1      28.897  30.505  21.447  1.00  0.00    -0.330 N 
ATOM     24  C   UNL A   1      28.732  31.959  21.591  1.00  0.00     0.291 C 
ATOM     25  C   UNL A   1      27.755  29.823  22.089  1.00  0.00     0.291 C 
ATOM     26  H   UNL A   1      28.887  30.275  20.453  1.00  0.00     0.348 HD
ATOM     27  C   UNL A   1      28.337  32.449  22.992  1.00  0.00     0.221 C 
ATOM     28  C   UNL A   1      27.407  30.347  23.491  1.00  0.00     0.221 C 
ATOM     29  O   UNL A   1      27.181  31.761  23.482  1.00  0.00    -0.370 OA
ENDBRANCH  22  23
ENDBRANCH  21  22
ENDBRANCH  19  21
ENDBRANCH  16  17
ENDBRANCH   7   9
ENDBRANCH   6   7
ENDBRANCH   5   6
ENDBRANCH   4   5
ENDBRANCH   3   4
ENDBRANCH   2   3
ENDBRANCH   1   2
BRANCH   1  30
ATOM     30  O   UNL A   1      36.304  21.007  25.612  1.00  0.00    -0.377 OA
BRANCH  30  31
ATOM     31  C   UNL A   1      37.036  22.035  24.925  1.00  0.00     0.188 C 
BRANCH  31  32
ATOM     32  C   UNL A   1      38.462  22.446  25.372  1.00  0.00     0.188 C 
BRANCH  32  33
ATOM     33  O   UNL A   1      38.513  23.297  26.510  1.00  0.00    -0.376 OA
BRANCH  33  34
ATOM     34  C   UNL A   1      39.715  24.041  26.669  1.00  0.00     0.202 C 
BRANCH  34  35
ATOM     35  C   UNL A   1      40.963  23.167  26.812  1.00  0.00     0.261 C 
BRANCH  35  36
ATOM     36  O   UNL A   1      41.722  23.429  28.003  1.00  0.00    -0.460 OA
BRANCH  36  37
ATOM     37  C   UNL A   1      43.049  23.646  27.846  1.00  0.00     0.338 C 
ATOM     38  O   UNL A   1      43.662  23.681  26.798  1.00  0.00    -0.246 OA
BRANCH  37  39
ATOM     39  C   UNL A   1      43.606  23.997  29.167  1.00  0.00     0.060 A 
ATOM     40  C   UNL A   1      43.426  23.115  30.234  1.00  0.00     0.016 A 
ATOM     41  C   UNL A   1      44.266  25.213  29.357  1.00  0.00     0.016 A 
ATOM     42  C   UNL A   1      43.850  23.485  31.510  1.00  0.00     0.010 A 
ATOM     43  C   UNL A   1      44.732  25.562  30.624  1.00  0.00     0.010 A 
ATOM     44  C   UNL A   1      44.460  24.732  31.722  1.00  0.00    -0.014 A 
BRANCH  44  45
ATOM     45  C   UNL A   1      44.582  25.251  33.110  1.00  0.00     0.031 A 
ATOM     46  C   UNL A   1      45.259  24.384  34.143  1.00  0.00     0.074 A 
ATOM     47  C   UNL A   1      44.168  26.489  33.430  1.00  0.00     0.049 A 
ATOM     48  N   UNL A   1      45.587  24.663  35.380  1.00  0.00    -0.248 NA
ATOM     49  C   UNL A   1      45.600  23.013  33.731  1.00  0.00     0.031 C 
ATOM     50  C   UNL A   1      43.479  27.412  32.529  1.00  0.00     0.029 A 
ATOM     51  N   UNL A   1      44.284  27.192  34.604  1.00  0.00    -0.354 N 
ATOM     52  C   UNL A   1      46.175  23.507  35.885  1.00  0.00     0.074 A 
ATOM     53  C   UNL A   1      46.085  22.502  34.850  1.00  0.00     0.031 C 
ATOM     54  C   UNL A   1      43.259  28.571  33.175  1.00  0.00     0.029 A 
ATOM     55  C   UNL A   1      43.780  28.470  34.536  1.00  0.00     0.049 A 
ATOM     56  H   UNL A   1      44.690  26.816  35.418  1.00  0.00     0.167 HD
ATOM     57  C   UNL A   1      46.769  23.305  37.087  1.00  0.00     0.034 A 
ATOM     58  C   UNL A   1      43.759  29.449  35.465  1.00  0.00     0.034 A 
ATOM     59  C   UNL A   1      46.856  24.314  38.112  1.00  0.00     0.049 A 
ATOM     60  C   UNL A   1      44.412  29.201  36.805  1.00  0.00     0.074 A 
ATOM     61  C   UNL A   1      47.451  24.233  39.357  1.00  0.00     0.029 A 
ATOM     62  N   UNL A   1      46.322  25.593  38.011  1.00  0.00    -0.354 N 
ATOM     63  N   UNL A   1      45.015  28.120  37.248  1.00  0.00    -0.248 NA
ATOM     64  C   UNL A   1      44.405  30.318  37.758  1.00  0.00     0.031 C 
ATOM     65  C   UNL A   1      47.226  25.439  40.032  1.00  0.00     0.029 A 
ATOM     66  C   UNL A   1      46.556  26.301  39.179  1.00  0.00     0.049 A 
ATOM     67  H   UNL A   1      45.847  25.945  37.223  1.00  0.00     0.167 HD
ATOM     68  C   UNL A   1      45.489  28.444  38.519  1.00  0.00     0.074 A 
ATOM     69  C   UNL A   1      45.119  29.824  38.758  1.00  0.00     0.031 C 
ATOM     70  C   UNL A   1      46.172  27.675  39.406  1.00  0.00     0.034 A 
BRANCH  57  71
ATOM     71  C   UNL A   1      47.340  21.932  37.351  1.00  0.00     0.023 A 
ATOM     72  C   UNL A   1      46.590  20.931  37.994  1.00  0.00     0.031 A 
ATOM     73  C   UNL A   1      48.670  21.636  37.006  1.00  0.00     0.131 A 
ATOM     74  C   UNL A   1      47.197  19.716  38.347  1.00  0.00     0.055 A 
ATOM     75  C   UNL A   1      49.243  20.392  37.284  1.00  0.00     0.041 A 
ATOM     76  F   UNL A   1      49.445  22.558  36.414  1.00  0.00    -0.206 F 
ATOM     77  C   UNL A   1      48.511  19.430  37.973  1.00  0.00     0.022 A 
BRANCH  74  78
ATOM     78  S   UNL A   1      46.295  18.580  39.436  1.00  0.00     0.124 S 
ATOM     79  O   UNL A   1      45.366  17.949  38.501  1.00  0.00    -0.237 OA
ATOM     80  O   UNL A   1      47.356  17.728  39.956  1.00  0.00    -0.237 OA
ATOM     81  O   UNL A   1      45.672  19.468  40.416  1.00  0.00    -0.744 OA
ENDBRANCH  74  78
ENDBRANCH  57  71
BRANCH  58  82
ATOM     82  C   UNL A   1      43.112  30.760  35.170  1.00  0.00     0.023 A 
ATOM     83  C   UNL A   1      43.851  31.842  34.667  1.00  0.00     0.031 A 
ATOM     84  C   UNL A   1      41.749  30.967  35.450  1.00  0.00     0.131 A 
ATOM     85  C   UNL A   1      43.239  33.095  34.507  1.00  0.00     0.055 A 
ATOM     86  C   UNL A   1      41.132  32.202  35.240  1.00  0.00     0.041 A 
ATOM     87  F   UNL A   1      40.996  29.966  35.933  1.00  0.00    -0.206 F 
ATOM     88  C   UNL A   1      41.882  33.279  34.780  1.00  0.00     0.022 A 
BRANCH  85  89
ATOM     89  S   UNL A   1      44.265  34.510  34.016  1.00  0.00     0.124 S 
ATOM     90  O   UNL A   1      45.124  33.916  32.997  1.00  0.00    -0.237 OA
ATOM     91  O   UNL A   1      43.264  35.459  33.538  1.00  0.00    -0.237 OA
ATOM     92  O   UNL A   1      44.938  34.890  35.256  1.00  0.00    -0.744 OA
ENDBRANCH  85  89
ENDBRANCH  58  82
BRANCH  70  93
ATOM     93  C   UNL A   1      46.600  28.332  40.696  1.00  0.00     0.023 A 
ATOM     94  C   UNL A   1      45.867  28.176  41.887  1.00  0.00     0.031 A 
ATOM     95  C   UNL A   1      47.744  29.151  40.728  1.00  0.00     0.131 A 
ATOM     96  C   UNL A   1      46.244  28.884  43.038  1.00  0.00     0.055 A 
ATOM     97  C   UNL A   1      48.152  29.800  41.894  1.00  0.00     0.041 A 
ATOM     98  F   UNL A   1      48.484  29.334  39.624  1.00  0.00    -0.206 F 
ATOM     99  C   UNL A   1      47.390  29.683  43.053  1.00  0.00     0.022 A 
BRANCH  96 100
ATOM    100  S   UNL A   1      45.147  28.843  44.482  1.00  0.00     0.124 S 
ATOM    101  O   UNL A   1      45.936  28.081  45.443  1.00  0.00    -0.237 OA
ATOM    102  O   UNL A   1      44.972  30.261  44.780  1.00  0.00    -0.237 OA
ATOM    103  O   UNL A   1      43.951  28.164  43.984  1.00  0.00    -0.744 OA
ENDBRANCH  96 100
ENDBRANCH  70  93
ENDBRANCH  44  45
ENDBRANCH  37  39
ENDBRANCH  36  37
ENDBRANCH  35  36
ENDBRANCH  34  35
ENDBRANCH  33  34
ENDBRANCH  32  33
ENDBRANCH  31  32
ENDBRANCH  30  31
ENDBRANCH   1  30
TORSDOF 27
ENDMDL
MODEL 3
REMARK VINA RESULT:      -8.1      5.342     14.511
REMARK SMILES CC1=C(C)C[C@@H](C(=O)OCCOCCOCCOCCOC(=O)c2ccc(-c3c4nc(c(-c5cc(S(=O)(=O)[O-])ccc5F)c5ccc([nH]5)c(-c5cc(S(=O)(=O)[O-])ccc5F)c5nc(c(-c6cc(S(=O)(=O)[O-])ccc6F)c6ccc3[nH]6)C=C5)C=C4)cc2)[C@@H](C(=O)NCC[NH+]2CCOCC2)C1
REMARK SMILES IDX 14 1 13 2 12 3 11 4 10 5 9 6 7 7 8 8 6 9 1 10 2 11 3 12
REMARK SMILES IDX 99 13 4 14 5 15 87 16 88 17 89 18 90 19 91 21 92 22 93 23
REMARK SMILES IDX 94 24 98 25 95 27 97 28 96 29 15 30 16 31 17 32 18 33 19 34
REMARK SMILES IDX 20 35 21 36 22 37 23 38 24 39 25 40 86 41 26 42 85 43 27 44
REMARK SMILES IDX 28 45 29 46 79 47 30 48 84 49 78 50 80 51 31 52 83 53 77 54
REMARK SMILES IDX 76 55 32 57 64 58 44 59 63 60 45 61 48 62 62 63 81 64 46 65
REMARK SMILES IDX 47 66 61 68 82 69 49 70 33 71 34 72 42 73 35 74 41 75 43 76
REMARK SMILES IDX 40 77 36 78 37 79 38 80 39 81 65 82 66 83 74 84 67 85 73 86
REMARK SMILES IDX 75 87 72 88 68 89 69 90 70 91 71 92 50 93 51 94 59 95 52 96
REMARK SMILES IDX 58 97 60 98 57 99 53 100 54 101 55 102 56 103
REMARK H PARENT 90 20 93 26 80 56 48 67
REMARK Flexibility Score: inf
ROOT
ATOM      1  C   UNL A   1      37.708  34.208  34.492  1.00  0.00     0.188 C 
ENDROOT
BRANCH   1   2
ATOM      2  C   UNL A   1      37.302  33.086  35.463  1.00  0.00     0.188 C 
BRANCH   2   3
ATOM      3  O   UNL A   1      36.634  33.578  36.606  1.00  0.00    -0.376 OA
BRANCH   3   4
ATOM      4  C   UNL A   1      36.979  33.043  37.870  1.00  0.00     0.202 C 
BRANCH   4   5
ATOM      5  C   UNL A   1      35.861  32.644  38.849  1.00  0.00     0.261 C 
BRANCH   5   6
ATOM      6  O   UNL A   1      36.005  33.100  40.203  1.00  0.00    -0.463 OA
BRANCH   6   7
ATOM      7  C   UNL A   1      36.084  32.137  41.141  1.00  0.00     0.310 C 
ATOM      8  O   UNL A   1      35.269  31.222  41.242  1.00  0.00    -0.252 OA
BRANCH   7   9
ATOM      9  C   UNL A   1      37.331  32.192  42.006  1.00  0.00     0.116 C 
ATOM     10  C   UNL A   1      37.910  32.207  46.357  1.00  0.00     0.039 C 
ATOM     11  C   UNL A   1      37.991  31.977  44.874  1.00  0.00    -0.074 C 
ATOM     12  C   UNL A   1      37.433  30.920  44.254  1.00  0.00    -0.073 C 
ATOM     13  C   UNL A   1      38.600  33.071  44.021  1.00  0.00     0.045 C 
ATOM     14  C   UNL A   1      36.739  29.775  44.938  1.00  0.00     0.039 C 
ATOM     15  C   UNL A   1      37.456  30.840  42.750  1.00  0.00     0.046 C 
ATOM     16  C   UNL A   1      37.644  33.440  42.859  1.00  0.00     0.097 C 
BRANCH  16  17
ATOM     17  C   UNL A   1      36.508  34.212  43.536  1.00  0.00     0.224 C 
ATOM     18  O   UNL A   1      36.629  35.337  44.005  1.00  0.00    -0.275 OA
ATOM     19  N   UNL A   1      35.286  33.606  43.288  1.00  0.00    -0.350 N 
ATOM     20  H   UNL A   1      35.201  32.632  43.400  1.00  0.00     0.163 HD
BRANCH  19  21
ATOM     21  C   UNL A   1      34.129  34.374  42.869  1.00  0.00     0.177 C 
BRANCH  21  22
ATOM     22  C   UNL A   1      32.784  33.620  43.045  1.00  0.00     0.283 C 
BRANCH  22  23
ATOM     23  N   UNL A   1      31.837  34.370  43.879  1.00  0.00    -0.330 N 
ATOM     24  C   UNL A   1      30.557  33.675  44.085  1.00  0.00     0.291 C 
ATOM     25  C   UNL A   1      31.570  35.739  43.395  1.00  0.00     0.291 C 
ATOM     26  H   UNL A   1      32.316  34.437  44.776  1.00  0.00     0.348 HD
ATOM     27  C   UNL A   1      29.531  33.818  42.951  1.00  0.00     0.221 C 
ATOM     28  C   UNL A   1      30.543  35.824  42.255  1.00  0.00     0.221 C 
ATOM     29  O   UNL A   1      29.309  35.191  42.614  1.00  0.00    -0.370 OA
ENDBRANCH  22  23
ENDBRANCH  21  22
ENDBRANCH  19  21
ENDBRANCH  16  17
ENDBRANCH   7   9
ENDBRANCH   6   7
ENDBRANCH   5   6
ENDBRANCH   4   5
ENDBRANCH   3   4
ENDBRANCH   2   3
ENDBRANCH   1   2
BRANCH   1  30
ATOM     30  O   UNL A   1      36.715  34.823  33.678  1.00  0.00    -0.377 OA
BRANCH  30  31
ATOM     31  C   UNL A   1      35.603  34.041  33.216  1.00  0.00     0.188 C 
BRANCH  31  32
ATOM     32  C   UNL A   1      34.171  34.631  33.153  1.00  0.00     0.188 C 
BRANCH  32  33
ATOM     33  O   UNL A   1      33.470  34.382  31.941  1.00  0.00    -0.376 OA
BRANCH  33  34
ATOM     34  C   UNL A   1      34.055  34.935  30.768  1.00  0.00     0.202 C 
BRANCH  34  35
ATOM     35  C   UNL A   1      34.024  33.992  29.564  1.00  0.00     0.261 C 
BRANCH  35  36
ATOM     36  O   UNL A   1      35.040  32.977  29.593  1.00  0.00    -0.460 OA
BRANCH  36  37
ATOM     37  C   UNL A   1      34.792  31.844  28.897  1.00  0.00     0.338 C 
ATOM     38  O   UNL A   1      33.801  31.595  28.240  1.00  0.00    -0.246 OA
BRANCH  37  39
ATOM     39  C   UNL A   1      36.013  31.015  28.937  1.00  0.00     0.060 A 
ATOM     40  C   UNL A   1      36.111  30.003  29.894  1.00  0.00     0.016 A 
ATOM     41  C   UNL A   1      37.069  31.267  28.061  1.00  0.00     0.016 A 
ATOM     42  C   UNL A   1      37.302  29.286  30.015  1.00  0.00     0.010 A 
ATOM     43  C   UNL A   1      38.243  30.519  28.152  1.00  0.00     0.010 A 
ATOM     44  C   UNL A   1      38.392  29.575  29.178  1.00  0.00    -0.014 A 
BRANCH  44  45
ATOM     45  C   UNL A   1      39.740  29.063  29.543  1.00  0.00     0.031 A 
ATOM     46  C   UNL A   1      40.480  29.734  30.674  1.00  0.00     0.074 A 
ATOM     47  C   UNL A   1      40.264  27.984  28.936  1.00  0.00     0.049 A 
ATOM     48  N   UNL A   1      41.607  29.397  31.249  1.00  0.00    -0.248 NA
ATOM     49  C   UNL A   1      39.875  30.959  31.221  1.00  0.00     0.031 C 
ATOM     50  C   UNL A   1      39.659  27.263  27.816  1.00  0.00     0.029 A 
ATOM     51  N   UNL A   1      41.423  27.293  29.191  1.00  0.00    -0.354 N 
ATOM     52  C   UNL A   1      41.838  30.362  32.224  1.00  0.00     0.074 A 
ATOM     53  C   UNL A   1      40.779  31.339  32.108  1.00  0.00     0.031 C 
ATOM     54  C   UNL A   1      40.438  26.214  27.499  1.00  0.00     0.029 A 
ATOM     55  C   UNL A   1      41.601  26.194  28.383  1.00  0.00     0.049 A 
ATOM     56  H   UNL A   1      42.066  27.560  29.887  1.00  0.00     0.167 HD
ATOM     57  C   UNL A   1      42.820  30.416  33.158  1.00  0.00     0.034 A 
ATOM     58  C   UNL A   1      42.585  25.270  28.374  1.00  0.00     0.034 A 
ATOM     59  C   UNL A   1      43.870  29.436  33.267  1.00  0.00     0.049 A 
ATOM     60  C   UNL A   1      43.680  25.355  29.411  1.00  0.00     0.074 A 
ATOM     61  C   UNL A   1      44.904  29.375  34.184  1.00  0.00     0.029 A 
ATOM     62  N   UNL A   1      44.024  28.344  32.423  1.00  0.00    -0.354 N 
ATOM     63  N   UNL A   1      43.854  26.243  30.365  1.00  0.00    -0.248 NA
ATOM     64  C   UNL A   1      44.695  24.294  29.387  1.00  0.00     0.031 C 
ATOM     65  C   UNL A   1      45.716  28.282  33.858  1.00  0.00     0.029 A 
ATOM     66  C   UNL A   1      45.148  27.616  32.784  1.00  0.00     0.049 A 
ATOM     67  H   UNL A   1      43.422  28.119  31.676  1.00  0.00     0.167 HD
ATOM     68  C   UNL A   1      44.978  25.824  31.074  1.00  0.00     0.074 A 
ATOM     69  C   UNL A   1      45.426  24.596  30.449  1.00  0.00     0.031 C 
ATOM     70  C   UNL A   1      45.586  26.397  32.145  1.00  0.00     0.034 A 
BRANCH  57  71
ATOM     71  C   UNL A   1      42.804  31.592  34.106  1.00  0.00     0.023 A 
ATOM     72  C   UNL A   1      42.288  31.484  35.410  1.00  0.00     0.031 A 
ATOM     73  C   UNL A   1      43.261  32.854  33.684  1.00  0.00     0.131 A 
ATOM     74  C   UNL A   1      42.161  32.627  36.213  1.00  0.00     0.055 A 
ATOM     75  C   UNL A   1      43.212  33.972  34.520  1.00  0.00     0.041 A 
ATOM     76  F   UNL A   1      43.742  33.027  32.443  1.00  0.00    -0.206 F 
ATOM     77  C   UNL A   1      42.644  33.866  35.786  1.00  0.00     0.022 A 
BRANCH  74  78
ATOM     78  S   UNL A   1      41.217  32.502  37.757  1.00  0.00     0.124 S 
ATOM     79  O   UNL A   1      41.060  33.909  38.121  1.00  0.00    -0.237 OA
ATOM     80  O   UNL A   1      40.005  31.812  37.333  1.00  0.00    -0.237 OA
ATOM     81  O   UNL A   1      42.098  31.734  38.636  1.00  0.00    -0.744 OA
ENDBRANCH  74  78
ENDBRANCH  57  71
BRANCH  58  82
ATOM     82  C   UNL A   1      42.585  24.173  27.362  1.00  0.00     0.023 A 
ATOM     83  C   UNL A   1      41.850  22.994  27.564  1.00  0.00     0.031 A 
ATOM     84  C   UNL A   1      43.376  24.266  26.203  1.00  0.00     0.131 A 
ATOM     85  C   UNL A   1      41.960  21.934  26.650  1.00  0.00     0.055 A 
ATOM     86  C   UNL A   1      43.442  23.230  25.270  1.00  0.00     0.041 A 
ATOM     87  F   UNL A   1      44.099  25.372  25.962  1.00  0.00    -0.206 F 
ATOM     88  C   UNL A   1      42.742  22.049  25.499  1.00  0.00     0.022 A 
BRANCH  85  89
ATOM     89  S   UNL A   1      41.130  20.366  27.029  1.00  0.00     0.124 S 
ATOM     90  O   UNL A   1      40.662  20.598  28.391  1.00  0.00    -0.237 OA
ATOM     91  O   UNL A   1      40.099  20.310  25.997  1.00  0.00    -0.237 OA
ATOM     92  O   UNL A   1      42.196  19.375  26.896  1.00  0.00    -0.744 OA
ENDBRANCH  85  89
ENDBRANCH  58  82
BRANCH  70  93
ATOM     93  C   UNL A   1      46.771  25.669  32.733  1.00  0.00     0.023 A 
ATOM     94  C   UNL A   1      48.080  25.887  32.267  1.00  0.00     0.031 A 
ATOM     95  C   UNL A   1      46.583  24.722  33.756  1.00  0.00     0.131 A 
ATOM     96  C   UNL A   1      49.139  25.117  32.772  1.00  0.00     0.055 A 
ATOM     97  C   UNL A   1      47.650  24.007  34.301  1.00  0.00     0.041 A 
ATOM     98  F   UNL A   1      45.357  24.475  34.242  1.00  0.00    -0.206 F 
ATOM     99  C   UNL A   1      48.935  24.190  33.796  1.00  0.00     0.022 A 
BRANCH  96 100
ATOM    100  S   UNL A   1      50.768  25.259  31.986  1.00  0.00     0.124 S 
ATOM    101  O   UNL A   1      50.427  25.796  30.673  1.00  0.00    -0.237 OA
ATOM    102  O   UNL A   1      51.468  26.169  32.886  1.00  0.00    -0.237 OA
ATOM    103  O   UNL A   1      51.268  23.885  31.983  1.00  0.00    -0.744 OA
ENDBRANCH  96 100
ENDBRANCH  70  93
ENDBRANCH  44  45
ENDBRANCH  37  39
ENDBRANCH  36  37
ENDBRANCH  35  36
ENDBRANCH  34  35
ENDBRANCH  33  34
ENDBRANCH  32  33
ENDBRANCH  31  32
ENDBRANCH  30  31
ENDBRANCH   1  30
TORSDOF 27
ENDMDL
