MODEL 1
REMARK VINA RESULT:      -8.7      0.000      0.000
REMARK SMILES C[C@@H](C(=O)OCCOCCOCCOCCOC(=O)c1ccc(-c2c3nc(c(-c4cc(S(=O)(=O)[O-])ccc4F)c4ccc([nH]4)c(-c4cc(S(=O)(=O)[O-])ccc4F)c4nc(c(-c5cc(S(=O)(=O)[O-])ccc5F)c5ccc2[nH]5)C=C4)C=C3)cc1)c1ccc(OC2CCCC2)cc1F
REMARK SMILES IDX 11 1 10 2 9 3 8 4 7 5 6 6 5 7 3 8 4 9 2 10 1 11 83 12 84 13
REMARK SMILES IDX 94 14 85 15 93 16 95 17 86 18 87 19 88 20 89 21 92 22 90 23
REMARK SMILES IDX 91 24 12 25 13 26 14 27 15 28 16 29 17 30 18 31 19 32 20 33
REMARK SMILES IDX 21 34 82 35 22 36 81 37 23 38 24 39 25 40 75 41 26 42 80 43
REMARK SMILES IDX 74 44 76 45 27 46 79 47 73 48 72 49 28 51 60 52 40 53 59 54
REMARK SMILES IDX 41 55 44 56 58 57 77 58 42 59 43 60 57 62 78 63 45 64 29 65
REMARK SMILES IDX 30 66 38 67 31 68 37 69 39 70 36 71 32 72 33 73 34 74 35 75
REMARK SMILES IDX 61 76 62 77 70 78 63 79 69 80 71 81 68 82 64 83 65 84 66 85
REMARK SMILES IDX 67 86 46 87 47 88 55 89 48 90 54 91 56 92 53 93 49 94 50 95
REMARK SMILES IDX 51 96 52 97
REMARK H PARENT 76 50 44 61
REMARK Flexibility Score: inf
ROOT
ATOM      1  O   UNL A   1      31.644  27.337  27.009  1.00  0.00    -0.377 OA
ENDROOT
BRANCH   1   2
ATOM      2  C   UNL A   1      31.047  27.416  25.735  1.00  0.00     0.188 C 
BRANCH   2   3
ATOM      3  C   UNL A   1      30.091  26.252  25.394  1.00  0.00     0.188 C 
BRANCH   3   4
ATOM      4  O   UNL A   1      29.460  26.190  24.123  1.00  0.00    -0.376 OA
BRANCH   4   5
ATOM      5  C   UNL A   1      29.869  25.198  23.194  1.00  0.00     0.202 C 
BRANCH   5   6
ATOM      6  C   UNL A   1      31.302  24.625  23.242  1.00  0.00     0.261 C 
BRANCH   6   7
ATOM      7  O   UNL A   1      31.479  23.218  22.960  1.00  0.00    -0.463 OA
BRANCH   7   8
ATOM      8  C   UNL A   1      31.748  22.399  24.012  1.00  0.00     0.313 C 
ATOM      9  O   UNL A   1      31.189  22.492  25.103  1.00  0.00    -0.252 OA
BRANCH   8  10
ATOM     10  C   UNL A   1      32.849  21.344  23.743  1.00  0.00     0.129 C 
ATOM     11  C   UNL A   1      32.523  19.862  23.964  1.00  0.00     0.025 C 
BRANCH  10  12
ATOM     12  C   UNL A   1      34.171  21.759  24.390  1.00  0.00     0.002 A 
ATOM     13  C   UNL A   1      34.499  21.320  25.676  1.00  0.00     0.011 A 
ATOM     14  C   UNL A   1      35.146  22.500  23.714  1.00  0.00     0.130 A 
ATOM     15  C   UNL A   1      35.770  21.572  26.217  1.00  0.00     0.047 A 
ATOM     16  C   UNL A   1      36.429  22.701  24.218  1.00  0.00     0.086 A 
ATOM     17  F   UNL A   1      34.878  23.067  22.535  1.00  0.00    -0.207 F 
ATOM     18  C   UNL A   1      36.760  22.225  25.475  1.00  0.00     0.122 A 
BRANCH  18  19
ATOM     19  O   UNL A   1      37.961  22.369  26.100  1.00  0.00    -0.490 OA
BRANCH  19  20
ATOM     20  C   UNL A   1      39.079  21.532  25.819  1.00  0.00     0.173 C 
ATOM     21  C   UNL A   1      40.180  21.446  26.873  1.00  0.00     0.045 C 
ATOM     22  C   UNL A   1      38.770  20.091  25.409  1.00  0.00     0.045 C 
ATOM     23  C   UNL A   1      41.010  20.258  26.412  1.00  0.00     0.004 C 
ATOM     24  C   UNL A   1      40.025  19.289  25.759  1.00  0.00     0.004 C 
ENDBRANCH  19  20
ENDBRANCH  18  19
ENDBRANCH  10  12
ENDBRANCH   8  10
ENDBRANCH   7   8
ENDBRANCH   6   7
ENDBRANCH   5   6
ENDBRANCH   4   5
ENDBRANCH   3   4
ENDBRANCH   2   3
ENDBRANCH   1   2
BRANCH   1  25
ATOM     25  C   UNL A   1      31.880  28.572  27.659  1.00  0.00     0.188 C 
BRANCH  25  26
ATOM     26  C   UNL A   1      33.122  29.374  27.227  1.00  0.00     0.188 C 
BRANCH  26  27
ATOM     27  O   UNL A   1      32.841  30.425  26.304  1.00  0.00    -0.376 OA
BRANCH  27  28
ATOM     28  C   UNL A   1      31.684  31.222  26.503  1.00  0.00     0.202 C 
BRANCH  28  29
ATOM     29  C   UNL A   1      31.862  32.540  27.274  1.00  0.00     0.261 C 
BRANCH  29  30
ATOM     30  O   UNL A   1      33.198  33.053  27.369  1.00  0.00    -0.460 OA
BRANCH  30  31
ATOM     31  C   UNL A   1      33.517  33.789  28.456  1.00  0.00     0.338 C 
ATOM     32  O   UNL A   1      32.816  34.625  29.000  1.00  0.00    -0.246 OA
BRANCH  31  33
ATOM     33  C   UNL A   1      34.774  33.243  29.011  1.00  0.00     0.060 A 
ATOM     34  C   UNL A   1      34.728  32.055  29.752  1.00  0.00     0.016 A 
ATOM     35  C   UNL A   1      35.998  33.872  28.762  1.00  0.00     0.016 A 
ATOM     36  C   UNL A   1      35.901  31.504  30.268  1.00  0.00     0.010 A 
ATOM     37  C   UNL A   1      37.169  33.337  29.306  1.00  0.00     0.010 A 
ATOM     38  C   UNL A   1      37.121  32.168  30.087  1.00  0.00    -0.014 A 
BRANCH  38  39
ATOM     39  C   UNL A   1      38.293  31.773  30.906  1.00  0.00     0.031 A 
ATOM     40  C   UNL A   1      39.310  30.860  30.277  1.00  0.00     0.074 A 
ATOM     41  C   UNL A   1      38.473  32.231  32.158  1.00  0.00     0.049 A 
ATOM     42  N   UNL A   1      40.388  30.330  30.791  1.00  0.00    -0.248 NA
ATOM     43  C   UNL A   1      39.070  30.494  28.871  1.00  0.00     0.031 C 
ATOM     44  C   UNL A   1      37.589  33.168  32.849  1.00  0.00     0.029 A 
ATOM     45  N   UNL A   1      39.461  31.963  33.072  1.00  0.00    -0.354 N 
ATOM     46  C   UNL A   1      40.950  29.560  29.777  1.00  0.00     0.074 A 
ATOM     47  C   UNL A   1      40.073  29.667  28.631  1.00  0.00     0.031 C 
ATOM     48  C   UNL A   1      38.074  33.391  34.085  1.00  0.00     0.029 A 
ATOM     49  C   UNL A   1      39.275  32.581  34.287  1.00  0.00     0.049 A 
ATOM     50  H   UNL A   1      40.232  31.382  32.876  1.00  0.00     0.167 HD
ATOM     51  C   UNL A   1      42.096  28.837  29.799  1.00  0.00     0.034 A 
ATOM     52  C   UNL A   1      39.979  32.478  35.434  1.00  0.00     0.034 A 
ATOM     53  C   UNL A   1      42.949  28.731  30.957  1.00  0.00     0.049 A 
ATOM     54  C   UNL A   1      41.196  31.578  35.468  1.00  0.00     0.074 A 
ATOM     55  C   UNL A   1      44.138  28.037  31.088  1.00  0.00     0.029 A 
ATOM     56  N   UNL A   1      42.696  29.320  32.188  1.00  0.00    -0.354 N 
ATOM     57  N   UNL A   1      41.723  30.860  34.502  1.00  0.00    -0.248 NA
ATOM     58  C   UNL A   1      41.914  31.482  36.746  1.00  0.00     0.031 C 
ATOM     59  C   UNL A   1      44.556  28.133  32.418  1.00  0.00     0.029 A 
ATOM     60  C   UNL A   1      43.683  28.969  33.096  1.00  0.00     0.049 A 
ATOM     61  H   UNL A   1      41.927  29.903  32.388  1.00  0.00     0.167 HD
ATOM     62  C   UNL A   1      42.856  30.259  35.048  1.00  0.00     0.074 A 
ATOM     63  C   UNL A   1      42.940  30.709  36.423  1.00  0.00     0.031 C 
ATOM     64  C   UNL A   1      43.751  29.419  34.467  1.00  0.00     0.034 A 
BRANCH  51  65
ATOM     65  C   UNL A   1      42.447  28.056  28.557  1.00  0.00     0.023 A 
ATOM     66  C   UNL A   1      42.325  26.656  28.497  1.00  0.00     0.031 A 
ATOM     67  C   UNL A   1      42.945  28.720  27.422  1.00  0.00     0.131 A 
ATOM     68  C   UNL A   1      42.764  25.962  27.359  1.00  0.00     0.055 A 
ATOM     69  C   UNL A   1      43.300  28.033  26.260  1.00  0.00     0.041 A 
ATOM     70  F   UNL A   1      43.113  30.053  27.429  1.00  0.00    -0.206 F 
ATOM     71  C   UNL A   1      43.224  26.643  26.229  1.00  0.00     0.022 A 
BRANCH  68  72
ATOM     72  S   UNL A   1      42.873  24.153  27.432  1.00  0.00     0.124 S 
ATOM     73  O   UNL A   1      44.270  23.956  27.811  1.00  0.00    -0.237 OA
ATOM     74  O   UNL A   1      41.881  23.819  28.448  1.00  0.00    -0.237 OA
ATOM     75  O   UNL A   1      42.539  23.735  26.073  1.00  0.00    -0.744 OA
ENDBRANCH  68  72
ENDBRANCH  51  65
BRANCH  52  76
ATOM     76  C   UNL A   1      39.542  33.204  36.664  1.00  0.00     0.023 A 
ATOM     77  C   UNL A   1      38.724  32.582  37.623  1.00  0.00     0.031 A 
ATOM     78  C   UNL A   1      39.877  34.555  36.865  1.00  0.00     0.131 A 
ATOM     79  C   UNL A   1      38.228  33.323  38.707  1.00  0.00     0.055 A 
ATOM     80  C   UNL A   1      39.432  35.271  37.978  1.00  0.00     0.041 A 
ATOM     81  F   UNL A   1      40.648  35.204  35.977  1.00  0.00    -0.206 F 
ATOM     82  C   UNL A   1      38.590  34.659  38.900  1.00  0.00     0.022 A 
BRANCH  79  83
ATOM     83  S   UNL A   1      37.018  32.544  39.811  1.00  0.00     0.124 S 
ATOM     84  O   UNL A   1      36.960  33.502  40.909  1.00  0.00    -0.237 OA
ATOM     85  O   UNL A   1      35.836  32.469  38.960  1.00  0.00    -0.237 OA
ATOM     86  O   UNL A   1      37.632  31.258  40.135  1.00  0.00    -0.744 OA
ENDBRANCH  79  83
ENDBRANCH  52  76
BRANCH  64  87
ATOM     87  C   UNL A   1      44.933  28.978  35.300  1.00  0.00     0.023 A 
ATOM     88  C   UNL A   1      44.911  27.795  36.058  1.00  0.00     0.031 A 
ATOM     89  C   UNL A   1      46.102  29.760  35.333  1.00  0.00     0.131 A 
ATOM     90  C   UNL A   1      46.013  27.458  36.862  1.00  0.00     0.055 A 
ATOM     91  C   UNL A   1      47.220  29.384  36.078  1.00  0.00     0.041 A 
ATOM     92  F   UNL A   1      46.180  30.903  34.633  1.00  0.00    -0.206 F 
ATOM     93  C   UNL A   1      47.174  28.235  36.860  1.00  0.00     0.022 A 
BRANCH  90  94
ATOM     94  S   UNL A   1      45.869  26.045  37.991  1.00  0.00     0.124 S 
ATOM     95  O   UNL A   1      45.275  26.662  39.172  1.00  0.00    -0.237 OA
ATOM     96  O   UNL A   1      45.007  25.135  37.245  1.00  0.00    -0.237 OA
ATOM     97  O   UNL A   1      47.250  25.596  38.155  1.00  0.00    -0.744 OA
ENDBRANCH  90  94
ENDBRANCH  64  87
ENDBRANCH  38  39
ENDBRANCH  31  33
ENDBRANCH  30  31
ENDBRANCH  29  30
ENDBRANCH  28  29
ENDBRANCH  27  28
ENDBRANCH  26  27
ENDBRANCH  25  26
ENDBRANCH   1  25
TORSDOF 26
ENDMDL
MODEL 2
REMARK VINA RESULT:      -8.6      6.522      8.485
REMARK SMILES C[C@@H](C(=O)OCCOCCOCCOCCOC(=O)c1ccc(-c2c3nc(c(-c4cc(S(=O)(=O)[O-])ccc4F)c4ccc([nH]4)c(-c4cc(S(=O)(=O)[O-])ccc4F)c4nc(c(-c5cc(S(=O)(=O)[O-])ccc5F)c5ccc2[nH]5)C=C4)C=C3)cc1)c1ccc(OC2CCCC2)cc1F
REMARK SMILES IDX 11 1 10 2 9 3 8 4 7 5 6 6 5 7 3 8 4 9 2 10 1 11 83 12 84 13
REMARK SMILES IDX 94 14 85 15 93 16 95 17 86 18 87 19 88 20 89 21 92 22 90 23
REMARK SMILES IDX 91 24 12 25 13 26 14 27 15 28 16 29 17 30 18 31 19 32 20 33
REMARK SMILES IDX 21 34 82 35 22 36 81 37 23 38 24 39 25 40 75 41 26 42 80 43
REMARK SMILES IDX 74 44 76 45 27 46 79 47 73 48 72 49 28 51 60 52 40 53 59 54
REMARK SMILES IDX 41 55 44 56 58 57 77 58 42 59 43 60 57 62 78 63 45 64 29 65
REMARK SMILES IDX 30 66 38 67 31 68 37 69 39 70 36 71 32 72 33 73 34 74 35 75
REMARK SMILES IDX 61 76 62 77 70 78 63 79 69 80 71 81 68 82 64 83 65 84 66 85
REMARK SMILES IDX 67 86 46 87 47 88 55 89 48 90 54 91 56 92 53 93 49 94 50 95
REMARK SMILES IDX 51 96 52 97
REMARK H PARENT 76 50 44 61
REMARK Flexibility Score: inf
ROOT
ATOM      1  O   UNL A   1      35.821  33.998  29.776  1.00  0.00    -0.377 OA
ENDROOT
BRANCH   1   2
ATOM      2  C   UNL A   1      35.430  33.265  28.637  1.00  0.00     0.188 C 
BRANCH   2   3
ATOM      3  C   UNL A   1      34.212  32.339  28.850  1.00  0.00     0.188 C 
BRANCH   3   4
ATOM      4  O   UNL A   1      33.377  31.989  27.754  1.00  0.00    -0.376 OA
BRANCH   4   5
ATOM      5  C   UNL A   1      33.578  30.746  27.100  1.00  0.00     0.202 C 
BRANCH   5   6
ATOM      6  C   UNL A   1      32.385  29.806  26.822  1.00  0.00     0.261 C 
BRANCH   6   7
ATOM      7  O   UNL A   1      31.813  29.812  25.494  1.00  0.00    -0.463 OA
BRANCH   7   8
ATOM      8  C   UNL A   1      31.871  28.654  24.784  1.00  0.00     0.313 C 
ATOM      9  O   UNL A   1      30.911  27.902  24.633  1.00  0.00    -0.252 OA
BRANCH   8  10
ATOM     10  C   UNL A   1      33.266  28.329  24.194  1.00  0.00     0.129 C 
ATOM     11  C   UNL A   1      33.655  28.932  22.839  1.00  0.00     0.025 C 
BRANCH  10  12
ATOM     12  C   UNL A   1      33.557  26.830  24.278  1.00  0.00     0.002 A 
ATOM     13  C   UNL A   1      33.677  26.067  23.113  1.00  0.00     0.011 A 
ATOM     14  C   UNL A   1      33.813  26.174  25.486  1.00  0.00     0.130 A 
ATOM     15  C   UNL A   1      34.090  24.726  23.175  1.00  0.00     0.047 A 
ATOM     16  C   UNL A   1      34.282  24.863  25.551  1.00  0.00     0.086 A 
ATOM     17  F   UNL A   1      33.602  26.786  26.654  1.00  0.00    -0.207 F 
ATOM     18  C   UNL A   1      34.439  24.128  24.390  1.00  0.00     0.122 A 
BRANCH  18  19
ATOM     19  O   UNL A   1      34.863  22.836  24.307  1.00  0.00    -0.490 OA
BRANCH  19  20
ATOM     20  C   UNL A   1      34.081  21.740  24.774  1.00  0.00     0.173 C 
ATOM     21  C   UNL A   1      32.737  21.491  24.094  1.00  0.00     0.045 C 
ATOM     22  C   UNL A   1      34.778  20.381  24.844  1.00  0.00     0.045 C 
ATOM     23  C   UNL A   1      32.347  20.108  24.591  1.00  0.00     0.004 C 
ATOM     24  C   UNL A   1      33.658  19.343  24.763  1.00  0.00     0.004 C 
ENDBRANCH  19  20
ENDBRANCH  18  19
ENDBRANCH  10  12
ENDBRANCH   8  10
ENDBRANCH   7   8
ENDBRANCH   6   7
ENDBRANCH   5   6
ENDBRANCH   4   5
ENDBRANCH   3   4
ENDBRANCH   2   3
ENDBRANCH   1   2
BRANCH   1  25
ATOM     25  C   UNL A   1      34.845  34.120  30.796  1.00  0.00     0.188 C 
BRANCH  25  26
ATOM     26  C   UNL A   1      35.282  33.793  32.236  1.00  0.00     0.188 C 
BRANCH  26  27
ATOM     27  O   UNL A   1      36.403  32.915  32.317  1.00  0.00    -0.376 OA
BRANCH  27  28
ATOM     28  C   UNL A   1      36.183  31.548  32.633  1.00  0.00     0.202 C 
BRANCH  28  29
ATOM     29  C   UNL A   1      35.975  30.580  31.457  1.00  0.00     0.261 C 
BRANCH  29  30
ATOM     30  O   UNL A   1      36.623  29.304  31.553  1.00  0.00    -0.460 OA
BRANCH  30  31
ATOM     31  C   UNL A   1      37.700  29.202  32.362  1.00  0.00     0.338 C 
ATOM     32  O   UNL A   1      37.837  28.432  33.298  1.00  0.00    -0.246 OA
BRANCH  31  33
ATOM     33  C   UNL A   1      38.777  30.030  31.779  1.00  0.00     0.060 A 
ATOM     34  C   UNL A   1      38.849  30.163  30.386  1.00  0.00     0.016 A 
ATOM     35  C   UNL A   1      39.681  30.712  32.600  1.00  0.00     0.016 A 
ATOM     36  C   UNL A   1      39.839  30.957  29.807  1.00  0.00     0.010 A 
ATOM     37  C   UNL A   1      40.693  31.481  32.019  1.00  0.00     0.010 A 
ATOM     38  C   UNL A   1      40.795  31.582  30.619  1.00  0.00    -0.014 A 
BRANCH  38  39
ATOM     39  C   UNL A   1      42.025  32.136  30.003  1.00  0.00     0.031 A 
ATOM     40  C   UNL A   1      43.155  31.183  29.719  1.00  0.00     0.074 A 
ATOM     41  C   UNL A   1      42.132  33.436  29.675  1.00  0.00     0.049 A 
ATOM     42  N   UNL A   1      44.346  31.421  29.238  1.00  0.00    -0.248 NA
ATOM     43  C   UNL A   1      42.901  29.767  30.028  1.00  0.00     0.031 C 
ATOM     44  C   UNL A   1      41.082  34.439  29.844  1.00  0.00     0.029 A 
ATOM     45  N   UNL A   1      43.181  34.134  29.131  1.00  0.00    -0.354 N 
ATOM     46  C   UNL A   1      44.987  30.187  29.193  1.00  0.00     0.074 A 
ATOM     47  C   UNL A   1      44.064  29.212  29.730  1.00  0.00     0.031 C 
ATOM     48  C   UNL A   1      41.546  35.628  29.418  1.00  0.00     0.029 A 
ATOM     49  C   UNL A   1      42.936  35.480  28.989  1.00  0.00     0.049 A 
ATOM     50  H   UNL A   1      44.031  33.712  28.869  1.00  0.00     0.167 HD
ATOM     51  C   UNL A   1      46.231  29.895  28.740  1.00  0.00     0.034 A 
ATOM     52  C   UNL A   1      43.752  36.477  28.585  1.00  0.00     0.034 A 
ATOM     53  C   UNL A   1      47.143  30.884  28.222  1.00  0.00     0.049 A 
ATOM     54  C   UNL A   1      45.173  36.143  28.186  1.00  0.00     0.074 A 
ATOM     55  C   UNL A   1      48.420  30.699  27.725  1.00  0.00     0.029 A 
ATOM     56  N   UNL A   1      46.883  32.247  28.151  1.00  0.00    -0.354 N 
ATOM     57  N   UNL A   1      45.768  34.972  28.141  1.00  0.00    -0.248 NA
ATOM     58  C   UNL A   1      46.028  37.265  27.776  1.00  0.00     0.031 C 
ATOM     59  C   UNL A   1      48.963  31.955  27.438  1.00  0.00     0.029 A 
ATOM     60  C   UNL A   1      47.992  32.918  27.659  1.00  0.00     0.049 A 
ATOM     61  H   UNL A   1      46.034  32.674  28.411  1.00  0.00     0.167 HD
ATOM     62  C   UNL A   1      47.055  35.216  27.662  1.00  0.00     0.074 A 
ATOM     63  C   UNL A   1      47.143  36.642  27.422  1.00  0.00     0.031 C 
ATOM     64  C   UNL A   1      48.069  34.342  27.432  1.00  0.00     0.034 A 
BRANCH  51  65
ATOM     65  C   UNL A   1      46.691  28.462  28.852  1.00  0.00     0.023 A 
ATOM     66  C   UNL A   1      46.506  27.536  27.809  1.00  0.00     0.031 A 
ATOM     67  C   UNL A   1      47.293  28.005  30.037  1.00  0.00     0.131 A 
ATOM     68  C   UNL A   1      46.853  26.189  27.999  1.00  0.00     0.055 A 
ATOM     69  C   UNL A   1      47.715  26.683  30.188  1.00  0.00     0.041 A 
ATOM     70  F   UNL A   1      47.468  28.834  31.078  1.00  0.00    -0.206 F 
ATOM     71  C   UNL A   1      47.482  25.762  29.171  1.00  0.00     0.022 A 
BRANCH  68  72
ATOM     72  S   UNL A   1      46.329  24.974  26.758  1.00  0.00     0.124 S 
ATOM     73  O   UNL A   1      46.347  25.775  25.536  1.00  0.00    -0.237 OA
ATOM     74  O   UNL A   1      47.362  23.950  26.866  1.00  0.00    -0.237 OA
ATOM     75  O   UNL A   1      45.000  24.572  27.211  1.00  0.00    -0.744 OA
ENDBRANCH  68  72
ENDBRANCH  51  65
BRANCH  52  76
ATOM     76  C   UNL A   1      43.279  37.894  28.574  1.00  0.00     0.023 A 
ATOM     77  C   UNL A   1      43.461  38.730  29.688  1.00  0.00     0.031 A 
ATOM     78  C   UNL A   1      42.570  38.411  27.475  1.00  0.00     0.131 A 
ATOM     79  C   UNL A   1      42.899  40.016  29.699  1.00  0.00     0.055 A 
ATOM     80  C   UNL A   1      42.066  39.713  27.465  1.00  0.00     0.041 A 
ATOM     81  F   UNL A   1      42.356  37.654  26.386  1.00  0.00    -0.206 F 
ATOM     82  C   UNL A   1      42.217  40.520  28.588  1.00  0.00     0.022 A 
BRANCH  79  83
ATOM     83  S   UNL A   1      42.984  40.990  31.227  1.00  0.00     0.124 S 
ATOM     84  O   UNL A   1      44.298  41.612  31.108  1.00  0.00    -0.237 OA
ATOM     85  O   UNL A   1      41.836  41.878  31.085  1.00  0.00    -0.237 OA
ATOM     86  O   UNL A   1      42.864  39.981  32.279  1.00  0.00    -0.744 OA
ENDBRANCH  79  83
ENDBRANCH  52  76
BRANCH  64  87
ATOM     87  C   UNL A   1      49.343  34.897  26.837  1.00  0.00     0.023 A 
ATOM     88  C   UNL A   1      50.466  35.198  27.628  1.00  0.00     0.031 A 
ATOM     89  C   UNL A   1      49.432  35.128  25.452  1.00  0.00     0.131 A 
ATOM     90  C   UNL A   1      51.606  35.767  27.036  1.00  0.00     0.055 A 
ATOM     91  C   UNL A   1      50.593  35.627  24.861  1.00  0.00     0.041 A 
ATOM     92  F   UNL A   1      48.391  34.863  24.647  1.00  0.00    -0.206 F 
ATOM     93  C   UNL A   1      51.683  35.963  25.655  1.00  0.00     0.022 A 
BRANCH  90  94
ATOM     94  S   UNL A   1      52.950  36.344  28.110  1.00  0.00     0.124 S 
ATOM     95  O   UNL A   1      53.924  36.831  27.140  1.00  0.00    -0.237 OA
ATOM     96  O   UNL A   1      52.289  37.364  28.917  1.00  0.00    -0.237 OA
ATOM     97  O   UNL A   1      53.347  35.140  28.838  1.00  0.00    -0.744 OA
ENDBRANCH  90  94
ENDBRANCH  64  87
ENDBRANCH  38  39
ENDBRANCH  31  33
ENDBRANCH  30  31
ENDBRANCH  29  30
ENDBRANCH  28  29
ENDBRANCH  27  28
ENDBRANCH  26  27
ENDBRANCH  25  26
ENDBRANCH   1  25
TORSDOF 26
ENDMDL
MODEL 3
REMARK VINA RESULT:      -8.6      2.297      3.164
REMARK SMILES C[C@@H](C(=O)OCCOCCOCCOCCOC(=O)c1ccc(-c2c3nc(c(-c4cc(S(=O)(=O)[O-])ccc4F)c4ccc([nH]4)c(-c4cc(S(=O)(=O)[O-])ccc4F)c4nc(c(-c5cc(S(=O)(=O)[O-])ccc5F)c5ccc2[nH]5)C=C4)C=C3)cc1)c1ccc(OC2CCCC2)cc1F
REMARK SMILES IDX 11 1 10 2 9 3 8 4 7 5 6 6 5 7 3 8 4 9 2 10 1 11 83 12 84 13
REMARK SMILES IDX 94 14 85 15 93 16 95 17 86 18 87 19 88 20 89 21 92 22 90 23
REMARK SMILES IDX 91 24 12 25 13 26 14 27 15 28 16 29 17 30 18 31 19 32 20 33
REMARK SMILES IDX 21 34 82 35 22 36 81 37 23 38 24 39 25 40 75 41 26 42 80 43
REMARK SMILES IDX 74 44 76 45 27 46 79 47 73 48 72 49 28 51 60 52 40 53 59 54
REMARK SMILES IDX 41 55 44 56 58 57 77 58 42 59 43 60 57 62 78 63 45 64 29 65
REMARK SMILES IDX 30 66 38 67 31 68 37 69 39 70 36 71 32 72 33 73 34 74 35 75
REMARK SMILES IDX 61 76 62 77 70 78 63 79 69 80 71 81 68 82 64 83 65 84 66 85
REMARK SMILES IDX 67 86 46 87 47 88 55 89 48 90 54 91 56 92 53 93 49 94 50 95
REMARK SMILES IDX 51 96 52 97
REMARK H PARENT 76 50 44 61
REMARK Flexibility Score: inf
ROOT
ATOM      1  O   UNL A   1      31.647  26.576  26.850  1.00  0.00    -0.377 OA
ENDROOT
BRANCH   1   2
ATOM      2  C   UNL A   1      30.496  26.627  26.038  1.00  0.00     0.188 C 
BRANCH   2   3
ATOM      3  C   UNL A   1      30.086  25.276  25.411  1.00  0.00     0.188 C 
BRANCH   3   4
ATOM      4  O   UNL A   1      29.850  25.176  24.013  1.00  0.00    -0.376 OA
BRANCH   4   5
ATOM      5  C   UNL A   1      30.905  24.753  23.163  1.00  0.00     0.202 C 
BRANCH   5   6
ATOM      6  C   UNL A   1      32.247  25.517  23.140  1.00  0.00     0.261 C 
BRANCH   6   7
ATOM      7  O   UNL A   1      33.463  24.745  23.024  1.00  0.00    -0.463 OA
BRANCH   7   8
ATOM      8  C   UNL A   1      34.084  24.379  24.177  1.00  0.00     0.313 C 
ATOM      9  O   UNL A   1      35.205  24.769  24.496  1.00  0.00    -0.252 OA
BRANCH   8  10
ATOM     10  C   UNL A   1      33.277  23.396  25.059  1.00  0.00     0.129 C 
ATOM     11  C   UNL A   1      33.200  23.650  26.570  1.00  0.00     0.025 C 
BRANCH  10  12
ATOM     12  C   UNL A   1      33.630  21.945  24.723  1.00  0.00     0.002 A 
ATOM     13  C   UNL A   1      34.748  21.337  25.301  1.00  0.00     0.011 A 
ATOM     14  C   UNL A   1      32.822  21.136  23.917  1.00  0.00     0.130 A 
ATOM     15  C   UNL A   1      34.993  19.967  25.115  1.00  0.00     0.047 A 
ATOM     16  C   UNL A   1      33.024  19.765  23.778  1.00  0.00     0.086 A 
ATOM     17  F   UNL A   1      31.807  21.658  23.224  1.00  0.00    -0.207 F 
ATOM     18  C   UNL A   1      34.109  19.161  24.390  1.00  0.00     0.122 A 
BRANCH  18  19
ATOM     19  O   UNL A   1      34.442  17.842  24.319  1.00  0.00    -0.490 OA
BRANCH  19  20
ATOM     20  C   UNL A   1      33.508  16.800  24.584  1.00  0.00     0.173 C 
ATOM     21  C   UNL A   1      34.066  15.410  24.881  1.00  0.00     0.045 C 
ATOM     22  C   UNL A   1      32.460  17.076  25.663  1.00  0.00     0.045 C 
ATOM     23  C   UNL A   1      32.859  14.660  25.424  1.00  0.00     0.004 C 
ATOM     24  C   UNL A   1      32.024  15.699  26.170  1.00  0.00     0.004 C 
ENDBRANCH  19  20
ENDBRANCH  18  19
ENDBRANCH  10  12
ENDBRANCH   8  10
ENDBRANCH   7   8
ENDBRANCH   6   7
ENDBRANCH   5   6
ENDBRANCH   4   5
ENDBRANCH   3   4
ENDBRANCH   2   3
ENDBRANCH   1   2
BRANCH   1  25
ATOM     25  C   UNL A   1      32.004  27.786  27.493  1.00  0.00     0.188 C 
BRANCH  25  26
ATOM     26  C   UNL A   1      33.151  28.605  26.873  1.00  0.00     0.188 C 
BRANCH  26  27
ATOM     27  O   UNL A   1      32.788  29.308  25.687  1.00  0.00    -0.376 OA
BRANCH  27  28
ATOM     28  C   UNL A   1      31.771  30.297  25.759  1.00  0.00     0.202 C 
BRANCH  28  29
ATOM     29  C   UNL A   1      32.100  31.588  26.526  1.00  0.00     0.261 C 
BRANCH  29  30
ATOM     30  O   UNL A   1      33.490  31.877  26.731  1.00  0.00    -0.460 OA
BRANCH  30  31
ATOM     31  C   UNL A   1      33.816  32.750  27.709  1.00  0.00     0.338 C 
ATOM     32  O   UNL A   1      33.130  33.670  28.123  1.00  0.00    -0.246 OA
BRANCH  31  33
ATOM     33  C   UNL A   1      35.056  32.261  28.349  1.00  0.00     0.060 A 
ATOM     34  C   UNL A   1      35.097  30.944  28.826  1.00  0.00     0.016 A 
ATOM     35  C   UNL A   1      36.188  33.078  28.435  1.00  0.00     0.016 A 
ATOM     36  C   UNL A   1      36.260  30.447  29.413  1.00  0.00     0.010 A 
ATOM     37  C   UNL A   1      37.342  32.589  29.053  1.00  0.00     0.010 A 
ATOM     38  C   UNL A   1      37.373  31.282  29.572  1.00  0.00    -0.014 A 
BRANCH  38  39
ATOM     39  C   UNL A   1      38.470  30.871  30.482  1.00  0.00     0.031 A 
ATOM     40  C   UNL A   1      39.477  29.882  29.961  1.00  0.00     0.074 A 
ATOM     41  C   UNL A   1      38.592  31.377  31.722  1.00  0.00     0.049 A 
ATOM     42  N   UNL A   1      40.491  29.325  30.568  1.00  0.00    -0.248 NA
ATOM     43  C   UNL A   1      39.308  29.463  28.560  1.00  0.00     0.031 C 
ATOM     44  C   UNL A   1      37.715  32.386  32.313  1.00  0.00     0.029 A 
ATOM     45  N   UNL A   1      39.506  31.105  32.710  1.00  0.00    -0.354 N 
ATOM     46  C   UNL A   1      41.077  28.483  29.627  1.00  0.00     0.074 A 
ATOM     47  C   UNL A   1      40.282  28.578  28.422  1.00  0.00     0.031 C 
ATOM     48  C   UNL A   1      38.131  32.643  33.567  1.00  0.00     0.029 A 
ATOM     49  C   UNL A   1      39.274  31.787  33.882  1.00  0.00     0.049 A 
ATOM     50  H   UNL A   1      40.257  30.480  32.591  1.00  0.00     0.167 HD
ATOM     51  C   UNL A   1      42.182  27.708  29.755  1.00  0.00     0.034 A 
ATOM     52  C   UNL A   1      39.898  31.704  35.077  1.00  0.00     0.034 A 
ATOM     53  C   UNL A   1      42.953  27.616  30.970  1.00  0.00     0.049 A 
ATOM     54  C   UNL A   1      41.063  30.750  35.229  1.00  0.00     0.074 A 
ATOM     55  C   UNL A   1      44.094  26.873  31.209  1.00  0.00     0.029 A 
ATOM     56  N   UNL A   1      42.652  28.273  32.156  1.00  0.00    -0.354 N 
ATOM     57  N   UNL A   1      41.613  29.963  34.331  1.00  0.00    -0.248 NA
ATOM     58  C   UNL A   1      41.693  30.679  36.554  1.00  0.00     0.031 C 
ATOM     59  C   UNL A   1      44.431  27.010  32.558  1.00  0.00     0.029 A 
ATOM     60  C   UNL A   1      43.561  27.917  33.141  1.00  0.00     0.049 A 
ATOM     61  H   UNL A   1      41.902  28.900  32.280  1.00  0.00     0.167 HD
ATOM     62  C   UNL A   1      42.678  29.335  34.977  1.00  0.00     0.074 A 
ATOM     63  C   UNL A   1      42.697  29.844  36.333  1.00  0.00     0.031 C 
ATOM     64  C   UNL A   1      43.564  28.427  34.493  1.00  0.00     0.034 A 
BRANCH  51  65
ATOM     65  C   UNL A   1      42.571  26.854  28.574  1.00  0.00     0.023 A 
ATOM     66  C   UNL A   1      43.726  27.113  27.816  1.00  0.00     0.031 A 
ATOM     67  C   UNL A   1      41.751  25.783  28.177  1.00  0.00     0.131 A 
ATOM     68  C   UNL A   1      43.990  26.358  26.662  1.00  0.00     0.055 A 
ATOM     69  C   UNL A   1      42.064  24.981  27.079  1.00  0.00     0.041 A 
ATOM     70  F   UNL A   1      40.618  25.506  28.843  1.00  0.00    -0.206 F 
ATOM     71  C   UNL A   1      43.183  25.276  26.305  1.00  0.00     0.022 A 
BRANCH  68  72
ATOM     72  S   UNL A   1      45.314  26.906  25.549  1.00  0.00     0.124 S 
ATOM     73  O   UNL A   1      45.559  25.698  24.764  1.00  0.00    -0.237 OA
ATOM     74  O   UNL A   1      44.687  28.014  24.837  1.00  0.00    -0.237 OA
ATOM     75  O   UNL A   1      46.394  27.279  26.459  1.00  0.00    -0.744 OA
ENDBRANCH  68  72
ENDBRANCH  51  65
BRANCH  52  76
ATOM     76  C   UNL A   1      39.421  32.506  36.243  1.00  0.00     0.023 A 
ATOM     77  C   UNL A   1      40.000  33.747  36.558  1.00  0.00     0.031 A 
ATOM     78  C   UNL A   1      38.427  32.008  37.104  1.00  0.00     0.131 A 
ATOM     79  C   UNL A   1      39.618  34.421  37.728  1.00  0.00     0.055 A 
ATOM     80  C   UNL A   1      38.006  32.712  38.234  1.00  0.00     0.041 A 
ATOM     81  F   UNL A   1      37.845  30.823  36.859  1.00  0.00    -0.206 F 
ATOM     82  C   UNL A   1      38.613  33.921  38.560  1.00  0.00     0.022 A 
BRANCH  79  83
ATOM     83  S   UNL A   1      40.526  35.918  38.205  1.00  0.00     0.124 S 
ATOM     84  O   UNL A   1      40.179  36.037  39.616  1.00  0.00    -0.237 OA
ATOM     85  O   UNL A   1      41.904  35.542  37.911  1.00  0.00    -0.237 OA
ATOM     86  O   UNL A   1      39.963  36.948  37.334  1.00  0.00    -0.744 OA
ENDBRANCH  79  83
ENDBRANCH  52  76
BRANCH  64  87
ATOM     87  C   UNL A   1      44.667  27.970  35.420  1.00  0.00     0.023 A 
ATOM     88  C   UNL A   1      44.515  26.860  36.269  1.00  0.00     0.031 A 
ATOM     89  C   UNL A   1      45.892  28.660  35.452  1.00  0.00     0.131 A 
ATOM     90  C   UNL A   1      45.548  26.509  37.154  1.00  0.00     0.055 A 
ATOM     91  C   UNL A   1      46.941  28.264  36.282  1.00  0.00     0.041 A 
ATOM     92  F   UNL A   1      46.094  29.730  34.666  1.00  0.00    -0.206 F 
ATOM     93  C   UNL A   1      46.767  27.192  37.150  1.00  0.00     0.022 A 
BRANCH  90  94
ATOM     94  S   UNL A   1      45.239  25.213  38.385  1.00  0.00     0.124 S 
ATOM     95  O   UNL A   1      46.594  24.825  38.763  1.00  0.00    -0.237 OA
ATOM     96  O   UNL A   1      44.472  25.924  39.402  1.00  0.00    -0.237 OA
ATOM     97  O   UNL A   1      44.491  24.203  37.638  1.00  0.00    -0.744 OA
ENDBRANCH  90  94
ENDBRANCH  64  87
ENDBRANCH  38  39
ENDBRANCH  31  33
ENDBRANCH  30  31
ENDBRANCH  29  30
ENDBRANCH  28  29
ENDBRANCH  27  28
ENDBRANCH  26  27
ENDBRANCH  25  26
ENDBRANCH   1  25
TORSDOF 26
ENDMDL
