MODEL 1
REMARK VINA RESULT:      -9.3      0.000      0.000
REMARK SMILES CC(C)[C@@](C)(CC(=O)NC[C@@H]1C[N@@H+](C)CCO1)C(=O)OCCOCCOCCOCCOC(=O)c1ccc(-c2c3nc(c(-c4cc(S(=O)(=O)[O-])ccc4F)c4ccc([nH]4)c(-c4cc(S(=O)(=O)[O-])ccc4F)c4nc(c(-c5cc(S(=O)(=O)[O-])ccc5F)c5ccc2[nH]5)C=C4)C=C3)cc1
REMARK SMILES IDX 25 1 24 2 23 3 22 4 21 5 20 6 18 7 19 8 4 9 5 10 2 11 1 12
REMARK SMILES IDX 3 13 6 14 7 15 8 16 9 17 10 19 11 20 12 21 17 22 13 23 16 24
REMARK SMILES IDX 14 25 15 26 26 28 27 29 28 30 29 31 30 32 31 33 32 34 33 35
REMARK SMILES IDX 34 36 35 37 36 38 97 39 37 40 96 41 38 42 39 43 40 44 90 45
REMARK SMILES IDX 41 46 95 47 89 48 91 49 42 50 94 51 88 52 87 53 43 55 75 56
REMARK SMILES IDX 55 57 74 58 56 59 59 60 73 61 92 62 57 63 58 64 72 66 93 67
REMARK SMILES IDX 60 68 44 69 45 70 53 71 46 72 52 73 54 74 51 75 47 76 48 77
REMARK SMILES IDX 49 78 50 79 76 80 77 81 85 82 78 83 84 84 86 85 83 86 79 87
REMARK SMILES IDX 80 88 81 89 82 90 61 91 62 92 70 93 63 94 69 95 71 96 68 97
REMARK SMILES IDX 64 98 65 99 66 100 67 101
REMARK H PARENT 9 18 13 27 91 54 59 65
REMARK Flexibility Score: inf
ROOT
ATOM      1  C   UNL A   1      39.580  22.384  26.736  1.00  0.00     0.188 C 
ENDROOT
BRANCH   1   2
ATOM      2  C   UNL A   1      38.905  23.753  26.782  1.00  0.00     0.188 C 
BRANCH   2   3
ATOM      3  O   UNL A   1      37.557  23.769  26.338  1.00  0.00    -0.376 OA
BRANCH   3   4
ATOM      4  C   UNL A   1      37.378  23.691  24.926  1.00  0.00     0.202 C 
BRANCH   4   5
ATOM      5  C   UNL A   1      36.173  22.860  24.444  1.00  0.00     0.261 C 
BRANCH   5   6
ATOM      6  O   UNL A   1      34.892  23.538  24.499  1.00  0.00    -0.463 OA
BRANCH   6   7
ATOM      7  C   UNL A   1      33.980  23.162  23.583  1.00  0.00     0.312 C 
ATOM      8  O   UNL A   1      34.046  23.522  22.409  1.00  0.00    -0.252 OA
BRANCH   7   9
ATOM      9  C   UNL A   1      32.828  22.252  24.107  1.00  0.00     0.076 C 
ATOM     10  C   UNL A   1      31.752  22.401  23.000  1.00  0.00     0.024 C 
BRANCH   9  11
ATOM     11  C   UNL A   1      33.337  20.809  24.146  1.00  0.00     0.000 C 
ATOM     12  C   UNL A   1      33.801  20.177  25.459  1.00  0.00     0.008 C 
ATOM     13  C   UNL A   1      32.262  19.905  23.597  1.00  0.00     0.008 C 
ENDBRANCH   9  11
BRANCH   9  14
ATOM     14  C   UNL A   1      32.085  22.571  25.468  1.00  0.00     0.118 C 
BRANCH  14  15
ATOM     15  C   UNL A   1      31.621  23.904  26.146  1.00  0.00     0.221 C 
ATOM     16  O   UNL A   1      31.442  23.857  27.379  1.00  0.00    -0.275 OA
ATOM     17  N   UNL A   1      31.428  25.162  25.678  1.00  0.00    -0.353 N 
ATOM     18  H   UNL A   1      30.741  25.638  26.198  1.00  0.00     0.163 HD
BRANCH  17  19
ATOM     19  C   UNL A   1      31.966  26.005  24.607  1.00  0.00     0.153 C 
BRANCH  19  20
ATOM     20  C   UNL A   1      31.182  26.046  23.243  1.00  0.00     0.192 C 
ATOM     21  C   UNL A   1      31.089  27.366  22.416  1.00  0.00     0.296 C 
ATOM     22  O   UNL A   1      29.848  25.500  23.427  1.00  0.00    -0.365 OA
ATOM     23  N   UNL A   1      30.116  28.327  22.929  1.00  0.00    -0.333 N 
ATOM     24  C   UNL A   1      28.953  26.443  24.042  1.00  0.00     0.222 C 
ATOM     25  C   UNL A   1      30.068  29.621  22.278  1.00  0.00     0.332 C 
ATOM     26  C   UNL A   1      28.811  27.741  23.226  1.00  0.00     0.290 C 
ATOM     27  H   UNL A   1      30.509  28.578  23.836  1.00  0.00     0.348 HD
ENDBRANCH  19  20
ENDBRANCH  17  19
ENDBRANCH  14  15
ENDBRANCH   9  14
ENDBRANCH   7   9
ENDBRANCH   6   7
ENDBRANCH   5   6
ENDBRANCH   4   5
ENDBRANCH   3   4
ENDBRANCH   2   3
ENDBRANCH   1   2
BRANCH   1  28
ATOM     28  O   UNL A   1      40.990  22.296  26.682  1.00  0.00    -0.377 OA
BRANCH  28  29
ATOM     29  C   UNL A   1      41.640  21.352  27.513  1.00  0.00     0.188 C 
BRANCH  29  30
ATOM     30  C   UNL A   1      41.389  19.860  27.248  1.00  0.00     0.188 C 
BRANCH  30  31
ATOM     31  O   UNL A   1      42.302  18.972  27.885  1.00  0.00    -0.376 OA
BRANCH  31  32
ATOM     32  C   UNL A   1      43.052  18.113  27.033  1.00  0.00     0.202 C 
BRANCH  32  33
ATOM     33  C   UNL A   1      43.251  18.577  25.582  1.00  0.00     0.261 C 
BRANCH  33  34
ATOM     34  O   UNL A   1      44.569  19.027  25.241  1.00  0.00    -0.460 OA
BRANCH  34  35
ATOM     35  C   UNL A   1      44.702  19.892  24.208  1.00  0.00     0.338 C 
ATOM     36  O   UNL A   1      44.675  19.640  23.028  1.00  0.00    -0.246 OA
BRANCH  35  37
ATOM     37  C   UNL A   1      44.675  21.248  24.802  1.00  0.00     0.060 A 
ATOM     38  C   UNL A   1      44.142  22.301  24.048  1.00  0.00     0.016 A 
ATOM     39  C   UNL A   1      45.089  21.452  26.122  1.00  0.00     0.016 A 
ATOM     40  C   UNL A   1      44.021  23.568  24.619  1.00  0.00     0.010 A 
ATOM     41  C   UNL A   1      45.006  22.729  26.677  1.00  0.00     0.010 A 
ATOM     42  C   UNL A   1      44.493  23.796  25.919  1.00  0.00    -0.014 A 
BRANCH  42  43
ATOM     43  C   UNL A   1      44.707  25.190  26.374  1.00  0.00     0.031 A 
ATOM     44  C   UNL A   1      46.090  25.758  26.206  1.00  0.00     0.074 A 
ATOM     45  C   UNL A   1      43.716  25.934  26.896  1.00  0.00     0.049 A 
ATOM     46  N   UNL A   1      46.557  26.931  26.537  1.00  0.00    -0.248 NA
ATOM     47  C   UNL A   1      47.080  24.868  25.575  1.00  0.00     0.031 C 
ATOM     48  C   UNL A   1      42.330  25.501  27.063  1.00  0.00     0.029 A 
ATOM     49  N   UNL A   1      43.731  27.216  27.386  1.00  0.00    -0.354 N 
ATOM     50  C   UNL A   1      47.891  26.927  26.143  1.00  0.00     0.074 A 
ATOM     51  C   UNL A   1      48.168  25.621  25.589  1.00  0.00     0.031 C 
ATOM     52  C   UNL A   1      41.630  26.499  27.634  1.00  0.00     0.029 A 
ATOM     53  C   UNL A   1      42.523  27.627  27.901  1.00  0.00     0.049 A 
ATOM     54  H   UNL A   1      44.532  27.788  27.371  1.00  0.00     0.167 HD
ATOM     55  C   UNL A   1      48.801  27.927  26.227  1.00  0.00     0.034 A 
ATOM     56  C   UNL A   1      42.192  28.772  28.535  1.00  0.00     0.034 A 
ATOM     57  C   UNL A   1      48.522  29.204  26.827  1.00  0.00     0.049 A 
ATOM     58  C   UNL A   1      43.254  29.835  28.717  1.00  0.00     0.074 A 
ATOM     59  C   UNL A   1      49.369  30.284  26.991  1.00  0.00     0.029 A 
ATOM     60  N   UNL A   1      47.300  29.568  27.381  1.00  0.00    -0.354 N 
ATOM     61  N   UNL A   1      44.511  29.826  28.332  1.00  0.00    -0.248 NA
ATOM     62  C   UNL A   1      42.852  31.064  29.415  1.00  0.00     0.031 C 
ATOM     63  C   UNL A   1      48.683  31.271  27.707  1.00  0.00     0.029 A 
ATOM     64  C   UNL A   1      47.381  30.843  27.916  1.00  0.00     0.049 A 
ATOM     65  H   UNL A   1      46.495  29.002  27.392  1.00  0.00     0.167 HD
ATOM     66  C   UNL A   1      45.036  31.060  28.712  1.00  0.00     0.074 A 
ATOM     67  C   UNL A   1      43.957  31.790  29.345  1.00  0.00     0.031 C 
ATOM     68  C   UNL A   1      46.292  31.551  28.551  1.00  0.00     0.034 A 
BRANCH  55  69
ATOM     69  C   UNL A   1      50.187  27.631  25.712  1.00  0.00     0.023 A 
ATOM     70  C   UNL A   1      50.555  27.907  24.382  1.00  0.00     0.031 A 
ATOM     71  C   UNL A   1      51.135  27.007  26.541  1.00  0.00     0.131 A 
ATOM     72  C   UNL A   1      51.805  27.491  23.900  1.00  0.00     0.055 A 
ATOM     73  C   UNL A   1      52.407  26.670  26.078  1.00  0.00     0.041 A 
ATOM     74  F   UNL A   1      50.831  26.692  27.810  1.00  0.00    -0.206 F 
ATOM     75  C   UNL A   1      52.744  26.898  24.747  1.00  0.00     0.022 A 
BRANCH  72  76
ATOM     76  S   UNL A   1      52.129  27.601  22.119  1.00  0.00     0.124 S 
ATOM     77  O   UNL A   1      50.811  27.960  21.601  1.00  0.00    -0.237 OA
ATOM     78  O   UNL A   1      53.148  28.641  22.047  1.00  0.00    -0.237 OA
ATOM     79  O   UNL A   1      52.584  26.257  21.770  1.00  0.00    -0.744 OA
ENDBRANCH  72  76
ENDBRANCH  55  69
BRANCH  56  80
ATOM     80  C   UNL A   1      40.821  28.967  29.092  1.00  0.00     0.023 A 
ATOM     81  C   UNL A   1      40.569  28.883  30.472  1.00  0.00     0.031 A 
ATOM     82  C   UNL A   1      39.722  29.171  28.237  1.00  0.00     0.131 A 
ATOM     83  C   UNL A   1      39.251  28.955  30.951  1.00  0.00     0.055 A 
ATOM     84  C   UNL A   1      38.418  29.296  28.724  1.00  0.00     0.041 A 
ATOM     85  F   UNL A   1      39.900  29.252  26.910  1.00  0.00    -0.206 F 
ATOM     86  C   UNL A   1      38.175  29.173  30.088  1.00  0.00     0.022 A 
BRANCH  83  87
ATOM     87  S   UNL A   1      38.947  28.666  32.717  1.00  0.00     0.124 S 
ATOM     88  O   UNL A   1      37.687  27.931  32.686  1.00  0.00    -0.237 OA
ATOM     89  O   UNL A   1      40.127  27.901  33.106  1.00  0.00    -0.237 OA
ATOM     90  O   UNL A   1      38.870  30.015  33.275  1.00  0.00    -0.744 OA
ENDBRANCH  83  87
ENDBRANCH  56  80
BRANCH  68  91
ATOM     91  C   UNL A   1      46.549  32.963  29.020  1.00  0.00     0.023 A 
ATOM     92  C   UNL A   1      46.434  34.065  28.156  1.00  0.00     0.031 A 
ATOM     93  C   UNL A   1      46.907  33.205  30.359  1.00  0.00     0.131 A 
ATOM     94  C   UNL A   1      46.728  35.354  28.628  1.00  0.00     0.055 A 
ATOM     95  C   UNL A   1      47.137  34.495  30.838  1.00  0.00     0.041 A 
ATOM     96  F   UNL A   1      47.031  32.188  31.228  1.00  0.00    -0.206 F 
ATOM     97  C   UNL A   1      47.060  35.578  29.967  1.00  0.00     0.022 A 
BRANCH  94  98
ATOM     98  S   UNL A   1      46.757  36.730  27.447  1.00  0.00     0.124 S 
ATOM     99  O   UNL A   1      46.089  37.788  28.197  1.00  0.00    -0.237 OA
ATOM    100  O   UNL A   1      48.186  36.915  27.217  1.00  0.00    -0.237 OA
ATOM    101  O   UNL A   1      46.008  36.215  26.302  1.00  0.00    -0.744 OA
ENDBRANCH  94  98
ENDBRANCH  68  91
ENDBRANCH  42  43
ENDBRANCH  35  37
ENDBRANCH  34  35
ENDBRANCH  33  34
ENDBRANCH  32  33
ENDBRANCH  31  32
ENDBRANCH  30  31
ENDBRANCH  29  30
ENDBRANCH  28  29
ENDBRANCH   1  28
TORSDOF 28
ENDMDL
MODEL 2
REMARK VINA RESULT:      -9.1      2.163      3.402
REMARK SMILES CC(C)[C@@](C)(CC(=O)NC[C@@H]1C[N@@H+](C)CCO1)C(=O)OCCOCCOCCOCCOC(=O)c1ccc(-c2c3nc(c(-c4cc(S(=O)(=O)[O-])ccc4F)c4ccc([nH]4)c(-c4cc(S(=O)(=O)[O-])ccc4F)c4nc(c(-c5cc(S(=O)(=O)[O-])ccc5F)c5ccc2[nH]5)C=C4)C=C3)cc1
REMARK SMILES IDX 25 1 24 2 23 3 22 4 21 5 20 6 18 7 19 8 4 9 5 10 2 11 1 12
REMARK SMILES IDX 3 13 6 14 7 15 8 16 9 17 10 19 11 20 12 21 17 22 13 23 16 24
REMARK SMILES IDX 14 25 15 26 26 28 27 29 28 30 29 31 30 32 31 33 32 34 33 35
REMARK SMILES IDX 34 36 35 37 36 38 97 39 37 40 96 41 38 42 39 43 40 44 90 45
REMARK SMILES IDX 41 46 95 47 89 48 91 49 42 50 94 51 88 52 87 53 43 55 75 56
REMARK SMILES IDX 55 57 74 58 56 59 59 60 73 61 92 62 57 63 58 64 72 66 93 67
REMARK SMILES IDX 60 68 44 69 45 70 53 71 46 72 52 73 54 74 51 75 47 76 48 77
REMARK SMILES IDX 49 78 50 79 76 80 77 81 85 82 78 83 84 84 86 85 83 86 79 87
REMARK SMILES IDX 80 88 81 89 82 90 61 91 62 92 70 93 63 94 69 95 71 96 68 97
REMARK SMILES IDX 64 98 65 99 66 100 67 101
REMARK H PARENT 9 18 13 27 91 54 59 65
REMARK Flexibility Score: inf
ROOT
ATOM      1  C   UNL A   1      39.281  22.539  26.510  1.00  0.00     0.188 C 
ENDROOT
BRANCH   1   2
ATOM      2  C   UNL A   1      38.610  23.906  26.414  1.00  0.00     0.188 C 
BRANCH   2   3
ATOM      3  O   UNL A   1      37.205  23.870  26.219  1.00  0.00    -0.376 OA
BRANCH   3   4
ATOM      4  C   UNL A   1      36.779  23.600  24.886  1.00  0.00     0.202 C 
BRANCH   4   5
ATOM      5  C   UNL A   1      35.259  23.644  24.640  1.00  0.00     0.261 C 
BRANCH   5   6
ATOM      6  O   UNL A   1      34.762  24.876  24.057  1.00  0.00    -0.463 OA
BRANCH   6   7
ATOM      7  C   UNL A   1      34.041  25.671  24.869  1.00  0.00     0.312 C 
ATOM      8  O   UNL A   1      34.163  25.638  26.092  1.00  0.00    -0.252 OA
BRANCH   7   9
ATOM      9  C   UNL A   1      33.034  26.628  24.162  1.00  0.00     0.076 C 
ATOM     10  C   UNL A   1      31.868  26.701  25.182  1.00  0.00     0.024 C 
BRANCH   9  11
ATOM     11  C   UNL A   1      33.692  28.002  24.026  1.00  0.00     0.000 C 
ATOM     12  C   UNL A   1      34.035  28.575  22.650  1.00  0.00     0.008 C 
ATOM     13  C   UNL A   1      32.815  29.025  24.704  1.00  0.00     0.008 C 
ENDBRANCH   9  11
BRANCH   9  14
ATOM     14  C   UNL A   1      32.366  26.240  22.779  1.00  0.00     0.118 C 
BRANCH  14  15
ATOM     15  C   UNL A   1      32.830  25.343  21.583  1.00  0.00     0.221 C 
ATOM     16  O   UNL A   1      33.277  25.946  20.588  1.00  0.00    -0.275 OA
ATOM     17  N   UNL A   1      32.915  24.000  21.411  1.00  0.00    -0.353 N 
ATOM     18  H   UNL A   1      32.806  23.751  20.465  1.00  0.00     0.163 HD
BRANCH  17  19
ATOM     19  C   UNL A   1      33.126  22.820  22.254  1.00  0.00     0.153 C 
BRANCH  19  20
ATOM     20  C   UNL A   1      31.879  22.227  23.009  1.00  0.00     0.192 C 
ATOM     21  C   UNL A   1      31.358  22.883  24.326  1.00  0.00     0.296 C 
ATOM     22  O   UNL A   1      32.066  20.802  23.224  1.00  0.00    -0.365 OA
ATOM     23  N   UNL A   1      32.148  22.556  25.510  1.00  0.00    -0.333 N 
ATOM     24  C   UNL A   1      32.943  20.528  24.329  1.00  0.00     0.222 C 
ATOM     25  C   UNL A   1      31.790  23.229  26.742  1.00  0.00     0.332 C 
ATOM     26  C   UNL A   1      32.434  21.131  25.651  1.00  0.00     0.290 C 
ATOM     27  H   UNL A   1      33.047  22.990  25.304  1.00  0.00     0.348 HD
ENDBRANCH  19  20
ENDBRANCH  17  19
ENDBRANCH  14  15
ENDBRANCH   9  14
ENDBRANCH   7   9
ENDBRANCH   6   7
ENDBRANCH   5   6
ENDBRANCH   4   5
ENDBRANCH   3   4
ENDBRANCH   2   3
ENDBRANCH   1   2
BRANCH   1  28
ATOM     28  O   UNL A   1      40.679  22.426  26.333  1.00  0.00    -0.377 OA
BRANCH  28  29
ATOM     29  C   UNL A   1      41.393  21.523  27.155  1.00  0.00     0.188 C 
BRANCH  29  30
ATOM     30  C   UNL A   1      41.408  20.039  26.758  1.00  0.00     0.188 C 
BRANCH  30  31
ATOM     31  O   UNL A   1      42.113  19.182  27.652  1.00  0.00    -0.376 OA
BRANCH  31  32
ATOM     32  C   UNL A   1      43.028  18.264  27.064  1.00  0.00     0.202 C 
BRANCH  32  33
ATOM     33  C   UNL A   1      43.303  18.427  25.561  1.00  0.00     0.261 C 
BRANCH  33  34
ATOM     34  O   UNL A   1      44.574  18.991  25.212  1.00  0.00    -0.460 OA
BRANCH  34  35
ATOM     35  C   UNL A   1      44.619  19.888  24.198  1.00  0.00     0.338 C 
ATOM     36  O   UNL A   1      44.563  19.662  23.013  1.00  0.00    -0.246 OA
BRANCH  35  37
ATOM     37  C   UNL A   1      44.537  21.225  24.828  1.00  0.00     0.060 A 
ATOM     38  C   UNL A   1      43.882  22.253  24.138  1.00  0.00     0.016 A 
ATOM     39  C   UNL A   1      45.023  21.429  26.122  1.00  0.00     0.016 A 
ATOM     40  C   UNL A   1      43.711  23.495  24.748  1.00  0.00     0.010 A 
ATOM     41  C   UNL A   1      44.888  22.686  26.715  1.00  0.00     0.010 A 
ATOM     42  C   UNL A   1      44.252  23.729  26.020  1.00  0.00    -0.014 A 
BRANCH  42  43
ATOM     43  C   UNL A   1      44.397  25.125  26.496  1.00  0.00     0.031 A 
ATOM     44  C   UNL A   1      45.745  25.769  26.319  1.00  0.00     0.074 A 
ATOM     45  C   UNL A   1      43.376  25.805  27.045  1.00  0.00     0.049 A 
ATOM     46  N   UNL A   1      46.153  26.960  26.665  1.00  0.00    -0.248 NA
ATOM     47  C   UNL A   1      46.772  24.944  25.660  1.00  0.00     0.031 C 
ATOM     48  C   UNL A   1      42.017  25.296  27.223  1.00  0.00     0.029 A 
ATOM     49  N   UNL A   1      43.329  27.078  27.557  1.00  0.00    -0.354 N 
ATOM     50  C   UNL A   1      47.479  27.034  26.253  1.00  0.00     0.074 A 
ATOM     51  C   UNL A   1      47.818  25.754  25.672  1.00  0.00     0.031 C 
ATOM     52  C   UNL A   1      41.273  26.244  27.820  1.00  0.00     0.029 A 
ATOM     53  C   UNL A   1      42.108  27.415  28.095  1.00  0.00     0.049 A 
ATOM     54  H   UNL A   1      44.097  27.692  27.541  1.00  0.00     0.167 HD
ATOM     55  C   UNL A   1      48.336  28.080  26.341  1.00  0.00     0.034 A 
ATOM     56  C   UNL A   1      41.725  28.529  28.753  1.00  0.00     0.034 A 
ATOM     57  C   UNL A   1      47.997  29.330  26.967  1.00  0.00     0.049 A 
ATOM     58  C   UNL A   1      42.731  29.644  28.940  1.00  0.00     0.074 A 
ATOM     59  C   UNL A   1      48.788  30.452  27.139  1.00  0.00     0.029 A 
ATOM     60  N   UNL A   1      46.766  29.618  27.545  1.00  0.00    -0.354 N 
ATOM     61  N   UNL A   1      43.981  29.710  28.538  1.00  0.00    -0.248 NA
ATOM     62  C   UNL A   1      42.274  30.838  29.664  1.00  0.00     0.031 C 
ATOM     63  C   UNL A   1      48.060  31.388  27.882  1.00  0.00     0.029 A 
ATOM     64  C   UNL A   1      46.786  30.887  28.101  1.00  0.00     0.049 A 
ATOM     65  H   UNL A   1      45.992  29.010  27.557  1.00  0.00     0.167 HD
ATOM     66  C   UNL A   1      44.445  30.964  28.932  1.00  0.00     0.074 A 
ATOM     67  C   UNL A   1      43.337  31.624  29.592  1.00  0.00     0.031 C 
ATOM     68  C   UNL A   1      45.670  31.524  28.762  1.00  0.00     0.034 A 
BRANCH  55  69
ATOM     69  C   UNL A   1      49.728  27.868  25.802  1.00  0.00     0.023 A 
ATOM     70  C   UNL A   1      50.068  28.212  24.482  1.00  0.00     0.031 A 
ATOM     71  C   UNL A   1      50.712  27.256  26.598  1.00  0.00     0.131 A 
ATOM     72  C   UNL A   1      51.331  27.873  23.972  1.00  0.00     0.055 A 
ATOM     73  C   UNL A   1      51.993  26.995  26.111  1.00  0.00     0.041 A 
ATOM     74  F   UNL A   1      50.436  26.878  27.856  1.00  0.00    -0.206 F 
ATOM     75  C   UNL A   1      52.305  27.290  24.786  1.00  0.00     0.022 A 
BRANCH  72  76
ATOM     76  S   UNL A   1      51.630  28.067  22.194  1.00  0.00     0.124 S 
ATOM     77  O   UNL A   1      50.952  29.330  21.916  1.00  0.00    -0.237 OA
ATOM     78  O   UNL A   1      53.086  28.093  22.120  1.00  0.00    -0.237 OA
ATOM     79  O   UNL A   1      50.997  26.886  21.609  1.00  0.00    -0.744 OA
ENDBRANCH  72  76
ENDBRANCH  55  69
BRANCH  56  80
ATOM     80  C   UNL A   1      40.353  28.641  29.332  1.00  0.00     0.023 A 
ATOM     81  C   UNL A   1      39.282  29.162  28.588  1.00  0.00     0.031 A 
ATOM     82  C   UNL A   1      40.111  28.293  30.674  1.00  0.00     0.131 A 
ATOM     83  C   UNL A   1      38.034  29.362  29.200  1.00  0.00     0.055 A 
ATOM     84  C   UNL A   1      38.853  28.445  31.263  1.00  0.00     0.041 A 
ATOM     85  F   UNL A   1      41.099  27.799  31.436  1.00  0.00    -0.206 F 
ATOM     86  C   UNL A   1      37.809  28.996  30.529  1.00  0.00     0.022 A 
BRANCH  83  87
ATOM     87  S   UNL A   1      36.725  30.198  28.260  1.00  0.00     0.124 S 
ATOM     88  O   UNL A   1      36.764  31.542  28.827  1.00  0.00    -0.237 OA
ATOM     89  O   UNL A   1      37.204  30.065  26.889  1.00  0.00    -0.237 OA
ATOM     90  O   UNL A   1      35.527  29.421  28.577  1.00  0.00    -0.744 OA
ENDBRANCH  83  87
ENDBRANCH  56  80
BRANCH  68  91
ATOM     91  C   UNL A   1      45.857  32.940  29.253  1.00  0.00     0.023 A 
ATOM     92  C   UNL A   1      46.345  33.222  30.540  1.00  0.00     0.031 A 
ATOM     93  C   UNL A   1      45.547  34.023  28.410  1.00  0.00     0.131 A 
ATOM     94  C   UNL A   1      46.458  34.554  30.967  1.00  0.00     0.055 A 
ATOM     95  C   UNL A   1      45.721  35.346  28.818  1.00  0.00     0.041 A 
ATOM     96  F   UNL A   1      45.078  33.811  27.169  1.00  0.00    -0.206 F 
ATOM     97  C   UNL A   1      46.167  35.617  30.108  1.00  0.00     0.022 A 
BRANCH  94  98
ATOM     98  S   UNL A   1      46.907  34.882  32.693  1.00  0.00     0.124 S 
ATOM     99  O   UNL A   1      47.078  33.535  33.224  1.00  0.00    -0.237 OA
ATOM    100  O   UNL A   1      48.127  35.672  32.554  1.00  0.00    -0.237 OA
ATOM    101  O   UNL A   1      45.754  35.613  33.215  1.00  0.00    -0.744 OA
ENDBRANCH  94  98
ENDBRANCH  68  91
ENDBRANCH  42  43
ENDBRANCH  35  37
ENDBRANCH  34  35
ENDBRANCH  33  34
ENDBRANCH  32  33
ENDBRANCH  31  32
ENDBRANCH  30  31
ENDBRANCH  29  30
ENDBRANCH  28  29
ENDBRANCH   1  28
TORSDOF 28
ENDMDL
MODEL 3
REMARK VINA RESULT:      -9.0      5.153     11.632
REMARK SMILES CC(C)[C@@](C)(CC(=O)NC[C@@H]1C[N@@H+](C)CCO1)C(=O)OCCOCCOCCOCCOC(=O)c1ccc(-c2c3nc(c(-c4cc(S(=O)(=O)[O-])ccc4F)c4ccc([nH]4)c(-c4cc(S(=O)(=O)[O-])ccc4F)c4nc(c(-c5cc(S(=O)(=O)[O-])ccc5F)c5ccc2[nH]5)C=C4)C=C3)cc1
REMARK SMILES IDX 25 1 24 2 23 3 22 4 21 5 20 6 18 7 19 8 4 9 5 10 2 11 1 12
REMARK SMILES IDX 3 13 6 14 7 15 8 16 9 17 10 19 11 20 12 21 17 22 13 23 16 24
REMARK SMILES IDX 14 25 15 26 26 28 27 29 28 30 29 31 30 32 31 33 32 34 33 35
REMARK SMILES IDX 34 36 35 37 36 38 97 39 37 40 96 41 38 42 39 43 40 44 90 45
REMARK SMILES IDX 41 46 95 47 89 48 91 49 42 50 94 51 88 52 87 53 43 55 75 56
REMARK SMILES IDX 55 57 74 58 56 59 59 60 73 61 92 62 57 63 58 64 72 66 93 67
REMARK SMILES IDX 60 68 44 69 45 70 53 71 46 72 52 73 54 74 51 75 47 76 48 77
REMARK SMILES IDX 49 78 50 79 76 80 77 81 85 82 78 83 84 84 86 85 83 86 79 87
REMARK SMILES IDX 80 88 81 89 82 90 61 91 62 92 70 93 63 94 69 95 71 96 68 97
REMARK SMILES IDX 64 98 65 99 66 100 67 101
REMARK H PARENT 9 18 13 27 91 54 59 65
REMARK Flexibility Score: inf
ROOT
ATOM      1  C   UNL A   1      31.273  24.405  26.239  1.00  0.00     0.188 C 
ENDROOT
BRANCH   1   2
ATOM      2  C   UNL A   1      30.838  23.055  26.804  1.00  0.00     0.188 C 
BRANCH   2   3
ATOM      3  O   UNL A   1      31.636  22.569  27.872  1.00  0.00    -0.376 OA
BRANCH   3   4
ATOM      4  C   UNL A   1      33.044  22.622  27.656  1.00  0.00     0.202 C 
BRANCH   4   5
ATOM      5  C   UNL A   1      33.703  21.314  27.178  1.00  0.00     0.261 C 
BRANCH   5   6
ATOM      6  O   UNL A   1      35.108  21.421  26.828  1.00  0.00    -0.463 OA
BRANCH   6   7
ATOM      7  C   UNL A   1      35.385  21.580  25.521  1.00  0.00     0.312 C 
ATOM      8  O   UNL A   1      35.274  20.661  24.713  1.00  0.00    -0.252 OA
BRANCH   7   9
ATOM      9  C   UNL A   1      35.868  23.001  25.099  1.00  0.00     0.076 C 
ATOM     10  C   UNL A   1      36.798  22.696  23.895  1.00  0.00     0.024 C 
BRANCH   9  11
ATOM     11  C   UNL A   1      34.652  23.800  24.627  1.00  0.00     0.000 C 
ATOM     12  C   UNL A   1      34.550  25.303  24.894  1.00  0.00     0.008 C 
ATOM     13  C   UNL A   1      34.510  23.625  23.136  1.00  0.00     0.008 C 
ENDBRANCH   9  11
BRANCH   9  14
ATOM     14  C   UNL A   1      36.725  23.901  26.080  1.00  0.00     0.118 C 
BRANCH  14  15
ATOM     15  C   UNL A   1      38.266  24.086  26.290  1.00  0.00     0.221 C 
ATOM     16  O   UNL A   1      38.632  25.209  26.689  1.00  0.00    -0.275 OA
ATOM     17  N   UNL A   1      39.321  23.241  26.191  1.00  0.00    -0.353 N 
ATOM     18  H   UNL A   1      40.145  23.721  25.945  1.00  0.00     0.163 HD
BRANCH  17  19
ATOM     19  C   UNL A   1      39.568  21.805  26.353  1.00  0.00     0.153 C 
BRANCH  19  20
ATOM     20  C   UNL A   1      40.797  21.368  27.232  1.00  0.00     0.192 C 
ATOM     21  C   UNL A   1      42.238  21.863  26.891  1.00  0.00     0.296 C 
ATOM     22  O   UNL A   1      40.808  19.923  27.378  1.00  0.00    -0.365 OA
ATOM     23  N   UNL A   1      42.866  21.155  25.778  1.00  0.00    -0.333 N 
ATOM     24  C   UNL A   1      41.328  19.261  26.213  1.00  0.00     0.222 C 
ATOM     25  C   UNL A   1      44.154  21.647  25.333  1.00  0.00     0.332 C 
ATOM     26  C   UNL A   1      42.764  19.701  25.874  1.00  0.00     0.290 C 
ATOM     27  H   UNL A   1      42.274  21.413  24.989  1.00  0.00     0.348 HD
ENDBRANCH  19  20
ENDBRANCH  17  19
ENDBRANCH  14  15
ENDBRANCH   9  14
ENDBRANCH   7   9
ENDBRANCH   6   7
ENDBRANCH   5   6
ENDBRANCH   4   5
ENDBRANCH   3   4
ENDBRANCH   2   3
ENDBRANCH   1   2
BRANCH   1  28
ATOM     28  O   UNL A   1      30.603  25.585  26.638  1.00  0.00    -0.377 OA
BRANCH  28  29
ATOM     29  C   UNL A   1      31.228  26.830  26.395  1.00  0.00     0.188 C 
BRANCH  29  30
ATOM     30  C   UNL A   1      31.220  27.377  24.959  1.00  0.00     0.188 C 
BRANCH  30  31
ATOM     31  O   UNL A   1      32.377  28.122  24.590  1.00  0.00    -0.376 OA
BRANCH  31  32
ATOM     32  C   UNL A   1      32.812  29.118  25.509  1.00  0.00     0.202 C 
BRANCH  32  33
ATOM     33  C   UNL A   1      34.303  29.116  25.879  1.00  0.00     0.261 C 
BRANCH  33  34
ATOM     34  O   UNL A   1      34.610  29.369  27.256  1.00  0.00    -0.460 OA
BRANCH  34  35
ATOM     35  C   UNL A   1      34.970  30.625  27.612  1.00  0.00     0.338 C 
ATOM     36  O   UNL A   1      34.400  31.656  27.350  1.00  0.00    -0.246 OA
BRANCH  35  37
ATOM     37  C   UNL A   1      36.089  30.475  28.570  1.00  0.00     0.060 A 
ATOM     38  C   UNL A   1      37.147  31.392  28.515  1.00  0.00     0.016 A 
ATOM     39  C   UNL A   1      36.043  29.496  29.566  1.00  0.00     0.016 A 
ATOM     40  C   UNL A   1      38.167  31.328  29.464  1.00  0.00     0.010 A 
ATOM     41  C   UNL A   1      37.085  29.408  30.490  1.00  0.00     0.010 A 
ATOM     42  C   UNL A   1      38.162  30.310  30.427  1.00  0.00    -0.014 A 
BRANCH  42  43
ATOM     43  C   UNL A   1      39.407  30.020  31.177  1.00  0.00     0.031 A 
ATOM     44  C   UNL A   1      39.583  30.714  32.500  1.00  0.00     0.074 A 
ATOM     45  C   UNL A   1      40.337  29.164  30.719  1.00  0.00     0.049 A 
ATOM     46  N   UNL A   1      40.578  30.663  33.344  1.00  0.00    -0.248 NA
ATOM     47  C   UNL A   1      38.476  31.589  32.922  1.00  0.00     0.031 C 
ATOM     48  C   UNL A   1      40.249  28.404  29.474  1.00  0.00     0.029 A 
ATOM     49  N   UNL A   1      41.546  28.794  31.256  1.00  0.00    -0.354 N 
ATOM     50  C   UNL A   1      40.211  31.486  34.403  1.00  0.00     0.074 A 
ATOM     51  C   UNL A   1      38.925  32.057  34.075  1.00  0.00     0.031 C 
ATOM     52  C   UNL A   1      41.367  27.668  29.335  1.00  0.00     0.029 A 
ATOM     53  C   UNL A   1      42.263  27.928  30.462  1.00  0.00     0.049 A 
ATOM     54  H   UNL A   1      41.868  29.119  32.127  1.00  0.00     0.167 HD
ATOM     55  C   UNL A   1      40.884  31.736  35.552  1.00  0.00     0.034 A 
ATOM     56  C   UNL A   1      43.506  27.430  30.623  1.00  0.00     0.034 A 
ATOM     57  C   UNL A   1      42.186  31.198  35.841  1.00  0.00     0.049 A 
ATOM     58  C   UNL A   1      44.287  27.810  31.863  1.00  0.00     0.074 A 
ATOM     59  C   UNL A   1      42.975  31.400  36.959  1.00  0.00     0.029 A 
ATOM     60  N   UNL A   1      42.903  30.363  34.992  1.00  0.00    -0.354 N 
ATOM     61  N   UNL A   1      43.929  28.581  32.865  1.00  0.00    -0.248 NA
ATOM     62  C   UNL A   1      45.638  27.247  31.997  1.00  0.00     0.031 C 
ATOM     63  C   UNL A   1      44.196  30.747  36.754  1.00  0.00     0.029 A 
ATOM     64  C   UNL A   1      44.138  30.067  35.548  1.00  0.00     0.049 A 
ATOM     65  H   UNL A   1      42.581  30.030  34.124  1.00  0.00     0.167 HD
ATOM     66  C   UNL A   1      44.997  28.567  33.761  1.00  0.00     0.074 A 
ATOM     67  C   UNL A   1      46.005  27.702  33.185  1.00  0.00     0.031 C 
ATOM     68  C   UNL A   1      45.133  29.205  34.952  1.00  0.00     0.034 A 
BRANCH  55  69
ATOM     69  C   UNL A   1      40.233  32.681  36.531  1.00  0.00     0.023 A 
ATOM     70  C   UNL A   1      39.319  32.227  37.498  1.00  0.00     0.031 A 
ATOM     71  C   UNL A   1      40.480  34.062  36.455  1.00  0.00     0.131 A 
ATOM     72  C   UNL A   1      38.628  33.150  38.298  1.00  0.00     0.055 A 
ATOM     73  C   UNL A   1      39.850  34.969  37.309  1.00  0.00     0.041 A 
ATOM     74  F   UNL A   1      41.319  34.558  35.532  1.00  0.00    -0.206 F 
ATOM     75  C   UNL A   1      38.907  34.517  38.228  1.00  0.00     0.022 A 
BRANCH  72  76
ATOM     76  S   UNL A   1      37.256  32.554  39.324  1.00  0.00     0.124 S 
ATOM     77  O   UNL A   1      36.117  32.735  38.427  1.00  0.00    -0.237 OA
ATOM     78  O   UNL A   1      37.641  31.175  39.597  1.00  0.00    -0.237 OA
ATOM     79  O   UNL A   1      37.278  33.449  40.479  1.00  0.00    -0.744 OA
ENDBRANCH  72  76
ENDBRANCH  55  69
BRANCH  56  80
ATOM     80  C   UNL A   1      44.123  26.563  29.576  1.00  0.00     0.023 A 
ATOM     81  C   UNL A   1      44.598  27.097  28.366  1.00  0.00     0.031 A 
ATOM     82  C   UNL A   1      44.180  25.167  29.742  1.00  0.00     0.131 A 
ATOM     83  C   UNL A   1      45.064  26.240  27.355  1.00  0.00     0.055 A 
ATOM     84  C   UNL A   1      44.694  24.323  28.755  1.00  0.00     0.041 A 
ATOM     85  F   UNL A   1      43.733  24.599  30.874  1.00  0.00    -0.206 F 
ATOM     86  C   UNL A   1      45.127  24.858  27.546  1.00  0.00     0.022 A 
BRANCH  83  87
ATOM     87  S   UNL A   1      45.503  26.950  25.743  1.00  0.00     0.124 S 
ATOM     88  O   UNL A   1      45.187  25.850  24.838  1.00  0.00    -0.237 OA
ATOM     89  O   UNL A   1      44.624  28.112  25.674  1.00  0.00    -0.237 OA
ATOM     90  O   UNL A   1      46.926  27.255  25.881  1.00  0.00    -0.744 OA
ENDBRANCH  83  87
ENDBRANCH  56  80
BRANCH  68  91
ATOM     91  C   UNL A   1      46.399  28.946  35.733  1.00  0.00     0.023 A 
ATOM     92  C   UNL A   1      46.508  27.877  36.639  1.00  0.00     0.031 A 
ATOM     93  C   UNL A   1      47.517  29.784  35.560  1.00  0.00     0.131 A 
ATOM     94  C   UNL A   1      47.690  27.705  37.376  1.00  0.00     0.055 A 
ATOM     95  C   UNL A   1      48.710  29.570  36.250  1.00  0.00     0.041 A 
ATOM     96  F   UNL A   1      47.469  30.820  34.708  1.00  0.00    -0.206 F 
ATOM     97  C   UNL A   1      48.797  28.533  37.174  1.00  0.00     0.022 A 
BRANCH  94  98
ATOM     98  S   UNL A   1      47.732  26.436  38.671  1.00  0.00     0.124 S 
ATOM     99  O   UNL A   1      48.311  25.299  37.963  1.00  0.00    -0.237 OA
ATOM    100  O   UNL A   1      48.581  27.053  39.686  1.00  0.00    -0.237 OA
ATOM    101  O   UNL A   1      46.329  26.282  39.048  1.00  0.00    -0.744 OA
ENDBRANCH  94  98
ENDBRANCH  68  91
ENDBRANCH  42  43
ENDBRANCH  35  37
ENDBRANCH  34  35
ENDBRANCH  33  34
ENDBRANCH  32  33
ENDBRANCH  31  32
ENDBRANCH  30  31
ENDBRANCH  29  30
ENDBRANCH  28  29
ENDBRANCH   1  28
TORSDOF 28
ENDMDL
