MODEL 1
REMARK VINA RESULT:      -8.3      0.000      0.000
REMARK SMILES CCOc1ccc([C@H](C)[C@](O)(C(=O)OCCOCCOCCOCCOC(=O)c2ccc(-c3c4nc(c(-c5cc(S(=O)(=O)[O-])ccc5F)c5ccc([nH]5)c(-c5cc(S(=O)(=O)[O-])ccc5F)c5nc(c(-c6cc(S(=O)(=O)[O-])ccc6F)c6ccc3[nH]6)C=C5)C=C4)cc2)C(C)C)cc1
REMARK SMILES IDX 19 1 18 2 17 3 16 4 15 5 14 6 12 7 13 8 10 9 8 10 9 11 7 12
REMARK SMILES IDX 4 13 5 14 96 15 6 16 95 17 3 18 2 19 1 20 92 21 93 22 94 23
REMARK SMILES IDX 11 24 20 26 21 27 22 28 23 29 24 30 25 31 26 32 27 33 28 34
REMARK SMILES IDX 29 35 30 36 91 37 31 38 90 39 32 40 33 41 34 42 84 43 35 44
REMARK SMILES IDX 89 45 83 46 85 47 36 48 88 49 82 50 81 51 37 53 69 54 49 55
REMARK SMILES IDX 68 56 50 57 53 58 67 59 86 60 51 61 52 62 66 64 87 65 54 66
REMARK SMILES IDX 38 67 39 68 47 69 40 70 46 71 48 72 45 73 41 74 42 75 43 76
REMARK SMILES IDX 44 77 70 78 71 79 79 80 72 81 78 82 80 83 77 84 73 85 74 86
REMARK SMILES IDX 75 87 76 88 55 89 56 90 64 91 57 92 63 93 65 94 62 95 58 96
REMARK SMILES IDX 59 97 60 98 61 99
REMARK H PARENT 11 25 85 52 53 63
REMARK Flexibility Score: inf
ROOT
ATOM      1  C   UNL A   1      35.114  33.315  28.757  1.00  0.00     0.188 C 
ENDROOT
BRANCH   1   2
ATOM      2  C   UNL A   1      34.673  31.866  28.479  1.00  0.00     0.188 C 
BRANCH   2   3
ATOM      3  O   UNL A   1      33.645  31.596  27.542  1.00  0.00    -0.376 OA
BRANCH   3   4
ATOM      4  C   UNL A   1      33.255  30.262  27.260  1.00  0.00     0.202 C 
BRANCH   4   5
ATOM      5  C   UNL A   1      33.189  29.653  25.844  1.00  0.00     0.261 C 
BRANCH   5   6
ATOM      6  O   UNL A   1      31.950  29.674  25.123  1.00  0.00    -0.461 OA
BRANCH   6   7
ATOM      7  C   UNL A   1      31.422  28.474  24.749  1.00  0.00     0.339 C 
ATOM      8  O   UNL A   1      31.139  27.583  25.542  1.00  0.00    -0.249 OA
BRANCH   7   9
ATOM      9  C   UNL A   1      31.260  28.365  23.192  1.00  0.00     0.170 C 
BRANCH   9  10
ATOM     10  C   UNL A   1      32.465  27.488  22.656  1.00  0.00     0.060 C 
ATOM     11  C   UNL A   1      33.738  28.291  22.332  1.00  0.00     0.016 C 
BRANCH  10  12
ATOM     12  C   UNL A   1      32.782  26.277  23.518  1.00  0.00    -0.041 A 
ATOM     13  C   UNL A   1      33.753  23.942  24.701  1.00  0.00     0.119 A 
ATOM     14  C   UNL A   1      34.374  25.156  24.971  1.00  0.00     0.047 A 
ATOM     15  C   UNL A   1      32.577  23.908  23.962  1.00  0.00     0.047 A 
ATOM     16  C   UNL A   1      33.885  26.322  24.388  1.00  0.00     0.008 A 
ATOM     17  C   UNL A   1      32.085  25.073  23.383  1.00  0.00     0.008 A 
BRANCH  13  18
ATOM     18  O   UNL A   1      34.262  22.798  25.244  1.00  0.00    -0.494 OA
BRANCH  18  19
ATOM     19  C   UNL A   1      34.981  22.011  24.282  1.00  0.00     0.226 C 
ATOM     20  C   UNL A   1      36.469  22.332  24.266  1.00  0.00     0.049 C 
ENDBRANCH  18  19
ENDBRANCH  13  18
ENDBRANCH  10  12
ENDBRANCH   9  10
BRANCH   9  21
ATOM     21  C   UNL A   1      29.818  27.777  22.848  1.00  0.00     0.027 C 
ATOM     22  C   UNL A   1      29.271  26.701  23.802  1.00  0.00     0.011 C 
ATOM     23  C   UNL A   1      28.707  28.834  22.767  1.00  0.00     0.011 C 
ENDBRANCH   9  21
BRANCH   9  24
ATOM     24  O   UNL A   1      31.415  29.633  22.529  1.00  0.00    -0.377 OA
ATOM     25  H   UNL A   1      30.730  30.245  22.838  1.00  0.00     0.212 HD
ENDBRANCH   9  24
ENDBRANCH   7   9
ENDBRANCH   6   7
ENDBRANCH   5   6
ENDBRANCH   4   5
ENDBRANCH   3   4
ENDBRANCH   2   3
ENDBRANCH   1   2
BRANCH   1  26
ATOM     26  O   UNL A   1      34.169  34.070  29.482  1.00  0.00    -0.377 OA
BRANCH  26  27
ATOM     27  C   UNL A   1      33.227  34.806  28.718  1.00  0.00     0.188 C 
BRANCH  27  28
ATOM     28  C   UNL A   1      33.037  36.306  29.029  1.00  0.00     0.188 C 
BRANCH  28  29
ATOM     29  O   UNL A   1      32.413  36.576  30.281  1.00  0.00    -0.376 OA
BRANCH  29  30
ATOM     30  C   UNL A   1      33.202  37.004  31.378  1.00  0.00     0.202 C 
BRANCH  30  31
ATOM     31  C   UNL A   1      33.306  36.064  32.590  1.00  0.00     0.261 C 
BRANCH  31  32
ATOM     32  O   UNL A   1      34.522  35.315  32.716  1.00  0.00    -0.460 OA
BRANCH  32  33
ATOM     33  C   UNL A   1      34.424  33.989  32.952  1.00  0.00     0.338 C 
ATOM     34  O   UNL A   1      33.400  33.353  33.138  1.00  0.00    -0.246 OA
BRANCH  33  35
ATOM     35  C   UNL A   1      35.761  33.403  32.727  1.00  0.00     0.060 A 
ATOM     36  C   UNL A   1      36.047  32.137  33.255  1.00  0.00     0.016 A 
ATOM     37  C   UNL A   1      36.712  34.083  31.962  1.00  0.00     0.016 A 
ATOM     38  C   UNL A   1      37.299  31.560  33.045  1.00  0.00     0.010 A 
ATOM     39  C   UNL A   1      37.975  33.520  31.780  1.00  0.00     0.010 A 
ATOM     40  C   UNL A   1      38.284  32.272  32.351  1.00  0.00    -0.014 A 
BRANCH  40  41
ATOM     41  C   UNL A   1      39.698  31.835  32.441  1.00  0.00     0.031 A 
ATOM     42  C   UNL A   1      40.197  30.877  31.395  1.00  0.00     0.074 A 
ATOM     43  C   UNL A   1      40.520  32.291  33.401  1.00  0.00     0.049 A 
ATOM     44  N   UNL A   1      41.360  30.290  31.288  1.00  0.00    -0.248 NA
ATOM     45  C   UNL A   1      39.246  30.530  30.326  1.00  0.00     0.031 C 
ATOM     46  C   UNL A   1      40.162  33.268  34.428  1.00  0.00     0.029 A 
ATOM     47  N   UNL A   1      41.829  31.981  33.672  1.00  0.00    -0.354 N 
ATOM     48  C   UNL A   1      41.279  29.501  30.145  1.00  0.00     0.074 A 
ATOM     49  C   UNL A   1      39.940  29.654  29.618  1.00  0.00     0.031 C 
ATOM     50  C   UNL A   1      41.226  33.468  35.226  1.00  0.00     0.029 A 
ATOM     51  C   UNL A   1      42.324  32.602  34.795  1.00  0.00     0.049 A 
ATOM     52  H   UNL A   1      42.365  31.372  33.113  1.00  0.00     0.167 HD
ATOM     53  C   UNL A   1      42.236  28.725  29.584  1.00  0.00     0.034 A 
ATOM     54  C   UNL A   1      43.513  32.457  35.416  1.00  0.00     0.034 A 
ATOM     55  C   UNL A   1      43.559  28.570  30.136  1.00  0.00     0.049 A 
ATOM     56  C   UNL A   1      44.531  31.503  34.833  1.00  0.00     0.074 A 
ATOM     57  C   UNL A   1      44.610  27.812  29.653  1.00  0.00     0.029 A 
ATOM     58  N   UNL A   1      44.007  29.173  31.305  1.00  0.00    -0.354 N 
ATOM     59  N   UNL A   1      44.445  30.759  33.753  1.00  0.00    -0.248 NA
ATOM     60  C   UNL A   1      45.807  31.373  35.548  1.00  0.00     0.031 C 
ATOM     61  C   UNL A   1      45.662  27.890  30.570  1.00  0.00     0.029 A 
ATOM     62  C   UNL A   1      45.306  28.773  31.578  1.00  0.00     0.049 A 
ATOM     63  H   UNL A   1      43.480  29.794  31.858  1.00  0.00     0.167 HD
ATOM     64  C   UNL A   1      45.673  30.106  33.641  1.00  0.00     0.074 A 
ATOM     65  C   UNL A   1      46.481  30.552  34.757  1.00  0.00     0.031 C 
ATOM     66  C   UNL A   1      46.099  29.226  32.698  1.00  0.00     0.034 A 
BRANCH  53  67
ATOM     67  C   UNL A   1      41.859  27.941  28.350  1.00  0.00     0.023 A 
ATOM     68  C   UNL A   1      41.404  26.613  28.424  1.00  0.00     0.031 A 
ATOM     69  C   UNL A   1      41.993  28.521  27.076  1.00  0.00     0.131 A 
ATOM     70  C   UNL A   1      41.167  25.888  27.246  1.00  0.00     0.055 A 
ATOM     71  C   UNL A   1      41.673  27.822  25.912  1.00  0.00     0.041 A 
ATOM     72  F   UNL A   1      42.452  29.775  26.941  1.00  0.00    -0.206 F 
ATOM     73  C   UNL A   1      41.271  26.493  25.991  1.00  0.00     0.022 A 
BRANCH  70  74
ATOM     74  S   UNL A   1      40.867  24.103  27.371  1.00  0.00     0.124 S 
ATOM     75  O   UNL A   1      41.580  23.770  28.601  1.00  0.00    -0.237 OA
ATOM     76  O   UNL A   1      39.412  24.031  27.435  1.00  0.00    -0.237 OA
ATOM     77  O   UNL A   1      41.466  23.569  26.149  1.00  0.00    -0.744 OA
ENDBRANCH  70  74
ENDBRANCH  53  67
BRANCH  54  78
ATOM     78  C   UNL A   1      43.802  33.190  36.685  1.00  0.00     0.023 A 
ATOM     79  C   UNL A   1      43.320  32.726  37.919  1.00  0.00     0.031 A 
ATOM     80  C   UNL A   1      44.506  34.408  36.671  1.00  0.00     0.131 A 
ATOM     81  C   UNL A   1      43.504  33.499  39.078  1.00  0.00     0.055 A 
ATOM     82  C   UNL A   1      44.740  35.141  37.835  1.00  0.00     0.041 A 
ATOM     83  F   UNL A   1      44.982  34.905  35.518  1.00  0.00    -0.206 F 
ATOM     84  C   UNL A   1      44.223  34.695  39.047  1.00  0.00     0.022 A 
BRANCH  81  85
ATOM     85  S   UNL A   1      42.694  32.967  40.614  1.00  0.00     0.124 S 
ATOM     86  O   UNL A   1      42.133  31.680  40.222  1.00  0.00    -0.237 OA
ATOM     87  O   UNL A   1      43.816  32.923  41.547  1.00  0.00    -0.237 OA
ATOM     88  O   UNL A   1      41.717  34.024  40.866  1.00  0.00    -0.744 OA
ENDBRANCH  81  85
ENDBRANCH  54  78
BRANCH  66  89
ATOM     89  C   UNL A   1      47.523  28.734  32.799  1.00  0.00     0.023 A 
ATOM     90  C   UNL A   1      47.859  27.549  33.476  1.00  0.00     0.031 A 
ATOM     91  C   UNL A   1      48.563  29.468  32.200  1.00  0.00     0.131 A 
ATOM     92  C   UNL A   1      49.205  27.164  33.586  1.00  0.00     0.055 A 
ATOM     93  C   UNL A   1      49.892  29.044  32.253  1.00  0.00     0.041 A 
ATOM     94  F   UNL A   1      48.304  30.610  31.541  1.00  0.00    -0.206 F 
ATOM     95  C   UNL A   1      50.221  27.892  32.961  1.00  0.00     0.022 A 
BRANCH  92  96
ATOM     96  S   UNL A   1      49.623  25.749  34.641  1.00  0.00     0.124 S 
ATOM     97  O   UNL A   1      50.693  26.295  35.470  1.00  0.00    -0.237 OA
ATOM     98  O   UNL A   1      48.362  25.482  35.322  1.00  0.00    -0.237 OA
ATOM     99  O   UNL A   1      50.042  24.722  33.688  1.00  0.00    -0.744 OA
ENDBRANCH  92  96
ENDBRANCH  66  89
ENDBRANCH  40  41
ENDBRANCH  33  35
ENDBRANCH  32  33
ENDBRANCH  31  32
ENDBRANCH  30  31
ENDBRANCH  29  30
ENDBRANCH  28  29
ENDBRANCH  27  28
ENDBRANCH  26  27
ENDBRANCH   1  26
TORSDOF 29
ENDMDL
MODEL 2
REMARK VINA RESULT:      -8.1      1.919      2.588
REMARK SMILES CCOc1ccc([C@H](C)[C@](O)(C(=O)OCCOCCOCCOCCOC(=O)c2ccc(-c3c4nc(c(-c5cc(S(=O)(=O)[O-])ccc5F)c5ccc([nH]5)c(-c5cc(S(=O)(=O)[O-])ccc5F)c5nc(c(-c6cc(S(=O)(=O)[O-])ccc6F)c6ccc3[nH]6)C=C5)C=C4)cc2)C(C)C)cc1
REMARK SMILES IDX 19 1 18 2 17 3 16 4 15 5 14 6 12 7 13 8 10 9 8 10 9 11 7 12
REMARK SMILES IDX 4 13 5 14 96 15 6 16 95 17 3 18 2 19 1 20 92 21 93 22 94 23
REMARK SMILES IDX 11 24 20 26 21 27 22 28 23 29 24 30 25 31 26 32 27 33 28 34
REMARK SMILES IDX 29 35 30 36 91 37 31 38 90 39 32 40 33 41 34 42 84 43 35 44
REMARK SMILES IDX 89 45 83 46 85 47 36 48 88 49 82 50 81 51 37 53 69 54 49 55
REMARK SMILES IDX 68 56 50 57 53 58 67 59 86 60 51 61 52 62 66 64 87 65 54 66
REMARK SMILES IDX 38 67 39 68 47 69 40 70 46 71 48 72 45 73 41 74 42 75 43 76
REMARK SMILES IDX 44 77 70 78 71 79 79 80 72 81 78 82 80 83 77 84 73 85 74 86
REMARK SMILES IDX 75 87 76 88 55 89 56 90 64 91 57 92 63 93 65 94 62 95 58 96
REMARK SMILES IDX 59 97 60 98 61 99
REMARK H PARENT 11 25 85 52 53 63
REMARK Flexibility Score: inf
ROOT
ATOM      1  C   UNL A   1      36.860  32.709  28.696  1.00  0.00     0.188 C 
ENDROOT
BRANCH   1   2
ATOM      2  C   UNL A   1      36.429  31.235  28.812  1.00  0.00     0.188 C 
BRANCH   2   3
ATOM      3  O   UNL A   1      36.236  30.450  27.649  1.00  0.00    -0.376 OA
BRANCH   3   4
ATOM      4  C   UNL A   1      35.379  29.320  27.672  1.00  0.00     0.202 C 
BRANCH   4   5
ATOM      5  C   UNL A   1      34.147  29.140  26.761  1.00  0.00     0.261 C 
BRANCH   5   6
ATOM      6  O   UNL A   1      33.940  27.889  26.093  1.00  0.00    -0.461 OA
BRANCH   6   7
ATOM      7  C   UNL A   1      32.778  27.224  26.352  1.00  0.00     0.339 C 
ATOM      8  O   UNL A   1      32.004  27.541  27.249  1.00  0.00    -0.249 OA
BRANCH   7   9
ATOM      9  C   UNL A   1      32.578  25.998  25.395  1.00  0.00     0.170 C 
BRANCH   9  10
ATOM     10  C   UNL A   1      31.869  24.859  26.236  1.00  0.00     0.060 C 
ATOM     11  C   UNL A   1      30.331  24.887  26.172  1.00  0.00     0.016 C 
BRANCH  10  12
ATOM     12  C   UNL A   1      32.406  23.463  25.965  1.00  0.00    -0.041 A 
ATOM     13  C   UNL A   1      32.921  20.729  25.737  1.00  0.00     0.119 A 
ATOM     14  C   UNL A   1      32.145  21.362  24.773  1.00  0.00     0.047 A 
ATOM     15  C   UNL A   1      33.550  21.473  26.727  1.00  0.00     0.047 A 
ATOM     16  C   UNL A   1      31.895  22.728  24.882  1.00  0.00     0.008 A 
ATOM     17  C   UNL A   1      33.304  22.837  26.834  1.00  0.00     0.008 A 
BRANCH  13  18
ATOM     18  O   UNL A   1      33.129  19.382  25.645  1.00  0.00    -0.494 OA
BRANCH  18  19
ATOM     19  C   UNL A   1      33.570  18.986  24.337  1.00  0.00     0.226 C 
ATOM     20  C   UNL A   1      34.650  17.915  24.388  1.00  0.00     0.049 C 
ENDBRANCH  18  19
ENDBRANCH  13  18
ENDBRANCH  10  12
ENDBRANCH   9  10
BRANCH   9  21
ATOM     21  C   UNL A   1      31.765  26.460  24.103  1.00  0.00     0.027 C 
ATOM     22  C   UNL A   1      31.383  27.948  24.029  1.00  0.00     0.011 C 
ATOM     23  C   UNL A   1      32.475  26.167  22.772  1.00  0.00     0.011 C 
ENDBRANCH   9  21
BRANCH   9  24
ATOM     24  O   UNL A   1      33.825  25.413  24.976  1.00  0.00    -0.377 OA
ATOM     25  H   UNL A   1      34.279  25.036  25.745  1.00  0.00     0.212 HD
ENDBRANCH   9  24
ENDBRANCH   7   9
ENDBRANCH   6   7
ENDBRANCH   5   6
ENDBRANCH   4   5
ENDBRANCH   3   4
ENDBRANCH   2   3
ENDBRANCH   1   2
BRANCH   1  26
ATOM     26  O   UNL A   1      35.907  33.623  29.192  1.00  0.00    -0.377 OA
BRANCH  26  27
ATOM     27  C   UNL A   1      34.545  33.257  29.047  1.00  0.00     0.188 C 
BRANCH  27  28
ATOM     28  C   UNL A   1      33.533  34.337  28.608  1.00  0.00     0.188 C 
BRANCH  28  29
ATOM     29  O   UNL A   1      32.684  34.809  29.650  1.00  0.00    -0.376 OA
BRANCH  29  30
ATOM     30  C   UNL A   1      33.053  35.963  30.386  1.00  0.00     0.202 C 
BRANCH  30  31
ATOM     31  C   UNL A   1      33.522  35.762  31.836  1.00  0.00     0.261 C 
BRANCH  31  32
ATOM     32  O   UNL A   1      34.748  35.042  32.019  1.00  0.00    -0.460 OA
BRANCH  32  33
ATOM     33  C   UNL A   1      34.675  33.793  32.525  1.00  0.00     0.338 C 
ATOM     34  O   UNL A   1      33.698  33.063  32.534  1.00  0.00    -0.246 OA
BRANCH  33  35
ATOM     35  C   UNL A   1      36.050  33.379  32.872  1.00  0.00     0.060 A 
ATOM     36  C   UNL A   1      37.123  34.202  32.505  1.00  0.00     0.016 A 
ATOM     37  C   UNL A   1      36.273  32.204  33.595  1.00  0.00     0.016 A 
ATOM     38  C   UNL A   1      38.427  33.836  32.833  1.00  0.00     0.010 A 
ATOM     39  C   UNL A   1      37.581  31.822  33.894  1.00  0.00     0.010 A 
ATOM     40  C   UNL A   1      38.664  32.620  33.483  1.00  0.00    -0.014 A 
BRANCH  40  41
ATOM     41  C   UNL A   1      40.037  32.060  33.503  1.00  0.00     0.031 A 
ATOM     42  C   UNL A   1      40.464  31.224  32.327  1.00  0.00     0.074 A 
ATOM     43  C   UNL A   1      40.888  32.304  34.514  1.00  0.00     0.049 A 
ATOM     44  N   UNL A   1      41.575  30.565  32.132  1.00  0.00    -0.248 NA
ATOM     45  C   UNL A   1      39.494  31.113  31.225  1.00  0.00     0.031 C 
ATOM     46  C   UNL A   1      40.604  33.149  35.672  1.00  0.00     0.029 A 
ATOM     47  N   UNL A   1      42.165  31.852  34.731  1.00  0.00    -0.354 N 
ATOM     48  C   UNL A   1      41.437  29.958  30.888  1.00  0.00     0.074 A 
ATOM     49  C   UNL A   1      40.120  30.294  30.395  1.00  0.00     0.031 C 
ATOM     50  C   UNL A   1      41.676  33.144  36.486  1.00  0.00     0.029 A 
ATOM     51  C   UNL A   1      42.701  32.262  35.930  1.00  0.00     0.049 A 
ATOM     52  H   UNL A   1      42.653  31.287  34.088  1.00  0.00     0.167 HD
ATOM     53  C   UNL A   1      42.331  29.193  30.216  1.00  0.00     0.034 A 
ATOM     54  C   UNL A   1      43.870  31.933  36.517  1.00  0.00     0.034 A 
ATOM     55  C   UNL A   1      43.633  28.853  30.734  1.00  0.00     0.049 A 
ATOM     56  C   UNL A   1      44.810  30.991  35.798  1.00  0.00     0.074 A 
ATOM     57  C   UNL A   1      44.621  28.088  30.142  1.00  0.00     0.029 A 
ATOM     58  N   UNL A   1      44.121  29.243  31.975  1.00  0.00    -0.354 N 
ATOM     59  N   UNL A   1      44.671  30.419  34.623  1.00  0.00    -0.248 NA
ATOM     60  C   UNL A   1      46.067  30.655  36.481  1.00  0.00     0.031 C 
ATOM     61  C   UNL A   1      45.670  27.946  31.055  1.00  0.00     0.029 A 
ATOM     62  C   UNL A   1      45.381  28.703  32.181  1.00  0.00     0.049 A 
ATOM     63  H   UNL A   1      43.643  29.819  32.614  1.00  0.00     0.167 HD
ATOM     64  C   UNL A   1      45.842  29.691  34.412  1.00  0.00     0.074 A 
ATOM     65  C   UNL A   1      46.676  29.904  35.577  1.00  0.00     0.031 C 
ATOM     66  C   UNL A   1      46.200  28.922  33.351  1.00  0.00     0.034 A 
BRANCH  53  67
ATOM     67  C   UNL A   1      41.900  28.629  28.885  1.00  0.00     0.023 A 
ATOM     68  C   UNL A   1      41.291  27.366  28.775  1.00  0.00     0.031 A 
ATOM     69  C   UNL A   1      42.136  29.350  27.701  1.00  0.00     0.131 A 
ATOM     70  C   UNL A   1      41.003  26.835  27.508  1.00  0.00     0.055 A 
ATOM     71  C   UNL A   1      41.769  28.853  26.450  1.00  0.00     0.041 A 
ATOM     72  F   UNL A   1      42.743  30.547  27.740  1.00  0.00    -0.206 F 
ATOM     73  C   UNL A   1      41.212  27.582  26.346  1.00  0.00     0.022 A 
BRANCH  70  74
ATOM     74  S   UNL A   1      40.493  25.098  27.391  1.00  0.00     0.124 S 
ATOM     75  O   UNL A   1      40.862  24.775  26.015  1.00  0.00    -0.237 OA
ATOM     76  O   UNL A   1      41.290  24.464  28.434  1.00  0.00    -0.237 OA
ATOM     77  O   UNL A   1      39.054  25.147  27.646  1.00  0.00    -0.744 OA
ENDBRANCH  70  74
ENDBRANCH  53  67
BRANCH  54  78
ATOM     78  C   UNL A   1      44.209  32.449  37.877  1.00  0.00     0.023 A 
ATOM     79  C   UNL A   1      43.919  31.705  39.032  1.00  0.00     0.031 A 
ATOM     80  C   UNL A   1      44.766  33.730  38.044  1.00  0.00     0.131 A 
ATOM     81  C   UNL A   1      44.138  32.267  40.301  1.00  0.00     0.055 A 
ATOM     82  C   UNL A   1      45.039  34.260  39.306  1.00  0.00     0.041 A 
ATOM     83  F   UNL A   1      45.056  34.491  36.976  1.00  0.00    -0.206 F 
ATOM     84  C   UNL A   1      44.710  33.533  40.446  1.00  0.00     0.022 A 
BRANCH  81  85
ATOM     85  S   UNL A   1      43.564  31.359  41.764  1.00  0.00     0.124 S 
ATOM     86  O   UNL A   1      42.117  31.486  41.642  1.00  0.00    -0.237 OA
ATOM     87  O   UNL A   1      44.114  30.028  41.529  1.00  0.00    -0.237 OA
ATOM     88  O   UNL A   1      44.165  32.092  42.876  1.00  0.00    -0.744 OA
ENDBRANCH  81  85
ENDBRANCH  54  78
BRANCH  66  89
ATOM     89  C   UNL A   1      47.579  28.306  33.373  1.00  0.00     0.023 A 
ATOM     90  C   UNL A   1      48.702  28.967  32.847  1.00  0.00     0.031 A 
ATOM     91  C   UNL A   1      47.769  27.031  33.939  1.00  0.00     0.131 A 
ATOM     92  C   UNL A   1      49.952  28.327  32.845  1.00  0.00     0.055 A 
ATOM     93  C   UNL A   1      49.026  26.429  33.996  1.00  0.00     0.041 A 
ATOM     94  F   UNL A   1      46.732  26.350  34.455  1.00  0.00    -0.206 F 
ATOM     95  C   UNL A   1      50.125  27.072  33.435  1.00  0.00     0.022 A 
BRANCH  92  96
ATOM     96  S   UNL A   1      51.333  29.115  31.972  1.00  0.00     0.124 S 
ATOM     97  O   UNL A   1      51.929  27.986  31.266  1.00  0.00    -0.237 OA
ATOM     98  O   UNL A   1      50.655  30.102  31.140  1.00  0.00    -0.237 OA
ATOM     99  O   UNL A   1      52.149  29.671  33.051  1.00  0.00    -0.744 OA
ENDBRANCH  92  96
ENDBRANCH  66  89
ENDBRANCH  40  41
ENDBRANCH  33  35
ENDBRANCH  32  33
ENDBRANCH  31  32
ENDBRANCH  30  31
ENDBRANCH  29  30
ENDBRANCH  28  29
ENDBRANCH  27  28
ENDBRANCH  26  27
ENDBRANCH   1  26
TORSDOF 29
ENDMDL
MODEL 3
REMARK VINA RESULT:      -8.1      1.986      2.735
REMARK SMILES CCOc1ccc([C@H](C)[C@](O)(C(=O)OCCOCCOCCOCCOC(=O)c2ccc(-c3c4nc(c(-c5cc(S(=O)(=O)[O-])ccc5F)c5ccc([nH]5)c(-c5cc(S(=O)(=O)[O-])ccc5F)c5nc(c(-c6cc(S(=O)(=O)[O-])ccc6F)c6ccc3[nH]6)C=C5)C=C4)cc2)C(C)C)cc1
REMARK SMILES IDX 19 1 18 2 17 3 16 4 15 5 14 6 12 7 13 8 10 9 8 10 9 11 7 12
REMARK SMILES IDX 4 13 5 14 96 15 6 16 95 17 3 18 2 19 1 20 92 21 93 22 94 23
REMARK SMILES IDX 11 24 20 26 21 27 22 28 23 29 24 30 25 31 26 32 27 33 28 34
REMARK SMILES IDX 29 35 30 36 91 37 31 38 90 39 32 40 33 41 34 42 84 43 35 44
REMARK SMILES IDX 89 45 83 46 85 47 36 48 88 49 82 50 81 51 37 53 69 54 49 55
REMARK SMILES IDX 68 56 50 57 53 58 67 59 86 60 51 61 52 62 66 64 87 65 54 66
REMARK SMILES IDX 38 67 39 68 47 69 40 70 46 71 48 72 45 73 41 74 42 75 43 76
REMARK SMILES IDX 44 77 70 78 71 79 79 80 72 81 78 82 80 83 77 84 73 85 74 86
REMARK SMILES IDX 75 87 76 88 55 89 56 90 64 91 57 92 63 93 65 94 62 95 58 96
REMARK SMILES IDX 59 97 60 98 61 99
REMARK H PARENT 11 25 85 52 53 63
REMARK Flexibility Score: inf
ROOT
ATOM      1  C   UNL A   1      36.734  32.456  28.727  1.00  0.00     0.188 C 
ENDROOT
BRANCH   1   2
ATOM      2  C   UNL A   1      36.427  30.946  28.737  1.00  0.00     0.188 C 
BRANCH   2   3
ATOM      3  O   UNL A   1      35.991  30.296  27.556  1.00  0.00    -0.376 OA
BRANCH   3   4
ATOM      4  C   UNL A   1      34.848  29.455  27.573  1.00  0.00     0.202 C 
BRANCH   4   5
ATOM      5  C   UNL A   1      33.612  29.644  26.669  1.00  0.00     0.261 C 
BRANCH   5   6
ATOM      6  O   UNL A   1      33.421  28.776  25.545  1.00  0.00    -0.461 OA
BRANCH   6   7
ATOM      7  C   UNL A   1      32.592  27.706  25.714  1.00  0.00     0.339 C 
ATOM      8  O   UNL A   1      31.868  27.559  26.693  1.00  0.00    -0.249 OA
BRANCH   7   9
ATOM      9  C   UNL A   1      32.707  26.683  24.530  1.00  0.00     0.170 C 
BRANCH   9  10
ATOM     10  C   UNL A   1      31.812  25.431  24.906  1.00  0.00     0.060 C 
ATOM     11  C   UNL A   1      30.409  25.442  24.271  1.00  0.00     0.016 C 
BRANCH  10  12
ATOM     12  C   UNL A   1      32.500  24.092  24.698  1.00  0.00    -0.041 A 
ATOM     13  C   UNL A   1      33.256  21.416  24.450  1.00  0.00     0.119 A 
ATOM     14  C   UNL A   1      32.696  22.074  23.360  1.00  0.00     0.047 A 
ATOM     15  C   UNL A   1      33.564  22.119  25.607  1.00  0.00     0.047 A 
ATOM     16  C   UNL A   1      32.328  23.411  23.481  1.00  0.00     0.008 A 
ATOM     17  C   UNL A   1      33.200  23.456  25.727  1.00  0.00     0.008 A 
BRANCH  13  18
ATOM     18  O   UNL A   1      33.578  20.094  24.336  1.00  0.00    -0.494 OA
BRANCH  18  19
ATOM     19  C   UNL A   1      32.482  19.306  23.848  1.00  0.00     0.226 C 
ATOM     20  C   UNL A   1      32.773  17.812  23.899  1.00  0.00     0.049 C 
ENDBRANCH  18  19
ENDBRANCH  13  18
ENDBRANCH  10  12
ENDBRANCH   9  10
BRANCH   9  21
ATOM     21  C   UNL A   1      32.294  27.398  23.167  1.00  0.00     0.027 C 
ATOM     22  C   UNL A   1      31.255  28.527  23.273  1.00  0.00     0.011 C 
ATOM     23  C   UNL A   1      33.471  28.014  22.394  1.00  0.00     0.011 C 
ENDBRANCH   9  21
BRANCH   9  24
ATOM     24  O   UNL A   1      34.035  26.145  24.390  1.00  0.00    -0.377 OA
ATOM     25  H   UNL A   1      34.679  26.780  24.742  1.00  0.00     0.212 HD
ENDBRANCH   9  24
ENDBRANCH   7   9
ENDBRANCH   6   7
ENDBRANCH   5   6
ENDBRANCH   4   5
ENDBRANCH   3   4
ENDBRANCH   2   3
ENDBRANCH   1   2
BRANCH   1  26
ATOM     26  O   UNL A   1      35.781  33.237  29.412  1.00  0.00    -0.377 OA
BRANCH  26  27
ATOM     27  C   UNL A   1      34.422  32.871  29.240  1.00  0.00     0.188 C 
BRANCH  27  28
ATOM     28  C   UNL A   1      33.538  33.733  28.312  1.00  0.00     0.188 C 
BRANCH  28  29
ATOM     29  O   UNL A   1      32.567  34.525  28.990  1.00  0.00    -0.376 OA
BRANCH  29  30
ATOM     30  C   UNL A   1      32.854  35.881  29.287  1.00  0.00     0.202 C 
BRANCH  30  31
ATOM     31  C   UNL A   1      33.176  36.237  30.747  1.00  0.00     0.261 C 
BRANCH  31  32
ATOM     32  O   UNL A   1      34.274  35.538  31.349  1.00  0.00    -0.460 OA
BRANCH  32  33
ATOM     33  C   UNL A   1      34.003  34.704  32.376  1.00  0.00     0.338 C 
ATOM     34  O   UNL A   1      32.911  34.260  32.689  1.00  0.00    -0.246 OA
BRANCH  33  35
ATOM     35  C   UNL A   1      35.297  34.247  32.923  1.00  0.00     0.060 A 
ATOM     36  C   UNL A   1      36.472  34.900  32.529  1.00  0.00     0.016 A 
ATOM     37  C   UNL A   1      35.342  33.206  33.854  1.00  0.00     0.016 A 
ATOM     38  C   UNL A   1      37.703  34.492  33.042  1.00  0.00     0.010 A 
ATOM     39  C   UNL A   1      36.577  32.778  34.343  1.00  0.00     0.010 A 
ATOM     40  C   UNL A   1      37.764  33.397  33.911  1.00  0.00    -0.014 A 
BRANCH  40  41
ATOM     41  C   UNL A   1      39.068  32.739  34.162  1.00  0.00     0.031 A 
ATOM     42  C   UNL A   1      39.623  31.858  33.076  1.00  0.00     0.074 A 
ATOM     43  C   UNL A   1      39.752  32.933  35.302  1.00  0.00     0.049 A 
ATOM     44  N   UNL A   1      40.699  31.117  33.071  1.00  0.00    -0.248 NA
ATOM     45  C   UNL A   1      38.847  31.804  31.826  1.00  0.00     0.031 C 
ATOM     46  C   UNL A   1      39.342  33.812  36.395  1.00  0.00     0.029 A 
ATOM     47  N   UNL A   1      40.938  32.391  35.732  1.00  0.00    -0.354 N 
ATOM     48  C   UNL A   1      40.728  30.505  31.822  1.00  0.00     0.074 A 
ATOM     49  C   UNL A   1      39.540  30.931  31.113  1.00  0.00     0.031 C 
ATOM     50  C   UNL A   1      40.258  33.739  37.378  1.00  0.00     0.029 A 
ATOM     51  C   UNL A   1      41.294  32.776  37.003  1.00  0.00     0.049 A 
ATOM     52  H   UNL A   1      41.484  31.784  35.180  1.00  0.00     0.167 HD
ATOM     53  C   UNL A   1      41.663  29.669  31.311  1.00  0.00     0.034 A 
ATOM     54  C   UNL A   1      42.320  32.371  37.780  1.00  0.00     0.034 A 
ATOM     55  C   UNL A   1      42.830  29.241  32.040  1.00  0.00     0.049 A 
ATOM     56  C   UNL A   1      43.295  31.354  37.229  1.00  0.00     0.074 A 
ATOM     57  C   UNL A   1      43.844  28.398  31.624  1.00  0.00     0.029 A 
ATOM     58  N   UNL A   1      43.130  29.611  33.346  1.00  0.00    -0.354 N 
ATOM     59  N   UNL A   1      43.313  30.778  36.048  1.00  0.00    -0.248 NA
ATOM     60  C   UNL A   1      44.390  30.936  38.115  1.00  0.00     0.031 C 
ATOM     61  C   UNL A   1      44.711  28.192  32.701  1.00  0.00     0.029 A 
ATOM     62  C   UNL A   1      44.294  28.983  33.762  1.00  0.00     0.049 A 
ATOM     63  H   UNL A   1      42.596  30.228  33.895  1.00  0.00     0.167 HD
ATOM     64  C   UNL A   1      44.445  29.963  36.038  1.00  0.00     0.074 A 
ATOM     65  C   UNL A   1      45.085  30.130  37.327  1.00  0.00     0.031 C 
ATOM     66  C   UNL A   1      44.919  29.157  35.053  1.00  0.00     0.034 A 
BRANCH  53  67
ATOM     67  C   UNL A   1      41.420  29.120  29.926  1.00  0.00     0.023 A 
ATOM     68  C   UNL A   1      40.766  27.893  29.716  1.00  0.00     0.031 A 
ATOM     69  C   UNL A   1      41.885  29.818  28.797  1.00  0.00     0.131 A 
ATOM     70  C   UNL A   1      40.657  27.370  28.419  1.00  0.00     0.055 A 
ATOM     71  C   UNL A   1      41.698  29.334  27.503  1.00  0.00     0.041 A 
ATOM     72  F   UNL A   1      42.545  30.979  28.936  1.00  0.00    -0.206 F 
ATOM     73  C   UNL A   1      41.093  28.096  27.308  1.00  0.00     0.022 A 
BRANCH  70  74
ATOM     74  S   UNL A   1      40.074  25.665  28.217  1.00  0.00     0.124 S 
ATOM     75  O   UNL A   1      41.301  24.906  28.445  1.00  0.00    -0.237 OA
ATOM     76  O   UNL A   1      39.052  25.556  29.252  1.00  0.00    -0.237 OA
ATOM     77  O   UNL A   1      39.577  25.633  26.842  1.00  0.00    -0.744 OA
ENDBRANCH  70  74
ENDBRANCH  53  67
BRANCH  54  78
ATOM     78  C   UNL A   1      42.463  32.879  39.177  1.00  0.00     0.023 A 
ATOM     79  C   UNL A   1      41.784  32.272  40.245  1.00  0.00     0.031 A 
ATOM     80  C   UNL A   1      43.228  34.027  39.452  1.00  0.00     0.131 A 
ATOM     81  C   UNL A   1      41.842  32.844  41.527  1.00  0.00     0.055 A 
ATOM     82  C   UNL A   1      43.332  34.556  40.739  1.00  0.00     0.041 A 
ATOM     83  F   UNL A   1      43.892  34.654  38.468  1.00  0.00    -0.206 F 
ATOM     84  C   UNL A   1      42.623  33.972  41.785  1.00  0.00     0.022 A 
BRANCH  81  85
ATOM     85  S   UNL A   1      40.792  32.151  42.836  1.00  0.00     0.124 S 
ATOM     86  O   UNL A   1      40.867  30.723  42.550  1.00  0.00    -0.237 OA
ATOM     87  O   UNL A   1      41.477  32.601  44.043  1.00  0.00    -0.237 OA
ATOM     88  O   UNL A   1      39.491  32.770  42.592  1.00  0.00    -0.744 OA
ENDBRANCH  81  85
ENDBRANCH  54  78
BRANCH  66  89
ATOM     89  C   UNL A   1      46.225  28.441  35.308  1.00  0.00     0.023 A 
ATOM     90  C   UNL A   1      46.273  27.136  35.826  1.00  0.00     0.031 A 
ATOM     91  C   UNL A   1      47.444  29.082  35.020  1.00  0.00     0.131 A 
ATOM     92  C   UNL A   1      47.514  26.537  36.093  1.00  0.00     0.055 A 
ATOM     93  C   UNL A   1      48.673  28.455  35.223  1.00  0.00     0.041 A 
ATOM     94  F   UNL A   1      47.461  30.331  34.525  1.00  0.00    -0.206 F 
ATOM     95  C   UNL A   1      48.714  27.178  35.776  1.00  0.00     0.022 A 
BRANCH  92  96
ATOM     96  S   UNL A   1      47.542  24.940  36.956  1.00  0.00     0.124 S 
ATOM     97  O   UNL A   1      46.721  25.215  38.130  1.00  0.00    -0.237 OA
ATOM     98  O   UNL A   1      46.960  24.040  35.967  1.00  0.00    -0.237 OA
ATOM     99  O   UNL A   1      48.962  24.723  37.230  1.00  0.00    -0.744 OA
ENDBRANCH  92  96
ENDBRANCH  66  89
ENDBRANCH  40  41
ENDBRANCH  33  35
ENDBRANCH  32  33
ENDBRANCH  31  32
ENDBRANCH  30  31
ENDBRANCH  29  30
ENDBRANCH  28  29
ENDBRANCH  27  28
ENDBRANCH  26  27
ENDBRANCH   1  26
TORSDOF 29
ENDMDL
