MODEL 1
REMARK VINA RESULT:      -8.3      0.000      0.000
REMARK SMILES Cc1cs/c(=N\S(=O)(=O)c2ccc(/C=C/C(=O)OCCOCCOCCOCCOC(=O)c3ccc(-c4c5nc(c(-c6cc(S(=O)(=O)[O-])ccc6F)c6ccc([nH]6)c(-c6cc(S(=O)(=O)[O-])ccc6F)c6nc(c(-c7cc(S(=O)(=O)[O-])ccc7F)c7ccc4[nH]7)C=C6)C=C5)cc3)cc2)[nH]1
REMARK SMILES IDX 24 1 23 2 22 3 21 4 20 5 19 6 18 7 16 8 17 9 15 10 14 11
REMARK SMILES IDX 13 12 10 13 11 14 97 15 12 16 96 17 7 18 8 19 9 20 6 21 1 22
REMARK SMILES IDX 2 23 3 24 98 25 4 26 5 27 25 29 26 30 27 31 28 32 29 33
REMARK SMILES IDX 30 34 31 35 32 36 33 37 34 38 95 39 35 40 94 41 36 42 37 43
REMARK SMILES IDX 38 44 88 45 39 46 93 47 87 48 89 49 40 50 92 51 86 52 85 53
REMARK SMILES IDX 41 55 73 56 53 57 72 58 54 59 57 60 71 61 90 62 55 63 56 64
REMARK SMILES IDX 70 66 91 67 58 68 42 69 43 70 51 71 44 72 50 73 52 74 49 75
REMARK SMILES IDX 45 76 46 77 47 78 48 79 74 80 75 81 83 82 76 83 82 84 84 85
REMARK SMILES IDX 81 86 77 87 78 88 79 89 80 90 59 91 60 92 68 93 61 94 67 95
REMARK SMILES IDX 69 96 66 97 62 98 63 99 64 100 65 101
REMARK H PARENT 98 28 89 54 57 65
REMARK Flexibility Score: inf
ROOT
ATOM      1  O   UNL A   1      33.294  36.065  29.837  1.00  0.00    -0.377 OA
ENDROOT
BRANCH   1   2
ATOM      2  C   UNL A   1      33.616  34.765  29.371  1.00  0.00     0.188 C 
BRANCH   2   3
ATOM      3  C   UNL A   1      34.002  34.673  27.884  1.00  0.00     0.188 C 
BRANCH   3   4
ATOM      4  O   UNL A   1      35.173  33.919  27.641  1.00  0.00    -0.376 OA
BRANCH   4   5
ATOM      5  C   UNL A   1      35.352  32.634  28.210  1.00  0.00     0.202 C 
BRANCH   5   6
ATOM      6  C   UNL A   1      36.288  32.341  29.399  1.00  0.00     0.261 C 
BRANCH   6   7
ATOM      7  O   UNL A   1      37.357  31.419  29.185  1.00  0.00    -0.460 OA
BRANCH   7   8
ATOM      8  C   UNL A   1      37.061  30.108  29.248  1.00  0.00     0.330 C 
ATOM      9  O   UNL A   1      36.001  29.620  29.609  1.00  0.00    -0.247 OA
BRANCH   8  10
ATOM     10  C   UNL A   1      38.152  29.290  28.673  1.00  0.00     0.094 C 
ATOM     11  C   UNL A   1      39.461  29.597  28.700  1.00  0.00     0.015 C 
BRANCH  11  12
ATOM     12  C   UNL A   1      40.487  28.727  28.103  1.00  0.00    -0.025 A 
ATOM     13  C   UNL A   1      42.317  26.878  27.065  1.00  0.00     0.089 A 
ATOM     14  C   UNL A   1      41.376  27.471  26.220  1.00  0.00     0.023 A 
ATOM     15  C   UNL A   1      42.411  27.260  28.404  1.00  0.00     0.023 A 
ATOM     16  C   UNL A   1      40.475  28.401  26.738  1.00  0.00     0.009 A 
ATOM     17  C   UNL A   1      41.499  28.192  28.916  1.00  0.00     0.009 A 
BRANCH  13  18
ATOM     18  S   UNL A   1      43.336  25.582  26.384  1.00  0.00     0.285 S 
ATOM     19  O   UNL A   1      44.466  25.466  27.286  1.00  0.00    -0.199 OA
ATOM     20  O   UNL A   1      43.519  25.947  24.993  1.00  0.00    -0.199 OA
BRANCH  18  21
ATOM     21  N   UNL A   1      42.441  24.242  26.474  1.00  0.00    -0.130 NA
ATOM     22  C   UNL A   1      42.269  19.447  25.792  1.00  0.00     0.065 C 
ATOM     23  C   UNL A   1      42.924  20.784  25.759  1.00  0.00     0.024 A 
ATOM     24  C   UNL A   1      44.183  21.035  25.363  1.00  0.00     0.089 A 
ATOM     25  N   UNL A   1      42.245  21.917  26.162  1.00  0.00    -0.334 N 
ATOM     26  S   UNL A   1      44.565  22.739  25.489  1.00  0.00    -0.104 S 
ATOM     27  C   UNL A   1      42.932  23.107  26.116  1.00  0.00     0.199 A 
ATOM     28  H   UNL A   1      41.311  21.874  26.471  1.00  0.00     0.169 HD
ENDBRANCH  18  21
ENDBRANCH  13  18
ENDBRANCH  11  12
ENDBRANCH   8  10
ENDBRANCH   7   8
ENDBRANCH   6   7
ENDBRANCH   5   6
ENDBRANCH   4   5
ENDBRANCH   3   4
ENDBRANCH   2   3
ENDBRANCH   1   2
BRANCH   1  29
ATOM     29  C   UNL A   1      32.894  36.246  31.197  1.00  0.00     0.188 C 
BRANCH  29  30
ATOM     30  C   UNL A   1      33.640  37.177  32.185  1.00  0.00     0.188 C 
BRANCH  30  31
ATOM     31  O   UNL A   1      34.460  36.511  33.133  1.00  0.00    -0.376 OA
BRANCH  31  32
ATOM     32  C   UNL A   1      34.380  35.098  33.196  1.00  0.00     0.202 C 
BRANCH  32  33
ATOM     33  C   UNL A   1      35.595  34.333  32.656  1.00  0.00     0.261 C 
BRANCH  33  34
ATOM     34  O   UNL A   1      35.803  33.023  33.204  1.00  0.00    -0.460 OA
BRANCH  34  35
ATOM     35  C   UNL A   1      36.673  32.915  34.231  1.00  0.00     0.338 C 
ATOM     36  O   UNL A   1      36.435  33.112  35.415  1.00  0.00    -0.246 OA
BRANCH  35  37
ATOM     37  C   UNL A   1      37.922  32.333  33.702  1.00  0.00     0.060 A 
ATOM     38  C   UNL A   1      39.151  32.773  34.208  1.00  0.00     0.016 A 
ATOM     39  C   UNL A   1      37.875  31.338  32.721  1.00  0.00     0.016 A 
ATOM     40  C   UNL A   1      40.341  32.239  33.711  1.00  0.00     0.010 A 
ATOM     41  C   UNL A   1      39.069  30.818  32.213  1.00  0.00     0.010 A 
ATOM     42  C   UNL A   1      40.309  31.285  32.684  1.00  0.00    -0.014 A 
BRANCH  42  43
ATOM     43  C   UNL A   1      41.558  30.913  31.974  1.00  0.00     0.031 A 
ATOM     44  C   UNL A   1      42.148  31.898  31.002  1.00  0.00     0.074 A 
ATOM     45  C   UNL A   1      42.166  29.733  32.194  1.00  0.00     0.049 A 
ATOM     46  N   UNL A   1      43.184  31.775  30.215  1.00  0.00    -0.248 NA
ATOM     47  C   UNL A   1      41.463  33.196  30.902  1.00  0.00     0.031 C 
ATOM     48  C   UNL A   1      41.717  28.717  33.144  1.00  0.00     0.029 A 
ATOM     49  N   UNL A   1      43.288  29.188  31.620  1.00  0.00    -0.354 N 
ATOM     50  C   UNL A   1      43.277  32.978  29.522  1.00  0.00     0.074 A 
ATOM     51  C   UNL A   1      42.160  33.795  29.951  1.00  0.00     0.031 C 
ATOM     52  C   UNL A   1      42.551  27.664  33.079  1.00  0.00     0.029 A 
ATOM     53  C   UNL A   1      43.564  27.912  32.053  1.00  0.00     0.049 A 
ATOM     54  H   UNL A   1      43.843  29.665  30.962  1.00  0.00     0.167 HD
ATOM     55  C   UNL A   1      44.212  33.369  28.621  1.00  0.00     0.034 A 
ATOM     56  C   UNL A   1      44.504  27.034  31.644  1.00  0.00     0.034 A 
ATOM     57  C   UNL A   1      45.304  32.532  28.189  1.00  0.00     0.049 A 
ATOM     58  C   UNL A   1      45.474  27.448  30.561  1.00  0.00     0.074 A 
ATOM     59  C   UNL A   1      46.313  32.828  27.289  1.00  0.00     0.029 A 
ATOM     60  N   UNL A   1      45.523  31.226  28.610  1.00  0.00    -0.354 N 
ATOM     61  N   UNL A   1      45.559  28.590  29.917  1.00  0.00    -0.248 NA
ATOM     62  C   UNL A   1      46.478  26.456  30.155  1.00  0.00     0.031 C 
ATOM     63  C   UNL A   1      47.086  31.677  27.101  1.00  0.00     0.029 A 
ATOM     64  C   UNL A   1      46.622  30.690  27.957  1.00  0.00     0.049 A 
ATOM     65  H   UNL A   1      44.976  30.750  29.277  1.00  0.00     0.167 HD
ATOM     66  C   UNL A   1      46.645  28.462  29.053  1.00  0.00     0.074 A 
ATOM     67  C   UNL A   1      47.190  27.138  29.270  1.00  0.00     0.031 C 
ATOM     68  C   UNL A   1      47.150  29.360  28.167  1.00  0.00     0.034 A 
BRANCH  55  69
ATOM     69  C   UNL A   1      44.047  34.740  28.006  1.00  0.00     0.023 A 
ATOM     70  C   UNL A   1      44.433  35.909  28.687  1.00  0.00     0.031 A 
ATOM     71  C   UNL A   1      43.448  34.885  26.742  1.00  0.00     0.131 A 
ATOM     72  C   UNL A   1      44.137  37.168  28.143  1.00  0.00     0.055 A 
ATOM     73  C   UNL A   1      43.241  36.139  26.165  1.00  0.00     0.041 A 
ATOM     74  F   UNL A   1      43.033  33.810  26.054  1.00  0.00    -0.206 F 
ATOM     75  C   UNL A   1      43.568  37.291  26.874  1.00  0.00     0.022 A 
BRANCH  72  76
ATOM     76  S   UNL A   1      44.341  38.633  29.193  1.00  0.00     0.124 S 
ATOM     77  O   UNL A   1      44.008  39.711  28.263  1.00  0.00    -0.237 OA
ATOM     78  O   UNL A   1      43.379  38.391  30.262  1.00  0.00    -0.237 OA
ATOM     79  O   UNL A   1      45.746  38.577  29.591  1.00  0.00    -0.744 OA
ENDBRANCH  72  76
ENDBRANCH  55  69
BRANCH  56  80
ATOM     80  C   UNL A   1      44.550  25.658  32.220  1.00  0.00     0.023 A 
ATOM     81  C   UNL A   1      45.082  25.416  33.496  1.00  0.00     0.031 A 
ATOM     82  C   UNL A   1      44.101  24.552  31.474  1.00  0.00     0.131 A 
ATOM     83  C   UNL A   1      45.187  24.099  33.974  1.00  0.00     0.055 A 
ATOM     84  C   UNL A   1      44.155  23.251  31.976  1.00  0.00     0.041 A 
ATOM     85  F   UNL A   1      43.591  24.724  30.245  1.00  0.00    -0.206 F 
ATOM     86  C   UNL A   1      44.711  23.017  33.229  1.00  0.00     0.022 A 
BRANCH  83  87
ATOM     87  S   UNL A   1      46.033  23.809  35.551  1.00  0.00     0.124 S 
ATOM     88  O   UNL A   1      46.764  22.577  35.274  1.00  0.00    -0.237 OA
ATOM     89  O   UNL A   1      46.839  25.018  35.689  1.00  0.00    -0.237 OA
ATOM     90  O   UNL A   1      44.935  23.683  36.508  1.00  0.00    -0.744 OA
ENDBRANCH  83  87
ENDBRANCH  56  80
BRANCH  68  91
ATOM     91  C   UNL A   1      48.385  28.953  27.395  1.00  0.00     0.023 A 
ATOM     92  C   UNL A   1      48.306  28.346  26.129  1.00  0.00     0.031 A 
ATOM     93  C   UNL A   1      49.663  29.174  27.939  1.00  0.00     0.131 A 
ATOM     94  C   UNL A   1      49.477  27.928  25.478  1.00  0.00     0.055 A 
ATOM     95  C   UNL A   1      50.828  28.821  27.256  1.00  0.00     0.041 A 
ATOM     96  F   UNL A   1      49.803  29.744  29.148  1.00  0.00    -0.206 F 
ATOM     97  C   UNL A   1      50.739  28.181  26.024  1.00  0.00     0.022 A 
BRANCH  94  98
ATOM     98  S   UNL A   1      49.328  26.954  23.955  1.00  0.00     0.124 S 
ATOM     99  O   UNL A   1      50.726  26.749  23.590  1.00  0.00    -0.237 OA
ATOM    100  O   UNL A   1      48.607  25.770  24.410  1.00  0.00    -0.237 OA
ATOM    101  O   UNL A   1      48.575  27.831  23.059  1.00  0.00    -0.744 OA
ENDBRANCH  94  98
ENDBRANCH  68  91
ENDBRANCH  42  43
ENDBRANCH  35  37
ENDBRANCH  34  35
ENDBRANCH  33  34
ENDBRANCH  32  33
ENDBRANCH  31  32
ENDBRANCH  30  31
ENDBRANCH  29  30
ENDBRANCH   1  29
TORSDOF 26
ENDMDL
MODEL 2
REMARK VINA RESULT:      -8.2      3.607     12.559
REMARK SMILES Cc1cs/c(=N\S(=O)(=O)c2ccc(/C=C/C(=O)OCCOCCOCCOCCOC(=O)c3ccc(-c4c5nc(c(-c6cc(S(=O)(=O)[O-])ccc6F)c6ccc([nH]6)c(-c6cc(S(=O)(=O)[O-])ccc6F)c6nc(c(-c7cc(S(=O)(=O)[O-])ccc7F)c7ccc4[nH]7)C=C6)C=C5)cc3)cc2)[nH]1
REMARK SMILES IDX 24 1 23 2 22 3 21 4 20 5 19 6 18 7 16 8 17 9 15 10 14 11
REMARK SMILES IDX 13 12 10 13 11 14 97 15 12 16 96 17 7 18 8 19 9 20 6 21 1 22
REMARK SMILES IDX 2 23 3 24 98 25 4 26 5 27 25 29 26 30 27 31 28 32 29 33
REMARK SMILES IDX 30 34 31 35 32 36 33 37 34 38 95 39 35 40 94 41 36 42 37 43
REMARK SMILES IDX 38 44 88 45 39 46 93 47 87 48 89 49 40 50 92 51 86 52 85 53
REMARK SMILES IDX 41 55 73 56 53 57 72 58 54 59 57 60 71 61 90 62 55 63 56 64
REMARK SMILES IDX 70 66 91 67 58 68 42 69 43 70 51 71 44 72 50 73 52 74 49 75
REMARK SMILES IDX 45 76 46 77 47 78 48 79 74 80 75 81 83 82 76 83 82 84 84 85
REMARK SMILES IDX 81 86 77 87 78 88 79 89 80 90 59 91 60 92 68 93 61 94 67 95
REMARK SMILES IDX 69 96 66 97 62 98 63 99 64 100 65 101
REMARK H PARENT 98 28 89 54 57 65
REMARK Flexibility Score: inf
ROOT
ATOM      1  O   UNL A   1      44.144  18.118  26.103  1.00  0.00    -0.377 OA
ENDROOT
BRANCH   1   2
ATOM      2  C   UNL A   1      42.941  18.075  26.851  1.00  0.00     0.188 C 
BRANCH   2   3
ATOM      3  C   UNL A   1      41.921  19.180  26.524  1.00  0.00     0.188 C 
BRANCH   3   4
ATOM      4  O   UNL A   1      41.926  20.256  27.441  1.00  0.00    -0.376 OA
BRANCH   4   5
ATOM      5  C   UNL A   1      40.913  21.246  27.421  1.00  0.00     0.202 C 
BRANCH   5   6
ATOM      6  C   UNL A   1      41.138  22.700  26.965  1.00  0.00     0.261 C 
BRANCH   6   7
ATOM      7  O   UNL A   1      40.705  23.741  27.842  1.00  0.00    -0.460 OA
BRANCH   7   8
ATOM      8  C   UNL A   1      39.562  24.377  27.525  1.00  0.00     0.330 C 
ATOM      9  O   UNL A   1      38.629  23.916  26.886  1.00  0.00    -0.247 OA
BRANCH   8  10
ATOM     10  C   UNL A   1      39.492  25.700  28.184  1.00  0.00     0.094 C 
ATOM     11  C   UNL A   1      39.740  26.884  27.597  1.00  0.00     0.015 C 
BRANCH  11  12
ATOM     12  C   UNL A   1      39.649  28.160  28.325  1.00  0.00    -0.025 A 
ATOM     13  C   UNL A   1      39.280  30.490  29.834  1.00  0.00     0.089 A 
ATOM     14  C   UNL A   1      40.333  29.625  30.141  1.00  0.00     0.023 A 
ATOM     15  C   UNL A   1      38.461  30.249  28.730  1.00  0.00     0.023 A 
ATOM     16  C   UNL A   1      40.521  28.472  29.379  1.00  0.00     0.009 A 
ATOM     17  C   UNL A   1      38.655  29.087  27.973  1.00  0.00     0.009 A 
BRANCH  13  18
ATOM     18  S   UNL A   1      38.992  31.862  30.938  1.00  0.00     0.285 S 
ATOM     19  O   UNL A   1      39.593  33.012  30.289  1.00  0.00    -0.199 OA
ATOM     20  O   UNL A   1      39.456  31.401  32.231  1.00  0.00    -0.199 OA
BRANCH  18  21
ATOM     21  N   UNL A   1      37.389  32.049  30.978  1.00  0.00    -0.130 NA
ATOM     22  C   UNL A   1      33.671  34.680  32.632  1.00  0.00     0.065 C 
ATOM     23  C   UNL A   1      35.112  34.333  32.495  1.00  0.00     0.024 A 
ATOM     24  C   UNL A   1      36.139  34.999  33.047  1.00  0.00     0.089 A 
ATOM     25  N   UNL A   1      35.513  33.247  31.741  1.00  0.00    -0.334 N 
ATOM     26  S   UNL A   1      37.674  34.269  32.629  1.00  0.00    -0.104 S 
ATOM     27  C   UNL A   1      36.863  33.010  31.654  1.00  0.00     0.199 A 
ATOM     28  H   UNL A   1      34.858  32.668  31.287  1.00  0.00     0.169 HD
ENDBRANCH  18  21
ENDBRANCH  13  18
ENDBRANCH  11  12
ENDBRANCH   8  10
ENDBRANCH   7   8
ENDBRANCH   6   7
ENDBRANCH   5   6
ENDBRANCH   4   5
ENDBRANCH   3   4
ENDBRANCH   2   3
ENDBRANCH   1   2
BRANCH   1  29
ATOM     29  C   UNL A   1      44.183  18.839  24.870  1.00  0.00     0.188 C 
BRANCH  29  30
ATOM     30  C   UNL A   1      44.309  20.381  24.793  1.00  0.00     0.188 C 
BRANCH  30  31
ATOM     31  O   UNL A   1      45.511  20.912  25.331  1.00  0.00    -0.376 OA
BRANCH  31  32
ATOM     32  C   UNL A   1      46.428  21.510  24.430  1.00  0.00     0.202 C 
BRANCH  32  33
ATOM     33  C   UNL A   1      46.299  23.028  24.252  1.00  0.00     0.261 C 
BRANCH  33  34
ATOM     34  O   UNL A   1      45.722  23.740  25.356  1.00  0.00    -0.460 OA
BRANCH  34  35
ATOM     35  C   UNL A   1      44.516  24.314  25.156  1.00  0.00     0.338 C 
ATOM     36  O   UNL A   1      43.600  23.874  24.474  1.00  0.00    -0.246 OA
BRANCH  35  37
ATOM     37  C   UNL A   1      44.419  25.480  26.057  1.00  0.00     0.060 A 
ATOM     38  C   UNL A   1      45.589  26.028  26.597  1.00  0.00     0.016 A 
ATOM     39  C   UNL A   1      43.173  26.041  26.350  1.00  0.00     0.016 A 
ATOM     40  C   UNL A   1      45.512  27.124  27.458  1.00  0.00     0.010 A 
ATOM     41  C   UNL A   1      43.098  27.128  27.226  1.00  0.00     0.010 A 
ATOM     42  C   UNL A   1      44.264  27.657  27.807  1.00  0.00    -0.014 A 
BRANCH  42  43
ATOM     43  C   UNL A   1      44.158  28.640  28.916  1.00  0.00     0.031 A 
ATOM     44  C   UNL A   1      43.973  28.120  30.315  1.00  0.00     0.074 A 
ATOM     45  C   UNL A   1      44.237  29.963  28.691  1.00  0.00     0.049 A 
ATOM     46  N   UNL A   1      43.785  28.775  31.431  1.00  0.00    -0.248 NA
ATOM     47  C   UNL A   1      43.994  26.657  30.469  1.00  0.00     0.031 C 
ATOM     48  C   UNL A   1      44.461  30.586  27.388  1.00  0.00     0.029 A 
ATOM     49  N   UNL A   1      44.124  31.023  29.557  1.00  0.00    -0.354 N 
ATOM     50  C   UNL A   1      43.663  27.806  32.422  1.00  0.00     0.074 A 
ATOM     51  C   UNL A   1      43.750  26.520  31.762  1.00  0.00     0.031 C 
ATOM     52  C   UNL A   1      44.457  31.922  27.539  1.00  0.00     0.029 A 
ATOM     53  C   UNL A   1      44.186  32.250  28.938  1.00  0.00     0.049 A 
ATOM     54  H   UNL A   1      44.010  30.915  30.529  1.00  0.00     0.167 HD
ATOM     55  C   UNL A   1      43.504  27.974  33.758  1.00  0.00     0.034 A 
ATOM     56  C   UNL A   1      44.011  33.491  29.438  1.00  0.00     0.034 A 
ATOM     57  C   UNL A   1      43.396  29.264  34.394  1.00  0.00     0.049 A 
ATOM     58  C   UNL A   1      43.727  33.655  30.914  1.00  0.00     0.074 A 
ATOM     59  C   UNL A   1      43.241  29.551  35.739  1.00  0.00     0.029 A 
ATOM     60  N   UNL A   1      43.411  30.484  33.730  1.00  0.00    -0.354 N 
ATOM     61  N   UNL A   1      43.621  32.734  31.845  1.00  0.00    -0.248 NA
ATOM     62  C   UNL A   1      43.547  35.027  31.407  1.00  0.00     0.031 C 
ATOM     63  C   UNL A   1      43.076  30.934  35.876  1.00  0.00     0.029 A 
ATOM     64  C   UNL A   1      43.226  31.522  34.630  1.00  0.00     0.049 A 
ATOM     65  H   UNL A   1      43.537  30.595  32.759  1.00  0.00     0.167 HD
ATOM     66  C   UNL A   1      43.393  33.419  33.037  1.00  0.00     0.074 A 
ATOM     67  C   UNL A   1      43.392  34.829  32.708  1.00  0.00     0.031 C 
ATOM     68  C   UNL A   1      43.208  32.928  34.290  1.00  0.00     0.034 A 
BRANCH  55  69
ATOM     69  C   UNL A   1      43.378  26.725  34.600  1.00  0.00     0.023 A 
ATOM     70  C   UNL A   1      44.508  26.025  35.061  1.00  0.00     0.031 A 
ATOM     71  C   UNL A   1      42.111  26.197  34.904  1.00  0.00     0.131 A 
ATOM     72  C   UNL A   1      44.351  24.796  35.719  1.00  0.00     0.055 A 
ATOM     73  C   UNL A   1      41.960  25.021  35.642  1.00  0.00     0.041 A 
ATOM     74  F   UNL A   1      40.995  26.804  34.471  1.00  0.00    -0.206 F 
ATOM     75  C   UNL A   1      43.084  24.303  36.038  1.00  0.00     0.022 A 
BRANCH  72  76
ATOM     76  S   UNL A   1      45.821  23.768  35.994  1.00  0.00     0.124 S 
ATOM     77  O   UNL A   1      45.224  22.449  36.199  1.00  0.00    -0.237 OA
ATOM     78  O   UNL A   1      46.565  23.946  34.753  1.00  0.00    -0.237 OA
ATOM     79  O   UNL A   1      46.434  24.356  37.182  1.00  0.00    -0.744 OA
ENDBRANCH  72  76
ENDBRANCH  55  69
BRANCH  56  80
ATOM     80  C   UNL A   1      44.047  34.678  28.535  1.00  0.00     0.023 A 
ATOM     81  C   UNL A   1      45.253  35.324  28.222  1.00  0.00     0.031 A 
ATOM     82  C   UNL A   1      42.857  35.215  28.006  1.00  0.00     0.131 A 
ATOM     83  C   UNL A   1      45.242  36.489  27.437  1.00  0.00     0.055 A 
ATOM     84  C   UNL A   1      42.857  36.339  27.179  1.00  0.00     0.041 A 
ATOM     85  F   UNL A   1      41.674  34.643  28.279  1.00  0.00    -0.206 F 
ATOM     86  C   UNL A   1      44.053  36.990  26.899  1.00  0.00     0.022 A 
BRANCH  83  87
ATOM     87  S   UNL A   1      46.795  37.392  27.195  1.00  0.00     0.124 S 
ATOM     88  O   UNL A   1      46.854  37.499  25.742  1.00  0.00    -0.237 OA
ATOM     89  O   UNL A   1      46.541  38.632  27.922  1.00  0.00    -0.237 OA
ATOM     90  O   UNL A   1      47.796  36.513  27.798  1.00  0.00    -0.744 OA
ENDBRANCH  83  87
ENDBRANCH  56  80
BRANCH  68  91
ATOM     91  C   UNL A   1      43.034  33.930  35.409  1.00  0.00     0.023 A 
ATOM     92  C   UNL A   1      41.766  34.394  35.802  1.00  0.00     0.031 A 
ATOM     93  C   UNL A   1      44.158  34.430  36.092  1.00  0.00     0.131 A 
ATOM     94  C   UNL A   1      41.657  35.372  36.803  1.00  0.00     0.055 A 
ATOM     95  C   UNL A   1      44.039  35.349  37.136  1.00  0.00     0.041 A 
ATOM     96  F   UNL A   1      45.396  34.028  35.759  1.00  0.00    -0.206 F 
ATOM     97  C   UNL A   1      42.784  35.836  37.487  1.00  0.00     0.022 A 
BRANCH  94  98
ATOM     98  S   UNL A   1      40.033  36.109  37.130  1.00  0.00     0.124 S 
ATOM     99  O   UNL A   1      39.245  34.943  37.518  1.00  0.00    -0.237 OA
ATOM    100  O   UNL A   1      40.329  37.061  38.195  1.00  0.00    -0.237 OA
ATOM    101  O   UNL A   1      39.663  36.708  35.848  1.00  0.00    -0.744 OA
ENDBRANCH  94  98
ENDBRANCH  68  91
ENDBRANCH  42  43
ENDBRANCH  35  37
ENDBRANCH  34  35
ENDBRANCH  33  34
ENDBRANCH  32  33
ENDBRANCH  31  32
ENDBRANCH  30  31
ENDBRANCH  29  30
ENDBRANCH   1  29
TORSDOF 26
ENDMDL
MODEL 3
REMARK VINA RESULT:      -7.4      3.270      5.663
REMARK SMILES Cc1cs/c(=N\S(=O)(=O)c2ccc(/C=C/C(=O)OCCOCCOCCOCCOC(=O)c3ccc(-c4c5nc(c(-c6cc(S(=O)(=O)[O-])ccc6F)c6ccc([nH]6)c(-c6cc(S(=O)(=O)[O-])ccc6F)c6nc(c(-c7cc(S(=O)(=O)[O-])ccc7F)c7ccc4[nH]7)C=C6)C=C5)cc3)cc2)[nH]1
REMARK SMILES IDX 24 1 23 2 22 3 21 4 20 5 19 6 18 7 16 8 17 9 15 10 14 11
REMARK SMILES IDX 13 12 10 13 11 14 97 15 12 16 96 17 7 18 8 19 9 20 6 21 1 22
REMARK SMILES IDX 2 23 3 24 98 25 4 26 5 27 25 29 26 30 27 31 28 32 29 33
REMARK SMILES IDX 30 34 31 35 32 36 33 37 34 38 95 39 35 40 94 41 36 42 37 43
REMARK SMILES IDX 38 44 88 45 39 46 93 47 87 48 89 49 40 50 92 51 86 52 85 53
REMARK SMILES IDX 41 55 73 56 53 57 72 58 54 59 57 60 71 61 90 62 55 63 56 64
REMARK SMILES IDX 70 66 91 67 58 68 42 69 43 70 51 71 44 72 50 73 52 74 49 75
REMARK SMILES IDX 45 76 46 77 47 78 48 79 74 80 75 81 83 82 76 83 82 84 84 85
REMARK SMILES IDX 81 86 77 87 78 88 79 89 80 90 59 91 60 92 68 93 61 94 67 95
REMARK SMILES IDX 69 96 66 97 62 98 63 99 64 100 65 101
REMARK H PARENT 98 28 89 54 57 65
REMARK Flexibility Score: inf
ROOT
ATOM      1  O   UNL A   1      34.067  36.215  32.460  1.00  0.00    -0.377 OA
ENDROOT
BRANCH   1   2
ATOM      2  C   UNL A   1      33.341  35.486  31.486  1.00  0.00     0.188 C 
BRANCH   2   3
ATOM      3  C   UNL A   1      33.284  36.126  30.087  1.00  0.00     0.188 C 
BRANCH   3   4
ATOM      4  O   UNL A   1      34.055  35.449  29.115  1.00  0.00    -0.376 OA
BRANCH   4   5
ATOM      5  C   UNL A   1      33.802  34.095  28.786  1.00  0.00     0.202 C 
BRANCH   5   6
ATOM      6  C   UNL A   1      34.584  32.905  29.375  1.00  0.00     0.261 C 
BRANCH   6   7
ATOM      7  O   UNL A   1      35.762  32.483  28.686  1.00  0.00    -0.460 OA
BRANCH   7   8
ATOM      8  C   UNL A   1      35.724  31.282  28.080  1.00  0.00     0.330 C 
ATOM      9  O   UNL A   1      34.834  30.863  27.356  1.00  0.00    -0.247 OA
BRANCH   8  10
ATOM     10  C   UNL A   1      36.994  30.550  28.277  1.00  0.00     0.094 C 
ATOM     11  C   UNL A   1      37.329  29.386  27.693  1.00  0.00     0.015 C 
BRANCH  11  12
ATOM     12  C   UNL A   1      38.618  28.720  27.943  1.00  0.00    -0.025 A 
ATOM     13  C   UNL A   1      40.969  27.246  28.324  1.00  0.00     0.089 A 
ATOM     14  C   UNL A   1      40.889  28.166  27.275  1.00  0.00     0.023 A 
ATOM     15  C   UNL A   1      39.920  27.115  29.235  1.00  0.00     0.023 A 
ATOM     16  C   UNL A   1      39.721  28.907  27.097  1.00  0.00     0.009 A 
ATOM     17  C   UNL A   1      38.749  27.861  29.045  1.00  0.00     0.009 A 
BRANCH  13  18
ATOM     18  S   UNL A   1      42.422  26.214  28.407  1.00  0.00     0.285 S 
ATOM     19  O   UNL A   1      41.999  25.010  29.096  1.00  0.00    -0.199 OA
ATOM     20  O   UNL A   1      43.454  27.072  28.956  1.00  0.00    -0.199 OA
BRANCH  18  21
ATOM     21  N   UNL A   1      42.780  25.855  26.875  1.00  0.00    -0.130 NA
ATOM     22  C   UNL A   1      45.250  22.956  23.879  1.00  0.00     0.065 C 
ATOM     23  C   UNL A   1      44.820  23.449  25.216  1.00  0.00     0.024 A 
ATOM     24  C   UNL A   1      45.196  22.942  26.402  1.00  0.00     0.089 A 
ATOM     25  N   UNL A   1      43.950  24.516  25.334  1.00  0.00    -0.334 N 
ATOM     26  S   UNL A   1      44.454  23.805  27.732  1.00  0.00    -0.104 S 
ATOM     27  C   UNL A   1      43.592  24.893  26.606  1.00  0.00     0.199 A 
ATOM     28  H   UNL A   1      43.602  24.984  24.540  1.00  0.00     0.169 HD
ENDBRANCH  18  21
ENDBRANCH  13  18
ENDBRANCH  11  12
ENDBRANCH   8  10
ENDBRANCH   7   8
ENDBRANCH   6   7
ENDBRANCH   5   6
ENDBRANCH   4   5
ENDBRANCH   3   4
ENDBRANCH   2   3
ENDBRANCH   1   2
BRANCH   1  29
ATOM     29  C   UNL A   1      34.441  35.578  33.683  1.00  0.00     0.188 C 
BRANCH  29  30
ATOM     30  C   UNL A   1      35.749  34.764  33.850  1.00  0.00     0.188 C 
BRANCH  30  31
ATOM     31  O   UNL A   1      35.965  33.768  32.863  1.00  0.00    -0.376 OA
BRANCH  31  32
ATOM     32  C   UNL A   1      35.892  32.412  33.268  1.00  0.00     0.202 C 
BRANCH  32  33
ATOM     33  C   UNL A   1      36.092  31.369  32.161  1.00  0.00     0.261 C 
BRANCH  33  34
ATOM     34  O   UNL A   1      37.406  31.311  31.587  1.00  0.00    -0.460 OA
BRANCH  34  35
ATOM     35  C   UNL A   1      38.334  30.583  32.244  1.00  0.00     0.338 C 
ATOM     36  O   UNL A   1      38.124  29.689  33.052  1.00  0.00    -0.246 OA
BRANCH  35  37
ATOM     37  C   UNL A   1      39.654  30.922  31.678  1.00  0.00     0.060 A 
ATOM     38  C   UNL A   1      40.691  31.304  32.539  1.00  0.00     0.016 A 
ATOM     39  C   UNL A   1      39.871  30.845  30.300  1.00  0.00     0.016 A 
ATOM     40  C   UNL A   1      41.943  31.637  32.018  1.00  0.00     0.010 A 
ATOM     41  C   UNL A   1      41.120  31.196  29.780  1.00  0.00     0.010 A 
ATOM     42  C   UNL A   1      42.154  31.622  30.633  1.00  0.00    -0.014 A 
BRANCH  42  43
ATOM     43  C   UNL A   1      43.385  32.223  30.060  1.00  0.00     0.031 A 
ATOM     44  C   UNL A   1      43.395  33.702  29.785  1.00  0.00     0.074 A 
ATOM     45  C   UNL A   1      44.475  31.480  29.802  1.00  0.00     0.049 A 
ATOM     46  N   UNL A   1      44.317  34.441  29.226  1.00  0.00    -0.248 NA
ATOM     47  C   UNL A   1      42.190  34.443  30.190  1.00  0.00     0.031 C 
ATOM     48  C   UNL A   1      44.603  30.049  30.068  1.00  0.00     0.029 A 
ATOM     49  N   UNL A   1      45.680  31.829  29.244  1.00  0.00    -0.354 N 
ATOM     50  C   UNL A   1      43.806  35.734  29.208  1.00  0.00     0.074 A 
ATOM     51  C   UNL A   1      42.472  35.665  29.769  1.00  0.00     0.031 C 
ATOM     52  C   UNL A   1      45.818  29.639  29.662  1.00  0.00     0.029 A 
ATOM     53  C   UNL A   1      46.534  30.766  29.066  1.00  0.00     0.049 A 
ATOM     54  H   UNL A   1      45.912  32.753  28.995  1.00  0.00     0.167 HD
ATOM     55  C   UNL A   1      44.397  36.875  28.775  1.00  0.00     0.034 A 
ATOM     56  C   UNL A   1      47.740  30.704  28.463  1.00  0.00     0.034 A 
ATOM     57  C   UNL A   1      45.718  36.921  28.198  1.00  0.00     0.049 A 
ATOM     58  C   UNL A   1      48.340  31.967  27.889  1.00  0.00     0.074 A 
ATOM     59  C   UNL A   1      46.418  38.021  27.734  1.00  0.00     0.029 A 
ATOM     60  N   UNL A   1      46.535  35.816  27.986  1.00  0.00    -0.354 N 
ATOM     61  N   UNL A   1      47.853  33.188  27.884  1.00  0.00    -0.248 NA
ATOM     62  C   UNL A   1      49.655  31.845  27.246  1.00  0.00     0.031 C 
ATOM     63  C   UNL A   1      47.615  37.571  27.164  1.00  0.00     0.029 A 
ATOM     64  C   UNL A   1      47.710  36.202  27.360  1.00  0.00     0.049 A 
ATOM     65  H   UNL A   1      46.310  34.892  28.245  1.00  0.00     0.167 HD
ATOM     66  C   UNL A   1      48.817  33.982  27.265  1.00  0.00     0.074 A 
ATOM     67  C   UNL A   1      49.917  33.104  26.925  1.00  0.00     0.031 C 
ATOM     68  C   UNL A   1      48.797  35.316  27.008  1.00  0.00     0.034 A 
BRANCH  55  69
ATOM     69  C   UNL A   1      43.587  38.148  28.860  1.00  0.00     0.023 A 
ATOM     70  C   UNL A   1      42.711  38.539  27.831  1.00  0.00     0.031 A 
ATOM     71  C   UNL A   1      43.729  39.010  29.962  1.00  0.00     0.131 A 
ATOM     72  C   UNL A   1      42.084  39.793  27.882  1.00  0.00     0.055 A 
ATOM     73  C   UNL A   1      43.029  40.214  30.050  1.00  0.00     0.041 A 
ATOM     74  F   UNL A   1      44.568  38.706  30.964  1.00  0.00    -0.206 F 
ATOM     75  C   UNL A   1      42.215  40.621  28.998  1.00  0.00     0.022 A 
BRANCH  72  76
ATOM     76  S   UNL A   1      41.241  40.400  26.394  1.00  0.00     0.124 S 
ATOM     77  O   UNL A   1      40.245  41.304  26.968  1.00  0.00    -0.237 OA
ATOM     78  O   UNL A   1      42.326  41.032  25.654  1.00  0.00    -0.237 OA
ATOM     79  O   UNL A   1      40.695  39.187  25.790  1.00  0.00    -0.744 OA
ENDBRANCH  72  76
ENDBRANCH  55  69
BRANCH  56  80
ATOM     80  C   UNL A   1      48.445  29.396  28.323  1.00  0.00     0.023 A 
ATOM     81  C   UNL A   1      48.087  28.475  27.326  1.00  0.00     0.031 A 
ATOM     82  C   UNL A   1      49.465  29.030  29.221  1.00  0.00     0.131 A 
ATOM     83  C   UNL A   1      48.715  27.219  27.274  1.00  0.00     0.055 A 
ATOM     84  C   UNL A   1      50.126  27.804  29.130  1.00  0.00     0.041 A 
ATOM     85  F   UNL A   1      49.843  29.869  30.199  1.00  0.00    -0.206 F 
ATOM     86  C   UNL A   1      49.744  26.885  28.159  1.00  0.00     0.022 A 
BRANCH  83  87
ATOM     87  S   UNL A   1      48.110  25.991  26.085  1.00  0.00     0.124 S 
ATOM     88  O   UNL A   1      49.002  26.211  24.952  1.00  0.00    -0.237 OA
ATOM     89  O   UNL A   1      48.297  24.742  26.817  1.00  0.00    -0.237 OA
ATOM     90  O   UNL A   1      46.718  26.383  25.870  1.00  0.00    -0.744 OA
ENDBRANCH  83  87
ENDBRANCH  56  80
BRANCH  68  91
ATOM     91  C   UNL A   1      50.027  35.916  26.364  1.00  0.00     0.023 A 
ATOM     92  C   UNL A   1      51.034  36.541  27.119  1.00  0.00     0.031 A 
ATOM     93  C   UNL A   1      50.189  35.864  24.967  1.00  0.00     0.131 A 
ATOM     94  C   UNL A   1      52.126  37.139  26.472  1.00  0.00     0.055 A 
ATOM     95  C   UNL A   1      51.313  36.398  24.334  1.00  0.00     0.041 A 
ATOM     96  F   UNL A   1      49.258  35.285  24.191  1.00  0.00    -0.206 F 
ATOM     97  C   UNL A   1      52.283  37.053  25.086  1.00  0.00     0.022 A 
BRANCH  94  98
ATOM     98  S   UNL A   1      53.289  38.125  27.455  1.00  0.00     0.124 S 
ATOM     99  O   UNL A   1      52.779  39.478  27.260  1.00  0.00    -0.237 OA
ATOM    100  O   UNL A   1      53.121  37.567  28.792  1.00  0.00    -0.237 OA
ATOM    101  O   UNL A   1      54.583  37.854  26.829  1.00  0.00    -0.744 OA
ENDBRANCH  94  98
ENDBRANCH  68  91
ENDBRANCH  42  43
ENDBRANCH  35  37
ENDBRANCH  34  35
ENDBRANCH  33  34
ENDBRANCH  32  33
ENDBRANCH  31  32
ENDBRANCH  30  31
ENDBRANCH  29  30
ENDBRANCH   1  29
TORSDOF 26
ENDMDL
