MODEL 1
REMARK VINA RESULT:      -6.5      0.000      0.000
REMARK SMILES CS(=O)(=O)c1ccc(/C=C(/C(=O)OCCOCCOCCOCCOC(=O)c2ccc(-c3c4nc(c(-c5cc(S(=O)(=O)[O-])ccc5F)c5ccc([nH]5)c(-c5cc(S(=O)(=O)[O-])ccc5F)c5nc(c(-c6cc(S(=O)(=O)[O-])ccc6F)c6ccc3[nH]6)C=C5)C=C4)cc2)c2cccc(Br)c2)cc1
REMARK SMILES IDX 20 1 19 2 18 3 17 4 16 5 15 6 14 7 13 8 11 9 12 10 10 11
REMARK SMILES IDX 9 12 8 13 5 14 6 15 99 16 7 17 98 18 2 19 1 20 3 21 4 22
REMARK SMILES IDX 91 23 92 24 97 25 93 26 95 27 94 28 96 29 21 30 22 31 23 32
REMARK SMILES IDX 24 33 25 34 26 35 27 36 28 37 29 38 90 39 30 40 89 41 31 42
REMARK SMILES IDX 32 43 33 44 83 45 34 46 88 47 82 48 84 49 35 50 87 51 81 52
REMARK SMILES IDX 80 53 36 55 68 56 48 57 67 58 49 59 52 60 66 61 85 62 50 63
REMARK SMILES IDX 51 64 65 66 86 67 53 68 37 69 38 70 46 71 39 72 45 73 47 74
REMARK SMILES IDX 44 75 40 76 41 77 42 78 43 79 69 80 70 81 78 82 71 83 77 84
REMARK SMILES IDX 79 85 76 86 72 87 73 88 74 89 75 90 54 91 55 92 63 93 56 94
REMARK SMILES IDX 62 95 64 96 61 97 57 98 58 99 59 100 60 101
REMARK H PARENT 84 54 52 65
REMARK Flexibility Score: inf
ROOT
ATOM      1  C   UNL A   1      40.407  32.912  43.300  1.00  0.00     0.188 C 
ENDROOT
BRANCH   1   2
ATOM      2  O   UNL A   1      39.294  32.312  42.643  1.00  0.00    -0.377 OA
BRANCH   2   3
ATOM      3  C   UNL A   1      39.238  32.320  41.228  1.00  0.00     0.188 C 
BRANCH   3   4
ATOM      4  C   UNL A   1      38.114  33.128  40.542  1.00  0.00     0.188 C 
BRANCH   4   5
ATOM      5  O   UNL A   1      37.532  32.467  39.436  1.00  0.00    -0.376 OA
BRANCH   5   6
ATOM      6  C   UNL A   1      38.041  32.748  38.145  1.00  0.00     0.202 C 
BRANCH   6   7
ATOM      7  C   UNL A   1      37.789  31.756  36.996  1.00  0.00     0.261 C 
BRANCH   7   8
ATOM      8  O   UNL A   1      38.379  32.078  35.727  1.00  0.00    -0.460 OA
BRANCH   8   9
ATOM      9  C   UNL A   1      37.557  32.211  34.661  1.00  0.00     0.338 C 
ATOM     10  O   UNL A   1      36.440  32.706  34.685  1.00  0.00    -0.246 OA
BRANCH   9  11
ATOM     11  C   UNL A   1      38.267  31.807  33.395  1.00  0.00     0.067 C 
ATOM     12  C   UNL A   1      39.002  30.666  33.391  1.00  0.00     0.024 C 
BRANCH  12  13
ATOM     13  C   UNL A   1      39.597  29.947  32.237  1.00  0.00    -0.025 A 
ATOM     14  C   UNL A   1      40.145  28.735  29.771  1.00  0.00     0.067 A 
ATOM     15  C   UNL A   1      40.786  29.922  30.114  1.00  0.00     0.021 A 
ATOM     16  C   UNL A   1      39.338  28.075  30.698  1.00  0.00     0.021 A 
ATOM     17  C   UNL A   1      40.548  30.492  31.365  1.00  0.00     0.009 A 
ATOM     18  C   UNL A   1      39.074  28.680  31.930  1.00  0.00     0.009 A 
BRANCH  14  19
ATOM     19  S   UNL A   1      40.227  28.147  28.099  1.00  0.00     0.175 S 
ATOM     20  C   UNL A   1      39.639  26.484  28.208  1.00  0.00     0.163 C 
ATOM     21  O   UNL A   1      41.627  28.101  27.716  1.00  0.00    -0.224 OA
ATOM     22  O   UNL A   1      39.276  28.916  27.319  1.00  0.00    -0.224 OA
ENDBRANCH  14  19
ENDBRANCH  12  13
BRANCH  11  23
ATOM     23  C   UNL A   1      38.105  32.678  32.211  1.00  0.00    -0.010 A 
ATOM     24  C   UNL A   1      38.977  33.767  32.014  1.00  0.00     0.009 A 
ATOM     25  C   UNL A   1      37.177  32.369  31.213  1.00  0.00     0.024 A 
ATOM     26  C   UNL A   1      38.926  34.532  30.850  1.00  0.00     0.002 A 
ATOM     27  C   UNL A   1      37.150  33.123  30.039  1.00  0.00     0.018 A 
ATOM     28  C   UNL A   1      38.015  34.203  29.854  1.00  0.00     0.016 A 
ATOM     29  Br  UNL A   1      35.966  32.637  28.647  1.00  0.00    -0.051 Br
ENDBRANCH  11  23
ENDBRANCH   9  11
ENDBRANCH   8   9
ENDBRANCH   7   8
ENDBRANCH   6   7
ENDBRANCH   5   6
ENDBRANCH   4   5
ENDBRANCH   3   4
ENDBRANCH   2   3
ENDBRANCH   1   2
BRANCH   1  30
ATOM     30  C   UNL A   1      41.458  33.738  42.520  1.00  0.00     0.188 C 
BRANCH  30  31
ATOM     31  O   UNL A   1      41.396  35.142  42.726  1.00  0.00    -0.376 OA
BRANCH  31  32
ATOM     32  C   UNL A   1      40.290  35.840  42.185  1.00  0.00     0.202 C 
BRANCH  32  33
ATOM     33  C   UNL A   1      40.515  36.573  40.855  1.00  0.00     0.261 C 
BRANCH  33  34
ATOM     34  O   UNL A   1      40.455  35.767  39.670  1.00  0.00    -0.460 OA
BRANCH  34  35
ATOM     35  C   UNL A   1      39.949  36.342  38.556  1.00  0.00     0.338 C 
ATOM     36  O   UNL A   1      39.260  37.348  38.502  1.00  0.00    -0.246 OA
BRANCH  35  37
ATOM     37  C   UNL A   1      40.547  35.656  37.393  1.00  0.00     0.060 A 
ATOM     38  C   UNL A   1      39.745  35.367  36.280  1.00  0.00     0.016 A 
ATOM     39  C   UNL A   1      41.905  35.333  37.389  1.00  0.00     0.016 A 
ATOM     40  C   UNL A   1      40.298  34.731  35.168  1.00  0.00     0.010 A 
ATOM     41  C   UNL A   1      42.451  34.672  36.286  1.00  0.00     0.010 A 
ATOM     42  C   UNL A   1      41.644  34.342  35.183  1.00  0.00    -0.014 A 
BRANCH  42  43
ATOM     43  C   UNL A   1      42.153  33.418  34.140  1.00  0.00     0.031 A 
ATOM     44  C   UNL A   1      42.253  31.955  34.478  1.00  0.00     0.074 A 
ATOM     45  C   UNL A   1      42.499  33.859  32.917  1.00  0.00     0.049 A 
ATOM     46  N   UNL A   1      42.717  30.964  33.762  1.00  0.00    -0.248 NA
ATOM     47  C   UNL A   1      41.768  31.563  35.810  1.00  0.00     0.031 C 
ATOM     48  C   UNL A   1      42.398  35.244  32.460  1.00  0.00     0.029 A 
ATOM     49  N   UNL A   1      43.012  33.184  31.838  1.00  0.00    -0.354 N 
ATOM     50  C   UNL A   1      42.585  29.831  34.558  1.00  0.00     0.074 A 
ATOM     51  C   UNL A   1      42.037  30.267  35.825  1.00  0.00     0.031 C 
ATOM     52  C   UNL A   1      42.847  35.316  31.194  1.00  0.00     0.029 A 
ATOM     53  C   UNL A   1      43.306  33.995  30.767  1.00  0.00     0.049 A 
ATOM     54  H   UNL A   1      43.156  32.210  31.831  1.00  0.00     0.167 HD
ATOM     55  C   UNL A   1      42.888  28.545  34.256  1.00  0.00     0.034 A 
ATOM     56  C   UNL A   1      43.907  33.709  29.593  1.00  0.00     0.034 A 
ATOM     57  C   UNL A   1      43.450  28.132  32.994  1.00  0.00     0.049 A 
ATOM     58  C   UNL A   1      44.327  32.282  29.315  1.00  0.00     0.074 A 
ATOM     59  C   UNL A   1      43.780  26.856  32.576  1.00  0.00     0.029 A 
ATOM     60  N   UNL A   1      43.783  28.989  31.952  1.00  0.00    -0.354 N 
ATOM     61  N   UNL A   1      44.188  31.215  30.069  1.00  0.00    -0.248 NA
ATOM     62  C   UNL A   1      44.978  32.022  28.024  1.00  0.00     0.031 C 
ATOM     63  C   UNL A   1      44.392  26.951  31.322  1.00  0.00     0.029 A 
ATOM     64  C   UNL A   1      44.354  28.274  30.911  1.00  0.00     0.049 A 
ATOM     65  H   UNL A   1      43.634  29.962  31.952  1.00  0.00     0.167 HD
ATOM     66  C   UNL A   1      44.704  30.153  29.328  1.00  0.00     0.074 A 
ATOM     67  C   UNL A   1      45.142  30.708  28.064  1.00  0.00     0.031 C 
ATOM     68  C   UNL A   1      44.800  28.839  29.657  1.00  0.00     0.034 A 
BRANCH  55  69
ATOM     69  C   UNL A   1      42.675  27.511  35.336  1.00  0.00     0.023 A 
ATOM     70  C   UNL A   1      43.573  27.354  36.407  1.00  0.00     0.031 A 
ATOM     71  C   UNL A   1      41.569  26.643  35.274  1.00  0.00     0.131 A 
ATOM     72  C   UNL A   1      43.389  26.311  37.327  1.00  0.00     0.055 A 
ATOM     73  C   UNL A   1      41.345  25.663  36.242  1.00  0.00     0.041 A 
ATOM     74  F   UNL A   1      40.693  26.724  34.259  1.00  0.00    -0.206 F 
ATOM     75  C   UNL A   1      42.267  25.482  37.269  1.00  0.00     0.022 A 
BRANCH  72  76
ATOM     76  S   UNL A   1      44.721  25.952  38.507  1.00  0.00     0.124 S 
ATOM     77  O   UNL A   1      44.156  26.467  39.753  1.00  0.00    -0.237 OA
ATOM     78  O   UNL A   1      44.845  24.503  38.411  1.00  0.00    -0.237 OA
ATOM     79  O   UNL A   1      45.855  26.713  37.985  1.00  0.00    -0.744 OA
ENDBRANCH  72  76
ENDBRANCH  55  69
BRANCH  56  80
ATOM     80  C   UNL A   1      44.195  34.790  28.605  1.00  0.00     0.023 A 
ATOM     81  C   UNL A   1      45.492  35.299  28.437  1.00  0.00     0.031 A 
ATOM     82  C   UNL A   1      43.157  35.373  27.854  1.00  0.00     0.131 A 
ATOM     83  C   UNL A   1      45.710  36.387  27.576  1.00  0.00     0.055 A 
ATOM     84  C   UNL A   1      43.390  36.415  26.955  1.00  0.00     0.041 A 
ATOM     85  F   UNL A   1      41.895  34.932  27.981  1.00  0.00    -0.206 F 
ATOM     86  C   UNL A   1      44.673  36.938  26.822  1.00  0.00     0.022 A 
BRANCH  83  87
ATOM     87  S   UNL A   1      47.361  37.140  27.528  1.00  0.00     0.124 S 
ATOM     88  O   UNL A   1      47.876  36.807  28.852  1.00  0.00    -0.237 OA
ATOM     89  O   UNL A   1      47.978  36.443  26.405  1.00  0.00    -0.237 OA
ATOM     90  O   UNL A   1      47.082  38.556  27.303  1.00  0.00    -0.744 OA
ENDBRANCH  83  87
ENDBRANCH  56  80
BRANCH  68  91
ATOM     91  C   UNL A   1      45.355  27.900  28.611  1.00  0.00     0.023 A 
ATOM     92  C   UNL A   1      44.529  27.033  27.874  1.00  0.00     0.031 A 
ATOM     93  C   UNL A   1      46.738  27.870  28.351  1.00  0.00     0.131 A 
ATOM     94  C   UNL A   1      45.098  26.133  26.960  1.00  0.00     0.055 A 
ATOM     95  C   UNL A   1      47.290  27.025  27.387  1.00  0.00     0.041 A 
ATOM     96  F   UNL A   1      47.578  28.672  29.026  1.00  0.00    -0.206 F 
ATOM     97  C   UNL A   1      46.471  26.138  26.696  1.00  0.00     0.022 A 
BRANCH  94  98
ATOM     98  S   UNL A   1      44.034  24.879  26.194  1.00  0.00     0.124 S 
ATOM     99  O   UNL A   1      44.690  23.640  26.598  1.00  0.00    -0.237 OA
ATOM    100  O   UNL A   1      42.741  25.147  26.812  1.00  0.00    -0.237 OA
ATOM    101  O   UNL A   1      44.115  25.186  24.767  1.00  0.00    -0.744 OA
ENDBRANCH  94  98
ENDBRANCH  68  91
ENDBRANCH  42  43
ENDBRANCH  35  37
ENDBRANCH  34  35
ENDBRANCH  33  34
ENDBRANCH  32  33
ENDBRANCH  31  32
ENDBRANCH  30  31
ENDBRANCH   1  30
TORSDOF 26
ENDMDL
MODEL 2
REMARK VINA RESULT:      -6.5      2.510      7.853
REMARK SMILES CS(=O)(=O)c1ccc(/C=C(/C(=O)OCCOCCOCCOCCOC(=O)c2ccc(-c3c4nc(c(-c5cc(S(=O)(=O)[O-])ccc5F)c5ccc([nH]5)c(-c5cc(S(=O)(=O)[O-])ccc5F)c5nc(c(-c6cc(S(=O)(=O)[O-])ccc6F)c6ccc3[nH]6)C=C5)C=C4)cc2)c2cccc(Br)c2)cc1
REMARK SMILES IDX 20 1 19 2 18 3 17 4 16 5 15 6 14 7 13 8 11 9 12 10 10 11
REMARK SMILES IDX 9 12 8 13 5 14 6 15 99 16 7 17 98 18 2 19 1 20 3 21 4 22
REMARK SMILES IDX 91 23 92 24 97 25 93 26 95 27 94 28 96 29 21 30 22 31 23 32
REMARK SMILES IDX 24 33 25 34 26 35 27 36 28 37 29 38 90 39 30 40 89 41 31 42
REMARK SMILES IDX 32 43 33 44 83 45 34 46 88 47 82 48 84 49 35 50 87 51 81 52
REMARK SMILES IDX 80 53 36 55 68 56 48 57 67 58 49 59 52 60 66 61 85 62 50 63
REMARK SMILES IDX 51 64 65 66 86 67 53 68 37 69 38 70 46 71 39 72 45 73 47 74
REMARK SMILES IDX 44 75 40 76 41 77 42 78 43 79 69 80 70 81 78 82 71 83 77 84
REMARK SMILES IDX 79 85 76 86 72 87 73 88 74 89 75 90 54 91 55 92 63 93 56 94
REMARK SMILES IDX 62 95 64 96 61 97 57 98 58 99 59 100 60 101
REMARK H PARENT 84 54 52 65
REMARK Flexibility Score: inf
ROOT
ATOM      1  C   UNL A   1      41.000  31.988  43.881  1.00  0.00     0.188 C 
ENDROOT
BRANCH   1   2
ATOM      2  O   UNL A   1      40.129  31.079  43.213  1.00  0.00    -0.377 OA
BRANCH   2   3
ATOM      3  C   UNL A   1      39.811  31.298  41.851  1.00  0.00     0.188 C 
BRANCH   3   4
ATOM      4  C   UNL A   1      38.353  31.658  41.487  1.00  0.00     0.188 C 
BRANCH   4   5
ATOM      5  O   UNL A   1      37.937  31.146  40.236  1.00  0.00    -0.376 OA
BRANCH   5   6
ATOM      6  C   UNL A   1      36.788  31.710  39.630  1.00  0.00     0.202 C 
BRANCH   6   7
ATOM      7  C   UNL A   1      36.941  32.919  38.691  1.00  0.00     0.261 C 
BRANCH   7   8
ATOM      8  O   UNL A   1      37.209  32.631  37.310  1.00  0.00    -0.460 OA
BRANCH   8   9
ATOM      9  C   UNL A   1      37.716  33.623  36.543  1.00  0.00     0.338 C 
ATOM     10  O   UNL A   1      38.623  34.375  36.867  1.00  0.00    -0.246 OA
BRANCH   9  11
ATOM     11  C   UNL A   1      37.119  33.578  35.161  1.00  0.00     0.067 C 
ATOM     12  C   UNL A   1      35.776  33.716  35.022  1.00  0.00     0.024 C 
BRANCH  12  13
ATOM     13  C   UNL A   1      34.985  33.930  33.784  1.00  0.00    -0.025 A 
ATOM     14  C   UNL A   1      34.045  34.628  31.239  1.00  0.00     0.067 A 
ATOM     15  C   UNL A   1      34.328  33.297  31.529  1.00  0.00     0.021 A 
ATOM     16  C   UNL A   1      34.096  35.595  32.243  1.00  0.00     0.021 A 
ATOM     17  C   UNL A   1      34.746  32.949  32.815  1.00  0.00     0.009 A 
ATOM     18  C   UNL A   1      34.558  35.240  33.514  1.00  0.00     0.009 A 
BRANCH  14  19
ATOM     19  S   UNL A   1      33.777  35.119  29.556  1.00  0.00     0.175 S 
ATOM     20  C   UNL A   1      35.196  34.497  28.705  1.00  0.00     0.163 C 
ATOM     21  O   UNL A   1      33.827  36.569  29.505  1.00  0.00    -0.224 OA
ATOM     22  O   UNL A   1      32.609  34.406  29.074  1.00  0.00    -0.224 OA
ENDBRANCH  14  19
ENDBRANCH  12  13
BRANCH  11  23
ATOM     23  C   UNL A   1      38.043  33.404  34.020  1.00  0.00    -0.010 A 
ATOM     24  C   UNL A   1      38.618  34.531  33.402  1.00  0.00     0.009 A 
ATOM     25  C   UNL A   1      38.455  32.131  33.616  1.00  0.00     0.024 A 
ATOM     26  C   UNL A   1      39.583  34.397  32.405  1.00  0.00     0.002 A 
ATOM     27  C   UNL A   1      39.442  32.004  32.637  1.00  0.00     0.018 A 
ATOM     28  C   UNL A   1      40.003  33.127  32.027  1.00  0.00     0.016 A 
ATOM     29  Br  UNL A   1      40.074  30.285  32.170  1.00  0.00    -0.051 Br
ENDBRANCH  11  23
ENDBRANCH   9  11
ENDBRANCH   8   9
ENDBRANCH   7   8
ENDBRANCH   6   7
ENDBRANCH   5   6
ENDBRANCH   4   5
ENDBRANCH   3   4
ENDBRANCH   2   3
ENDBRANCH   1   2
BRANCH   1  30
ATOM     30  C   UNL A   1      41.846  33.020  43.097  1.00  0.00     0.188 C 
BRANCH  30  31
ATOM     31  O   UNL A   1      41.295  34.327  43.032  1.00  0.00    -0.376 OA
BRANCH  31  32
ATOM     32  C   UNL A   1      41.131  34.912  41.753  1.00  0.00     0.202 C 
BRANCH  32  33
ATOM     33  C   UNL A   1      42.347  35.640  41.163  1.00  0.00     0.261 C 
BRANCH  33  34
ATOM     34  O   UNL A   1      42.766  35.216  39.858  1.00  0.00    -0.460 OA
BRANCH  34  35
ATOM     35  C   UNL A   1      42.743  36.140  38.871  1.00  0.00     0.338 C 
ATOM     36  O   UNL A   1      42.739  37.353  39.005  1.00  0.00    -0.246 OA
BRANCH  35  37
ATOM     37  C   UNL A   1      42.930  35.426  37.591  1.00  0.00     0.060 A 
ATOM     38  C   UNL A   1      41.813  35.149  36.790  1.00  0.00     0.016 A 
ATOM     39  C   UNL A   1      44.211  35.065  37.169  1.00  0.00     0.016 A 
ATOM     40  C   UNL A   1      41.974  34.487  35.573  1.00  0.00     0.010 A 
ATOM     41  C   UNL A   1      44.368  34.378  35.963  1.00  0.00     0.010 A 
ATOM     42  C   UNL A   1      43.248  34.060  35.173  1.00  0.00    -0.014 A 
BRANCH  42  43
ATOM     43  C   UNL A   1      43.383  33.112  34.041  1.00  0.00     0.031 A 
ATOM     44  C   UNL A   1      43.461  33.678  32.649  1.00  0.00     0.074 A 
ATOM     45  C   UNL A   1      43.456  31.783  34.240  1.00  0.00     0.049 A 
ATOM     46  N   UNL A   1      43.524  33.059  31.500  1.00  0.00    -0.248 NA
ATOM     47  C   UNL A   1      43.461  35.145  32.545  1.00  0.00     0.031 C 
ATOM     48  C   UNL A   1      43.440  31.123  35.544  1.00  0.00     0.029 A 
ATOM     49  N   UNL A   1      43.550  30.751  33.341  1.00  0.00    -0.354 N 
ATOM     50  C   UNL A   1      43.565  34.059  30.534  1.00  0.00     0.074 A 
ATOM     51  C   UNL A   1      43.478  35.323  31.234  1.00  0.00     0.031 C 
ATOM     52  C   UNL A   1      43.513  29.793  35.359  1.00  0.00     0.029 A 
ATOM     53  C   UNL A   1      43.534  29.506  33.924  1.00  0.00     0.049 A 
ATOM     54  H   UNL A   1      43.622  30.889  32.368  1.00  0.00     0.167 HD
ATOM     55  C   UNL A   1      43.672  33.933  29.189  1.00  0.00     0.034 A 
ATOM     56  C   UNL A   1      43.508  28.278  33.365  1.00  0.00     0.034 A 
ATOM     57  C   UNL A   1      43.741  32.664  28.509  1.00  0.00     0.049 A 
ATOM     58  C   UNL A   1      43.529  28.161  31.856  1.00  0.00     0.074 A 
ATOM     59  C   UNL A   1      43.867  32.421  27.153  1.00  0.00     0.029 A 
ATOM     60  N   UNL A   1      43.670  31.423  29.129  1.00  0.00    -0.354 N 
ATOM     61  N   UNL A   1      43.580  29.113  30.952  1.00  0.00    -0.248 NA
ATOM     62  C   UNL A   1      43.498  26.804  31.295  1.00  0.00     0.031 C 
ATOM     63  C   UNL A   1      43.783  31.040  26.947  1.00  0.00     0.029 A 
ATOM     64  C   UNL A   1      43.705  30.413  28.180  1.00  0.00     0.049 A 
ATOM     65  H   UNL A   1      43.604  31.281  30.101  1.00  0.00     0.167 HD
ATOM     66  C   UNL A   1      43.620  28.466  29.718  1.00  0.00     0.074 A 
ATOM     67  C   UNL A   1      43.603  27.045  29.997  1.00  0.00     0.031 C 
ATOM     68  C   UNL A   1      43.675  28.997  28.469  1.00  0.00     0.034 A 
BRANCH  55  69
ATOM     69  C   UNL A   1      43.657  35.203  28.371  1.00  0.00     0.023 A 
ATOM     70  C   UNL A   1      44.840  35.838  27.958  1.00  0.00     0.031 A 
ATOM     71  C   UNL A   1      42.433  35.805  28.024  1.00  0.00     0.131 A 
ATOM     72  C   UNL A   1      44.777  37.070  27.289  1.00  0.00     0.055 A 
ATOM     73  C   UNL A   1      42.376  36.986  27.283  1.00  0.00     0.041 A 
ATOM     74  F   UNL A   1      41.269  35.261  28.415  1.00  0.00    -0.206 F 
ATOM     75  C   UNL A   1      43.553  37.634  26.924  1.00  0.00     0.022 A 
BRANCH  72  76
ATOM     76  S   UNL A   1      46.315  38.003  27.044  1.00  0.00     0.124 S 
ATOM     77  O   UNL A   1      46.525  38.580  28.370  1.00  0.00    -0.237 OA
ATOM     78  O   UNL A   1      47.255  36.962  26.644  1.00  0.00    -0.237 OA
ATOM     79  O   UNL A   1      45.968  38.966  26.001  1.00  0.00    -0.744 OA
ENDBRANCH  72  76
ENDBRANCH  55  69
BRANCH  56  80
ATOM     80  C   UNL A   1      43.411  27.057  34.218  1.00  0.00     0.023 A 
ATOM     81  C   UNL A   1      44.549  26.307  34.553  1.00  0.00     0.031 A 
ATOM     82  C   UNL A   1      42.160  26.589  34.663  1.00  0.00     0.131 A 
ATOM     83  C   UNL A   1      44.410  25.107  35.269  1.00  0.00     0.055 A 
ATOM     84  C   UNL A   1      42.035  25.426  35.426  1.00  0.00     0.041 A 
ATOM     85  F   UNL A   1      41.037  27.261  34.365  1.00  0.00    -0.206 F 
ATOM     86  C   UNL A   1      43.164  24.670  35.722  1.00  0.00     0.022 A 
BRANCH  83  87
ATOM     87  S   UNL A   1      45.878  24.069  35.519  1.00  0.00     0.124 S 
ATOM     88  O   UNL A   1      46.697  24.917  36.378  1.00  0.00    -0.237 OA
ATOM     89  O   UNL A   1      45.306  22.882  36.144  1.00  0.00    -0.237 OA
ATOM     90  O   UNL A   1      46.389  23.873  34.164  1.00  0.00    -0.744 OA
ENDBRANCH  83  87
ENDBRANCH  56  80
BRANCH  68  91
ATOM     91  C   UNL A   1      43.772  28.033  27.309  1.00  0.00     0.023 A 
ATOM     92  C   UNL A   1      45.009  27.563  26.832  1.00  0.00     0.031 A 
ATOM     93  C   UNL A   1      42.605  27.578  26.667  1.00  0.00     0.131 A 
ATOM     94  C   UNL A   1      45.052  26.719  25.711  1.00  0.00     0.055 A 
ATOM     95  C   UNL A   1      42.651  26.682  25.599  1.00  0.00     0.041 A 
ATOM     96  F   UNL A   1      41.395  27.995  27.074  1.00  0.00    -0.206 F 
ATOM     97  C   UNL A   1      43.881  26.259  25.105  1.00  0.00     0.022 A 
BRANCH  94  98
ATOM     98  S   UNL A   1      46.666  26.315  24.986  1.00  0.00     0.124 S 
ATOM     99  O   UNL A   1      47.549  26.413  26.143  1.00  0.00    -0.237 OA
ATOM    100  O   UNL A   1      46.446  24.971  24.464  1.00  0.00    -0.237 OA
ATOM    101  O   UNL A   1      46.855  27.351  23.972  1.00  0.00    -0.744 OA
ENDBRANCH  94  98
ENDBRANCH  68  91
ENDBRANCH  42  43
ENDBRANCH  35  37
ENDBRANCH  34  35
ENDBRANCH  33  34
ENDBRANCH  32  33
ENDBRANCH  31  32
ENDBRANCH  30  31
ENDBRANCH   1  30
TORSDOF 26
ENDMDL
MODEL 3
REMARK VINA RESULT:      -6.5      5.985     11.025
REMARK SMILES CS(=O)(=O)c1ccc(/C=C(/C(=O)OCCOCCOCCOCCOC(=O)c2ccc(-c3c4nc(c(-c5cc(S(=O)(=O)[O-])ccc5F)c5ccc([nH]5)c(-c5cc(S(=O)(=O)[O-])ccc5F)c5nc(c(-c6cc(S(=O)(=O)[O-])ccc6F)c6ccc3[nH]6)C=C5)C=C4)cc2)c2cccc(Br)c2)cc1
REMARK SMILES IDX 20 1 19 2 18 3 17 4 16 5 15 6 14 7 13 8 11 9 12 10 10 11
REMARK SMILES IDX 9 12 8 13 5 14 6 15 99 16 7 17 98 18 2 19 1 20 3 21 4 22
REMARK SMILES IDX 91 23 92 24 97 25 93 26 95 27 94 28 96 29 21 30 22 31 23 32
REMARK SMILES IDX 24 33 25 34 26 35 27 36 28 37 29 38 90 39 30 40 89 41 31 42
REMARK SMILES IDX 32 43 33 44 83 45 34 46 88 47 82 48 84 49 35 50 87 51 81 52
REMARK SMILES IDX 80 53 36 55 68 56 48 57 67 58 49 59 52 60 66 61 85 62 50 63
REMARK SMILES IDX 51 64 65 66 86 67 53 68 37 69 38 70 46 71 39 72 45 73 47 74
REMARK SMILES IDX 44 75 40 76 41 77 42 78 43 79 69 80 70 81 78 82 71 83 77 84
REMARK SMILES IDX 79 85 76 86 72 87 73 88 74 89 75 90 54 91 55 92 63 93 56 94
REMARK SMILES IDX 62 95 64 96 61 97 57 98 58 99 59 100 60 101
REMARK H PARENT 84 54 52 65
REMARK Flexibility Score: inf
ROOT
ATOM      1  C   UNL A   1      45.570  41.882  30.843  1.00  0.00     0.188 C 
ENDROOT
BRANCH   1   2
ATOM      2  O   UNL A   1      44.470  42.418  31.571  1.00  0.00    -0.377 OA
BRANCH   2   3
ATOM      3  C   UNL A   1      43.358  41.590  31.857  1.00  0.00     0.188 C 
BRANCH   3   4
ATOM      4  C   UNL A   1      41.941  42.143  31.583  1.00  0.00     0.188 C 
BRANCH   4   5
ATOM      5  O   UNL A   1      41.061  41.194  31.013  1.00  0.00    -0.376 OA
BRANCH   5   6
ATOM      6  C   UNL A   1      40.919  41.174  29.604  1.00  0.00     0.202 C 
BRANCH   6   7
ATOM      7  C   UNL A   1      41.783  40.216  28.767  1.00  0.00     0.261 C 
BRANCH   7   8
ATOM      8  O   UNL A   1      42.425  40.773  27.609  1.00  0.00    -0.460 OA
BRANCH   8   9
ATOM      9  C   UNL A   1      41.789  40.666  26.419  1.00  0.00     0.338 C 
ATOM     10  O   UNL A   1      40.694  40.153  26.245  1.00  0.00    -0.246 OA
BRANCH   9  11
ATOM     11  C   UNL A   1      42.546  41.410  25.350  1.00  0.00     0.067 C 
ATOM     12  C   UNL A   1      41.915  41.707  24.186  1.00  0.00     0.024 C 
BRANCH  12  13
ATOM     13  C   UNL A   1      42.354  42.609  23.092  1.00  0.00    -0.025 A 
ATOM     14  C   UNL A   1      43.712  43.916  21.020  1.00  0.00     0.067 A 
ATOM     15  C   UNL A   1      42.581  43.158  20.733  1.00  0.00     0.021 A 
ATOM     16  C   UNL A   1      44.095  44.141  22.342  1.00  0.00     0.021 A 
ATOM     17  C   UNL A   1      41.880  42.552  21.777  1.00  0.00     0.009 A 
ATOM     18  C   UNL A   1      43.409  43.492  23.374  1.00  0.00     0.009 A 
BRANCH  14  19
ATOM     19  S   UNL A   1      44.759  44.462  19.695  1.00  0.00     0.175 S 
ATOM     20  C   UNL A   1      43.706  44.403  18.276  1.00  0.00     0.163 C 
ATOM     21  O   UNL A   1      45.802  43.468  19.518  1.00  0.00    -0.224 OA
ATOM     22  O   UNL A   1      45.099  45.849  19.951  1.00  0.00    -0.224 OA
ENDBRANCH  14  19
ENDBRANCH  12  13
BRANCH  11  23
ATOM     23  C   UNL A   1      43.942  41.798  25.643  1.00  0.00    -0.010 A 
ATOM     24  C   UNL A   1      44.991  40.889  25.397  1.00  0.00     0.009 A 
ATOM     25  C   UNL A   1      44.259  43.098  26.046  1.00  0.00     0.024 A 
ATOM     26  C   UNL A   1      46.325  41.266  25.548  1.00  0.00     0.002 A 
ATOM     27  C   UNL A   1      45.597  43.476  26.169  1.00  0.00     0.018 A 
ATOM     28  C   UNL A   1      46.629  42.567  25.928  1.00  0.00     0.016 A 
ATOM     29  Br  UNL A   1      46.023  45.264  26.610  1.00  0.00    -0.051 Br
ENDBRANCH  11  23
ENDBRANCH   9  11
ENDBRANCH   8   9
ENDBRANCH   7   8
ENDBRANCH   6   7
ENDBRANCH   5   6
ENDBRANCH   4   5
ENDBRANCH   3   4
ENDBRANCH   2   3
ENDBRANCH   1   2
BRANCH   1  30
ATOM     30  C   UNL A   1      46.853  41.393  31.559  1.00  0.00     0.188 C 
BRANCH  30  31
ATOM     31  O   UNL A   1      47.741  40.632  30.754  1.00  0.00    -0.376 OA
BRANCH  31  32
ATOM     32  C   UNL A   1      47.604  39.223  30.771  1.00  0.00     0.202 C 
BRANCH  32  33
ATOM     33  C   UNL A   1      46.176  38.665  30.846  1.00  0.00     0.261 C 
BRANCH  33  34
ATOM     34  O   UNL A   1      46.014  37.290  30.471  1.00  0.00    -0.460 OA
BRANCH  34  35
ATOM     35  C   UNL A   1      46.176  36.362  31.441  1.00  0.00     0.338 C 
ATOM     36  O   UNL A   1      46.420  36.571  32.618  1.00  0.00    -0.246 OA
BRANCH  35  37
ATOM     37  C   UNL A   1      45.804  35.053  30.867  1.00  0.00     0.060 A 
ATOM     38  C   UNL A   1      45.087  35.010  29.663  1.00  0.00     0.016 A 
ATOM     39  C   UNL A   1      46.195  33.871  31.500  1.00  0.00     0.016 A 
ATOM     40  C   UNL A   1      44.739  33.782  29.101  1.00  0.00     0.010 A 
ATOM     41  C   UNL A   1      45.823  32.642  30.950  1.00  0.00     0.010 A 
ATOM     42  C   UNL A   1      45.068  32.592  29.765  1.00  0.00    -0.014 A 
BRANCH  42  43
ATOM     43  C   UNL A   1      44.453  31.314  29.329  1.00  0.00     0.031 A 
ATOM     44  C   UNL A   1      43.041  31.025  29.760  1.00  0.00     0.074 A 
ATOM     45  C   UNL A   1      45.120  30.440  28.555  1.00  0.00     0.049 A 
ATOM     46  N   UNL A   1      42.308  29.962  29.557  1.00  0.00    -0.248 NA
ATOM     47  C   UNL A   1      42.369  32.083  30.530  1.00  0.00     0.031 C 
ATOM     48  C   UNL A   1      46.473  30.633  28.036  1.00  0.00     0.029 A 
ATOM     49  N   UNL A   1      44.749  29.209  28.076  1.00  0.00    -0.354 N 
ATOM     50  C   UNL A   1      41.091  30.218  30.179  1.00  0.00     0.074 A 
ATOM     51  C   UNL A   1      41.202  31.521  30.800  1.00  0.00     0.031 C 
ATOM     52  C   UNL A   1      46.822  29.551  27.318  1.00  0.00     0.029 A 
ATOM     53  C   UNL A   1      45.736  28.571  27.362  1.00  0.00     0.049 A 
ATOM     54  H   UNL A   1      43.858  28.818  28.229  1.00  0.00     0.167 HD
ATOM     55  C   UNL A   1      39.982  29.440  30.222  1.00  0.00     0.034 A 
ATOM     56  C   UNL A   1      45.771  27.330  26.835  1.00  0.00     0.034 A 
ATOM     57  C   UNL A   1      39.897  28.137  29.611  1.00  0.00     0.049 A 
ATOM     58  C   UNL A   1      44.557  26.439  26.979  1.00  0.00     0.074 A 
ATOM     59  C   UNL A   1      38.818  27.271  29.579  1.00  0.00     0.029 A 
ATOM     60  N   UNL A   1      40.935  27.502  28.941  1.00  0.00    -0.354 N 
ATOM     61  N   UNL A   1      43.406  26.695  27.559  1.00  0.00    -0.248 NA
ATOM     62  C   UNL A   1      44.645  25.096  26.390  1.00  0.00     0.031 C 
ATOM     63  C   UNL A   1      39.231  26.082  28.969  1.00  0.00     0.029 A 
ATOM     64  C   UNL A   1      40.536  26.239  28.530  1.00  0.00     0.049 A 
ATOM     65  H   UNL A   1      41.825  27.892  28.780  1.00  0.00     0.167 HD
ATOM     66  C   UNL A   1      42.623  25.556  27.374  1.00  0.00     0.074 A 
ATOM     67  C   UNL A   1      43.429  24.621  26.616  1.00  0.00     0.031 C 
ATOM     68  C   UNL A   1      41.353  25.309  27.785  1.00  0.00     0.034 A 
BRANCH  55  69
ATOM     69  C   UNL A   1      38.801  29.958  31.009  1.00  0.00     0.023 A 
ATOM     70  C   UNL A   1      37.840  30.809  30.437  1.00  0.00     0.031 A 
ATOM     71  C   UNL A   1      38.653  29.619  32.367  1.00  0.00     0.131 A 
ATOM     72  C   UNL A   1      36.819  31.348  31.235  1.00  0.00     0.055 A 
ATOM     73  C   UNL A   1      37.586  30.089  33.132  1.00  0.00     0.041 A 
ATOM     74  F   UNL A   1      39.556  28.833  32.977  1.00  0.00    -0.206 F 
ATOM     75  C   UNL A   1      36.669  30.972  32.571  1.00  0.00     0.022 A 
BRANCH  72  76
ATOM     76  S   UNL A   1      35.786  32.670  30.543  1.00  0.00     0.124 S 
ATOM     77  O   UNL A   1      36.768  33.451  29.793  1.00  0.00    -0.237 OA
ATOM     78  O   UNL A   1      34.816  31.928  29.747  1.00  0.00    -0.237 OA
ATOM     79  O   UNL A   1      35.245  33.336  31.726  1.00  0.00    -0.744 OA
ENDBRANCH  72  76
ENDBRANCH  55  69
BRANCH  56  80
ATOM     80  C   UNL A   1      47.005  26.826  26.163  1.00  0.00     0.023 A 
ATOM     81  C   UNL A   1      48.040  26.220  26.893  1.00  0.00     0.031 A 
ATOM     82  C   UNL A   1      47.192  26.998  24.779  1.00  0.00     0.131 A 
ATOM     83  C   UNL A   1      49.231  25.852  26.247  1.00  0.00     0.055 A 
ATOM     84  C   UNL A   1      48.355  26.576  24.131  1.00  0.00     0.041 A 
ATOM     85  F   UNL A   1      46.240  27.580  24.031  1.00  0.00    -0.206 F 
ATOM     86  C   UNL A   1      49.389  26.011  24.869  1.00  0.00     0.022 A 
BRANCH  83  87
ATOM     87  S   UNL A   1      50.615  25.249  27.253  1.00  0.00     0.124 S 
ATOM     88  O   UNL A   1      49.981  24.183  28.020  1.00  0.00    -0.237 OA
ATOM     89  O   UNL A   1      51.569  24.827  26.233  1.00  0.00    -0.237 OA
ATOM     90  O   UNL A   1      51.011  26.425  28.025  1.00  0.00    -0.744 OA
ENDBRANCH  83  87
ENDBRANCH  56  80
BRANCH  68  91
ATOM     91  C   UNL A   1      40.736  23.990  27.377  1.00  0.00     0.023 A 
ATOM     92  C   UNL A   1      39.623  23.922  26.519  1.00  0.00     0.031 A 
ATOM     93  C   UNL A   1      41.270  22.780  27.859  1.00  0.00     0.131 A 
ATOM     94  C   UNL A   1      39.046  22.678  26.220  1.00  0.00     0.055 A 
ATOM     95  C   UNL A   1      40.736  21.543  27.499  1.00  0.00     0.041 A 
ATOM     96  F   UNL A   1      42.329  22.782  28.685  1.00  0.00    -0.206 F 
ATOM     97  C   UNL A   1      39.608  21.487  26.687  1.00  0.00     0.022 A 
BRANCH  94  98
ATOM     98  S   UNL A   1      37.484  22.641  25.298  1.00  0.00     0.124 S 
ATOM     99  O   UNL A   1      37.713  21.549  24.358  1.00  0.00    -0.237 OA
ATOM    100  O   UNL A   1      36.506  22.383  26.349  1.00  0.00    -0.237 OA
ATOM    101  O   UNL A   1      37.410  23.972  24.696  1.00  0.00    -0.744 OA
ENDBRANCH  94  98
ENDBRANCH  68  91
ENDBRANCH  42  43
ENDBRANCH  35  37
ENDBRANCH  34  35
ENDBRANCH  33  34
ENDBRANCH  32  33
ENDBRANCH  31  32
ENDBRANCH  30  31
ENDBRANCH   1  30
TORSDOF 26
ENDMDL
