MODEL 1
REMARK VINA RESULT:      -8.9      0.000      0.000
REMARK SMILES COc1ccc2c(c1)c(Cc1nc(-c3ccc(C(=O)OCCOCCOCCOCCOC(=O)c4ccc(-c5c6nc(c(-c7cc(S(=O)(=O)[O-])ccc7F)c7ccc([nH]7)c(-c7cc(S(=O)(=O)[O-])ccc7F)c7nc(c(-c8cc(S(=O)(=O)[O-])ccc8F)c8ccc5[nH]8)C=C7)C=C6)cc4)cc3)cs1)c(C)n2C(=O)c1ccc(Cl)cc1
REMARK SMILES IDX 25 1 24 2 23 3 22 4 21 5 20 6 18 7 19 8 17 9 14 10 15 11
REMARK SMILES IDX 99 12 16 13 98 14 13 15 11 16 12 17 101 18 100 19 10 20 9 21
REMARK SMILES IDX 3 22 4 23 8 24 5 25 7 26 6 27 104 28 102 29 103 30 2 31 1 32
REMARK SMILES IDX 105 33 106 34 107 35 108 36 113 37 109 38 112 39 110 40
REMARK SMILES IDX 111 41 26 42 27 43 28 44 29 45 30 46 31 47 32 48 33 49 34 50
REMARK SMILES IDX 35 51 36 52 97 53 37 54 96 55 38 56 39 57 40 58 90 59 41 60
REMARK SMILES IDX 95 61 89 62 91 63 42 64 94 65 88 66 87 67 43 69 75 70 55 71
REMARK SMILES IDX 74 72 56 73 59 74 73 75 92 76 57 77 58 78 72 80 93 81 60 82
REMARK SMILES IDX 44 83 45 84 53 85 46 86 52 87 54 88 51 89 47 90 48 91 49 92
REMARK SMILES IDX 50 93 76 94 77 95 85 96 78 97 84 98 86 99 83 100 79 101
REMARK SMILES IDX 80 102 81 103 82 104 61 105 62 106 70 107 63 108 69 109
REMARK SMILES IDX 71 110 68 111 64 112 65 113 66 114 67 115
REMARK H PARENT 91 68 59 79
REMARK Flexibility Score: inf
ROOT
ATOM      1  C   UNL A   1      34.581  35.040  32.980  1.00  0.00     0.188 C 
ENDROOT
BRANCH   1   2
ATOM      2  C   UNL A   1      33.317  35.782  32.521  1.00  0.00     0.188 C 
BRANCH   2   3
ATOM      3  O   UNL A   1      33.413  36.311  31.212  1.00  0.00    -0.376 OA
BRANCH   3   4
ATOM      4  C   UNL A   1      33.061  35.496  30.101  1.00  0.00     0.202 C 
BRANCH   4   5
ATOM      5  C   UNL A   1      34.138  34.731  29.305  1.00  0.00     0.261 C 
BRANCH   5   6
ATOM      6  O   UNL A   1      33.658  33.749  28.381  1.00  0.00    -0.460 OA
BRANCH   6   7
ATOM      7  C   UNL A   1      34.148  32.498  28.497  1.00  0.00     0.338 C 
ATOM      8  O   UNL A   1      34.869  32.068  29.380  1.00  0.00    -0.246 OA
BRANCH   7   9
ATOM      9  C   UNL A   1      33.408  31.648  27.535  1.00  0.00     0.060 A 
ATOM     10  C   UNL A   1      31.976  29.843  25.941  1.00  0.00     0.001 A 
ATOM     11  C   UNL A   1      33.211  29.472  26.487  1.00  0.00     0.011 A 
ATOM     12  C   UNL A   1      31.463  31.123  26.194  1.00  0.00     0.011 A 
ATOM     13  C   UNL A   1      33.935  30.379  27.261  1.00  0.00     0.016 A 
ATOM     14  C   UNL A   1      32.166  32.020  27.008  1.00  0.00     0.016 A 
BRANCH  10  15
ATOM     15  C   UNL A   1      31.314  28.958  25.002  1.00  0.00     0.081 A 
ATOM     16  C   UNL A   1      30.342  27.040  24.505  1.00  0.00     0.098 A 
ATOM     17  N   UNL A   1      31.244  27.612  25.270  1.00  0.00    -0.241 NA
ATOM     18  S   UNL A   1      29.738  28.033  23.238  1.00  0.00    -0.126 S 
ATOM     19  C   UNL A   1      30.631  29.361  23.872  1.00  0.00     0.095 A 
BRANCH  16  20
ATOM     20  C   UNL A   1      29.868  25.629  24.702  1.00  0.00     0.105 C 
BRANCH  20  21
ATOM     21  C   UNL A   1      30.982  24.606  24.602  1.00  0.00    -0.012 A 
ATOM     22  C   UNL A   1      33.088  24.865  21.417  1.00  0.00     0.119 A 
ATOM     23  C   UNL A   1      33.840  23.726  21.634  1.00  0.00     0.048 A 
ATOM     24  C   UNL A   1      32.123  25.238  22.348  1.00  0.00     0.057 A 
ATOM     25  C   UNL A   1      33.632  22.946  22.778  1.00  0.00     0.031 A 
ATOM     26  C   UNL A   1      31.910  24.486  23.527  1.00  0.00     0.008 A 
ATOM     27  C   UNL A   1      32.699  23.355  23.759  1.00  0.00     0.057 A 
ATOM     28  N   UNL A   1      32.346  22.827  25.017  1.00  0.00    -0.280 N 
ATOM     29  C   UNL A   1      31.256  23.577  25.498  1.00  0.00     0.028 A 
ATOM     30  C   UNL A   1      30.510  23.318  26.770  1.00  0.00     0.065 C 
BRANCH  22  31
ATOM     31  O   UNL A   1      33.246  25.705  20.351  1.00  0.00    -0.497 OA
ATOM     32  C   UNL A   1      32.291  25.527  19.310  1.00  0.00     0.278 C 
ENDBRANCH  22  31
BRANCH  28  33
ATOM     33  C   UNL A   1      32.971  21.714  25.661  1.00  0.00     0.262 C 
ATOM     34  O   UNL A   1      33.305  21.808  26.841  1.00  0.00    -0.268 OA
BRANCH  33  35
ATOM     35  C   UNL A   1      33.226  20.398  25.045  1.00  0.00     0.040 A 
ATOM     36  C   UNL A   1      32.180  19.614  24.547  1.00  0.00     0.015 A 
ATOM     37  C   UNL A   1      34.548  19.940  24.996  1.00  0.00     0.015 A 
ATOM     38  C   UNL A   1      32.453  18.325  24.080  1.00  0.00     0.021 A 
ATOM     39  C   UNL A   1      34.816  18.656  24.519  1.00  0.00     0.021 A 
ATOM     40  C   UNL A   1      33.767  17.848  24.081  1.00  0.00     0.041 A 
ATOM     41  Cl  UNL A   1      34.095  16.242  23.557  1.00  0.00    -0.084 Cl
ENDBRANCH  33  35
ENDBRANCH  28  33
ENDBRANCH  20  21
ENDBRANCH  16  20
ENDBRANCH  10  15
ENDBRANCH   7   9
ENDBRANCH   6   7
ENDBRANCH   5   6
ENDBRANCH   4   5
ENDBRANCH   3   4
ENDBRANCH   2   3
ENDBRANCH   1   2
BRANCH   1  42
ATOM     42  O   UNL A   1      34.576  33.634  32.848  1.00  0.00    -0.377 OA
BRANCH  42  43
ATOM     43  C   UNL A   1      35.783  32.986  32.448  1.00  0.00     0.188 C 
BRANCH  43  44
ATOM     44  C   UNL A   1      36.296  31.716  33.166  1.00  0.00     0.188 C 
BRANCH  44  45
ATOM     45  O   UNL A   1      36.789  31.968  34.472  1.00  0.00    -0.376 OA
BRANCH  45  46
ATOM     46  C   UNL A   1      38.063  31.430  34.783  1.00  0.00     0.202 C 
BRANCH  46  47
ATOM     47  C   UNL A   1      39.163  31.574  33.717  1.00  0.00     0.261 C 
BRANCH  47  48
ATOM     48  O   UNL A   1      39.943  32.774  33.831  1.00  0.00    -0.460 OA
BRANCH  48  49
ATOM     49  C   UNL A   1      41.025  32.946  33.029  1.00  0.00     0.338 C 
ATOM     50  O   UNL A   1      41.254  32.377  31.989  1.00  0.00    -0.246 OA
BRANCH  49  51
ATOM     51  C   UNL A   1      41.666  34.208  33.505  1.00  0.00     0.060 A 
ATOM     52  C   UNL A   1      43.039  34.429  33.359  1.00  0.00     0.016 A 
ATOM     53  C   UNL A   1      40.911  35.002  34.381  1.00  0.00     0.016 A 
ATOM     54  C   UNL A   1      43.669  35.354  34.190  1.00  0.00     0.010 A 
ATOM     55  C   UNL A   1      41.548  35.923  35.215  1.00  0.00     0.010 A 
ATOM     56  C   UNL A   1      42.935  36.077  35.152  1.00  0.00    -0.014 A 
BRANCH  56  57
ATOM     57  C   UNL A   1      43.630  37.169  35.856  1.00  0.00     0.031 A 
ATOM     58  C   UNL A   1      44.067  38.234  34.911  1.00  0.00     0.074 A 
ATOM     59  C   UNL A   1      43.727  37.382  37.187  1.00  0.00     0.049 A 
ATOM     60  N   UNL A   1      45.262  38.658  34.658  1.00  0.00    -0.248 NA
ATOM     61  C   UNL A   1      43.027  38.778  34.021  1.00  0.00     0.031 C 
ATOM     62  C   UNL A   1      43.008  36.663  38.238  1.00  0.00     0.029 A 
ATOM     63  N   UNL A   1      44.397  38.363  37.884  1.00  0.00    -0.354 N 
ATOM     64  C   UNL A   1      45.095  39.666  33.708  1.00  0.00     0.074 A 
ATOM     65  C   UNL A   1      43.749  39.549  33.213  1.00  0.00     0.031 C 
ATOM     66  C   UNL A   1      43.107  37.350  39.399  1.00  0.00     0.029 A 
ATOM     67  C   UNL A   1      43.981  38.498  39.204  1.00  0.00     0.049 A 
ATOM     68  H   UNL A   1      45.104  38.918  37.483  1.00  0.00     0.167 HD
ATOM     69  C   UNL A   1      45.975  40.695  33.587  1.00  0.00     0.034 A 
ATOM     70  C   UNL A   1      44.242  39.514  40.067  1.00  0.00     0.034 A 
ATOM     71  C   UNL A   1      47.202  40.433  34.278  1.00  0.00     0.049 A 
ATOM     72  C   UNL A   1      45.400  40.301  39.596  1.00  0.00     0.074 A 
ATOM     73  C   UNL A   1      48.371  39.756  34.027  1.00  0.00     0.029 A 
ATOM     74  N   UNL A   1      47.159  40.706  35.617  1.00  0.00    -0.354 N 
ATOM     75  N   UNL A   1      46.628  39.871  39.593  1.00  0.00    -0.248 NA
ATOM     76  C   UNL A   1      45.166  41.538  38.855  1.00  0.00     0.031 C 
ATOM     77  C   UNL A   1      48.980  39.523  35.292  1.00  0.00     0.029 A 
ATOM     78  C   UNL A   1      48.172  40.073  36.286  1.00  0.00     0.049 A 
ATOM     79  H   UNL A   1      46.487  41.285  36.046  1.00  0.00     0.167 HD
ATOM     80  C   UNL A   1      47.196  40.508  38.511  1.00  0.00     0.074 A 
ATOM     81  C   UNL A   1      46.336  41.646  38.224  1.00  0.00     0.031 C 
ATOM     82  C   UNL A   1      48.099  39.868  37.718  1.00  0.00     0.034 A 
BRANCH  69  83
ATOM     83  C   UNL A   1      45.567  42.106  33.220  1.00  0.00     0.023 A 
ATOM     84  C   UNL A   1      45.367  42.516  31.888  1.00  0.00     0.031 A 
ATOM     85  C   UNL A   1      45.124  43.004  34.209  1.00  0.00     0.131 A 
ATOM     86  C   UNL A   1      44.802  43.757  31.572  1.00  0.00     0.055 A 
ATOM     87  C   UNL A   1      44.489  44.214  33.896  1.00  0.00     0.041 A 
ATOM     88  F   UNL A   1      45.247  42.712  35.514  1.00  0.00    -0.206 F 
ATOM     89  C   UNL A   1      44.328  44.599  32.570  1.00  0.00     0.022 A 
BRANCH  86  90
ATOM     90  S   UNL A   1      44.667  44.278  29.840  1.00  0.00     0.124 S 
ATOM     91  O   UNL A   1      46.059  44.543  29.495  1.00  0.00    -0.237 OA
ATOM     92  O   UNL A   1      44.074  43.094  29.222  1.00  0.00    -0.237 OA
ATOM     93  O   UNL A   1      43.791  45.445  29.902  1.00  0.00    -0.744 OA
ENDBRANCH  86  90
ENDBRANCH  69  83
BRANCH  70  94
ATOM     94  C   UNL A   1      43.333  40.065  41.104  1.00  0.00     0.023 A 
ATOM     95  C   UNL A   1      42.340  40.982  40.722  1.00  0.00     0.031 A 
ATOM     96  C   UNL A   1      43.620  39.958  42.477  1.00  0.00     0.131 A 
ATOM     97  C   UNL A   1      41.709  41.789  41.675  1.00  0.00     0.055 A 
ATOM     98  C   UNL A   1      42.976  40.756  43.433  1.00  0.00     0.041 A 
ATOM     99  F   UNL A   1      44.580  39.128  42.913  1.00  0.00    -0.206 F 
ATOM    100  C   UNL A   1      42.025  41.690  43.030  1.00  0.00     0.022 A 
BRANCH  97 101
ATOM    101  S   UNL A   1      40.525  43.054  41.144  1.00  0.00     0.124 S 
ATOM    102  O   UNL A   1      40.977  43.350  39.786  1.00  0.00    -0.237 OA
ATOM    103  O   UNL A   1      39.261  42.335  41.245  1.00  0.00    -0.237 OA
ATOM    104  O   UNL A   1      40.725  44.132  42.109  1.00  0.00    -0.744 OA
ENDBRANCH  97 101
ENDBRANCH  70  94
BRANCH  82 105
ATOM    105  C   UNL A   1      48.922  38.764  38.310  1.00  0.00     0.023 A 
ATOM    106  C   UNL A   1      50.253  39.083  38.625  1.00  0.00     0.031 A 
ATOM    107  C   UNL A   1      48.518  37.423  38.430  1.00  0.00     0.131 A 
ATOM    108  C   UNL A   1      51.155  38.081  38.984  1.00  0.00     0.055 A 
ATOM    109  C   UNL A   1      49.403  36.434  38.869  1.00  0.00     0.041 A 
ATOM    110  F   UNL A   1      47.292  37.024  38.060  1.00  0.00    -0.206 F 
ATOM    111  C   UNL A   1      50.734  36.757  39.129  1.00  0.00     0.022 A 
BRANCH 108 112
ATOM    112  S   UNL A   1      52.922  38.456  39.106  1.00  0.00     0.124 S 
ATOM    113  O   UNL A   1      53.018  39.076  40.424  1.00  0.00    -0.237 OA
ATOM    114  O   UNL A   1      53.529  37.132  38.990  1.00  0.00    -0.237 OA
ATOM    115  O   UNL A   1      53.173  39.346  37.976  1.00  0.00    -0.744 OA
ENDBRANCH 108 112
ENDBRANCH  82 105
ENDBRANCH  56  57
ENDBRANCH  49  51
ENDBRANCH  48  49
ENDBRANCH  47  48
ENDBRANCH  46  47
ENDBRANCH  45  46
ENDBRANCH  44  45
ENDBRANCH  43  44
ENDBRANCH  42  43
ENDBRANCH   1  42
TORSDOF 29
ENDMDL
MODEL 2
REMARK VINA RESULT:      -8.6      4.435      8.261
REMARK SMILES COc1ccc2c(c1)c(Cc1nc(-c3ccc(C(=O)OCCOCCOCCOCCOC(=O)c4ccc(-c5c6nc(c(-c7cc(S(=O)(=O)[O-])ccc7F)c7ccc([nH]7)c(-c7cc(S(=O)(=O)[O-])ccc7F)c7nc(c(-c8cc(S(=O)(=O)[O-])ccc8F)c8ccc5[nH]8)C=C7)C=C6)cc4)cc3)cs1)c(C)n2C(=O)c1ccc(Cl)cc1
REMARK SMILES IDX 25 1 24 2 23 3 22 4 21 5 20 6 18 7 19 8 17 9 14 10 15 11
REMARK SMILES IDX 99 12 16 13 98 14 13 15 11 16 12 17 101 18 100 19 10 20 9 21
REMARK SMILES IDX 3 22 4 23 8 24 5 25 7 26 6 27 104 28 102 29 103 30 2 31 1 32
REMARK SMILES IDX 105 33 106 34 107 35 108 36 113 37 109 38 112 39 110 40
REMARK SMILES IDX 111 41 26 42 27 43 28 44 29 45 30 46 31 47 32 48 33 49 34 50
REMARK SMILES IDX 35 51 36 52 97 53 37 54 96 55 38 56 39 57 40 58 90 59 41 60
REMARK SMILES IDX 95 61 89 62 91 63 42 64 94 65 88 66 87 67 43 69 75 70 55 71
REMARK SMILES IDX 74 72 56 73 59 74 73 75 92 76 57 77 58 78 72 80 93 81 60 82
REMARK SMILES IDX 44 83 45 84 53 85 46 86 52 87 54 88 51 89 47 90 48 91 49 92
REMARK SMILES IDX 50 93 76 94 77 95 85 96 78 97 84 98 86 99 83 100 79 101
REMARK SMILES IDX 80 102 81 103 82 104 61 105 62 106 70 107 63 108 69 109
REMARK SMILES IDX 71 110 68 111 64 112 65 113 66 114 67 115
REMARK H PARENT 91 68 59 79
REMARK Flexibility Score: inf
ROOT
ATOM      1  C   UNL A   1      34.680  34.580  32.295  1.00  0.00     0.188 C 
ENDROOT
BRANCH   1   2
ATOM      2  C   UNL A   1      33.512  35.524  31.972  1.00  0.00     0.188 C 
BRANCH   2   3
ATOM      3  O   UNL A   1      33.428  35.876  30.604  1.00  0.00    -0.376 OA
BRANCH   3   4
ATOM      4  C   UNL A   1      33.294  34.853  29.626  1.00  0.00     0.202 C 
BRANCH   4   5
ATOM      5  C   UNL A   1      34.445  34.531  28.651  1.00  0.00     0.261 C 
BRANCH   5   6
ATOM      6  O   UNL A   1      34.199  33.476  27.716  1.00  0.00    -0.460 OA
BRANCH   6   7
ATOM      7  C   UNL A   1      35.047  32.428  27.728  1.00  0.00     0.338 C 
ATOM      8  O   UNL A   1      36.158  32.384  28.227  1.00  0.00    -0.246 OA
BRANCH   7   9
ATOM      9  C   UNL A   1      34.276  31.237  27.301  1.00  0.00     0.060 A 
ATOM     10  C   UNL A   1      32.772  28.930  26.787  1.00  0.00     0.001 A 
ATOM     11  C   UNL A   1      33.983  28.839  27.486  1.00  0.00     0.011 A 
ATOM     12  C   UNL A   1      32.320  30.181  26.344  1.00  0.00     0.011 A 
ATOM     13  C   UNL A   1      34.743  29.984  27.721  1.00  0.00     0.016 A 
ATOM     14  C   UNL A   1      33.058  31.339  26.618  1.00  0.00     0.016 A 
BRANCH  10  15
ATOM     15  C   UNL A   1      32.076  27.717  26.400  1.00  0.00     0.081 A 
ATOM     16  C   UNL A   1      31.756  25.539  26.545  1.00  0.00     0.098 A 
ATOM     17  N   UNL A   1      32.651  26.495  26.649  1.00  0.00    -0.241 NA
ATOM     18  S   UNL A   1      30.252  26.030  25.872  1.00  0.00    -0.126 S 
ATOM     19  C   UNL A   1      30.798  27.663  25.879  1.00  0.00     0.095 A 
BRANCH  16  20
ATOM     20  C   UNL A   1      32.010  24.121  26.971  1.00  0.00     0.105 C 
BRANCH  20  21
ATOM     21  C   UNL A   1      32.740  23.305  25.923  1.00  0.00    -0.012 A 
ATOM     22  C   UNL A   1      32.460  24.687  22.364  1.00  0.00     0.119 A 
ATOM     23  C   UNL A   1      33.092  23.630  21.737  1.00  0.00     0.048 A 
ATOM     24  C   UNL A   1      32.304  24.669  23.747  1.00  0.00     0.057 A 
ATOM     25  C   UNL A   1      33.567  22.544  22.481  1.00  0.00     0.031 A 
ATOM     26  C   UNL A   1      32.800  23.600  24.529  1.00  0.00     0.008 A 
ATOM     27  C   UNL A   1      33.470  22.550  23.892  1.00  0.00     0.057 A 
ATOM     28  N   UNL A   1      33.922  21.656  24.883  1.00  0.00    -0.280 N 
ATOM     29  C   UNL A   1      33.423  22.108  26.118  1.00  0.00     0.028 A 
ATOM     30  C   UNL A   1      33.596  21.419  27.436  1.00  0.00     0.065 C 
BRANCH  22  31
ATOM     31  O   UNL A   1      31.998  25.802  21.724  1.00  0.00    -0.497 OA
ATOM     32  C   UNL A   1      32.079  27.000  22.491  1.00  0.00     0.278 C 
ENDBRANCH  22  31
BRANCH  28  33
ATOM     33  C   UNL A   1      34.718  20.491  24.655  1.00  0.00     0.262 C 
ATOM     34  O   UNL A   1      35.927  20.611  24.468  1.00  0.00    -0.268 OA
BRANCH  33  35
ATOM     35  C   UNL A   1      34.227  19.100  24.665  1.00  0.00     0.040 A 
ATOM     36  C   UNL A   1      32.860  18.811  24.577  1.00  0.00     0.015 A 
ATOM     37  C   UNL A   1      35.167  18.071  24.793  1.00  0.00     0.015 A 
ATOM     38  C   UNL A   1      32.431  17.487  24.709  1.00  0.00     0.021 A 
ATOM     39  C   UNL A   1      34.734  16.750  24.914  1.00  0.00     0.021 A 
ATOM     40  C   UNL A   1      33.368  16.466  24.890  1.00  0.00     0.041 A 
ATOM     41  Cl  UNL A   1      32.835  14.844  25.106  1.00  0.00    -0.084 Cl
ENDBRANCH  33  35
ENDBRANCH  28  33
ENDBRANCH  20  21
ENDBRANCH  16  20
ENDBRANCH  10  15
ENDBRANCH   7   9
ENDBRANCH   6   7
ENDBRANCH   5   6
ENDBRANCH   4   5
ENDBRANCH   3   4
ENDBRANCH   2   3
ENDBRANCH   1   2
BRANCH   1  42
ATOM     42  O   UNL A   1      34.409  33.195  32.247  1.00  0.00    -0.377 OA
BRANCH  42  43
ATOM     43  C   UNL A   1      35.210  32.375  31.396  1.00  0.00     0.188 C 
BRANCH  43  44
ATOM     44  C   UNL A   1      35.806  31.036  31.889  1.00  0.00     0.188 C 
BRANCH  44  45
ATOM     45  O   UNL A   1      36.878  31.199  32.804  1.00  0.00    -0.376 OA
BRANCH  45  46
ATOM     46  C   UNL A   1      38.131  30.663  32.414  1.00  0.00     0.202 C 
BRANCH  46  47
ATOM     47  C   UNL A   1      38.780  31.250  31.149  1.00  0.00     0.261 C 
BRANCH  47  48
ATOM     48  O   UNL A   1      38.982  32.671  31.193  1.00  0.00    -0.460 OA
BRANCH  48  49
ATOM     49  C   UNL A   1      40.206  33.182  30.904  1.00  0.00     0.338 C 
ATOM     50  O   UNL A   1      40.563  33.658  29.854  1.00  0.00    -0.246 OA
BRANCH  49  51
ATOM     51  C   UNL A   1      40.878  33.356  32.227  1.00  0.00     0.060 A 
ATOM     52  C   UNL A   1      41.186  32.259  33.038  1.00  0.00     0.016 A 
ATOM     53  C   UNL A   1      40.886  34.653  32.759  1.00  0.00     0.016 A 
ATOM     54  C   UNL A   1      41.370  32.457  34.406  1.00  0.00     0.010 A 
ATOM     55  C   UNL A   1      41.064  34.846  34.131  1.00  0.00     0.010 A 
ATOM     56  C   UNL A   1      41.269  33.746  34.967  1.00  0.00    -0.014 A 
BRANCH  56  57
ATOM     57  C   UNL A   1      41.665  33.904  36.378  1.00  0.00     0.031 A 
ATOM     58  C   UNL A   1      40.489  33.808  37.287  1.00  0.00     0.074 A 
ATOM     59  C   UNL A   1      42.910  33.926  36.903  1.00  0.00     0.049 A 
ATOM     60  N   UNL A   1      40.021  34.687  38.110  1.00  0.00    -0.248 NA
ATOM     61  C   UNL A   1      39.639  32.615  37.123  1.00  0.00     0.031 C 
ATOM     62  C   UNL A   1      44.156  33.619  36.201  1.00  0.00     0.029 A 
ATOM     63  N   UNL A   1      43.323  34.109  38.204  1.00  0.00    -0.354 N 
ATOM     64  C   UNL A   1      38.922  34.073  38.711  1.00  0.00     0.074 A 
ATOM     65  C   UNL A   1      38.620  32.907  37.926  1.00  0.00     0.031 C 
ATOM     66  C   UNL A   1      45.144  33.430  37.105  1.00  0.00     0.029 A 
ATOM     67  C   UNL A   1      44.633  33.705  38.441  1.00  0.00     0.049 A 
ATOM     68  H   UNL A   1      42.744  34.491  38.902  1.00  0.00     0.167 HD
ATOM     69  C   UNL A   1      38.505  34.407  39.961  1.00  0.00     0.034 A 
ATOM     70  C   UNL A   1      45.248  33.510  39.635  1.00  0.00     0.034 A 
ATOM     71  C   UNL A   1      39.085  35.639  40.407  1.00  0.00     0.049 A 
ATOM     72  C   UNL A   1      44.503  34.192  40.713  1.00  0.00     0.074 A 
ATOM     73  C   UNL A   1      38.833  36.981  40.255  1.00  0.00     0.029 A 
ATOM     74  N   UNL A   1      40.343  35.508  40.928  1.00  0.00    -0.354 N 
ATOM     75  N   UNL A   1      44.439  35.484  40.857  1.00  0.00    -0.248 NA
ATOM     76  C   UNL A   1      43.571  33.422  41.532  1.00  0.00     0.031 C 
ATOM     77  C   UNL A   1      40.039  37.657  40.592  1.00  0.00     0.029 A 
ATOM     78  C   UNL A   1      40.997  36.710  40.952  1.00  0.00     0.049 A 
ATOM     79  H   UNL A   1      40.728  34.659  41.245  1.00  0.00     0.167 HD
ATOM     80  C   UNL A   1      43.196  35.691  41.416  1.00  0.00     0.074 A 
ATOM     81  C   UNL A   1      42.799  34.412  41.984  1.00  0.00     0.031 C 
ATOM     82  C   UNL A   1      42.441  36.765  41.061  1.00  0.00     0.034 A 
BRANCH  69  83
ATOM     83  C   UNL A   1      37.924  33.413  40.943  1.00  0.00     0.023 A 
ATOM     84  C   UNL A   1      38.674  32.348  41.479  1.00  0.00     0.031 A 
ATOM     85  C   UNL A   1      36.681  33.655  41.558  1.00  0.00     0.131 A 
ATOM     86  C   UNL A   1      38.193  31.558  42.529  1.00  0.00     0.055 A 
ATOM     87  C   UNL A   1      36.230  32.913  42.658  1.00  0.00     0.041 A 
ATOM     88  F   UNL A   1      35.887  34.654  41.142  1.00  0.00    -0.206 F 
ATOM     89  C   UNL A   1      36.986  31.854  43.148  1.00  0.00     0.022 A 
BRANCH  86  90
ATOM     90  S   UNL A   1      39.156  30.134  43.107  1.00  0.00     0.124 S 
ATOM     91  O   UNL A   1      38.359  29.013  42.621  1.00  0.00    -0.237 OA
ATOM     92  O   UNL A   1      40.433  30.347  42.430  1.00  0.00    -0.237 OA
ATOM     93  O   UNL A   1      39.190  30.311  44.556  1.00  0.00    -0.744 OA
ENDBRANCH  86  90
ENDBRANCH  69  83
BRANCH  70  94
ATOM     94  C   UNL A   1      46.259  32.474  39.964  1.00  0.00     0.023 A 
ATOM     95  C   UNL A   1      45.870  31.124  39.983  1.00  0.00     0.031 A 
ATOM     96  C   UNL A   1      47.493  32.799  40.558  1.00  0.00     0.131 A 
ATOM     97  C   UNL A   1      46.662  30.162  40.622  1.00  0.00     0.055 A 
ATOM     98  C   UNL A   1      48.291  31.832  41.184  1.00  0.00     0.041 A 
ATOM     99  F   UNL A   1      47.913  34.073  40.607  1.00  0.00    -0.206 F 
ATOM    100  C   UNL A   1      47.868  30.507  41.231  1.00  0.00     0.022 A 
BRANCH  97 101
ATOM    101  S   UNL A   1      46.077  28.451  40.746  1.00  0.00     0.124 S 
ATOM    102  O   UNL A   1      47.031  27.865  41.684  1.00  0.00    -0.237 OA
ATOM    103  O   UNL A   1      44.724  28.639  41.259  1.00  0.00    -0.237 OA
ATOM    104  O   UNL A   1      46.177  27.958  39.376  1.00  0.00    -0.744 OA
ENDBRANCH  97 101
ENDBRANCH  70  94
BRANCH  82 105
ATOM    105  C   UNL A   1      43.133  38.003  40.575  1.00  0.00     0.023 A 
ATOM    106  C   UNL A   1      43.352  39.008  41.532  1.00  0.00     0.031 A 
ATOM    107  C   UNL A   1      43.434  38.292  39.233  1.00  0.00     0.131 A 
ATOM    108  C   UNL A   1      43.798  40.271  41.142  1.00  0.00     0.055 A 
ATOM    109  C   UNL A   1      43.958  39.532  38.856  1.00  0.00     0.041 A 
ATOM    110  F   UNL A   1      43.166  37.420  38.250  1.00  0.00    -0.206 F 
ATOM    111  C   UNL A   1      44.123  40.536  39.809  1.00  0.00     0.022 A 
BRANCH 108 112
ATOM    112  S   UNL A   1      43.802  41.635  42.332  1.00  0.00     0.124 S 
ATOM    113  O   UNL A   1      45.154  42.168  42.190  1.00  0.00    -0.237 OA
ATOM    114  O   UNL A   1      42.734  42.493  41.824  1.00  0.00    -0.237 OA
ATOM    115  O   UNL A   1      43.515  40.990  43.610  1.00  0.00    -0.744 OA
ENDBRANCH 108 112
ENDBRANCH  82 105
ENDBRANCH  56  57
ENDBRANCH  49  51
ENDBRANCH  48  49
ENDBRANCH  47  48
ENDBRANCH  46  47
ENDBRANCH  45  46
ENDBRANCH  44  45
ENDBRANCH  43  44
ENDBRANCH  42  43
ENDBRANCH   1  42
TORSDOF 29
ENDMDL
MODEL 3
REMARK VINA RESULT:      -8.5      8.792     18.644
REMARK SMILES COc1ccc2c(c1)c(Cc1nc(-c3ccc(C(=O)OCCOCCOCCOCCOC(=O)c4ccc(-c5c6nc(c(-c7cc(S(=O)(=O)[O-])ccc7F)c7ccc([nH]7)c(-c7cc(S(=O)(=O)[O-])ccc7F)c7nc(c(-c8cc(S(=O)(=O)[O-])ccc8F)c8ccc5[nH]8)C=C7)C=C6)cc4)cc3)cs1)c(C)n2C(=O)c1ccc(Cl)cc1
REMARK SMILES IDX 25 1 24 2 23 3 22 4 21 5 20 6 18 7 19 8 17 9 14 10 15 11
REMARK SMILES IDX 99 12 16 13 98 14 13 15 11 16 12 17 101 18 100 19 10 20 9 21
REMARK SMILES IDX 3 22 4 23 8 24 5 25 7 26 6 27 104 28 102 29 103 30 2 31 1 32
REMARK SMILES IDX 105 33 106 34 107 35 108 36 113 37 109 38 112 39 110 40
REMARK SMILES IDX 111 41 26 42 27 43 28 44 29 45 30 46 31 47 32 48 33 49 34 50
REMARK SMILES IDX 35 51 36 52 97 53 37 54 96 55 38 56 39 57 40 58 90 59 41 60
REMARK SMILES IDX 95 61 89 62 91 63 42 64 94 65 88 66 87 67 43 69 75 70 55 71
REMARK SMILES IDX 74 72 56 73 59 74 73 75 92 76 57 77 58 78 72 80 93 81 60 82
REMARK SMILES IDX 44 83 45 84 53 85 46 86 52 87 54 88 51 89 47 90 48 91 49 92
REMARK SMILES IDX 50 93 76 94 77 95 85 96 78 97 84 98 86 99 83 100 79 101
REMARK SMILES IDX 80 102 81 103 82 104 61 105 62 106 70 107 63 108 69 109
REMARK SMILES IDX 71 110 68 111 64 112 65 113 66 114 67 115
REMARK H PARENT 91 68 59 79
REMARK Flexibility Score: inf
ROOT
ATOM      1  C   UNL A   1      45.043  38.961  31.051  1.00  0.00     0.188 C 
ENDROOT
BRANCH   1   2
ATOM      2  C   UNL A   1      44.011  38.485  30.016  1.00  0.00     0.188 C 
BRANCH   2   3
ATOM      3  O   UNL A   1      43.092  39.489  29.628  1.00  0.00    -0.376 OA
BRANCH   3   4
ATOM      4  C   UNL A   1      43.013  39.873  28.261  1.00  0.00     0.202 C 
BRANCH   4   5
ATOM      5  C   UNL A   1      44.140  40.693  27.600  1.00  0.00     0.261 C 
BRANCH   5   6
ATOM      6  O   UNL A   1      44.087  42.109  27.800  1.00  0.00    -0.460 OA
BRANCH   6   7
ATOM      7  C   UNL A   1      44.921  42.637  28.718  1.00  0.00     0.338 C 
ATOM      8  O   UNL A   1      45.077  42.270  29.870  1.00  0.00    -0.246 OA
BRANCH   7   9
ATOM      9  C   UNL A   1      45.845  43.546  27.999  1.00  0.00     0.060 A 
ATOM     10  C   UNL A   1      47.747  45.017  26.562  1.00  0.00     0.001 A 
ATOM     11  C   UNL A   1      48.133  44.280  27.689  1.00  0.00     0.011 A 
ATOM     12  C   UNL A   1      46.403  45.016  26.160  1.00  0.00     0.011 A 
ATOM     13  C   UNL A   1      47.181  43.567  28.418  1.00  0.00     0.016 A 
ATOM     14  C   UNL A   1      45.454  44.264  26.863  1.00  0.00     0.016 A 
BRANCH  10  15
ATOM     15  C   UNL A   1      48.708  45.889  25.913  1.00  0.00     0.081 A 
ATOM     16  C   UNL A   1      49.469  46.944  24.131  1.00  0.00     0.098 A 
ATOM     17  N   UNL A   1      48.815  45.882  24.544  1.00  0.00    -0.241 NA
ATOM     18  S   UNL A   1      50.228  47.853  25.379  1.00  0.00    -0.126 S 
ATOM     19  C   UNL A   1      49.483  46.836  26.552  1.00  0.00     0.095 A 
BRANCH  16  20
ATOM     20  C   UNL A   1      49.564  47.346  22.687  1.00  0.00     0.105 C 
BRANCH  20  21
ATOM     21  C   UNL A   1      49.143  46.246  21.733  1.00  0.00    -0.012 A 
ATOM     22  C   UNL A   1      51.922  43.767  20.849  1.00  0.00     0.119 A 
ATOM     23  C   UNL A   1      51.208  43.067  19.895  1.00  0.00     0.048 A 
ATOM     24  C   UNL A   1      51.318  44.831  21.514  1.00  0.00     0.057 A 
ATOM     25  C   UNL A   1      49.889  43.425  19.591  1.00  0.00     0.031 A 
ATOM     26  C   UNL A   1      49.978  45.197  21.249  1.00  0.00     0.008 A 
ATOM     27  C   UNL A   1      49.249  44.462  20.308  1.00  0.00     0.057 A 
ATOM     28  N   UNL A   1      47.936  44.973  20.276  1.00  0.00    -0.280 N 
ATOM     29  C   UNL A   1      47.902  46.100  21.119  1.00  0.00     0.028 A 
ATOM     30  C   UNL A   1      46.724  46.998  21.331  1.00  0.00     0.065 C 
BRANCH  22  31
ATOM     31  O   UNL A   1      53.197  43.467  21.236  1.00  0.00    -0.497 OA
ATOM     32  C   UNL A   1      53.376  43.351  22.644  1.00  0.00     0.278 C 
ENDBRANCH  22  31
BRANCH  28  33
ATOM     33  C   UNL A   1      46.856  44.450  19.501  1.00  0.00     0.262 C 
ATOM     34  O   UNL A   1      46.620  43.243  19.529  1.00  0.00    -0.268 OA
BRANCH  33  35
ATOM     35  C   UNL A   1      45.929  45.245  18.672  1.00  0.00     0.040 A 
ATOM     36  C   UNL A   1      46.382  45.959  17.557  1.00  0.00     0.015 A 
ATOM     37  C   UNL A   1      44.581  45.287  19.048  1.00  0.00     0.015 A 
ATOM     38  C   UNL A   1      45.493  46.791  16.871  1.00  0.00     0.021 A 
ATOM     39  C   UNL A   1      43.696  46.112  18.353  1.00  0.00     0.021 A 
ATOM     40  C   UNL A   1      44.159  46.874  17.280  1.00  0.00     0.041 A 
ATOM     41  Cl  UNL A   1      43.079  47.939  16.468  1.00  0.00    -0.084 Cl
ENDBRANCH  33  35
ENDBRANCH  28  33
ENDBRANCH  20  21
ENDBRANCH  16  20
ENDBRANCH  10  15
ENDBRANCH   7   9
ENDBRANCH   6   7
ENDBRANCH   5   6
ENDBRANCH   4   5
ENDBRANCH   3   4
ENDBRANCH   2   3
ENDBRANCH   1   2
BRANCH   1  42
ATOM     42  O   UNL A   1      46.358  38.467  30.909  1.00  0.00    -0.377 OA
BRANCH  42  43
ATOM     43  C   UNL A   1      47.446  39.331  31.234  1.00  0.00     0.188 C 
BRANCH  43  44
ATOM     44  C   UNL A   1      48.156  40.181  30.154  1.00  0.00     0.188 C 
BRANCH  44  45
ATOM     45  O   UNL A   1      49.183  39.480  29.471  1.00  0.00    -0.376 OA
BRANCH  45  46
ATOM     46  C   UNL A   1      49.171  39.559  28.055  1.00  0.00     0.202 C 
BRANCH  46  47
ATOM     47  C   UNL A   1      48.702  38.311  27.289  1.00  0.00     0.261 C 
BRANCH  47  48
ATOM     48  O   UNL A   1      47.577  37.642  27.881  1.00  0.00    -0.460 OA
BRANCH  48  49
ATOM     49  C   UNL A   1      46.414  37.547  27.187  1.00  0.00     0.338 C 
ATOM     50  O   UNL A   1      46.073  38.226  26.249  1.00  0.00    -0.246 OA
BRANCH  49  51
ATOM     51  C   UNL A   1      45.831  36.230  27.584  1.00  0.00     0.060 A 
ATOM     52  C   UNL A   1      44.758  35.668  26.884  1.00  0.00     0.016 A 
ATOM     53  C   UNL A   1      46.174  35.751  28.856  1.00  0.00     0.016 A 
ATOM     54  C   UNL A   1      43.957  34.720  27.519  1.00  0.00     0.010 A 
ATOM     55  C   UNL A   1      45.365  34.806  29.490  1.00  0.00     0.010 A 
ATOM     56  C   UNL A   1      44.230  34.314  28.841  1.00  0.00    -0.014 A 
BRANCH  56  57
ATOM     57  C   UNL A   1      43.461  33.175  29.373  1.00  0.00     0.031 A 
ATOM     58  C   UNL A   1      43.965  31.880  28.838  1.00  0.00     0.074 A 
ATOM     59  C   UNL A   1      42.549  33.171  30.371  1.00  0.00     0.049 A 
ATOM     60  N   UNL A   1      43.343  30.992  28.134  1.00  0.00    -0.248 NA
ATOM     61  C   UNL A   1      45.411  31.636  28.985  1.00  0.00     0.031 C 
ATOM     62  C   UNL A   1      42.243  34.279  31.275  1.00  0.00     0.029 A 
ATOM     63  N   UNL A   1      41.783  32.141  30.870  1.00  0.00    -0.354 N 
ATOM     64  C   UNL A   1      44.280  29.981  27.916  1.00  0.00     0.074 A 
ATOM     65  C   UNL A   1      45.563  30.521  28.276  1.00  0.00     0.031 C 
ATOM     66  C   UNL A   1      41.530  33.814  32.326  1.00  0.00     0.029 A 
ATOM     67  C   UNL A   1      41.236  32.403  32.122  1.00  0.00     0.049 A 
ATOM     68  H   UNL A   1      41.637  31.297  30.386  1.00  0.00     0.167 HD
ATOM     69  C   UNL A   1      43.910  28.688  27.717  1.00  0.00     0.034 A 
ATOM     70  C   UNL A   1      40.663  31.528  32.988  1.00  0.00     0.034 A 
ATOM     71  C   UNL A   1      42.513  28.570  27.425  1.00  0.00     0.049 A 
ATOM     72  C   UNL A   1      40.279  30.288  32.283  1.00  0.00     0.074 A 
ATOM     73  C   UNL A   1      41.704  28.690  26.320  1.00  0.00     0.029 A 
ATOM     74  N   UNL A   1      41.708  28.566  28.531  1.00  0.00    -0.354 N 
ATOM     75  N   UNL A   1      39.309  30.204  31.420  1.00  0.00    -0.248 NA
ATOM     76  C   UNL A   1      41.168  29.130  32.343  1.00  0.00     0.031 C 
ATOM     77  C   UNL A   1      40.382  28.882  26.810  1.00  0.00     0.029 A 
ATOM     78  C   UNL A   1      40.413  28.863  28.203  1.00  0.00     0.049 A 
ATOM     79  H   UNL A   1      42.020  28.373  29.445  1.00  0.00     0.167 HD
ATOM     80  C   UNL A   1      39.730  29.223  30.548  1.00  0.00     0.074 A 
ATOM     81  C   UNL A   1      40.755  28.474  31.257  1.00  0.00     0.031 C 
ATOM     82  C   UNL A   1      39.480  29.321  29.213  1.00  0.00     0.034 A 
BRANCH  69  83
ATOM     83  C   UNL A   1      44.710  27.503  28.215  1.00  0.00     0.023 A 
ATOM     84  C   UNL A   1      45.515  26.719  27.366  1.00  0.00     0.031 A 
ATOM     85  C   UNL A   1      44.884  27.285  29.595  1.00  0.00     0.131 A 
ATOM     86  C   UNL A   1      46.400  25.757  27.864  1.00  0.00     0.055 A 
ATOM     87  C   UNL A   1      45.823  26.375  30.099  1.00  0.00     0.041 A 
ATOM     88  F   UNL A   1      44.183  27.987  30.500  1.00  0.00    -0.206 F 
ATOM     89  C   UNL A   1      46.586  25.601  29.232  1.00  0.00     0.022 A 
BRANCH  86  90
ATOM     90  S   UNL A   1      47.332  24.702  26.721  1.00  0.00     0.124 S 
ATOM     91  O   UNL A   1      48.616  24.579  27.402  1.00  0.00    -0.237 OA
ATOM     92  O   UNL A   1      46.508  23.496  26.696  1.00  0.00    -0.237 OA
ATOM     93  O   UNL A   1      47.339  25.469  25.478  1.00  0.00    -0.744 OA
ENDBRANCH  86  90
ENDBRANCH  69  83
BRANCH  70  94
ATOM     94  C   UNL A   1      40.740  31.554  34.470  1.00  0.00     0.023 A 
ATOM     95  C   UNL A   1      39.589  31.882  35.206  1.00  0.00     0.031 A 
ATOM     96  C   UNL A   1      41.971  31.578  35.152  1.00  0.00     0.131 A 
ATOM     97  C   UNL A   1      39.686  32.269  36.548  1.00  0.00     0.055 A 
ATOM     98  C   UNL A   1      42.064  31.951  36.499  1.00  0.00     0.041 A 
ATOM     99  F   UNL A   1      43.116  31.310  34.505  1.00  0.00    -0.206 F 
ATOM    100  C   UNL A   1      40.918  32.314  37.201  1.00  0.00     0.022 A 
BRANCH  97 101
ATOM    101  S   UNL A   1      38.204  32.811  37.439  1.00  0.00     0.124 S 
ATOM    102  O   UNL A   1      37.139  32.494  36.491  1.00  0.00    -0.237 OA
ATOM    103  O   UNL A   1      38.255  31.974  38.633  1.00  0.00    -0.237 OA
ATOM    104  O   UNL A   1      38.437  34.237  37.650  1.00  0.00    -0.744 OA
ENDBRANCH  97 101
ENDBRANCH  70  94
BRANCH  82 105
ATOM    105  C   UNL A   1      38.286  30.106  28.760  1.00  0.00     0.023 A 
ATOM    106  C   UNL A   1      38.283  31.473  29.085  1.00  0.00     0.031 A 
ATOM    107  C   UNL A   1      37.128  29.561  28.181  1.00  0.00     0.131 A 
ATOM    108  C   UNL A   1      37.134  32.242  28.893  1.00  0.00     0.055 A 
ATOM    109  C   UNL A   1      36.007  30.354  27.914  1.00  0.00     0.041 A 
ATOM    110  F   UNL A   1      37.020  28.249  27.927  1.00  0.00    -0.206 F 
ATOM    111  C   UNL A   1      35.999  31.696  28.289  1.00  0.00     0.022 A 
BRANCH 108 112
ATOM    112  S   UNL A   1      37.043  33.916  29.577  1.00  0.00     0.124 S 
ATOM    113  O   UNL A   1      36.773  33.660  30.989  1.00  0.00    -0.237 OA
ATOM    114  O   UNL A   1      38.372  34.445  29.278  1.00  0.00    -0.237 OA
ATOM    115  O   UNL A   1      35.952  34.542  28.835  1.00  0.00    -0.744 OA
ENDBRANCH 108 112
ENDBRANCH  82 105
ENDBRANCH  56  57
ENDBRANCH  49  51
ENDBRANCH  48  49
ENDBRANCH  47  48
ENDBRANCH  46  47
ENDBRANCH  45  46
ENDBRANCH  44  45
ENDBRANCH  43  44
ENDBRANCH  42  43
ENDBRANCH   1  42
TORSDOF 29
ENDMDL
