MODEL 1
REMARK VINA RESULT:      -7.5      0.000      0.000
REMARK SMILES O=C(CSc1ccc2ccccc2n1)NCc1ccc(C(=O)OCCOCCOCCOCCOC(=O)c2ccc(-c3c4nc(c(-c5cc(S(=O)(=O)[O-])ccc5F)c5ccc([nH]5)c(-c5cc(S(=O)(=O)[O-])ccc5F)c5nc(c(-c6cc(S(=O)(=O)[O-])ccc6F)c6ccc3[nH]6)C=C5)C=C4)cc2)cc1
REMARK SMILES IDX 28 1 27 2 26 3 25 4 24 5 23 6 21 7 22 8 20 9 17 10 18 11
REMARK SMILES IDX 102 12 19 13 101 14 16 15 15 16 1 17 2 18 3 20 4 21 5 22
REMARK SMILES IDX 6 23 14 24 7 25 13 26 8 27 12 28 9 29 11 30 10 31 29 32
REMARK SMILES IDX 30 33 31 34 32 35 33 36 34 37 35 38 36 39 37 40 38 41 39 42
REMARK SMILES IDX 100 43 40 44 99 45 41 46 42 47 43 48 93 49 44 50 98 51 92 52
REMARK SMILES IDX 94 53 45 54 97 55 91 56 90 57 46 59 78 60 58 61 77 62 59 63
REMARK SMILES IDX 62 64 76 65 95 66 60 67 61 68 75 70 96 71 63 72 47 73 48 74
REMARK SMILES IDX 56 75 49 76 55 77 57 78 54 79 50 80 51 81 52 82 53 83 79 84
REMARK SMILES IDX 80 85 88 86 81 87 87 88 89 89 86 90 82 91 83 92 84 93 85 94
REMARK SMILES IDX 64 95 65 96 73 97 66 98 72 99 74 100 71 101 67 102 68 103
REMARK SMILES IDX 69 104 70 105
REMARK H PARENT 15 19 94 58 62 69
REMARK Flexibility Score: inf
ROOT
ATOM      1  C   UNL A   1      36.868  33.831  35.842  1.00  0.00     0.188 C 
ENDROOT
BRANCH   1   2
ATOM      2  C   UNL A   1      38.216  34.297  35.260  1.00  0.00     0.188 C 
BRANCH   2   3
ATOM      3  O   UNL A   1      39.098  33.239  34.939  1.00  0.00    -0.376 OA
BRANCH   3   4
ATOM      4  C   UNL A   1      40.489  33.357  35.175  1.00  0.00     0.202 C 
BRANCH   4   5
ATOM      5  C   UNL A   1      41.377  32.151  35.531  1.00  0.00     0.261 C 
BRANCH   5   6
ATOM      6  O   UNL A   1      40.779  31.110  36.306  1.00  0.00    -0.460 OA
BRANCH   6   7
ATOM      7  C   UNL A   1      40.110  30.148  35.641  1.00  0.00     0.338 C 
ATOM      8  O   UNL A   1      38.922  30.136  35.370  1.00  0.00    -0.246 OA
BRANCH   7   9
ATOM      9  C   UNL A   1      41.103  29.191  35.095  1.00  0.00     0.060 A 
ATOM     10  C   UNL A   1      43.053  27.410  34.150  1.00  0.00    -0.029 A 
ATOM     11  C   UNL A   1      42.945  27.675  35.522  1.00  0.00     0.006 A 
ATOM     12  C   UNL A   1      42.117  27.977  33.268  1.00  0.00     0.006 A 
ATOM     13  C   UNL A   1      41.983  28.571  35.990  1.00  0.00     0.016 A 
ATOM     14  C   UNL A   1      41.144  28.863  33.736  1.00  0.00     0.016 A 
BRANCH  10  15
ATOM     15  C   UNL A   1      44.215  26.628  33.605  1.00  0.00     0.151 C 
BRANCH  15  16
ATOM     16  N   UNL A   1      44.071  26.232  32.226  1.00  0.00    -0.351 N 
ATOM     17  O   UNL A   1      45.518  24.460  32.368  1.00  0.00    -0.274 OA
ATOM     18  C   UNL A   1      44.653  25.077  31.750  1.00  0.00     0.230 C 
ATOM     19  H   UNL A   1      43.548  26.797  31.612  1.00  0.00     0.163 HD
BRANCH  18  20
ATOM     20  C   UNL A   1      44.121  24.573  30.422  1.00  0.00     0.176 C 
BRANCH  20  21
ATOM     21  S   UNL A   1      43.138  25.848  29.551  1.00  0.00    -0.096 SA
BRANCH  21  22
ATOM     22  C   UNL A   1      41.893  24.898  28.692  1.00  0.00     0.097 A 
ATOM     23  C   UNL A   1      40.799  25.464  28.053  1.00  0.00     0.036 A 
ATOM     24  N   UNL A   1      42.165  23.574  28.600  1.00  0.00    -0.241 NA
ATOM     25  C   UNL A   1      39.958  24.652  27.298  1.00  0.00     0.013 A 
ATOM     26  C   UNL A   1      41.362  22.789  27.855  1.00  0.00     0.072 A 
ATOM     27  C   UNL A   1      40.237  23.293  27.173  1.00  0.00     0.000 A 
ATOM     28  C   UNL A   1      41.645  21.435  27.722  1.00  0.00     0.029 A 
ATOM     29  C   UNL A   1      39.439  22.450  26.380  1.00  0.00     0.010 A 
ATOM     30  C   UNL A   1      40.859  20.591  26.929  1.00  0.00     0.002 A 
ATOM     31  C   UNL A   1      39.756  21.100  26.254  1.00  0.00     0.001 A 
ENDBRANCH  21  22
ENDBRANCH  20  21
ENDBRANCH  18  20
ENDBRANCH  15  16
ENDBRANCH  10  15
ENDBRANCH   7   9
ENDBRANCH   6   7
ENDBRANCH   5   6
ENDBRANCH   4   5
ENDBRANCH   3   4
ENDBRANCH   2   3
ENDBRANCH   1   2
BRANCH   1  32
ATOM     32  O   UNL A   1      36.017  33.110  34.967  1.00  0.00    -0.377 OA
BRANCH  32  33
ATOM     33  C   UNL A   1      35.399  33.779  33.866  1.00  0.00     0.188 C 
BRANCH  33  34
ATOM     34  C   UNL A   1      34.029  33.356  33.278  1.00  0.00     0.188 C 
BRANCH  34  35
ATOM     35  O   UNL A   1      34.099  32.548  32.114  1.00  0.00    -0.376 OA
BRANCH  35  36
ATOM     36  C   UNL A   1      34.751  33.080  30.976  1.00  0.00     0.202 C 
BRANCH  36  37
ATOM     37  C   UNL A   1      36.069  32.410  30.570  1.00  0.00     0.261 C 
BRANCH  37  38
ATOM     38  O   UNL A   1      36.094  30.978  30.633  1.00  0.00    -0.460 OA
BRANCH  38  39
ATOM     39  C   UNL A   1      36.905  30.420  31.564  1.00  0.00     0.338 C 
ATOM     40  O   UNL A   1      36.579  29.670  32.458  1.00  0.00    -0.246 OA
BRANCH  39  41
ATOM     41  C   UNL A   1      38.299  30.737  31.177  1.00  0.00     0.060 A 
ATOM     42  C   UNL A   1      39.134  31.381  32.099  1.00  0.00     0.016 A 
ATOM     43  C   UNL A   1      38.778  30.378  29.915  1.00  0.00     0.016 A 
ATOM     44  C   UNL A   1      40.445  31.700  31.747  1.00  0.00     0.010 A 
ATOM     45  C   UNL A   1      40.085  30.715  29.558  1.00  0.00     0.010 A 
ATOM     46  C   UNL A   1      40.914  31.406  30.459  1.00  0.00    -0.014 A 
BRANCH  46  47
ATOM     47  C   UNL A   1      42.189  31.999  29.983  1.00  0.00     0.031 A 
ATOM     48  C   UNL A   1      43.389  31.100  29.867  1.00  0.00     0.074 A 
ATOM     49  C   UNL A   1      42.281  33.298  29.652  1.00  0.00     0.049 A 
ATOM     50  N   UNL A   1      44.622  31.391  29.544  1.00  0.00    -0.248 NA
ATOM     51  C   UNL A   1      43.162  29.680  30.171  1.00  0.00     0.031 C 
ATOM     52  C   UNL A   1      41.179  34.256  29.680  1.00  0.00     0.029 A 
ATOM     53  N   UNL A   1      43.361  34.037  29.236  1.00  0.00    -0.354 N 
ATOM     54  C   UNL A   1      45.323  30.190  29.614  1.00  0.00     0.074 A 
ATOM     55  C   UNL A   1      44.382  29.182  30.056  1.00  0.00     0.031 C 
ATOM     56  C   UNL A   1      41.644  35.462  29.310  1.00  0.00     0.029 A 
ATOM     57  C   UNL A   1      43.082  35.371  29.061  1.00  0.00     0.049 A 
ATOM     58  H   UNL A   1      44.252  33.647  29.077  1.00  0.00     0.167 HD
ATOM     59  C   UNL A   1      46.626  29.950  29.326  1.00  0.00     0.034 A 
ATOM     60  C   UNL A   1      43.900  36.404  28.768  1.00  0.00     0.034 A 
ATOM     61  C   UNL A   1      47.552  30.974  28.909  1.00  0.00     0.049 A 
ATOM     62  C   UNL A   1      45.369  36.138  28.549  1.00  0.00     0.074 A 
ATOM     63  C   UNL A   1      48.889  30.845  28.577  1.00  0.00     0.029 A 
ATOM     64  N   UNL A   1      47.243  32.326  28.790  1.00  0.00    -0.354 N 
ATOM     65  N   UNL A   1      46.022  34.998  28.603  1.00  0.00    -0.248 NA
ATOM     66  C   UNL A   1      46.212  37.295  28.221  1.00  0.00     0.031 C 
ATOM     67  C   UNL A   1      49.409  32.124  28.347  1.00  0.00     0.029 A 
ATOM     68  C   UNL A   1      48.376  33.044  28.434  1.00  0.00     0.049 A 
ATOM     69  H   UNL A   1      46.352  32.716  28.937  1.00  0.00     0.167 HD
ATOM     70  C   UNL A   1      47.345  35.300  28.285  1.00  0.00     0.074 A 
ATOM     71  C   UNL A   1      47.393  36.725  28.032  1.00  0.00     0.031 C 
ATOM     72  C   UNL A   1      48.420  34.471  28.201  1.00  0.00     0.034 A 
BRANCH  59  73
ATOM     73  C   UNL A   1      47.126  28.537  29.527  1.00  0.00     0.023 A 
ATOM     74  C   UNL A   1      47.160  27.605  28.474  1.00  0.00     0.031 A 
ATOM     75  C   UNL A   1      47.514  28.096  30.805  1.00  0.00     0.131 A 
ATOM     76  C   UNL A   1      47.472  26.262  28.737  1.00  0.00     0.055 A 
ATOM     77  C   UNL A   1      47.919  26.781  31.040  1.00  0.00     0.041 A 
ATOM     78  F   UNL A   1      47.478  28.929  31.856  1.00  0.00    -0.206 F 
ATOM     79  C   UNL A   1      47.879  25.849  30.007  1.00  0.00     0.022 A 
BRANCH  76  80
ATOM     80  S   UNL A   1      47.149  25.031  27.444  1.00  0.00     0.124 S 
ATOM     81  O   UNL A   1      48.504  24.675  27.030  1.00  0.00    -0.237 OA
ATOM     82  O   UNL A   1      46.410  24.002  28.165  1.00  0.00    -0.237 OA
ATOM     83  O   UNL A   1      46.378  25.773  26.448  1.00  0.00    -0.744 OA
ENDBRANCH  76  80
ENDBRANCH  59  73
BRANCH  60  84
ATOM     84  C   UNL A   1      43.356  37.792  28.712  1.00  0.00     0.023 A 
ATOM     85  C   UNL A   1      43.510  38.684  29.785  1.00  0.00     0.031 A 
ATOM     86  C   UNL A   1      42.648  38.240  27.582  1.00  0.00     0.131 A 
ATOM     87  C   UNL A   1      42.940  39.966  29.717  1.00  0.00     0.055 A 
ATOM     88  C   UNL A   1      42.127  39.532  27.498  1.00  0.00     0.041 A 
ATOM     89  F   UNL A   1      42.465  37.425  26.530  1.00  0.00    -0.206 F 
ATOM     90  C   UNL A   1      42.265  40.401  28.574  1.00  0.00     0.022 A 
BRANCH  87  91
ATOM     91  S   UNL A   1      43.035  41.041  31.176  1.00  0.00     0.124 S 
ATOM     92  O   UNL A   1      44.008  40.336  32.002  1.00  0.00    -0.237 OA
ATOM     93  O   UNL A   1      43.481  42.303  30.594  1.00  0.00    -0.237 OA
ATOM     94  O   UNL A   1      41.665  41.043  31.686  1.00  0.00    -0.744 OA
ENDBRANCH  87  91
ENDBRANCH  60  84
BRANCH  72  95
ATOM     95  C   UNL A   1      49.735  35.080  27.769  1.00  0.00     0.023 A 
ATOM     96  C   UNL A   1      49.974  35.481  26.442  1.00  0.00     0.031 A 
ATOM     97  C   UNL A   1      50.767  35.264  28.707  1.00  0.00     0.131 A 
ATOM     98  C   UNL A   1      51.231  35.989  26.080  1.00  0.00     0.055 A 
ATOM     99  C   UNL A   1      51.990  35.837  28.356  1.00  0.00     0.041 A 
ATOM    100  F   UNL A   1      50.602  34.896  29.988  1.00  0.00    -0.206 F 
ATOM    101  C   UNL A   1      52.234  36.191  27.032  1.00  0.00     0.022 A 
BRANCH  98 102
ATOM    102  S   UNL A   1      51.581  36.287  24.324  1.00  0.00     0.124 S 
ATOM    103  O   UNL A   1      50.254  36.588  23.799  1.00  0.00    -0.237 OA
ATOM    104  O   UNL A   1      52.516  37.407  24.377  1.00  0.00    -0.237 OA
ATOM    105  O   UNL A   1      52.155  35.022  23.870  1.00  0.00    -0.744 OA
ENDBRANCH  98 102
ENDBRANCH  72  95
ENDBRANCH  46  47
ENDBRANCH  39  41
ENDBRANCH  38  39
ENDBRANCH  37  38
ENDBRANCH  36  37
ENDBRANCH  35  36
ENDBRANCH  34  35
ENDBRANCH  33  34
ENDBRANCH  32  33
ENDBRANCH   1  32
TORSDOF 28
ENDMDL
MODEL 2
REMARK VINA RESULT:      -7.1      4.182     10.575
REMARK SMILES O=C(CSc1ccc2ccccc2n1)NCc1ccc(C(=O)OCCOCCOCCOCCOC(=O)c2ccc(-c3c4nc(c(-c5cc(S(=O)(=O)[O-])ccc5F)c5ccc([nH]5)c(-c5cc(S(=O)(=O)[O-])ccc5F)c5nc(c(-c6cc(S(=O)(=O)[O-])ccc6F)c6ccc3[nH]6)C=C5)C=C4)cc2)cc1
REMARK SMILES IDX 28 1 27 2 26 3 25 4 24 5 23 6 21 7 22 8 20 9 17 10 18 11
REMARK SMILES IDX 102 12 19 13 101 14 16 15 15 16 1 17 2 18 3 20 4 21 5 22
REMARK SMILES IDX 6 23 14 24 7 25 13 26 8 27 12 28 9 29 11 30 10 31 29 32
REMARK SMILES IDX 30 33 31 34 32 35 33 36 34 37 35 38 36 39 37 40 38 41 39 42
REMARK SMILES IDX 100 43 40 44 99 45 41 46 42 47 43 48 93 49 44 50 98 51 92 52
REMARK SMILES IDX 94 53 45 54 97 55 91 56 90 57 46 59 78 60 58 61 77 62 59 63
REMARK SMILES IDX 62 64 76 65 95 66 60 67 61 68 75 70 96 71 63 72 47 73 48 74
REMARK SMILES IDX 56 75 49 76 55 77 57 78 54 79 50 80 51 81 52 82 53 83 79 84
REMARK SMILES IDX 80 85 88 86 81 87 87 88 89 89 86 90 82 91 83 92 84 93 85 94
REMARK SMILES IDX 64 95 65 96 73 97 66 98 72 99 74 100 71 101 67 102 68 103
REMARK SMILES IDX 69 104 70 105
REMARK H PARENT 15 19 94 58 62 69
REMARK Flexibility Score: inf
ROOT
ATOM      1  C   UNL A   1      33.342  35.396  31.846  1.00  0.00     0.188 C 
ENDROOT
BRANCH   1   2
ATOM      2  C   UNL A   1      33.111  35.848  30.391  1.00  0.00     0.188 C 
BRANCH   2   3
ATOM      3  O   UNL A   1      32.941  34.780  29.479  1.00  0.00    -0.376 OA
BRANCH   3   4
ATOM      4  C   UNL A   1      33.710  34.709  28.293  1.00  0.00     0.202 C 
BRANCH   4   5
ATOM      5  C   UNL A   1      35.036  33.932  28.208  1.00  0.00     0.261 C 
BRANCH   5   6
ATOM      6  O   UNL A   1      35.534  33.361  29.421  1.00  0.00    -0.460 OA
BRANCH   6   7
ATOM      7  C   UNL A   1      36.315  32.268  29.316  1.00  0.00     0.338 C 
ATOM      8  O   UNL A   1      36.002  31.187  28.849  1.00  0.00    -0.246 OA
BRANCH   7   9
ATOM      9  C   UNL A   1      37.702  32.659  29.668  1.00  0.00     0.060 A 
ATOM     10  C   UNL A   1      40.326  33.312  30.413  1.00  0.00    -0.029 A 
ATOM     11  C   UNL A   1      39.868  31.992  30.528  1.00  0.00     0.006 A 
ATOM     12  C   UNL A   1      39.485  34.280  29.838  1.00  0.00     0.006 A 
ATOM     13  C   UNL A   1      38.558  31.670  30.169  1.00  0.00     0.016 A 
ATOM     14  C   UNL A   1      38.179  33.957  29.464  1.00  0.00     0.016 A 
BRANCH  10  15
ATOM     15  C   UNL A   1      41.648  33.722  30.998  1.00  0.00     0.151 C 
BRANCH  15  16
ATOM     16  N   UNL A   1      42.680  33.967  30.022  1.00  0.00    -0.351 N 
ATOM     17  O   UNL A   1      43.447  35.888  31.010  1.00  0.00    -0.274 OA
ATOM     18  C   UNL A   1      43.593  34.985  30.189  1.00  0.00     0.230 C 
ATOM     19  H   UNL A   1      42.734  33.396  29.221  1.00  0.00     0.163 HD
BRANCH  18  20
ATOM     20  C   UNL A   1      44.836  34.901  29.322  1.00  0.00     0.176 C 
BRANCH  20  21
ATOM     21  S   UNL A   1      44.422  34.729  27.548  1.00  0.00    -0.096 SA
BRANCH  21  22
ATOM     22  C   UNL A   1      43.602  36.269  27.161  1.00  0.00     0.097 A 
ATOM     23  C   UNL A   1      42.229  36.449  27.244  1.00  0.00     0.036 A 
ATOM     24  N   UNL A   1      44.442  37.299  26.900  1.00  0.00    -0.241 NA
ATOM     25  C   UNL A   1      41.699  37.722  27.053  1.00  0.00     0.013 A 
ATOM     26  C   UNL A   1      43.932  38.535  26.732  1.00  0.00     0.072 A 
ATOM     27  C   UNL A   1      42.550  38.797  26.807  1.00  0.00     0.000 A 
ATOM     28  C   UNL A   1      44.781  39.609  26.497  1.00  0.00     0.029 A 
ATOM     29  C   UNL A   1      42.057  40.105  26.657  1.00  0.00     0.010 A 
ATOM     30  C   UNL A   1      44.299  40.915  26.352  1.00  0.00     0.002 A 
ATOM     31  C   UNL A   1      42.934  41.163  26.435  1.00  0.00     0.001 A 
ENDBRANCH  21  22
ENDBRANCH  20  21
ENDBRANCH  18  20
ENDBRANCH  15  16
ENDBRANCH  10  15
ENDBRANCH   7   9
ENDBRANCH   6   7
ENDBRANCH   5   6
ENDBRANCH   4   5
ENDBRANCH   3   4
ENDBRANCH   2   3
ENDBRANCH   1   2
BRANCH   1  32
ATOM     32  O   UNL A   1      33.822  34.075  32.028  1.00  0.00    -0.377 OA
BRANCH  32  33
ATOM     33  C   UNL A   1      33.976  33.551  33.348  1.00  0.00     0.188 C 
BRANCH  33  34
ATOM     34  C   UNL A   1      35.336  33.509  34.090  1.00  0.00     0.188 C 
BRANCH  34  35
ATOM     35  O   UNL A   1      36.122  34.684  33.969  1.00  0.00    -0.376 OA
BRANCH  35  36
ATOM     36  C   UNL A   1      37.231  34.653  33.091  1.00  0.00     0.202 C 
BRANCH  36  37
ATOM     37  C   UNL A   1      38.370  33.695  33.465  1.00  0.00     0.261 C 
BRANCH  37  38
ATOM     38  O   UNL A   1      38.039  32.300  33.480  1.00  0.00    -0.460 OA
BRANCH  38  39
ATOM     39  C   UNL A   1      38.459  31.582  34.551  1.00  0.00     0.338 C 
ATOM     40  O   UNL A   1      37.834  31.353  35.563  1.00  0.00    -0.246 OA
BRANCH  39  41
ATOM     41  C   UNL A   1      39.752  30.962  34.183  1.00  0.00     0.060 A 
ATOM     42  C   UNL A   1      39.819  29.573  34.015  1.00  0.00     0.016 A 
ATOM     43  C   UNL A   1      40.884  31.756  33.987  1.00  0.00     0.016 A 
ATOM     44  C   UNL A   1      41.033  28.970  33.681  1.00  0.00     0.010 A 
ATOM     45  C   UNL A   1      42.101  31.149  33.672  1.00  0.00     0.010 A 
ATOM     46  C   UNL A   1      42.189  29.751  33.550  1.00  0.00    -0.014 A 
BRANCH  46  47
ATOM     47  C   UNL A   1      43.521  29.098  33.490  1.00  0.00     0.031 A 
ATOM     48  C   UNL A   1      44.048  28.684  32.144  1.00  0.00     0.074 A 
ATOM     49  C   UNL A   1      44.250  28.884  34.598  1.00  0.00     0.049 A 
ATOM     50  N   UNL A   1      45.143  28.040  31.838  1.00  0.00    -0.248 NA
ATOM     51  C   UNL A   1      43.212  29.040  30.988  1.00  0.00     0.031 C 
ATOM     52  C   UNL A   1      43.866  29.280  35.951  1.00  0.00     0.029 A 
ATOM     53  N   UNL A   1      45.467  28.269  34.759  1.00  0.00    -0.354 N 
ATOM     54  C   UNL A   1      45.126  27.904  30.453  1.00  0.00     0.074 A 
ATOM     55  C   UNL A   1      43.887  28.493  29.991  1.00  0.00     0.031 C 
ATOM     56  C   UNL A   1      44.824  28.885  36.807  1.00  0.00     0.029 A 
ATOM     57  C   UNL A   1      45.866  28.171  36.070  1.00  0.00     0.049 A 
ATOM     58  H   UNL A   1      46.003  27.930  34.005  1.00  0.00     0.167 HD
ATOM     59  C   UNL A   1      46.061  27.349  29.643  1.00  0.00     0.034 A 
ATOM     60  C   UNL A   1      46.932  27.547  36.615  1.00  0.00     0.034 A 
ATOM     61  C   UNL A   1      47.279  26.747  30.128  1.00  0.00     0.049 A 
ATOM     62  C   UNL A   1      47.914  26.846  35.709  1.00  0.00     0.074 A 
ATOM     63  C   UNL A   1      48.305  26.169  29.401  1.00  0.00     0.029 A 
ATOM     64  N   UNL A   1      47.627  26.622  31.470  1.00  0.00    -0.354 N 
ATOM     65  N   UNL A   1      47.899  26.733  34.399  1.00  0.00    -0.248 NA
ATOM     66  C   UNL A   1      49.062  26.194  36.352  1.00  0.00     0.031 C 
ATOM     67  C   UNL A   1      49.223  25.617  30.301  1.00  0.00     0.029 A 
ATOM     68  C   UNL A   1      48.828  25.937  31.590  1.00  0.00     0.049 A 
ATOM     69  H   UNL A   1      47.099  26.970  32.224  1.00  0.00     0.167 HD
ATOM     70  C   UNL A   1      49.051  26.024  34.063  1.00  0.00     0.074 A 
ATOM     71  C   UNL A   1      49.740  25.745  35.306  1.00  0.00     0.031 C 
ATOM     72  C   UNL A   1      49.501  25.647  32.836  1.00  0.00     0.034 A 
BRANCH  59  73
ATOM     73  C   UNL A   1      45.755  27.311  28.163  1.00  0.00     0.023 A 
ATOM     74  C   UNL A   1      45.143  26.198  27.560  1.00  0.00     0.031 A 
ATOM     75  C   UNL A   1      46.143  28.376  27.331  1.00  0.00     0.131 A 
ATOM     76  C   UNL A   1      45.029  26.133  26.163  1.00  0.00     0.055 A 
ATOM     77  C   UNL A   1      45.936  28.347  25.951  1.00  0.00     0.041 A 
ATOM     78  F   UNL A   1      46.756  29.455  27.841  1.00  0.00    -0.206 F 
ATOM     79  C   UNL A   1      45.395  27.211  25.355  1.00  0.00     0.022 A 
BRANCH  76  80
ATOM     80  S   UNL A   1      44.579  24.546  25.406  1.00  0.00     0.124 S 
ATOM     81  O   UNL A   1      45.661  24.361  24.441  1.00  0.00    -0.237 OA
ATOM     82  O   UNL A   1      44.581  23.640  26.548  1.00  0.00    -0.237 OA
ATOM     83  O   UNL A   1      43.267  24.806  24.816  1.00  0.00    -0.744 OA
ENDBRANCH  76  80
ENDBRANCH  59  73
BRANCH  60  84
ATOM     84  C   UNL A   1      47.101  27.517  38.097  1.00  0.00     0.023 A 
ATOM     85  C   UNL A   1      47.823  28.515  38.772  1.00  0.00     0.031 A 
ATOM     86  C   UNL A   1      46.560  26.466  38.860  1.00  0.00     0.131 A 
ATOM     87  C   UNL A   1      48.007  28.425  40.162  1.00  0.00     0.055 A 
ATOM     88  C   UNL A   1      46.701  26.409  40.247  1.00  0.00     0.041 A 
ATOM     89  F   UNL A   1      45.867  25.482  38.263  1.00  0.00    -0.206 F 
ATOM     90  C   UNL A   1      47.436  27.389  40.905  1.00  0.00     0.022 A 
BRANCH  87  91
ATOM     91  S   UNL A   1      49.062  29.651  40.983  1.00  0.00     0.124 S 
ATOM     92  O   UNL A   1      50.079  29.896  39.966  1.00  0.00    -0.237 OA
ATOM     93  O   UNL A   1      48.124  30.743  41.228  1.00  0.00    -0.237 OA
ATOM     94  O   UNL A   1      49.528  28.953  42.179  1.00  0.00    -0.744 OA
ENDBRANCH  87  91
ENDBRANCH  60  84
BRANCH  72  95
ATOM     95  C   UNL A   1      50.833  24.932  32.775  1.00  0.00     0.023 A 
ATOM     96  C   UNL A   1      50.932  23.530  32.831  1.00  0.00     0.031 A 
ATOM     97  C   UNL A   1      52.024  25.671  32.657  1.00  0.00     0.131 A 
ATOM     98  C   UNL A   1      52.195  22.918  32.828  1.00  0.00     0.055 A 
ATOM     99  C   UNL A   1      53.272  25.052  32.582  1.00  0.00     0.041 A 
ATOM    100  F   UNL A   1      51.995  27.013  32.606  1.00  0.00    -0.206 F 
ATOM    101  C   UNL A   1      53.365  23.668  32.681  1.00  0.00     0.022 A 
BRANCH  98 102
ATOM    102  S   UNL A   1      52.300  21.130  33.125  1.00  0.00     0.124 S 
ATOM    103  O   UNL A   1      50.925  20.704  32.891  1.00  0.00    -0.237 OA
ATOM    104  O   UNL A   1      53.278  20.705  32.128  1.00  0.00    -0.237 OA
ATOM    105  O   UNL A   1      52.751  21.039  34.512  1.00  0.00    -0.744 OA
ENDBRANCH  98 102
ENDBRANCH  72  95
ENDBRANCH  46  47
ENDBRANCH  39  41
ENDBRANCH  38  39
ENDBRANCH  37  38
ENDBRANCH  36  37
ENDBRANCH  35  36
ENDBRANCH  34  35
ENDBRANCH  33  34
ENDBRANCH  32  33
ENDBRANCH   1  32
TORSDOF 28
ENDMDL
MODEL 3
REMARK VINA RESULT:      -7.0      9.386     14.703
REMARK SMILES O=C(CSc1ccc2ccccc2n1)NCc1ccc(C(=O)OCCOCCOCCOCCOC(=O)c2ccc(-c3c4nc(c(-c5cc(S(=O)(=O)[O-])ccc5F)c5ccc([nH]5)c(-c5cc(S(=O)(=O)[O-])ccc5F)c5nc(c(-c6cc(S(=O)(=O)[O-])ccc6F)c6ccc3[nH]6)C=C5)C=C4)cc2)cc1
REMARK SMILES IDX 28 1 27 2 26 3 25 4 24 5 23 6 21 7 22 8 20 9 17 10 18 11
REMARK SMILES IDX 102 12 19 13 101 14 16 15 15 16 1 17 2 18 3 20 4 21 5 22
REMARK SMILES IDX 6 23 14 24 7 25 13 26 8 27 12 28 9 29 11 30 10 31 29 32
REMARK SMILES IDX 30 33 31 34 32 35 33 36 34 37 35 38 36 39 37 40 38 41 39 42
REMARK SMILES IDX 100 43 40 44 99 45 41 46 42 47 43 48 93 49 44 50 98 51 92 52
REMARK SMILES IDX 94 53 45 54 97 55 91 56 90 57 46 59 78 60 58 61 77 62 59 63
REMARK SMILES IDX 62 64 76 65 95 66 60 67 61 68 75 70 96 71 63 72 47 73 48 74
REMARK SMILES IDX 56 75 49 76 55 77 57 78 54 79 50 80 51 81 52 82 53 83 79 84
REMARK SMILES IDX 80 85 88 86 81 87 87 88 89 89 86 90 82 91 83 92 84 93 85 94
REMARK SMILES IDX 64 95 65 96 73 97 66 98 72 99 74 100 71 101 67 102 68 103
REMARK SMILES IDX 69 104 70 105
REMARK H PARENT 15 19 94 58 62 69
REMARK Flexibility Score: inf
ROOT
ATOM      1  C   UNL A   1      48.557  20.759  37.950  1.00  0.00     0.188 C 
ENDROOT
BRANCH   1   2
ATOM      2  C   UNL A   1      47.081  20.326  37.856  1.00  0.00     0.188 C 
BRANCH   2   3
ATOM      3  O   UNL A   1      46.895  18.924  37.843  1.00  0.00    -0.376 OA
BRANCH   3   4
ATOM      4  C   UNL A   1      45.702  18.346  38.341  1.00  0.00     0.202 C 
BRANCH   4   5
ATOM      5  C   UNL A   1      45.675  17.432  39.578  1.00  0.00     0.261 C 
BRANCH   5   6
ATOM      6  O   UNL A   1      46.866  17.370  40.366  1.00  0.00    -0.460 OA
BRANCH   6   7
ATOM      7  C   UNL A   1      46.960  18.210  41.416  1.00  0.00     0.338 C 
ATOM      8  O   UNL A   1      46.752  19.410  41.414  1.00  0.00    -0.246 OA
BRANCH   7   9
ATOM      9  C   UNL A   1      47.149  17.396  42.641  1.00  0.00     0.060 A 
ATOM     10  C   UNL A   1      47.404  15.805  44.937  1.00  0.00    -0.029 A 
ATOM     11  C   UNL A   1      46.696  15.330  43.825  1.00  0.00     0.006 A 
ATOM     12  C   UNL A   1      48.057  17.046  44.853  1.00  0.00     0.006 A 
ATOM     13  C   UNL A   1      46.559  16.127  42.687  1.00  0.00     0.016 A 
ATOM     14  C   UNL A   1      47.933  17.840  43.710  1.00  0.00     0.016 A 
BRANCH  10  15
ATOM     15  C   UNL A   1      47.376  15.062  46.244  1.00  0.00     0.151 C 
BRANCH  15  16
ATOM     16  N   UNL A   1      46.385  14.017  46.312  1.00  0.00    -0.351 N 
ATOM     17  O   UNL A   1      47.079  13.205  48.340  1.00  0.00    -0.274 OA
ATOM     18  C   UNL A   1      46.241  13.242  47.442  1.00  0.00     0.230 C 
ATOM     19  H   UNL A   1      45.799  13.854  45.537  1.00  0.00     0.163 HD
BRANCH  18  20
ATOM     20  C   UNL A   1      44.944  12.463  47.543  1.00  0.00     0.176 C 
BRANCH  20  21
ATOM     21  S   UNL A   1      45.018  10.889  46.611  1.00  0.00    -0.096 SA
BRANCH  21  22
ATOM     22  C   UNL A   1      44.039  11.221  45.155  1.00  0.00     0.097 A 
ATOM     23  C   UNL A   1      43.220  10.280  44.548  1.00  0.00     0.036 A 
ATOM     24  N   UNL A   1      44.056  12.515  44.753  1.00  0.00    -0.241 NA
ATOM     25  C   UNL A   1      42.394  10.673  43.499  1.00  0.00     0.013 A 
ATOM     26  C   UNL A   1      43.245  12.901  43.749  1.00  0.00     0.072 A 
ATOM     27  C   UNL A   1      42.382  12.005  43.089  1.00  0.00     0.000 A 
ATOM     28  C   UNL A   1      43.224  14.231  43.347  1.00  0.00     0.029 A 
ATOM     29  C   UNL A   1      41.526  12.449  42.066  1.00  0.00     0.010 A 
ATOM     30  C   UNL A   1      42.371  14.683  42.333  1.00  0.00     0.002 A 
ATOM     31  C   UNL A   1      41.519  13.791  41.694  1.00  0.00     0.001 A 
ENDBRANCH  21  22
ENDBRANCH  20  21
ENDBRANCH  18  20
ENDBRANCH  15  16
ENDBRANCH  10  15
ENDBRANCH   7   9
ENDBRANCH   6   7
ENDBRANCH   5   6
ENDBRANCH   4   5
ENDBRANCH   3   4
ENDBRANCH   2   3
ENDBRANCH   1   2
BRANCH   1  32
ATOM     32  O   UNL A   1      48.810  22.153  37.921  1.00  0.00    -0.377 OA
BRANCH  32  33
ATOM     33  C   UNL A   1      50.110  22.646  38.248  1.00  0.00     0.188 C 
BRANCH  33  34
ATOM     34  C   UNL A   1      51.267  22.731  37.220  1.00  0.00     0.188 C 
BRANCH  34  35
ATOM     35  O   UNL A   1      51.960  21.513  36.996  1.00  0.00    -0.376 OA
BRANCH  35  36
ATOM     36  C   UNL A   1      52.670  21.369  35.780  1.00  0.00     0.202 C 
BRANCH  36  37
ATOM     37  C   UNL A   1      53.879  22.293  35.582  1.00  0.00     0.261 C 
BRANCH  37  38
ATOM     38  O   UNL A   1      53.595  23.593  35.049  1.00  0.00    -0.460 OA
BRANCH  38  39
ATOM     39  C   UNL A   1      53.433  23.682  33.706  1.00  0.00     0.338 C 
ATOM     40  O   UNL A   1      54.190  23.273  32.853  1.00  0.00    -0.246 OA
BRANCH  39  41
ATOM     41  C   UNL A   1      52.067  24.199  33.463  1.00  0.00     0.060 A 
ATOM     42  C   UNL A   1      51.854  25.583  33.444  1.00  0.00     0.016 A 
ATOM     43  C   UNL A   1      51.010  23.315  33.235  1.00  0.00     0.016 A 
ATOM     44  C   UNL A   1      50.571  26.087  33.230  1.00  0.00     0.010 A 
ATOM     45  C   UNL A   1      49.724  23.821  33.041  1.00  0.00     0.010 A 
ATOM     46  C   UNL A   1      49.492  25.208  33.070  1.00  0.00    -0.014 A 
BRANCH  46  47
ATOM     47  C   UNL A   1      48.101  25.723  33.139  1.00  0.00     0.031 A 
ATOM     48  C   UNL A   1      47.380  25.994  31.848  1.00  0.00     0.074 A 
ATOM     49  C   UNL A   1      47.487  25.936  34.315  1.00  0.00     0.049 A 
ATOM     50  N   UNL A   1      46.195  26.506  31.644  1.00  0.00    -0.248 NA
ATOM     51  C   UNL A   1      48.109  25.647  30.618  1.00  0.00     0.031 C 
ATOM     52  C   UNL A   1      48.065  25.669  35.630  1.00  0.00     0.029 A 
ATOM     53  N   UNL A   1      46.239  26.438  34.590  1.00  0.00    -0.354 N 
ATOM     54  C   UNL A   1      46.037  26.552  30.262  1.00  0.00     0.074 A 
ATOM     55  C   UNL A   1      47.269  26.059  29.683  1.00  0.00     0.031 C 
ATOM     56  C   UNL A   1      47.177  26.023  36.574  1.00  0.00     0.029 A 
ATOM     57  C   UNL A   1      45.987  26.582  35.934  1.00  0.00     0.049 A 
ATOM     58  H   UNL A   1      45.586  26.673  33.891  1.00  0.00     0.167 HD
ATOM     59  C   UNL A   1      44.961  26.960  29.544  1.00  0.00     0.034 A 
ATOM     60  C   UNL A   1      44.932  27.133  36.571  1.00  0.00     0.034 A 
ATOM     61  C   UNL A   1      43.751  27.470  30.142  1.00  0.00     0.049 A 
ATOM     62  C   UNL A   1      43.783  27.674  35.755  1.00  0.00     0.074 A 
ATOM     63  C   UNL A   1      42.593  27.896  29.516  1.00  0.00     0.029 A 
ATOM     64  N   UNL A   1      43.551  27.647  31.507  1.00  0.00    -0.354 N 
ATOM     65  N   UNL A   1      43.634  27.702  34.450  1.00  0.00    -0.248 NA
ATOM     66  C   UNL A   1      42.656  28.251  36.499  1.00  0.00     0.031 C 
ATOM     67  C   UNL A   1      41.733  28.413  30.490  1.00  0.00     0.029 A 
ATOM     68  C   UNL A   1      42.307  28.218  31.737  1.00  0.00     0.049 A 
ATOM     69  H   UNL A   1      44.196  27.403  32.208  1.00  0.00     0.167 HD
ATOM     70  C   UNL A   1      42.383  28.272  34.219  1.00  0.00     0.074 A 
ATOM     71  C   UNL A   1      41.817  28.562  35.521  1.00  0.00     0.031 C 
ATOM     72  C   UNL A   1      41.756  28.522  33.039  1.00  0.00     0.034 A 
BRANCH  59  73
ATOM     73  C   UNL A   1      45.087  26.930  28.038  1.00  0.00     0.023 A 
ATOM     74  C   UNL A   1      44.974  25.734  27.307  1.00  0.00     0.031 A 
ATOM     75  C   UNL A   1      45.390  28.106  27.328  1.00  0.00     0.131 A 
ATOM     76  C   UNL A   1      45.263  25.723  25.933  1.00  0.00     0.055 A 
ATOM     77  C   UNL A   1      45.578  28.105  25.945  1.00  0.00     0.041 A 
ATOM     78  F   UNL A   1      45.537  29.275  27.971  1.00  0.00    -0.206 F 
ATOM     79  C   UNL A   1      45.536  26.904  25.241  1.00  0.00     0.022 A 
BRANCH  76  80
ATOM     80  S   UNL A   1      45.467  24.120  25.106  1.00  0.00     0.124 S 
ATOM     81  O   UNL A   1      44.165  23.952  24.464  1.00  0.00    -0.237 OA
ATOM     82  O   UNL A   1      46.593  24.368  24.214  1.00  0.00    -0.237 OA
ATOM     83  O   UNL A   1      45.732  23.197  26.208  1.00  0.00    -0.744 OA
ENDBRANCH  76  80
ENDBRANCH  59  73
BRANCH  60  84
ATOM     84  C   UNL A   1      44.934  27.243  38.059  1.00  0.00     0.023 A 
ATOM     85  C   UNL A   1      45.406  28.394  38.708  1.00  0.00     0.031 A 
ATOM     86  C   UNL A   1      44.482  26.176  38.857  1.00  0.00     0.131 A 
ATOM     87  C   UNL A   1      45.442  28.441  40.111  1.00  0.00     0.055 A 
ATOM     88  C   UNL A   1      44.471  26.247  40.250  1.00  0.00     0.041 A 
ATOM     89  F   UNL A   1      44.027  25.048  38.287  1.00  0.00    -0.206 F 
ATOM     90  C   UNL A   1      44.961  27.383  40.886  1.00  0.00     0.022 A 
BRANCH  87  91
ATOM     91  S   UNL A   1      46.188  29.885  40.917  1.00  0.00     0.124 S 
ATOM     92  O   UNL A   1      47.605  29.538  40.895  1.00  0.00    -0.237 OA
ATOM     93  O   UNL A   1      45.780  30.972  40.032  1.00  0.00    -0.237 OA
ATOM     94  O   UNL A   1      45.567  29.896  42.240  1.00  0.00    -0.744 OA
ENDBRANCH  87  91
ENDBRANCH  60  84
BRANCH  72  95
ATOM     95  C   UNL A   1      40.359  29.098  33.103  1.00  0.00     0.023 A 
ATOM     96  C   UNL A   1      40.114  30.425  33.498  1.00  0.00     0.031 A 
ATOM     97  C   UNL A   1      39.252  28.300  32.761  1.00  0.00     0.131 A 
ATOM     98  C   UNL A   1      38.795  30.895  33.595  1.00  0.00     0.055 A 
ATOM     99  C   UNL A   1      37.947  28.794  32.790  1.00  0.00     0.041 A 
ATOM    100  F   UNL A   1      39.420  27.022  32.383  1.00  0.00    -0.206 F 
ATOM    101  C   UNL A   1      37.711  30.095  33.223  1.00  0.00     0.022 A 
BRANCH  98 102
ATOM    102  S   UNL A   1      38.502  32.533  34.318  1.00  0.00     0.124 S 
ATOM    103  O   UNL A   1      37.201  32.356  34.952  1.00  0.00    -0.237 OA
ATOM    104  O   UNL A   1      39.638  32.683  35.222  1.00  0.00    -0.237 OA
ATOM    105  O   UNL A   1      38.512  33.425  33.160  1.00  0.00    -0.744 OA
ENDBRANCH  98 102
ENDBRANCH  72  95
ENDBRANCH  46  47
ENDBRANCH  39  41
ENDBRANCH  38  39
ENDBRANCH  37  38
ENDBRANCH  36  37
ENDBRANCH  35  36
ENDBRANCH  34  35
ENDBRANCH  33  34
ENDBRANCH  32  33
ENDBRANCH   1  32
TORSDOF 28
ENDMDL
