MODEL 1
REMARK VINA RESULT:      -9.4      0.000      0.000
REMARK SMILES NS(=O)(=O)c1ccc(-n2nc(C(F)F)cc2-c2ccc(C(=O)OCCOCCOCCOCCOC(=O)c3ccc(-c4c5nc(c(-c6cc(S(=O)(=O)[O-])ccc6F)c6ccc([nH]6)c(-c6cc(S(=O)(=O)[O-])ccc6F)c6nc(c(-c7cc(S(=O)(=O)[O-])ccc7F)c7ccc4[nH]7)C=C6)C=C5)cc3)cc2)cc1
REMARK SMILES IDX 28 1 27 2 26 3 25 4 24 5 23 6 21 7 22 8 20 9 17 10 18 11
REMARK SMILES IDX 102 12 19 13 101 14 16 15 9 16 10 17 11 18 15 19 8 20 5 21
REMARK SMILES IDX 6 22 104 23 7 24 103 25 2 26 3 27 4 28 1 29 12 32 13 33
REMARK SMILES IDX 14 34 29 35 30 36 31 37 32 38 33 39 34 40 35 41 36 42 37 43
REMARK SMILES IDX 38 44 39 45 100 46 40 47 99 48 41 49 42 50 43 51 93 52 44 53
REMARK SMILES IDX 98 54 92 55 94 56 45 57 97 58 91 59 90 60 46 62 78 63 58 64
REMARK SMILES IDX 77 65 59 66 62 67 76 68 95 69 60 70 61 71 75 73 96 74 63 75
REMARK SMILES IDX 47 76 48 77 56 78 49 79 55 80 57 81 54 82 50 83 51 84 52 85
REMARK SMILES IDX 53 86 79 87 80 88 88 89 81 90 87 91 89 92 86 93 82 94 83 95
REMARK SMILES IDX 84 96 85 97 64 98 65 99 73 100 66 101 72 102 74 103 71 104
REMARK SMILES IDX 67 105 68 106 69 107 70 108
REMARK H PARENT 1 30 1 31 94 61 62 72
REMARK Flexibility Score: inf
ROOT
ATOM      1  C   UNL A   1      39.943  28.931  27.363  1.00  0.00     0.188 C 
ENDROOT
BRANCH   1   2
ATOM      2  C   UNL A   1      40.215  28.465  28.814  1.00  0.00     0.188 C 
BRANCH   2   3
ATOM      3  O   UNL A   1      40.138  27.104  29.229  1.00  0.00    -0.376 OA
BRANCH   3   4
ATOM      4  C   UNL A   1      39.636  26.093  28.373  1.00  0.00     0.202 C 
BRANCH   4   5
ATOM      5  C   UNL A   1      40.536  24.909  27.998  1.00  0.00     0.261 C 
BRANCH   5   6
ATOM      6  O   UNL A   1      40.250  24.307  26.734  1.00  0.00    -0.460 OA
BRANCH   6   7
ATOM      7  C   UNL A   1      40.175  22.958  26.749  1.00  0.00     0.338 C 
ATOM      8  O   UNL A   1      40.936  22.179  27.299  1.00  0.00    -0.246 OA
BRANCH   7   9
ATOM      9  C   UNL A   1      38.915  22.532  26.097  1.00  0.00     0.060 A 
ATOM     10  C   UNL A   1      36.440  21.785  25.024  1.00  0.00     0.000 A 
ATOM     11  C   UNL A   1      36.637  23.088  25.503  1.00  0.00     0.011 A 
ATOM     12  C   UNL A   1      37.517  20.887  25.013  1.00  0.00     0.011 A 
ATOM     13  C   UNL A   1      37.865  23.456  26.047  1.00  0.00     0.016 A 
ATOM     14  C   UNL A   1      38.756  21.260  25.540  1.00  0.00     0.016 A 
BRANCH  10  15
ATOM     15  C   UNL A   1      35.080  21.307  24.770  1.00  0.00     0.075 A 
ATOM     16  N   UNL A   1      33.927  22.073  24.638  1.00  0.00    -0.233 N 
ATOM     17  N   UNL A   1      32.813  21.344  24.922  1.00  0.00    -0.166 NA
ATOM     18  C   UNL A   1      33.237  20.073  25.005  1.00  0.00     0.129 A 
ATOM     19  C   UNL A   1      34.643  20.003  24.906  1.00  0.00     0.060 A 
BRANCH  16  20
ATOM     20  C   UNL A   1      33.804  23.441  24.271  1.00  0.00     0.065 A 
ATOM     21  C   UNL A   1      33.561  26.115  23.520  1.00  0.00     0.082 A 
ATOM     22  C   UNL A   1      33.291  25.739  24.839  1.00  0.00     0.024 A 
ATOM     23  C   UNL A   1      33.964  25.166  22.575  1.00  0.00     0.024 A 
ATOM     24  C   UNL A   1      33.398  24.397  25.213  1.00  0.00     0.030 A 
ATOM     25  C   UNL A   1      34.115  23.832  22.959  1.00  0.00     0.030 A 
BRANCH  21  26
ATOM     26  S   UNL A   1      33.318  27.795  23.015  1.00  0.00     0.238 S 
ATOM     27  O   UNL A   1      34.039  28.032  21.790  1.00  0.00    -0.207 OA
ATOM     28  O   UNL A   1      33.460  28.649  24.175  1.00  0.00    -0.207 OA
BRANCH  26  29
ATOM     29  N   UNL A   1      31.690  27.819  22.613  1.00  0.00    -0.225 NA
ATOM     30  H   UNL A   1      31.240  28.617  23.062  1.00  0.00     0.137 HD
ATOM     31  H   UNL A   1      31.249  26.956  22.930  1.00  0.00     0.137 HD
ENDBRANCH  26  29
ENDBRANCH  21  26
ENDBRANCH  16  20
BRANCH  18  32
ATOM     32  C   UNL A   1      32.318  18.915  25.245  1.00  0.00     0.393 C 
ATOM     33  F   UNL A   1      31.946  18.287  24.096  1.00  0.00    -0.203 F 
ATOM     34  F   UNL A   1      32.898  17.970  26.037  1.00  0.00    -0.203 F 
ENDBRANCH  18  32
ENDBRANCH  10  15
ENDBRANCH   7   9
ENDBRANCH   6   7
ENDBRANCH   5   6
ENDBRANCH   4   5
ENDBRANCH   3   4
ENDBRANCH   2   3
ENDBRANCH   1   2
BRANCH   1  35
ATOM     35  O   UNL A   1      38.730  29.642  27.165  1.00  0.00    -0.377 OA
BRANCH  35  36
ATOM     36  C   UNL A   1      37.943  29.822  28.343  1.00  0.00     0.188 C 
BRANCH  36  37
ATOM     37  C   UNL A   1      36.536  29.185  28.326  1.00  0.00     0.188 C 
BRANCH  37  38
ATOM     38  O   UNL A   1      35.747  29.578  27.205  1.00  0.00    -0.376 OA
BRANCH  38  39
ATOM     39  C   UNL A   1      34.343  29.699  27.377  1.00  0.00     0.202 C 
BRANCH  39  40
ATOM     40  C   UNL A   1      33.881  31.129  27.627  1.00  0.00     0.261 C 
BRANCH  40  41
ATOM     41  O   UNL A   1      34.342  31.682  28.852  1.00  0.00    -0.460 OA
BRANCH  41  42
ATOM     42  C   UNL A   1      35.358  32.563  28.756  1.00  0.00     0.338 C 
ATOM     43  O   UNL A   1      35.802  33.075  27.745  1.00  0.00    -0.246 OA
BRANCH  42  44
ATOM     44  C   UNL A   1      35.946  32.731  30.083  1.00  0.00     0.060 A 
ATOM     45  C   UNL A   1      36.803  33.820  30.247  1.00  0.00     0.016 A 
ATOM     46  C   UNL A   1      35.883  31.673  31.005  1.00  0.00     0.016 A 
ATOM     47  C   UNL A   1      37.762  33.740  31.226  1.00  0.00     0.010 A 
ATOM     48  C   UNL A   1      36.857  31.585  31.965  1.00  0.00     0.010 A 
ATOM     49  C   UNL A   1      37.828  32.580  32.006  1.00  0.00    -0.014 A 
BRANCH  49  50
ATOM     50  C   UNL A   1      38.930  32.459  32.928  1.00  0.00     0.031 A 
ATOM     51  C   UNL A   1      38.722  33.217  34.170  1.00  0.00     0.074 A 
ATOM     52  C   UNL A   1      39.987  31.664  32.690  1.00  0.00     0.049 A 
ATOM     53  N   UNL A   1      39.327  34.292  34.544  1.00  0.00    -0.248 NA
ATOM     54  C   UNL A   1      37.563  32.852  34.998  1.00  0.00     0.031 C 
ATOM     55  C   UNL A   1      40.118  30.670  31.621  1.00  0.00     0.029 A 
ATOM     56  N   UNL A   1      41.122  31.500  33.421  1.00  0.00    -0.354 N 
ATOM     57  C   UNL A   1      38.798  34.585  35.792  1.00  0.00     0.074 A 
ATOM     58  C   UNL A   1      37.576  33.840  35.892  1.00  0.00     0.031 C 
ATOM     59  C   UNL A   1      41.171  29.868  31.894  1.00  0.00     0.029 A 
ATOM     60  C   UNL A   1      41.853  30.372  33.076  1.00  0.00     0.049 A 
ATOM     61  H   UNL A   1      41.400  32.125  34.130  1.00  0.00     0.167 HD
ATOM     62  C   UNL A   1      39.571  35.168  36.744  1.00  0.00     0.034 A 
ATOM     63  C   UNL A   1      42.905  29.847  33.749  1.00  0.00     0.034 A 
ATOM     64  C   UNL A   1      40.746  35.769  36.148  1.00  0.00     0.049 A 
ATOM     65  C   UNL A   1      43.493  30.927  34.576  1.00  0.00     0.074 A 
ATOM     66  C   UNL A   1      40.976  36.816  35.280  1.00  0.00     0.029 A 
ATOM     67  N   UNL A   1      41.893  35.009  36.167  1.00  0.00    -0.354 N 
ATOM     68  N   UNL A   1      44.069  31.984  34.072  1.00  0.00    -0.248 NA
ATOM     69  C   UNL A   1      43.116  31.050  35.979  1.00  0.00     0.031 C 
ATOM     70  C   UNL A   1      42.161  36.477  34.566  1.00  0.00     0.029 A 
ATOM     71  C   UNL A   1      42.640  35.254  35.042  1.00  0.00     0.049 A 
ATOM     72  H   UNL A   1      42.141  34.381  36.883  1.00  0.00     0.167 HD
ATOM     73  C   UNL A   1      43.738  33.016  34.931  1.00  0.00     0.074 A 
ATOM     74  C   UNL A   1      43.308  32.361  36.157  1.00  0.00     0.031 C 
ATOM     75  C   UNL A   1      43.559  34.286  34.461  1.00  0.00     0.034 A 
BRANCH  62  76
ATOM     76  C   UNL A   1      39.513  34.820  38.220  1.00  0.00     0.023 A 
ATOM     77  C   UNL A   1      39.405  35.901  39.115  1.00  0.00     0.031 A 
ATOM     78  C   UNL A   1      39.839  33.575  38.808  1.00  0.00     0.131 A 
ATOM     79  C   UNL A   1      39.729  35.753  40.474  1.00  0.00     0.055 A 
ATOM     80  C   UNL A   1      40.101  33.422  40.173  1.00  0.00     0.041 A 
ATOM     81  F   UNL A   1      40.006  32.450  38.108  1.00  0.00    -0.206 F 
ATOM     82  C   UNL A   1      40.082  34.520  41.009  1.00  0.00     0.022 A 
BRANCH  79  83
ATOM     83  S   UNL A   1      39.847  37.244  41.492  1.00  0.00     0.124 S 
ATOM     84  O   UNL A   1      41.225  37.656  41.248  1.00  0.00    -0.237 OA
ATOM     85  O   UNL A   1      38.806  38.084  40.910  1.00  0.00    -0.237 OA
ATOM     86  O   UNL A   1      39.572  36.753  42.840  1.00  0.00    -0.744 OA
ENDBRANCH  79  83
ENDBRANCH  62  76
BRANCH  63  87
ATOM     87  C   UNL A   1      43.235  28.408  33.890  1.00  0.00     0.023 A 
ATOM     88  C   UNL A   1      42.553  27.553  34.775  1.00  0.00     0.031 A 
ATOM     89  C   UNL A   1      44.116  27.800  32.966  1.00  0.00     0.131 A 
ATOM     90  C   UNL A   1      42.763  26.157  34.712  1.00  0.00     0.055 A 
ATOM     91  C   UNL A   1      44.332  26.422  32.919  1.00  0.00     0.041 A 
ATOM     92  F   UNL A   1      44.737  28.521  32.018  1.00  0.00    -0.206 F 
ATOM     93  C   UNL A   1      43.647  25.592  33.789  1.00  0.00     0.022 A 
BRANCH  90  94
ATOM     94  S   UNL A   1      41.806  25.041  35.786  1.00  0.00     0.124 S 
ATOM     95  O   UNL A   1      40.466  25.610  35.713  1.00  0.00    -0.237 OA
ATOM     96  O   UNL A   1      42.001  23.749  35.137  1.00  0.00    -0.237 OA
ATOM     97  O   UNL A   1      42.460  25.176  37.088  1.00  0.00    -0.744 OA
ENDBRANCH  90  94
ENDBRANCH  63  87
BRANCH  75  98
ATOM     98  C   UNL A   1      44.230  34.650  33.154  1.00  0.00     0.023 A 
ATOM     99  C   UNL A   1      43.622  34.579  31.881  1.00  0.00     0.031 A 
ATOM    100  C   UNL A   1      45.539  35.159  33.225  1.00  0.00     0.131 A 
ATOM    101  C   UNL A   1      44.332  34.998  30.739  1.00  0.00     0.055 A 
ATOM    102  C   UNL A   1      46.231  35.595  32.096  1.00  0.00     0.041 A 
ATOM    103  F   UNL A   1      46.164  35.269  34.410  1.00  0.00    -0.206 F 
ATOM    104  C   UNL A   1      45.631  35.509  30.846  1.00  0.00     0.022 A 
BRANCH 101 105
ATOM    105  S   UNL A   1      43.586  34.865  29.085  1.00  0.00     0.124 S 
ATOM    106  O   UNL A   1      42.689  36.012  29.019  1.00  0.00    -0.237 OA
ATOM    107  O   UNL A   1      44.754  34.916  28.209  1.00  0.00    -0.237 OA
ATOM    108  O   UNL A   1      42.911  33.565  29.119  1.00  0.00    -0.744 OA
ENDBRANCH 101 105
ENDBRANCH  75  98
ENDBRANCH  49  50
ENDBRANCH  42  44
ENDBRANCH  41  42
ENDBRANCH  40  41
ENDBRANCH  39  40
ENDBRANCH  38  39
ENDBRANCH  37  38
ENDBRANCH  36  37
ENDBRANCH  35  36
ENDBRANCH   1  35
TORSDOF 28
ENDMDL
MODEL 2
REMARK VINA RESULT:      -9.1      3.248      4.987
REMARK SMILES NS(=O)(=O)c1ccc(-n2nc(C(F)F)cc2-c2ccc(C(=O)OCCOCCOCCOCCOC(=O)c3ccc(-c4c5nc(c(-c6cc(S(=O)(=O)[O-])ccc6F)c6ccc([nH]6)c(-c6cc(S(=O)(=O)[O-])ccc6F)c6nc(c(-c7cc(S(=O)(=O)[O-])ccc7F)c7ccc4[nH]7)C=C6)C=C5)cc3)cc2)cc1
REMARK SMILES IDX 28 1 27 2 26 3 25 4 24 5 23 6 21 7 22 8 20 9 17 10 18 11
REMARK SMILES IDX 102 12 19 13 101 14 16 15 9 16 10 17 11 18 15 19 8 20 5 21
REMARK SMILES IDX 6 22 104 23 7 24 103 25 2 26 3 27 4 28 1 29 12 32 13 33
REMARK SMILES IDX 14 34 29 35 30 36 31 37 32 38 33 39 34 40 35 41 36 42 37 43
REMARK SMILES IDX 38 44 39 45 100 46 40 47 99 48 41 49 42 50 43 51 93 52 44 53
REMARK SMILES IDX 98 54 92 55 94 56 45 57 97 58 91 59 90 60 46 62 78 63 58 64
REMARK SMILES IDX 77 65 59 66 62 67 76 68 95 69 60 70 61 71 75 73 96 74 63 75
REMARK SMILES IDX 47 76 48 77 56 78 49 79 55 80 57 81 54 82 50 83 51 84 52 85
REMARK SMILES IDX 53 86 79 87 80 88 88 89 81 90 87 91 89 92 86 93 82 94 83 95
REMARK SMILES IDX 84 96 85 97 64 98 65 99 73 100 66 101 72 102 74 103 71 104
REMARK SMILES IDX 67 105 68 106 69 107 70 108
REMARK H PARENT 1 30 1 31 94 61 62 72
REMARK Flexibility Score: inf
ROOT
ATOM      1  C   UNL A   1      31.809  26.624  26.110  1.00  0.00     0.188 C 
ENDROOT
BRANCH   1   2
ATOM      2  C   UNL A   1      32.481  25.292  25.698  1.00  0.00     0.188 C 
BRANCH   2   3
ATOM      3  O   UNL A   1      31.761  24.078  25.498  1.00  0.00    -0.376 OA
BRANCH   3   4
ATOM      4  C   UNL A   1      32.335  22.976  24.820  1.00  0.00     0.202 C 
BRANCH   4   5
ATOM      5  C   UNL A   1      33.638  22.363  25.350  1.00  0.00     0.261 C 
BRANCH   5   6
ATOM      6  O   UNL A   1      34.727  22.362  24.424  1.00  0.00    -0.460 OA
BRANCH   6   7
ATOM      7  C   UNL A   1      35.670  23.303  24.652  1.00  0.00     0.338 C 
ATOM      8  O   UNL A   1      35.542  24.514  24.578  1.00  0.00    -0.246 OA
BRANCH   7   9
ATOM      9  C   UNL A   1      36.899  22.649  25.157  1.00  0.00     0.060 A 
ATOM     10  C   UNL A   1      39.324  21.562  26.037  1.00  0.00     0.000 A 
ATOM     11  C   UNL A   1      38.964  22.868  26.398  1.00  0.00     0.011 A 
ATOM     12  C   UNL A   1      38.422  20.779  25.302  1.00  0.00     0.011 A 
ATOM     13  C   UNL A   1      37.763  23.412  25.950  1.00  0.00     0.016 A 
ATOM     14  C   UNL A   1      37.207  21.316  24.868  1.00  0.00     0.016 A 
BRANCH  10  15
ATOM     15  C   UNL A   1      40.706  21.118  26.219  1.00  0.00     0.075 A 
ATOM     16  N   UNL A   1      41.859  21.891  26.144  1.00  0.00    -0.233 N 
ATOM     17  N   UNL A   1      42.948  21.130  25.850  1.00  0.00    -0.166 NA
ATOM     18  C   UNL A   1      42.531  19.860  25.970  1.00  0.00     0.129 A 
ATOM     19  C   UNL A   1      41.142  19.806  26.210  1.00  0.00     0.060 A 
BRANCH  16  20
ATOM     20  C   UNL A   1      42.002  23.295  26.320  1.00  0.00     0.065 A 
ATOM     21  C   UNL A   1      42.282  26.052  26.631  1.00  0.00     0.082 A 
ATOM     22  C   UNL A   1      41.894  25.268  27.722  1.00  0.00     0.024 A 
ATOM     23  C   UNL A   1      42.543  25.467  25.388  1.00  0.00     0.024 A 
ATOM     24  C   UNL A   1      41.740  23.888  27.563  1.00  0.00     0.030 A 
ATOM     25  C   UNL A   1      42.433  24.082  25.241  1.00  0.00     0.030 A 
BRANCH  21  26
ATOM     26  S   UNL A   1      42.370  27.812  26.799  1.00  0.00     0.238 S 
ATOM     27  O   UNL A   1      43.001  28.371  25.629  1.00  0.00    -0.207 OA
ATOM     28  O   UNL A   1      42.811  28.125  28.141  1.00  0.00    -0.207 OA
BRANCH  26  29
ATOM     29  N   UNL A   1      40.756  28.263  26.721  1.00  0.00    -0.225 NA
ATOM     30  H   UNL A   1      40.174  27.513  27.097  1.00  0.00     0.137 HD
ATOM     31  H   UNL A   1      40.499  28.440  25.751  1.00  0.00     0.137 HD
ENDBRANCH  26  29
ENDBRANCH  21  26
ENDBRANCH  16  20
BRANCH  18  32
ATOM     32  C   UNL A   1      43.436  18.679  25.793  1.00  0.00     0.393 C 
ATOM     33  F   UNL A   1      44.732  19.033  25.575  1.00  0.00    -0.203 F 
ATOM     34  F   UNL A   1      43.429  17.874  26.892  1.00  0.00    -0.203 F 
ENDBRANCH  18  32
ENDBRANCH  10  15
ENDBRANCH   7   9
ENDBRANCH   6   7
ENDBRANCH   5   6
ENDBRANCH   4   5
ENDBRANCH   3   4
ENDBRANCH   2   3
ENDBRANCH   1   2
BRANCH   1  35
ATOM     35  O   UNL A   1      31.450  27.485  25.040  1.00  0.00    -0.377 OA
BRANCH  35  36
ATOM     36  C   UNL A   1      32.097  28.759  25.054  1.00  0.00     0.188 C 
BRANCH  36  37
ATOM     37  C   UNL A   1      31.517  29.806  26.028  1.00  0.00     0.188 C 
BRANCH  37  38
ATOM     38  O   UNL A   1      32.282  29.958  27.223  1.00  0.00    -0.376 OA
BRANCH  38  39
ATOM     39  C   UNL A   1      33.659  29.615  27.191  1.00  0.00     0.202 C 
BRANCH  39  40
ATOM     40  C   UNL A   1      34.588  30.823  27.214  1.00  0.00     0.261 C 
BRANCH  40  41
ATOM     41  O   UNL A   1      34.875  31.309  28.518  1.00  0.00    -0.460 OA
BRANCH  41  42
ATOM     42  C   UNL A   1      35.526  32.488  28.577  1.00  0.00     0.338 C 
ATOM     43  O   UNL A   1      35.753  33.256  27.660  1.00  0.00    -0.246 OA
BRANCH  42  44
ATOM     44  C   UNL A   1      36.039  32.661  29.934  1.00  0.00     0.060 A 
ATOM     45  C   UNL A   1      36.940  33.709  30.126  1.00  0.00     0.016 A 
ATOM     46  C   UNL A   1      35.864  31.632  30.873  1.00  0.00     0.016 A 
ATOM     47  C   UNL A   1      37.832  33.605  31.165  1.00  0.00     0.010 A 
ATOM     48  C   UNL A   1      36.771  31.519  31.895  1.00  0.00     0.010 A 
ATOM     49  C   UNL A   1      37.789  32.465  31.974  1.00  0.00    -0.014 A 
BRANCH  49  50
ATOM     50  C   UNL A   1      38.824  32.312  32.967  1.00  0.00     0.031 A 
ATOM     51  C   UNL A   1      38.502  32.979  34.236  1.00  0.00     0.074 A 
ATOM     52  C   UNL A   1      39.920  31.563  32.757  1.00  0.00     0.049 A 
ATOM     53  N   UNL A   1      39.044  34.042  34.722  1.00  0.00    -0.248 NA
ATOM     54  C   UNL A   1      37.298  32.529  34.949  1.00  0.00     0.031 C 
ATOM     55  C   UNL A   1      40.160  30.647  31.638  1.00  0.00     0.029 A 
ATOM     56  N   UNL A   1      41.003  31.381  33.558  1.00  0.00    -0.354 N 
ATOM     57  C   UNL A   1      38.417  34.237  35.944  1.00  0.00     0.074 A 
ATOM     58  C   UNL A   1      37.215  33.454  35.904  1.00  0.00     0.031 C 
ATOM     59  C   UNL A   1      41.215  29.857  31.937  1.00  0.00     0.029 A 
ATOM     60  C   UNL A   1      41.793  30.299  33.197  1.00  0.00     0.049 A 
ATOM     61  H   UNL A   1      41.209  31.964  34.326  1.00  0.00     0.167 HD
ATOM     62  C   UNL A   1      39.099  34.776  36.987  1.00  0.00     0.034 A 
ATOM     63  C   UNL A   1      42.810  29.759  33.911  1.00  0.00     0.034 A 
ATOM     64  C   UNL A   1      40.294  35.447  36.521  1.00  0.00     0.049 A 
ATOM     65  C   UNL A   1      43.301  30.796  34.848  1.00  0.00     0.074 A 
ATOM     66  C   UNL A   1      40.554  36.555  35.742  1.00  0.00     0.029 A 
ATOM     67  N   UNL A   1      41.460  34.718  36.576  1.00  0.00    -0.354 N 
ATOM     68  N   UNL A   1      43.878  31.899  34.458  1.00  0.00    -0.248 NA
ATOM     69  C   UNL A   1      42.820  30.815  36.224  1.00  0.00     0.031 C 
ATOM     70  C   UNL A   1      41.798  36.296  35.098  1.00  0.00     0.029 A 
ATOM     71  C   UNL A   1      42.279  35.058  35.528  1.00  0.00     0.049 A 
ATOM     72  H   UNL A   1      41.676  34.050  37.266  1.00  0.00     0.167 HD
ATOM     73  C   UNL A   1      43.453  32.863  35.354  1.00  0.00     0.074 A 
ATOM     74  C   UNL A   1      42.956  32.116  36.500  1.00  0.00     0.031 C 
ATOM     75  C   UNL A   1      43.269  34.156  34.956  1.00  0.00     0.034 A 
BRANCH  62  76
ATOM     76  C   UNL A   1      38.945  34.328  38.428  1.00  0.00     0.023 A 
ATOM     77  C   UNL A   1      38.417  33.039  38.633  1.00  0.00     0.031 A 
ATOM     78  C   UNL A   1      38.998  35.151  39.579  1.00  0.00     0.131 A 
ATOM     79  C   UNL A   1      37.872  32.666  39.871  1.00  0.00     0.055 A 
ATOM     80  C   UNL A   1      38.508  34.751  40.826  1.00  0.00     0.041 A 
ATOM     81  F   UNL A   1      39.444  36.410  39.565  1.00  0.00    -0.206 F 
ATOM     82  C   UNL A   1      37.908  33.516  40.970  1.00  0.00     0.022 A 
BRANCH  79  83
ATOM     83  S   UNL A   1      36.956  31.109  39.968  1.00  0.00     0.124 S 
ATOM     84  O   UNL A   1      36.853  30.742  38.560  1.00  0.00    -0.237 OA
ATOM     85  O   UNL A   1      37.844  30.292  40.788  1.00  0.00    -0.237 OA
ATOM     86  O   UNL A   1      35.699  31.497  40.605  1.00  0.00    -0.744 OA
ENDBRANCH  79  83
ENDBRANCH  62  76
BRANCH  63  87
ATOM     87  C   UNL A   1      43.174  28.323  33.982  1.00  0.00     0.023 A 
ATOM     88  C   UNL A   1      42.616  27.442  34.927  1.00  0.00     0.031 A 
ATOM     89  C   UNL A   1      43.944  27.745  32.946  1.00  0.00     0.131 A 
ATOM     90  C   UNL A   1      42.836  26.051  34.812  1.00  0.00     0.055 A 
ATOM     91  C   UNL A   1      44.172  26.372  32.847  1.00  0.00     0.041 A 
ATOM     92  F   UNL A   1      44.435  28.493  31.944  1.00  0.00    -0.206 F 
ATOM     93  C   UNL A   1      43.609  25.516  33.778  1.00  0.00     0.022 A 
BRANCH  90  94
ATOM     94  S   UNL A   1      42.033  24.901  35.972  1.00  0.00     0.124 S 
ATOM     95  O   UNL A   1      41.895  23.692  35.170  1.00  0.00    -0.237 OA
ATOM     96  O   UNL A   1      42.995  24.848  37.068  1.00  0.00    -0.237 OA
ATOM     97  O   UNL A   1      40.773  25.570  36.298  1.00  0.00    -0.744 OA
ENDBRANCH  90  94
ENDBRANCH  63  87
BRANCH  75  98
ATOM     98  C   UNL A   1      44.021  34.625  33.729  1.00  0.00     0.023 A 
ATOM     99  C   UNL A   1      43.646  34.356  32.394  1.00  0.00     0.031 A 
ATOM    100  C   UNL A   1      45.144  35.445  33.939  1.00  0.00     0.131 A 
ATOM    101  C   UNL A   1      44.399  34.894  31.332  1.00  0.00     0.055 A 
ATOM    102  C   UNL A   1      45.872  35.996  32.886  1.00  0.00     0.041 A 
ATOM    103  F   UNL A   1      45.538  35.753  35.187  1.00  0.00    -0.206 F 
ATOM    104  C   UNL A   1      45.505  35.715  31.576  1.00  0.00     0.022 A 
BRANCH 101 105
ATOM    105  S   UNL A   1      43.964  34.516  29.605  1.00  0.00     0.124 S 
ATOM    106  O   UNL A   1      44.015  35.815  28.946  1.00  0.00    -0.237 OA
ATOM    107  O   UNL A   1      45.002  33.563  29.222  1.00  0.00    -0.237 OA
ATOM    108  O   UNL A   1      42.621  33.940  29.711  1.00  0.00    -0.744 OA
ENDBRANCH 101 105
ENDBRANCH  75  98
ENDBRANCH  49  50
ENDBRANCH  42  44
ENDBRANCH  41  42
ENDBRANCH  40  41
ENDBRANCH  39  40
ENDBRANCH  38  39
ENDBRANCH  37  38
ENDBRANCH  36  37
ENDBRANCH  35  36
ENDBRANCH   1  35
TORSDOF 28
ENDMDL
MODEL 3
REMARK VINA RESULT:      -9.0      3.883      8.639
REMARK SMILES NS(=O)(=O)c1ccc(-n2nc(C(F)F)cc2-c2ccc(C(=O)OCCOCCOCCOCCOC(=O)c3ccc(-c4c5nc(c(-c6cc(S(=O)(=O)[O-])ccc6F)c6ccc([nH]6)c(-c6cc(S(=O)(=O)[O-])ccc6F)c6nc(c(-c7cc(S(=O)(=O)[O-])ccc7F)c7ccc4[nH]7)C=C6)C=C5)cc3)cc2)cc1
REMARK SMILES IDX 28 1 27 2 26 3 25 4 24 5 23 6 21 7 22 8 20 9 17 10 18 11
REMARK SMILES IDX 102 12 19 13 101 14 16 15 9 16 10 17 11 18 15 19 8 20 5 21
REMARK SMILES IDX 6 22 104 23 7 24 103 25 2 26 3 27 4 28 1 29 12 32 13 33
REMARK SMILES IDX 14 34 29 35 30 36 31 37 32 38 33 39 34 40 35 41 36 42 37 43
REMARK SMILES IDX 38 44 39 45 100 46 40 47 99 48 41 49 42 50 43 51 93 52 44 53
REMARK SMILES IDX 98 54 92 55 94 56 45 57 97 58 91 59 90 60 46 62 78 63 58 64
REMARK SMILES IDX 77 65 59 66 62 67 76 68 95 69 60 70 61 71 75 73 96 74 63 75
REMARK SMILES IDX 47 76 48 77 56 78 49 79 55 80 57 81 54 82 50 83 51 84 52 85
REMARK SMILES IDX 53 86 79 87 80 88 88 89 81 90 87 91 89 92 86 93 82 94 83 95
REMARK SMILES IDX 84 96 85 97 64 98 65 99 73 100 66 101 72 102 74 103 71 104
REMARK SMILES IDX 67 105 68 106 69 107 70 108
REMARK H PARENT 1 30 1 31 94 61 62 72
REMARK Flexibility Score: inf
ROOT
ATOM      1  C   UNL A   1      31.935  24.850  26.051  1.00  0.00     0.188 C 
ENDROOT
BRANCH   1   2
ATOM      2  C   UNL A   1      32.507  23.442  26.341  1.00  0.00     0.188 C 
BRANCH   2   3
ATOM      3  O   UNL A   1      32.451  22.364  25.409  1.00  0.00    -0.376 OA
BRANCH   3   4
ATOM      4  C   UNL A   1      33.502  21.422  25.299  1.00  0.00     0.202 C 
BRANCH   4   5
ATOM      5  C   UNL A   1      34.750  21.580  26.176  1.00  0.00     0.261 C 
BRANCH   5   6
ATOM      6  O   UNL A   1      35.950  21.030  25.628  1.00  0.00    -0.460 OA
BRANCH   6   7
ATOM      7  C   UNL A   1      36.645  21.866  24.825  1.00  0.00     0.338 C 
ATOM      8  O   UNL A   1      36.366  22.204  23.687  1.00  0.00    -0.246 OA
BRANCH   7   9
ATOM      9  C   UNL A   1      37.771  22.450  25.590  1.00  0.00     0.060 A 
ATOM     10  C   UNL A   1      39.902  23.700  26.905  1.00  0.00     0.000 A 
ATOM     11  C   UNL A   1      38.718  24.407  26.652  1.00  0.00     0.011 A 
ATOM     12  C   UNL A   1      39.978  22.342  26.567  1.00  0.00     0.011 A 
ATOM     13  C   UNL A   1      37.662  23.787  25.987  1.00  0.00     0.016 A 
ATOM     14  C   UNL A   1      38.912  21.713  25.918  1.00  0.00     0.016 A 
BRANCH  10  15
ATOM     15  C   UNL A   1      41.110  24.432  27.291  1.00  0.00     0.075 A 
ATOM     16  N   UNL A   1      42.417  23.959  27.302  1.00  0.00    -0.233 N 
ATOM     17  N   UNL A   1      43.194  24.670  28.164  1.00  0.00    -0.166 NA
ATOM     18  C   UNL A   1      42.447  25.727  28.520  1.00  0.00     0.129 A 
ATOM     19  C   UNL A   1      41.144  25.625  27.989  1.00  0.00     0.060 A 
BRANCH  16  20
ATOM     20  C   UNL A   1      42.980  22.882  26.564  1.00  0.00     0.065 A 
ATOM     21  C   UNL A   1      44.106  20.792  25.102  1.00  0.00     0.082 A 
ATOM     22  C   UNL A   1      43.357  20.510  26.249  1.00  0.00     0.024 A 
ATOM     23  C   UNL A   1      44.287  22.111  24.673  1.00  0.00     0.024 A 
ATOM     24  C   UNL A   1      42.804  21.558  26.990  1.00  0.00     0.030 A 
ATOM     25  C   UNL A   1      43.697  23.155  25.388  1.00  0.00     0.030 A 
BRANCH  21  26
ATOM     26  S   UNL A   1      44.900  19.475  24.224  1.00  0.00     0.238 S 
ATOM     27  O   UNL A   1      44.493  19.513  22.841  1.00  0.00    -0.207 OA
ATOM     28  O   UNL A   1      44.817  18.272  25.023  1.00  0.00    -0.207 OA
BRANCH  26  29
ATOM     29  N   UNL A   1      46.510  19.944  24.251  1.00  0.00    -0.225 NA
ATOM     30  H   UNL A   1      46.630  20.714  24.910  1.00  0.00     0.137 HD
ATOM     31  H   UNL A   1      46.793  20.245  23.320  1.00  0.00     0.137 HD
ENDBRANCH  26  29
ENDBRANCH  21  26
ENDBRANCH  16  20
BRANCH  18  32
ATOM     32  C   UNL A   1      42.942  26.816  29.422  1.00  0.00     0.393 C 
ATOM     33  F   UNL A   1      43.151  26.392  30.698  1.00  0.00    -0.203 F 
ATOM     34  F   UNL A   1      44.124  27.332  28.983  1.00  0.00    -0.203 F 
ENDBRANCH  18  32
ENDBRANCH  10  15
ENDBRANCH   7   9
ENDBRANCH   6   7
ENDBRANCH   5   6
ENDBRANCH   4   5
ENDBRANCH   3   4
ENDBRANCH   2   3
ENDBRANCH   1   2
BRANCH   1  35
ATOM     35  O   UNL A   1      32.325  25.427  24.814  1.00  0.00    -0.377 OA
BRANCH  35  36
ATOM     36  C   UNL A   1      33.587  26.097  24.837  1.00  0.00     0.188 C 
BRANCH  36  37
ATOM     37  C   UNL A   1      33.545  27.619  25.092  1.00  0.00     0.188 C 
BRANCH  37  38
ATOM     38  O   UNL A   1      33.635  27.967  26.473  1.00  0.00    -0.376 OA
BRANCH  38  39
ATOM     39  C   UNL A   1      34.364  29.133  26.829  1.00  0.00     0.202 C 
BRANCH  39  40
ATOM     40  C   UNL A   1      33.524  30.404  26.812  1.00  0.00     0.261 C 
BRANCH  40  41
ATOM     41  O   UNL A   1      33.499  31.100  28.050  1.00  0.00    -0.460 OA
BRANCH  41  42
ATOM     42  C   UNL A   1      34.327  32.159  28.148  1.00  0.00     0.338 C 
ATOM     43  O   UNL A   1      34.441  33.085  27.367  1.00  0.00    -0.246 OA
BRANCH  42  44
ATOM     44  C   UNL A   1      35.182  31.964  29.316  1.00  0.00     0.060 A 
ATOM     45  C   UNL A   1      35.054  32.903  30.341  1.00  0.00     0.016 A 
ATOM     46  C   UNL A   1      36.266  31.075  29.238  1.00  0.00     0.016 A 
ATOM     47  C   UNL A   1      36.132  33.102  31.168  1.00  0.00     0.010 A 
ATOM     48  C   UNL A   1      37.350  31.292  30.049  1.00  0.00     0.010 A 
ATOM     49  C   UNL A   1      37.293  32.355  30.945  1.00  0.00    -0.014 A 
BRANCH  49  50
ATOM     50  C   UNL A   1      38.457  32.682  31.733  1.00  0.00     0.031 A 
ATOM     51  C   UNL A   1      39.506  33.351  30.951  1.00  0.00     0.074 A 
ATOM     52  C   UNL A   1      38.518  32.462  33.057  1.00  0.00     0.049 A 
ATOM     53  N   UNL A   1      40.644  32.867  30.589  1.00  0.00    -0.248 NA
ATOM     54  C   UNL A   1      39.165  34.637  30.325  1.00  0.00     0.031 C 
ATOM     55  C   UNL A   1      37.412  32.072  33.937  1.00  0.00     0.029 A 
ATOM     56  N   UNL A   1      39.558  32.648  33.913  1.00  0.00    -0.354 N 
ATOM     57  C   UNL A   1      41.273  33.900  29.909  1.00  0.00     0.074 A 
ATOM     58  C   UNL A   1      40.241  34.837  29.566  1.00  0.00     0.031 C 
ATOM     59  C   UNL A   1      37.789  32.253  35.222  1.00  0.00     0.029 A 
ATOM     60  C   UNL A   1      39.191  32.642  35.251  1.00  0.00     0.049 A 
ATOM     61  H   UNL A   1      40.487  32.777  33.611  1.00  0.00     0.167 HD
ATOM     62  C   UNL A   1      42.623  34.036  29.965  1.00  0.00     0.034 A 
ATOM     63  C   UNL A   1      39.962  32.994  36.308  1.00  0.00     0.034 A 
ATOM     64  C   UNL A   1      43.240  32.806  30.417  1.00  0.00     0.049 A 
ATOM     65  C   UNL A   1      41.379  32.864  35.894  1.00  0.00     0.074 A 
ATOM     66  C   UNL A   1      43.361  31.529  29.910  1.00  0.00     0.029 A 
ATOM     67  N   UNL A   1      43.533  32.732  31.759  1.00  0.00    -0.354 N 
ATOM     68  N   UNL A   1      41.936  31.723  35.595  1.00  0.00    -0.248 NA
ATOM     69  C   UNL A   1      42.106  34.038  35.428  1.00  0.00     0.031 C 
ATOM     70  C   UNL A   1      43.429  30.666  31.042  1.00  0.00     0.029 A 
ATOM     71  C   UNL A   1      43.385  31.441  32.203  1.00  0.00     0.049 A 
ATOM     72  H   UNL A   1      43.809  33.492  32.320  1.00  0.00     0.167 HD
ATOM     73  C   UNL A   1      42.813  32.012  34.564  1.00  0.00     0.074 A 
ATOM     74  C   UNL A   1      43.000  33.454  34.624  1.00  0.00     0.031 C 
ATOM     75  C   UNL A   1      43.060  31.098  33.580  1.00  0.00     0.034 A 
BRANCH  62  76
ATOM     76  C   UNL A   1      43.342  35.369  30.050  1.00  0.00     0.023 A 
ATOM     77  C   UNL A   1      44.151  35.716  28.952  1.00  0.00     0.031 A 
ATOM     78  C   UNL A   1      43.520  36.161  31.210  1.00  0.00     0.131 A 
ATOM     79  C   UNL A   1      45.147  36.700  29.066  1.00  0.00     0.055 A 
ATOM     80  C   UNL A   1      44.473  37.180  31.298  1.00  0.00     0.041 A 
ATOM     81  F   UNL A   1      42.856  35.957  32.351  1.00  0.00    -0.206 F 
ATOM     82  C   UNL A   1      45.318  37.432  30.236  1.00  0.00     0.022 A 
BRANCH  79  83
ATOM     83  S   UNL A   1      46.330  36.880  27.710  1.00  0.00     0.124 S 
ATOM     84  O   UNL A   1      47.404  37.627  28.355  1.00  0.00    -0.237 OA
ATOM     85  O   UNL A   1      46.616  35.489  27.378  1.00  0.00    -0.237 OA
ATOM     86  O   UNL A   1      45.574  37.620  26.701  1.00  0.00    -0.744 OA
ENDBRANCH  79  83
ENDBRANCH  62  76
BRANCH  63  87
ATOM     87  C   UNL A   1      39.508  33.676  37.544  1.00  0.00     0.023 A 
ATOM     88  C   UNL A   1      39.315  32.998  38.762  1.00  0.00     0.031 A 
ATOM     89  C   UNL A   1      39.464  35.089  37.586  1.00  0.00     0.131 A 
ATOM     90  C   UNL A   1      39.092  33.729  39.950  1.00  0.00     0.055 A 
ATOM     91  C   UNL A   1      39.226  35.805  38.759  1.00  0.00     0.041 A 
ATOM     92  F   UNL A   1      39.733  35.826  36.496  1.00  0.00    -0.206 F 
ATOM     93  C   UNL A   1      39.048  35.125  39.952  1.00  0.00     0.022 A 
BRANCH  90  94
ATOM     94  S   UNL A   1      38.944  32.859  41.543  1.00  0.00     0.124 S 
ATOM     95  O   UNL A   1      37.521  32.546  41.597  1.00  0.00    -0.237 OA
ATOM     96  O   UNL A   1      39.852  31.731  41.362  1.00  0.00    -0.237 OA
ATOM     97  O   UNL A   1      39.392  33.854  42.518  1.00  0.00    -0.744 OA
ENDBRANCH  90  94
ENDBRANCH  63  87
BRANCH  75  98
ATOM     98  C   UNL A   1      42.813  29.639  33.901  1.00  0.00     0.023 A 
ATOM     99  C   UNL A   1      43.718  28.791  34.576  1.00  0.00     0.031 A 
ATOM    100  C   UNL A   1      41.557  29.110  33.554  1.00  0.00     0.131 A 
ATOM    101  C   UNL A   1      43.353  27.462  34.866  1.00  0.00     0.055 A 
ATOM    102  C   UNL A   1      41.189  27.802  33.863  1.00  0.00     0.041 A 
ATOM    103  F   UNL A   1      40.646  29.874  32.927  1.00  0.00    -0.206 F 
ATOM    104  C   UNL A   1      42.090  26.969  34.515  1.00  0.00     0.022 A 
BRANCH 101 105
ATOM    105  S   UNL A   1      44.524  26.337  35.687  1.00  0.00     0.124 S 
ATOM    106  O   UNL A   1      45.498  27.239  36.293  1.00  0.00    -0.237 OA
ATOM    107  O   UNL A   1      43.662  25.611  36.616  1.00  0.00    -0.237 OA
ATOM    108  O   UNL A   1      45.047  25.527  34.586  1.00  0.00    -0.744 OA
ENDBRANCH 101 105
ENDBRANCH  75  98
ENDBRANCH  49  50
ENDBRANCH  42  44
ENDBRANCH  41  42
ENDBRANCH  40  41
ENDBRANCH  39  40
ENDBRANCH  38  39
ENDBRANCH  37  38
ENDBRANCH  36  37
ENDBRANCH  35  36
ENDBRANCH   1  35
TORSDOF 28
ENDMDL
