MODEL 1
REMARK VINA RESULT:      -9.4      0.000      0.000
REMARK SMILES Cc1cccc(O[C@H](C)C(=O)N2CCC[C@@H](C(=O)OCCOCCOCCOCCOC(=O)c3ccc(-c4c5nc(c(-c6cc(S(=O)(=O)[O-])ccc6F)c6ccc([nH]6)c(-c6cc(S(=O)(=O)[O-])ccc6F)c6nc(c(-c7cc(S(=O)(=O)[O-])ccc7F)c7ccc4[nH]7)C=C6)C=C5)cc3)C2)c1
REMARK SMILES IDX 24 1 23 2 22 3 21 4 20 5 19 6 17 7 18 8 16 9 12 10 13 11
REMARK SMILES IDX 97 12 14 13 15 14 10 15 11 16 8 17 9 18 7 19 6 20 1 21 2 22
REMARK SMILES IDX 3 23 98 24 4 25 5 26 25 27 26 28 27 29 28 30 29 31 30 32
REMARK SMILES IDX 31 33 32 34 33 35 34 36 35 37 96 38 36 39 95 40 37 41 38 42
REMARK SMILES IDX 39 43 89 44 40 45 94 46 88 47 90 48 41 49 93 50 87 51 86 52
REMARK SMILES IDX 42 54 74 55 54 56 73 57 55 58 58 59 72 60 91 61 56 62 57 63
REMARK SMILES IDX 71 65 92 66 59 67 43 68 44 69 52 70 45 71 51 72 53 73 50 74
REMARK SMILES IDX 46 75 47 76 48 77 49 78 75 79 76 80 84 81 77 82 83 83 85 84
REMARK SMILES IDX 82 85 78 86 79 87 80 88 81 89 60 90 61 91 69 92 62 93 68 94
REMARK SMILES IDX 70 95 67 96 63 97 64 98 65 99 66 100
REMARK H PARENT 90 53 58 64
REMARK Flexibility Score: inf
ROOT
ATOM      1  C   UNL A   1      44.994  24.595  27.276  1.00  0.00     0.188 C 
ENDROOT
BRANCH   1   2
ATOM      2  C   UNL A   1      43.441  24.336  27.019  1.00  0.00     0.188 C 
BRANCH   2   3
ATOM      3  O   UNL A   1      42.694  23.620  25.891  1.00  0.00    -0.376 OA
BRANCH   3   4
ATOM      4  C   UNL A   1      41.720  22.340  25.797  1.00  0.00     0.202 C 
BRANCH   4   5
ATOM      5  C   UNL A   1      40.108  21.712  26.447  1.00  0.00     0.261 C 
BRANCH   5   6
ATOM      6  O   UNL A   1      38.367  22.288  26.356  1.00  0.00    -0.463 OA
BRANCH   6   7
ATOM      7  C   UNL A   1      37.189  22.721  25.431  1.00  0.00     0.310 C 
ATOM      8  O   UNL A   1      37.406  23.516  24.501  1.00  0.00    -0.252 OA
BRANCH   7   9
ATOM      9  C   UNL A   1      35.453  22.278  25.589  1.00  0.00     0.119 C 
ATOM     10  N   UNL A   1      33.267  20.769  25.673  1.00  0.00    -0.339 N 
ATOM     11  C   UNL A   1      32.554  21.737  26.477  1.00  0.00     0.119 C 
ATOM     12  C   UNL A   1      34.722  20.842  25.753  1.00  0.00     0.134 C 
ATOM     13  C   UNL A   1      33.148  23.145  26.319  1.00  0.00     0.022 C 
ATOM     14  C   UNL A   1      34.681  23.239  26.519  1.00  0.00     0.019 C 
BRANCH  10  15
ATOM     15  C   UNL A   1      32.606  19.862  24.869  1.00  0.00     0.263 C 
ATOM     16  O   UNL A   1      32.133  18.850  25.410  1.00  0.00    -0.271 OA
BRANCH  15  17
ATOM     17  C   UNL A   1      32.493  20.001  23.261  1.00  0.00     0.259 C 
ATOM     18  C   UNL A   1      32.325  18.627  22.578  1.00  0.00     0.064 C 
BRANCH  17  19
ATOM     19  O   UNL A   1      32.124  21.117  22.445  1.00  0.00    -0.481 OA
BRANCH  19  20
ATOM     20  C   UNL A   1      32.362  22.419  22.795  1.00  0.00     0.120 A 
ATOM     21  C   UNL A   1      30.255  25.491  23.833  1.00  0.00     0.044 C 
ATOM     22  C   UNL A   1      31.386  24.607  23.394  1.00  0.00    -0.047 A 
ATOM     23  C   UNL A   1      32.618  25.201  23.149  1.00  0.00     0.003 A 
ATOM     24  C   UNL A   1      31.261  23.214  23.193  1.00  0.00     0.049 A 
ATOM     25  C   UNL A   1      33.691  24.417  22.740  1.00  0.00     0.004 A 
ATOM     26  C   UNL A   1      33.589  23.028  22.613  1.00  0.00     0.046 A 
ENDBRANCH  19  20
ENDBRANCH  17  19
ENDBRANCH  15  17
ENDBRANCH  10  15
ENDBRANCH   7   9
ENDBRANCH   6   7
ENDBRANCH   5   6
ENDBRANCH   4   5
ENDBRANCH   3   4
ENDBRANCH   2   3
ENDBRANCH   1   2
BRANCH   1  27
ATOM     27  O   UNL A   1      45.547  25.877  27.301  1.00  0.00    -0.377 OA
BRANCH  27  28
ATOM     28  C   UNL A   1      46.019  26.332  26.057  1.00  0.00     0.188 C 
BRANCH  28  29
ATOM     29  C   UNL A   1      45.610  27.746  25.608  1.00  0.00     0.188 C 
BRANCH  29  30
ATOM     30  O   UNL A   1      44.962  28.483  26.648  1.00  0.00    -0.376 OA
BRANCH  30  31
ATOM     31  C   UNL A   1      43.616  28.854  26.431  1.00  0.00     0.202 C 
BRANCH  31  32
ATOM     32  C   UNL A   1      43.285  30.187  27.100  1.00  0.00     0.261 C 
BRANCH  32  33
ATOM     33  O   UNL A   1      43.549  31.247  26.156  1.00  0.00    -0.460 OA
BRANCH  33  34
ATOM     34  C   UNL A   1      44.705  31.935  26.334  1.00  0.00     0.338 C 
ATOM     35  O   UNL A   1      45.777  31.678  25.796  1.00  0.00    -0.246 OA
BRANCH  34  36
ATOM     36  C   UNL A   1      44.522  32.916  27.446  1.00  0.00     0.060 A 
ATOM     37  C   UNL A   1      44.817  32.536  28.751  1.00  0.00     0.016 A 
ATOM     38  C   UNL A   1      43.796  34.099  27.244  1.00  0.00     0.016 A 
ATOM     39  C   UNL A   1      44.190  33.209  29.816  1.00  0.00     0.010 A 
ATOM     40  C   UNL A   1      43.060  34.662  28.294  1.00  0.00     0.010 A 
ATOM     41  C   UNL A   1      43.103  34.091  29.577  1.00  0.00    -0.014 A 
BRANCH  41  42
ATOM     42  C   UNL A   1      41.823  34.431  30.614  1.00  0.00     0.031 A 
ATOM     43  C   UNL A   1      42.973  35.148  31.777  1.00  0.00     0.074 A 
ATOM     44  C   UNL A   1      40.234  33.934  30.754  1.00  0.00     0.049 A 
ATOM     45  N   UNL A   1      42.961  35.018  33.083  1.00  0.00    -0.248 NA
ATOM     46  C   UNL A   1      44.326  35.693  31.441  1.00  0.00     0.031 C 
ATOM     47  C   UNL A   1      39.001  34.124  31.886  1.00  0.00     0.029 A 
ATOM     48  N   UNL A   1      39.386  32.770  30.262  1.00  0.00    -0.354 N 
ATOM     49  C   UNL A   1      43.778  35.945  33.621  1.00  0.00     0.074 A 
ATOM     50  C   UNL A   1      44.823  35.976  32.655  1.00  0.00     0.031 C 
ATOM     51  C   UNL A   1      37.985  33.267  31.905  1.00  0.00     0.029 A 
ATOM     52  C   UNL A   1      38.512  32.181  31.225  1.00  0.00     0.049 A 
ATOM     53  H   UNL A   1      39.436  32.445  29.335  1.00  0.00     0.167 HD
ATOM     54  C   UNL A   1      43.257  36.796  34.554  1.00  0.00     0.034 A 
ATOM     55  C   UNL A   1      38.606  30.994  31.904  1.00  0.00     0.034 A 
ATOM     56  C   UNL A   1      41.946  36.296  35.142  1.00  0.00     0.049 A 
ATOM     57  C   UNL A   1      38.724  31.275  33.497  1.00  0.00     0.074 A 
ATOM     58  C   UNL A   1      40.681  36.859  35.263  1.00  0.00     0.029 A 
ATOM     59  N   UNL A   1      41.739  34.929  35.486  1.00  0.00    -0.354 N 
ATOM     60  N   UNL A   1      39.140  32.413  34.038  1.00  0.00    -0.248 NA
ATOM     61  C   UNL A   1      38.317  30.355  34.551  1.00  0.00     0.031 C 
ATOM     62  C   UNL A   1      39.724  35.821  35.548  1.00  0.00     0.029 A 
ATOM     63  C   UNL A   1      40.380  34.598  35.675  1.00  0.00     0.049 A 
ATOM     64  H   UNL A   1      42.473  34.279  35.584  1.00  0.00     0.167 HD
ATOM     65  C   UNL A   1      39.264  32.343  35.409  1.00  0.00     0.074 A 
ATOM     66  C   UNL A   1      38.596  31.065  35.668  1.00  0.00     0.031 C 
ATOM     67  C   UNL A   1      39.932  33.270  36.213  1.00  0.00     0.034 A 
BRANCH  54  68
ATOM     68  C   UNL A   1      43.782  38.263  34.617  1.00  0.00     0.023 A 
ATOM     69  C   UNL A   1      43.521  39.165  33.562  1.00  0.00     0.031 A 
ATOM     70  C   UNL A   1      44.631  38.813  35.628  1.00  0.00     0.131 A 
ATOM     71  C   UNL A   1      44.083  40.474  33.547  1.00  0.00     0.055 A 
ATOM     72  C   UNL A   1      45.132  40.118  35.638  1.00  0.00     0.041 A 
ATOM     73  F   UNL A   1      45.100  38.131  36.675  1.00  0.00    -0.206 F 
ATOM     74  C   UNL A   1      44.864  40.960  34.592  1.00  0.00     0.022 A 
BRANCH  71  75
ATOM     75  S   UNL A   1      43.841  41.564  32.118  1.00  0.00     0.124 S 
ATOM     76  O   UNL A   1      42.905  40.795  31.304  1.00  0.00    -0.237 OA
ATOM     77  O   UNL A   1      43.323  42.781  32.731  1.00  0.00    -0.237 OA
ATOM     78  O   UNL A   1      45.186  41.689  31.552  1.00  0.00    -0.744 OA
ENDBRANCH  71  75
ENDBRANCH  54  68
BRANCH  55  79
ATOM     79  C   UNL A   1      39.122  29.797  31.131  1.00  0.00     0.023 A 
ATOM     80  C   UNL A   1      40.513  29.475  31.138  1.00  0.00     0.031 A 
ATOM     81  C   UNL A   1      38.289  28.851  30.522  1.00  0.00     0.131 A 
ATOM     82  C   UNL A   1      41.015  28.275  30.602  1.00  0.00     0.055 A 
ATOM     83  C   UNL A   1      38.782  27.620  30.045  1.00  0.00     0.041 A 
ATOM     84  F   UNL A   1      36.963  29.038  30.488  1.00  0.00    -0.206 F 
ATOM     85  C   UNL A   1      40.145  27.326  30.090  1.00  0.00     0.022 A 
BRANCH  82  86
ATOM     86  S   UNL A   1      42.804  27.924  30.525  1.00  0.00     0.124 S 
ATOM     87  O   UNL A   1      43.376  29.247  30.299  1.00  0.00    -0.237 OA
ATOM     88  O   UNL A   1      43.099  27.343  31.830  1.00  0.00    -0.237 OA
ATOM     89  O   UNL A   1      42.904  27.005  29.392  1.00  0.00    -0.744 OA
ENDBRANCH  82  86
ENDBRANCH  55  79
BRANCH  67  90
ATOM     90  C   UNL A   1      40.200  33.053  37.717  1.00  0.00     0.023 A 
ATOM     91  C   UNL A   1      41.468  32.776  38.248  1.00  0.00     0.031 A 
ATOM     92  C   UNL A   1      39.172  33.183  38.692  1.00  0.00     0.131 A 
ATOM     93  C   UNL A   1      41.664  32.541  39.623  1.00  0.00     0.055 A 
ATOM     94  C   UNL A   1      39.389  33.050  40.071  1.00  0.00     0.041 A 
ATOM     95  F   UNL A   1      37.902  33.450  38.365  1.00  0.00    -0.206 F 
ATOM     96  C   UNL A   1      40.639  32.706  40.546  1.00  0.00     0.022 A 
BRANCH  93  97
ATOM     97  S   UNL A   1      43.285  31.935  40.155  1.00  0.00     0.124 S 
ATOM     98  O   UNL A   1      44.006  33.184  40.387  1.00  0.00    -0.237 OA
ATOM     99  O   UNL A   1      42.954  31.166  41.350  1.00  0.00    -0.237 OA
ATOM    100  O   UNL A   1      43.753  31.149  39.016  1.00  0.00    -0.744 OA
ENDBRANCH  93  97
ENDBRANCH  67  90
ENDBRANCH  41  42
ENDBRANCH  34  36
ENDBRANCH  33  34
ENDBRANCH  32  33
ENDBRANCH  31  32
ENDBRANCH  30  31
ENDBRANCH  29  30
ENDBRANCH  28  29
ENDBRANCH  27  28
ENDBRANCH   1  27
TORSDOF 27
ENDMDL
MODEL 2
REMARK VINA RESULT:      -8.7      2.052      2.951
REMARK SMILES Cc1cccc(O[C@H](C)C(=O)N2CCC[C@@H](C(=O)OCCOCCOCCOCCOC(=O)c3ccc(-c4c5nc(c(-c6cc(S(=O)(=O)[O-])ccc6F)c6ccc([nH]6)c(-c6cc(S(=O)(=O)[O-])ccc6F)c6nc(c(-c7cc(S(=O)(=O)[O-])ccc7F)c7ccc4[nH]7)C=C6)C=C5)cc3)C2)c1
REMARK SMILES IDX 24 1 23 2 22 3 21 4 20 5 19 6 17 7 18 8 16 9 12 10 13 11
REMARK SMILES IDX 97 12 14 13 15 14 10 15 11 16 8 17 9 18 7 19 6 20 1 21 2 22
REMARK SMILES IDX 3 23 98 24 4 25 5 26 25 27 26 28 27 29 28 30 29 31 30 32
REMARK SMILES IDX 31 33 32 34 33 35 34 36 35 37 96 38 36 39 95 40 37 41 38 42
REMARK SMILES IDX 39 43 89 44 40 45 94 46 88 47 90 48 41 49 93 50 87 51 86 52
REMARK SMILES IDX 42 54 74 55 54 56 73 57 55 58 58 59 72 60 91 61 56 62 57 63
REMARK SMILES IDX 71 65 92 66 59 67 43 68 44 69 52 70 45 71 51 72 53 73 50 74
REMARK SMILES IDX 46 75 47 76 48 77 49 78 75 79 76 80 84 81 77 82 83 83 85 84
REMARK SMILES IDX 82 85 78 86 79 87 80 88 81 89 60 90 61 91 69 92 62 93 68 94
REMARK SMILES IDX 70 95 67 96 63 97 64 98 65 99 66 100
REMARK H PARENT 90 53 58 64
REMARK Flexibility Score: inf
ROOT
ATOM      1  C   UNL A   1      44.992  24.579  27.301  1.00  0.00     0.188 C 
ENDROOT
BRANCH   1   2
ATOM      2  C   UNL A   1      43.653  24.092  26.584  1.00  0.00     0.188 C 
BRANCH   2   3
ATOM      3  O   UNL A   1      43.318  22.828  25.788  1.00  0.00    -0.376 OA
BRANCH   3   4
ATOM      4  C   UNL A   1      42.242  21.636  25.933  1.00  0.00     0.202 C 
BRANCH   4   5
ATOM      5  C   UNL A   1      40.526  21.319  26.538  1.00  0.00     0.261 C 
BRANCH   5   6
ATOM      6  O   UNL A   1      38.976  22.301  26.601  1.00  0.00    -0.463 OA
BRANCH   6   7
ATOM      7  C   UNL A   1      38.215  23.559  26.083  1.00  0.00     0.310 C 
ATOM      8  O   UNL A   1      38.689  24.688  26.292  1.00  0.00    -0.252 OA
BRANCH   7   9
ATOM      9  C   UNL A   1      36.614  23.609  25.262  1.00  0.00     0.119 C 
ATOM     10  N   UNL A   1      34.094  24.287  24.762  1.00  0.00    -0.339 N 
ATOM     11  C   UNL A   1      34.218  23.955  23.359  1.00  0.00     0.119 C 
ATOM     12  C   UNL A   1      35.346  24.601  25.441  1.00  0.00     0.134 C 
ATOM     13  C   UNL A   1      35.361  22.958  23.116  1.00  0.00     0.022 C 
ATOM     14  C   UNL A   1      36.722  23.352  23.743  1.00  0.00     0.019 C 
BRANCH  10  15
ATOM     15  C   UNL A   1      32.873  24.277  25.407  1.00  0.00     0.263 C 
ATOM     16  O   UNL A   1      32.118  25.245  25.225  1.00  0.00    -0.271 OA
BRANCH  15  17
ATOM     17  C   UNL A   1      32.416  23.127  26.448  1.00  0.00     0.259 C 
ATOM     18  C   UNL A   1      30.904  23.194  26.748  1.00  0.00     0.064 C 
BRANCH  17  19
ATOM     19  O   UNL A   1      33.034  21.883  26.794  1.00  0.00    -0.481 OA
BRANCH  19  20
ATOM     20  C   UNL A   1      33.547  21.013  25.870  1.00  0.00     0.120 A 
ATOM     21  C   UNL A   1      32.162  18.367  23.413  1.00  0.00     0.044 C 
ATOM     22  C   UNL A   1      33.081  19.199  24.261  1.00  0.00    -0.047 A 
ATOM     23  C   UNL A   1      34.438  18.902  24.232  1.00  0.00     0.003 A 
ATOM     24  C   UNL A   1      32.641  20.245  25.102  1.00  0.00     0.049 A 
ATOM     25  C   UNL A   1      35.322  19.649  25.003  1.00  0.00     0.004 A 
ATOM     26  C   UNL A   1      34.897  20.733  25.778  1.00  0.00     0.046 A 
ENDBRANCH  19  20
ENDBRANCH  17  19
ENDBRANCH  15  17
ENDBRANCH  10  15
ENDBRANCH   7   9
ENDBRANCH   6   7
ENDBRANCH   5   6
ENDBRANCH   4   5
ENDBRANCH   3   4
ENDBRANCH   2   3
ENDBRANCH   1   2
BRANCH   1  27
ATOM     27  O   UNL A   1      45.197  25.905  27.687  1.00  0.00    -0.377 OA
BRANCH  27  28
ATOM     28  C   UNL A   1      46.117  26.608  26.889  1.00  0.00     0.188 C 
BRANCH  28  29
ATOM     29  C   UNL A   1      45.775  28.059  26.507  1.00  0.00     0.188 C 
BRANCH  29  30
ATOM     30  O   UNL A   1      44.743  28.612  27.329  1.00  0.00    -0.376 OA
BRANCH  30  31
ATOM     31  C   UNL A   1      43.558  29.026  26.682  1.00  0.00     0.202 C 
BRANCH  31  32
ATOM     32  C   UNL A   1      43.127  30.420  27.136  1.00  0.00     0.261 C 
BRANCH  32  33
ATOM     33  O   UNL A   1      43.545  31.373  26.135  1.00  0.00    -0.460 OA
BRANCH  33  34
ATOM     34  C   UNL A   1      44.725  32.003  26.362  1.00  0.00     0.338 C 
ATOM     35  O   UNL A   1      45.807  31.682  25.882  1.00  0.00    -0.246 OA
BRANCH  34  36
ATOM     36  C   UNL A   1      44.539  33.011  27.450  1.00  0.00     0.060 A 
ATOM     37  C   UNL A   1      44.876  32.677  28.758  1.00  0.00     0.016 A 
ATOM     38  C   UNL A   1      43.774  34.166  27.232  1.00  0.00     0.016 A 
ATOM     39  C   UNL A   1      44.254  33.362  29.818  1.00  0.00     0.010 A 
ATOM     40  C   UNL A   1      43.047  34.737  28.284  1.00  0.00     0.010 A 
ATOM     41  C   UNL A   1      43.136  34.205  29.581  1.00  0.00    -0.014 A 
BRANCH  41  42
ATOM     42  C   UNL A   1      41.871  34.538  30.638  1.00  0.00     0.031 A 
ATOM     43  C   UNL A   1      43.037  35.252  31.788  1.00  0.00     0.074 A 
ATOM     44  C   UNL A   1      40.285  34.037  30.800  1.00  0.00     0.049 A 
ATOM     45  N   UNL A   1      43.045  35.115  33.092  1.00  0.00    -0.248 NA
ATOM     46  C   UNL A   1      44.384  35.800  31.434  1.00  0.00     0.031 C 
ATOM     47  C   UNL A   1      39.069  34.220  31.951  1.00  0.00     0.029 A 
ATOM     48  N   UNL A   1      39.432  32.875  30.315  1.00  0.00    -0.354 N 
ATOM     49  C   UNL A   1      43.868  36.040  33.623  1.00  0.00     0.074 A 
ATOM     50  C   UNL A   1      44.899  36.078  32.642  1.00  0.00     0.031 C 
ATOM     51  C   UNL A   1      38.055  33.361  31.980  1.00  0.00     0.029 A 
ATOM     52  C   UNL A   1      38.573  32.279  31.287  1.00  0.00     0.049 A 
ATOM     53  H   UNL A   1      39.468  32.554  29.385  1.00  0.00     0.167 HD
ATOM     54  C   UNL A   1      43.360  36.887  34.568  1.00  0.00     0.034 A 
ATOM     55  C   UNL A   1      38.679  31.089  31.959  1.00  0.00     0.034 A 
ATOM     56  C   UNL A   1      42.058  36.381  35.173  1.00  0.00     0.049 A 
ATOM     57  C   UNL A   1      38.820  31.362  33.551  1.00  0.00     0.074 A 
ATOM     58  C   UNL A   1      40.794  36.941  35.315  1.00  0.00     0.029 A 
ATOM     59  N   UNL A   1      41.859  35.012  35.513  1.00  0.00    -0.354 N 
ATOM     60  N   UNL A   1      39.243  32.499  34.092  1.00  0.00    -0.248 NA
ATOM     61  C   UNL A   1      38.431  30.437  34.607  1.00  0.00     0.031 C 
ATOM     62  C   UNL A   1      39.844  35.900  35.610  1.00  0.00     0.029 A 
ATOM     63  C   UNL A   1      40.503  34.678  35.721  1.00  0.00     0.049 A 
ATOM     64  H   UNL A   1      42.595  34.363  35.597  1.00  0.00     0.167 HD
ATOM     65  C   UNL A   1      39.387  32.423  35.461  1.00  0.00     0.074 A 
ATOM     66  C   UNL A   1      38.725  31.142  35.723  1.00  0.00     0.031 C 
ATOM     67  C   UNL A   1      40.065  33.347  36.259  1.00  0.00     0.034 A 
BRANCH  54  68
ATOM     68  C   UNL A   1      43.883  38.353  34.630  1.00  0.00     0.023 A 
ATOM     69  C   UNL A   1      44.492  38.850  35.803  1.00  0.00     0.031 A 
ATOM     70  C   UNL A   1      43.724  39.350  33.616  1.00  0.00     0.131 A 
ATOM     71  C   UNL A   1      44.877  40.217  35.919  1.00  0.00     0.055 A 
ATOM     72  C   UNL A   1      44.157  40.676  33.713  1.00  0.00     0.041 A 
ATOM     73  F   UNL A   1      43.091  39.156  32.457  1.00  0.00    -0.206 F 
ATOM     74  C   UNL A   1      44.735  41.122  34.872  1.00  0.00     0.022 A 
BRANCH  71  75
ATOM     75  S   UNL A   1      45.535  40.858  37.484  1.00  0.00     0.124 S 
ATOM     76  O   UNL A   1      44.871  40.006  38.465  1.00  0.00    -0.237 OA
ATOM     77  O   UNL A   1      46.972  40.670  37.324  1.00  0.00    -0.237 OA
ATOM     78  O   UNL A   1      45.098  42.255  37.490  1.00  0.00    -0.744 OA
ENDBRANCH  71  75
ENDBRANCH  54  68
BRANCH  55  79
ATOM     79  C   UNL A   1      39.186  29.896  31.173  1.00  0.00     0.023 A 
ATOM     80  C   UNL A   1      40.562  29.524  31.229  1.00  0.00     0.031 A 
ATOM     81  C   UNL A   1      38.347  28.999  30.502  1.00  0.00     0.131 A 
ATOM     82  C   UNL A   1      41.045  28.323  30.679  1.00  0.00     0.055 A 
ATOM     83  C   UNL A   1      38.817  27.766  30.009  1.00  0.00     0.041 A 
ATOM     84  F   UNL A   1      37.032  29.235  30.417  1.00  0.00    -0.206 F 
ATOM     85  C   UNL A   1      40.165  27.421  30.101  1.00  0.00     0.022 A 
BRANCH  82  86
ATOM     86  S   UNL A   1      42.823  27.909  30.666  1.00  0.00     0.124 S 
ATOM     87  O   UNL A   1      43.047  27.441  32.029  1.00  0.00    -0.237 OA
ATOM     88  O   UNL A   1      42.930  26.880  29.639  1.00  0.00    -0.237 OA
ATOM     89  O   UNL A   1      43.449  29.189  30.339  1.00  0.00    -0.744 OA
ENDBRANCH  82  86
ENDBRANCH  55  79
BRANCH  67  90
ATOM     90  C   UNL A   1      40.356  33.123  37.758  1.00  0.00     0.023 A 
ATOM     91  C   UNL A   1      39.420  33.356  38.774  1.00  0.00     0.031 A 
ATOM     92  C   UNL A   1      41.597  32.595  38.214  1.00  0.00     0.131 A 
ATOM     93  C   UNL A   1      39.739  33.181  40.135  1.00  0.00     0.055 A 
ATOM     94  C   UNL A   1      41.877  32.323  39.561  1.00  0.00     0.041 A 
ATOM     95  F   UNL A   1      42.605  32.309  37.380  1.00  0.00    -0.206 F 
ATOM     96  C   UNL A   1      40.952  32.636  40.538  1.00  0.00     0.022 A 
BRANCH  93  97
ATOM     97  S   UNL A   1      38.545  33.763  41.366  1.00  0.00     0.124 S 
ATOM     98  O   UNL A   1      37.534  32.709  41.319  1.00  0.00    -0.237 OA
ATOM     99  O   UNL A   1      39.350  33.812  42.582  1.00  0.00    -0.237 OA
ATOM    100  O   UNL A   1      38.115  35.059  40.847  1.00  0.00    -0.744 OA
ENDBRANCH  93  97
ENDBRANCH  67  90
ENDBRANCH  41  42
ENDBRANCH  34  36
ENDBRANCH  33  34
ENDBRANCH  32  33
ENDBRANCH  31  32
ENDBRANCH  30  31
ENDBRANCH  29  30
ENDBRANCH  28  29
ENDBRANCH  27  28
ENDBRANCH   1  27
TORSDOF 27
ENDMDL
MODEL 3
REMARK VINA RESULT:      -8.6      4.344      9.196
REMARK SMILES Cc1cccc(O[C@H](C)C(=O)N2CCC[C@@H](C(=O)OCCOCCOCCOCCOC(=O)c3ccc(-c4c5nc(c(-c6cc(S(=O)(=O)[O-])ccc6F)c6ccc([nH]6)c(-c6cc(S(=O)(=O)[O-])ccc6F)c6nc(c(-c7cc(S(=O)(=O)[O-])ccc7F)c7ccc4[nH]7)C=C6)C=C5)cc3)C2)c1
REMARK SMILES IDX 24 1 23 2 22 3 21 4 20 5 19 6 17 7 18 8 16 9 12 10 13 11
REMARK SMILES IDX 97 12 14 13 15 14 10 15 11 16 8 17 9 18 7 19 6 20 1 21 2 22
REMARK SMILES IDX 3 23 98 24 4 25 5 26 25 27 26 28 27 29 28 30 29 31 30 32
REMARK SMILES IDX 31 33 32 34 33 35 34 36 35 37 96 38 36 39 95 40 37 41 38 42
REMARK SMILES IDX 39 43 89 44 40 45 94 46 88 47 90 48 41 49 93 50 87 51 86 52
REMARK SMILES IDX 42 54 74 55 54 56 73 57 55 58 58 59 72 60 91 61 56 62 57 63
REMARK SMILES IDX 71 65 92 66 59 67 43 68 44 69 52 70 45 71 51 72 53 73 50 74
REMARK SMILES IDX 46 75 47 76 48 77 49 78 75 79 76 80 84 81 77 82 83 83 85 84
REMARK SMILES IDX 82 85 78 86 79 87 80 88 81 89 60 90 61 91 69 92 62 93 68 94
REMARK SMILES IDX 70 95 67 96 63 97 64 98 65 99 66 100
REMARK H PARENT 90 53 58 64
REMARK Flexibility Score: inf
ROOT
ATOM      1  C   UNL A   1      36.547  32.881  30.276  1.00  0.00     0.188 C 
ENDROOT
BRANCH   1   2
ATOM      2  C   UNL A   1      37.490  31.679  30.734  1.00  0.00     0.188 C 
BRANCH   2   3
ATOM      3  O   UNL A   1      38.005  30.441  29.997  1.00  0.00    -0.376 OA
BRANCH   3   4
ATOM      4  C   UNL A   1      37.467  29.526  28.783  1.00  0.00     0.202 C 
BRANCH   4   5
ATOM      5  C   UNL A   1      36.007  29.337  27.667  1.00  0.00     0.261 C 
BRANCH   5   6
ATOM      6  O   UNL A   1      34.371  30.161  27.529  1.00  0.00    -0.463 OA
BRANCH   6   7
ATOM      7  C   UNL A   1      33.060  30.312  26.701  1.00  0.00     0.310 C 
ATOM      8  O   UNL A   1      32.198  31.128  27.067  1.00  0.00    -0.252 OA
BRANCH   7   9
ATOM      9  C   UNL A   1      32.555  29.350  25.266  1.00  0.00     0.119 C 
ATOM     10  N   UNL A   1      31.242  28.684  23.054  1.00  0.00    -0.339 N 
ATOM     11  C   UNL A   1      32.309  27.814  22.609  1.00  0.00     0.119 C 
ATOM     12  C   UNL A   1      31.641  29.734  23.984  1.00  0.00     0.134 C 
ATOM     13  C   UNL A   1      33.182  27.348  23.784  1.00  0.00     0.022 C 
ATOM     14  C   UNL A   1      33.701  28.480  24.706  1.00  0.00     0.019 C 
BRANCH  10  15
ATOM     15  C   UNL A   1      29.937  28.505  22.640  1.00  0.00     0.263 C 
ATOM     16  O   UNL A   1      29.565  29.118  21.627  1.00  0.00    -0.271 OA
BRANCH  15  17
ATOM     17  C   UNL A   1      28.850  27.620  23.449  1.00  0.00     0.259 C 
ATOM     18  C   UNL A   1      27.425  28.195  23.308  1.00  0.00     0.064 C 
BRANCH  17  19
ATOM     19  O   UNL A   1      28.900  26.261  23.894  1.00  0.00    -0.481 OA
BRANCH  19  20
ATOM     20  C   UNL A   1      29.977  25.718  24.543  1.00  0.00     0.120 A 
ATOM     21  C   UNL A   1      32.125  22.516  24.249  1.00  0.00     0.044 C 
ATOM     22  C   UNL A   1      31.506  23.790  24.747  1.00  0.00    -0.047 A 
ATOM     23  C   UNL A   1      31.913  24.270  25.986  1.00  0.00     0.003 A 
ATOM     24  C   UNL A   1      30.518  24.512  24.040  1.00  0.00     0.049 A 
ATOM     25  C   UNL A   1      31.363  25.446  26.483  1.00  0.00     0.004 A 
ATOM     26  C   UNL A   1      30.441  26.201  25.750  1.00  0.00     0.046 A 
ENDBRANCH  19  20
ENDBRANCH  17  19
ENDBRANCH  15  17
ENDBRANCH  10  15
ENDBRANCH   7   9
ENDBRANCH   6   7
ENDBRANCH   5   6
ENDBRANCH   4   5
ENDBRANCH   3   4
ENDBRANCH   2   3
ENDBRANCH   1   2
BRANCH   1  27
ATOM     27  O   UNL A   1      35.354  32.674  29.580  1.00  0.00    -0.377 OA
BRANCH  27  28
ATOM     28  C   UNL A   1      34.370  33.652  29.807  1.00  0.00     0.188 C 
BRANCH  28  29
ATOM     29  C   UNL A   1      34.461  34.474  31.105  1.00  0.00     0.188 C 
BRANCH  29  30
ATOM     30  O   UNL A   1      33.462  34.103  32.059  1.00  0.00    -0.376 OA
BRANCH  30  31
ATOM     31  C   UNL A   1      33.901  33.441  33.226  1.00  0.00     0.202 C 
BRANCH  31  32
ATOM     32  C   UNL A   1      35.273  33.943  33.676  1.00  0.00     0.261 C 
BRANCH  32  33
ATOM     33  O   UNL A   1      36.122  32.799  33.906  1.00  0.00    -0.460 OA
BRANCH  33  34
ATOM     34  C   UNL A   1      36.907  32.847  35.012  1.00  0.00     0.338 C 
ATOM     35  O   UNL A   1      36.554  33.238  36.119  1.00  0.00    -0.246 OA
BRANCH  34  36
ATOM     36  C   UNL A   1      38.319  32.553  34.620  1.00  0.00     0.060 A 
ATOM     37  C   UNL A   1      39.076  31.678  35.392  1.00  0.00     0.016 A 
ATOM     38  C   UNL A   1      38.980  33.349  33.674  1.00  0.00     0.016 A 
ATOM     39  C   UNL A   1      40.478  31.784  35.367  1.00  0.00     0.010 A 
ATOM     40  C   UNL A   1      40.363  33.553  33.767  1.00  0.00     0.010 A 
ATOM     41  C   UNL A   1      41.111  32.903  34.762  1.00  0.00    -0.014 A 
BRANCH  41  42
ATOM     42  C   UNL A   1      42.589  33.585  35.184  1.00  0.00     0.031 A 
ATOM     43  C   UNL A   1      41.733  34.782  36.197  1.00  0.00     0.074 A 
ATOM     44  C   UNL A   1      44.151  33.513  34.593  1.00  0.00     0.049 A 
ATOM     45  N   UNL A   1      42.006  36.060  36.310  1.00  0.00    -0.248 NA
ATOM     46  C   UNL A   1      40.364  34.611  36.777  1.00  0.00     0.031 C 
ATOM     47  C   UNL A   1      45.596  34.326  34.890  1.00  0.00     0.029 A 
ATOM     48  N   UNL A   1      44.830  33.108  33.294  1.00  0.00    -0.354 N 
ATOM     49  C   UNL A   1      41.357  36.551  37.385  1.00  0.00     0.074 A 
ATOM     50  C   UNL A   1      40.138  35.817  37.321  1.00  0.00     0.031 C 
ATOM     51  C   UNL A   1      46.556  34.319  33.971  1.00  0.00     0.029 A 
ATOM     52  C   UNL A   1      45.856  33.982  32.825  1.00  0.00     0.049 A 
ATOM     53  H   UNL A   1      44.577  32.291  32.807  1.00  0.00     0.167 HD
ATOM     54  C   UNL A   1      42.093  37.178  38.350  1.00  0.00     0.034 A 
ATOM     55  C   UNL A   1      45.853  34.888  31.796  1.00  0.00     0.034 A 
ATOM     56  C   UNL A   1      43.474  37.590  37.862  1.00  0.00     0.049 A 
ATOM     57  C   UNL A   1      46.075  36.386  32.377  1.00  0.00     0.074 A 
ATOM     58  C   UNL A   1      44.760  37.351  38.332  1.00  0.00     0.029 A 
ATOM     59  N   UNL A   1      43.689  38.153  36.571  1.00  0.00    -0.354 N 
ATOM     60  N   UNL A   1      45.827  36.761  33.626  1.00  0.00    -0.248 NA
ATOM     61  C   UNL A   1      46.649  37.503  31.640  1.00  0.00     0.031 C 
ATOM     62  C   UNL A   1      45.710  37.647  37.291  1.00  0.00     0.029 A 
ATOM     63  C   UNL A   1      45.043  38.139  36.171  1.00  0.00     0.049 A 
ATOM     64  H   UNL A   1      42.964  38.517  36.012  1.00  0.00     0.167 HD
ATOM     65  C   UNL A   1      45.983  38.116  33.823  1.00  0.00     0.074 A 
ATOM     66  C   UNL A   1      46.635  38.490  32.565  1.00  0.00     0.031 C 
ATOM     67  C   UNL A   1      45.534  38.833  34.934  1.00  0.00     0.034 A 
BRANCH  54  68
ATOM     68  C   UNL A   1      41.655  37.048  39.840  1.00  0.00     0.023 A 
ATOM     69  C   UNL A   1      42.187  36.027  40.658  1.00  0.00     0.031 A 
ATOM     70  C   UNL A   1      40.645  37.822  40.494  1.00  0.00     0.131 A 
ATOM     71  C   UNL A   1      41.719  35.822  41.989  1.00  0.00     0.055 A 
ATOM     72  C   UNL A   1      40.232  37.655  41.819  1.00  0.00     0.041 A 
ATOM     73  F   UNL A   1      39.925  38.778  39.904  1.00  0.00    -0.206 F 
ATOM     74  C   UNL A   1      40.765  36.647  42.577  1.00  0.00     0.022 A 
BRANCH  71  75
ATOM     75  S   UNL A   1      42.324  34.422  42.972  1.00  0.00     0.124 S 
ATOM     76  O   UNL A   1      42.229  34.942  44.332  1.00  0.00    -0.237 OA
ATOM     77  O   UNL A   1      41.394  33.358  42.614  1.00  0.00    -0.237 OA
ATOM     78  O   UNL A   1      43.691  34.229  42.484  1.00  0.00    -0.744 OA
ENDBRANCH  71  75
ENDBRANCH  54  68
BRANCH  55  79
ATOM     79  C   UNL A   1      45.139  34.483  30.522  1.00  0.00     0.023 A 
ATOM     80  C   UNL A   1      44.043  35.254  30.029  1.00  0.00     0.031 A 
ATOM     81  C   UNL A   1      45.591  33.468  29.671  1.00  0.00     0.131 A 
ATOM     82  C   UNL A   1      43.473  35.036  28.761  1.00  0.00     0.055 A 
ATOM     83  C   UNL A   1      45.066  33.292  28.375  1.00  0.00     0.041 A 
ATOM     84  F   UNL A   1      46.634  32.705  30.021  1.00  0.00    -0.206 F 
ATOM     85  C   UNL A   1      44.011  34.080  27.914  1.00  0.00     0.022 A 
BRANCH  82  86
ATOM     86  S   UNL A   1      42.008  35.960  28.187  1.00  0.00     0.124 S 
ATOM     87  O   UNL A   1      42.007  35.691  26.754  1.00  0.00    -0.237 OA
ATOM     88  O   UNL A   1      40.907  35.353  28.926  1.00  0.00    -0.237 OA
ATOM     89  O   UNL A   1      42.329  37.337  28.559  1.00  0.00    -0.744 OA
ENDBRANCH  82  86
ENDBRANCH  55  79
BRANCH  67  90
ATOM     90  C   UNL A   1      45.570  40.373  35.023  1.00  0.00     0.023 A 
ATOM     91  C   UNL A   1      44.633  41.209  34.400  1.00  0.00     0.031 A 
ATOM     92  C   UNL A   1      46.537  41.060  35.809  1.00  0.00     0.131 A 
ATOM     93  C   UNL A   1      44.727  42.613  34.470  1.00  0.00     0.055 A 
ATOM     94  C   UNL A   1      46.566  42.453  35.962  1.00  0.00     0.041 A 
ATOM     95  F   UNL A   1      47.505  40.420  36.478  1.00  0.00    -0.206 F 
ATOM     96  C   UNL A   1      45.668  43.245  35.272  1.00  0.00     0.022 A 
BRANCH  93  97
ATOM     97  S   UNL A   1      43.624  43.588  33.413  1.00  0.00     0.124 S 
ATOM     98  O   UNL A   1      43.116  42.570  32.497  1.00  0.00    -0.237 OA
ATOM     99  O   UNL A   1      42.659  44.113  34.372  1.00  0.00    -0.237 OA
ATOM    100  O   UNL A   1      44.511  44.580  32.810  1.00  0.00    -0.744 OA
ENDBRANCH  93  97
ENDBRANCH  67  90
ENDBRANCH  41  42
ENDBRANCH  34  36
ENDBRANCH  33  34
ENDBRANCH  32  33
ENDBRANCH  31  32
ENDBRANCH  30  31
ENDBRANCH  29  30
ENDBRANCH  28  29
ENDBRANCH  27  28
ENDBRANCH   1  27
TORSDOF 27
ENDMDL
