MODEL 1
REMARK VINA RESULT:      -8.5      0.000      0.000
REMARK SMILES C[C@](Nc1ccc(S(N)(=O)=O)cc1)(C(=O)OCCOCCOCCOCCOC(=O)c1ccc(-c2c3nc(c(-c4cc(S(=O)(=O)[O-])ccc4F)c4ccc([nH]4)c(-c4cc(S(=O)(=O)[O-])ccc4F)c4nc(c(-c5cc(S(=O)(=O)[O-])ccc5F)c5ccc2[nH]5)C=C4)C=C3)cc1)C(F)(F)F
REMARK SMILES IDX 21 1 20 2 19 3 18 4 17 5 16 6 14 7 15 8 2 9 1 10 94 11 95 12
REMARK SMILES IDX 96 13 97 14 3 15 4 17 5 18 13 19 6 20 12 21 7 22 8 23 10 24
REMARK SMILES IDX 11 25 9 26 22 29 23 30 24 31 25 32 26 33 27 34 28 35 29 36
REMARK SMILES IDX 30 37 31 38 32 39 93 40 33 41 92 42 34 43 35 44 36 45 86 46
REMARK SMILES IDX 37 47 91 48 85 49 87 50 38 51 90 52 84 53 83 54 39 56 71 57
REMARK SMILES IDX 51 58 70 59 52 60 55 61 69 62 88 63 53 64 54 65 68 67 89 68
REMARK SMILES IDX 56 69 40 70 41 71 49 72 42 73 48 74 50 75 47 76 43 77 44 78
REMARK SMILES IDX 45 79 46 80 72 81 73 82 81 83 74 84 80 85 82 86 79 87 75 88
REMARK SMILES IDX 76 89 77 90 78 91 57 92 58 93 66 94 59 95 65 96 67 97 64 98
REMARK SMILES IDX 60 99 61 100 62 101 63 102
REMARK H PARENT 3 16 9 27 9 28 87 55 55 66
REMARK Flexibility Score: inf
ROOT
ATOM      1  C   UNL A   1      35.506  32.290  27.794  1.00  0.00     0.188 C 
ENDROOT
BRANCH   1   2
ATOM      2  C   UNL A   1      34.668  31.005  27.777  1.00  0.00     0.188 C 
BRANCH   2   3
ATOM      3  O   UNL A   1      33.274  31.166  27.599  1.00  0.00    -0.376 OA
BRANCH   3   4
ATOM      4  C   UNL A   1      32.560  30.467  26.590  1.00  0.00     0.202 C 
BRANCH   4   5
ATOM      5  C   UNL A   1      31.788  29.138  26.765  1.00  0.00     0.261 C 
BRANCH   5   6
ATOM      6  O   UNL A   1      32.437  27.924  26.363  1.00  0.00    -0.461 OA
BRANCH   6   7
ATOM      7  C   UNL A   1      31.643  26.914  25.930  1.00  0.00     0.341 C 
ATOM      8  O   UNL A   1      30.623  26.576  26.518  1.00  0.00    -0.249 OA
BRANCH   7   9
ATOM      9  C   UNL A   1      32.205  26.223  24.672  1.00  0.00     0.229 C 
ATOM     10  C   UNL A   1      33.227  27.197  24.079  1.00  0.00     0.057 C 
BRANCH   9  11
ATOM     11  C   UNL A   1      32.906  24.962  25.233  1.00  0.00     0.422 C 
ATOM     12  F   UNL A   1      32.099  23.872  25.211  1.00  0.00    -0.168 F 
ATOM     13  F   UNL A   1      34.016  24.644  24.517  1.00  0.00    -0.168 F 
ATOM     14  F   UNL A   1      33.341  25.102  26.505  1.00  0.00    -0.168 F 
ENDBRANCH   9  11
BRANCH   9  15
ATOM     15  N   UNL A   1      31.142  25.977  23.604  1.00  0.00    -0.363 N 
ATOM     16  H   UNL A   1      31.002  25.070  23.249  1.00  0.00     0.162 HD
BRANCH  15  17
ATOM     17  C   UNL A   1      30.368  27.036  23.133  1.00  0.00     0.035 A 
ATOM     18  C   UNL A   1      29.032  27.166  23.522  1.00  0.00     0.027 A 
ATOM     19  C   UNL A   1      30.964  28.093  22.434  1.00  0.00     0.027 A 
ATOM     20  C   UNL A   1      28.377  28.399  23.411  1.00  0.00     0.024 A 
ATOM     21  C   UNL A   1      30.332  29.332  22.331  1.00  0.00     0.024 A 
ATOM     22  C   UNL A   1      29.061  29.494  22.879  1.00  0.00     0.082 A 
BRANCH  22  23
ATOM     23  S   UNL A   1      28.445  31.134  23.125  1.00  0.00     0.238 S 
ATOM     24  O   UNL A   1      28.644  31.900  21.911  1.00  0.00    -0.207 OA
ATOM     25  O   UNL A   1      27.166  31.076  23.787  1.00  0.00    -0.207 OA
BRANCH  23  26
ATOM     26  N   UNL A   1      29.506  31.778  24.250  1.00  0.00    -0.225 NA
ATOM     27  H   UNL A   1      29.300  32.767  24.385  1.00  0.00     0.137 HD
ATOM     28  H   UNL A   1      30.464  31.673  23.913  1.00  0.00     0.137 HD
ENDBRANCH  23  26
ENDBRANCH  22  23
ENDBRANCH  15  17
ENDBRANCH   9  15
ENDBRANCH   7   9
ENDBRANCH   6   7
ENDBRANCH   5   6
ENDBRANCH   4   5
ENDBRANCH   3   4
ENDBRANCH   2   3
ENDBRANCH   1   2
BRANCH   1  29
ATOM     29  O   UNL A   1      36.353  32.395  28.923  1.00  0.00    -0.377 OA
BRANCH  29  30
ATOM     30  C   UNL A   1      35.728  32.620  30.181  1.00  0.00     0.188 C 
BRANCH  30  31
ATOM     31  C   UNL A   1      34.788  33.832  30.377  1.00  0.00     0.188 C 
BRANCH  31  32
ATOM     32  O   UNL A   1      33.896  33.734  31.480  1.00  0.00    -0.376 OA
BRANCH  32  33
ATOM     33  C   UNL A   1      33.909  34.746  32.475  1.00  0.00     0.202 C 
BRANCH  33  34
ATOM     34  C   UNL A   1      34.779  34.525  33.725  1.00  0.00     0.261 C 
BRANCH  34  35
ATOM     35  O   UNL A   1      35.401  33.237  33.851  1.00  0.00    -0.460 OA
BRANCH  35  36
ATOM     36  C   UNL A   1      36.429  33.136  34.723  1.00  0.00     0.338 C 
ATOM     37  O   UNL A   1      36.415  33.448  35.898  1.00  0.00    -0.246 OA
BRANCH  36  38
ATOM     38  C   UNL A   1      37.516  32.374  34.068  1.00  0.00     0.060 A 
ATOM     39  C   UNL A   1      37.810  31.092  34.550  1.00  0.00     0.016 A 
ATOM     40  C   UNL A   1      38.239  32.909  32.999  1.00  0.00     0.016 A 
ATOM     41  C   UNL A   1      38.866  30.366  34.003  1.00  0.00     0.010 A 
ATOM     42  C   UNL A   1      39.314  32.187  32.466  1.00  0.00     0.010 A 
ATOM     43  C   UNL A   1      39.660  30.931  32.997  1.00  0.00    -0.014 A 
BRANCH  43  44
ATOM     44  C   UNL A   1      40.962  30.293  32.676  1.00  0.00     0.031 A 
ATOM     45  C   UNL A   1      42.135  30.572  33.579  1.00  0.00     0.074 A 
ATOM     46  C   UNL A   1      41.080  29.411  31.667  1.00  0.00     0.049 A 
ATOM     47  N   UNL A   1      43.358  30.113  33.523  1.00  0.00    -0.248 NA
ATOM     48  C   UNL A   1      41.891  31.496  34.700  1.00  0.00     0.031 C 
ATOM     49  C   UNL A   1      40.003  29.023  30.758  1.00  0.00     0.029 A 
ATOM     50  N   UNL A   1      42.159  28.678  31.243  1.00  0.00    -0.354 N 
ATOM     51  C   UNL A   1      44.025  30.678  34.605  1.00  0.00     0.074 A 
ATOM     52  C   UNL A   1      43.086  31.561  35.264  1.00  0.00     0.031 C 
ATOM     53  C   UNL A   1      40.479  28.122  29.879  1.00  0.00     0.029 A 
ATOM     54  C   UNL A   1      41.900  27.898  30.139  1.00  0.00     0.049 A 
ATOM     55  H   UNL A   1      43.037  28.706  31.687  1.00  0.00     0.167 HD
ATOM     56  C   UNL A   1      45.296  30.465  35.026  1.00  0.00     0.034 A 
ATOM     57  C   UNL A   1      42.722  27.113  29.412  1.00  0.00     0.034 A 
ATOM     58  C   UNL A   1      46.229  29.598  34.350  1.00  0.00     0.049 A 
ATOM     59  C   UNL A   1      44.165  26.970  29.841  1.00  0.00     0.074 A 
ATOM     60  C   UNL A   1      47.546  29.324  34.677  1.00  0.00     0.029 A 
ATOM     61  N   UNL A   1      45.948  28.868  33.201  1.00  0.00    -0.354 N 
ATOM     62  N   UNL A   1      44.783  27.511  30.867  1.00  0.00    -0.248 NA
ATOM     63  C   UNL A   1      45.015  26.095  29.024  1.00  0.00     0.031 C 
ATOM     64  C   UNL A   1      48.081  28.493  33.688  1.00  0.00     0.029 A 
ATOM     65  C   UNL A   1      47.075  28.170  32.793  1.00  0.00     0.049 A 
ATOM     66  H   UNL A   1      45.076  28.849  32.744  1.00  0.00     0.167 HD
ATOM     67  C   UNL A   1      46.085  27.013  30.833  1.00  0.00     0.074 A 
ATOM     68  C   UNL A   1      46.150  26.108  29.704  1.00  0.00     0.031 C 
ATOM     69  C   UNL A   1      47.132  27.278  31.658  1.00  0.00     0.034 A 
BRANCH  56  70
ATOM     70  C   UNL A   1      45.755  31.216  36.254  1.00  0.00     0.023 A 
ATOM     71  C   UNL A   1      45.626  30.671  37.543  1.00  0.00     0.031 A 
ATOM     72  C   UNL A   1      46.310  32.503  36.137  1.00  0.00     0.131 A 
ATOM     73  C   UNL A   1      45.983  31.434  38.665  1.00  0.00     0.055 A 
ATOM     74  C   UNL A   1      46.743  33.223  37.251  1.00  0.00     0.041 A 
ATOM     75  F   UNL A   1      46.433  33.088  34.934  1.00  0.00    -0.206 F 
ATOM     76  C   UNL A   1      46.567  32.695  38.527  1.00  0.00     0.022 A 
BRANCH  73  77
ATOM     77  S   UNL A   1      45.539  30.815  40.311  1.00  0.00     0.124 S 
ATOM     78  O   UNL A   1      46.848  30.734  40.957  1.00  0.00    -0.237 OA
ATOM     79  O   UNL A   1      44.644  31.852  40.809  1.00  0.00    -0.237 OA
ATOM     80  O   UNL A   1      44.910  29.525  40.034  1.00  0.00    -0.744 OA
ENDBRANCH  73  77
ENDBRANCH  56  70
BRANCH  57  81
ATOM     81  C   UNL A   1      42.229  26.439  28.172  1.00  0.00     0.023 A 
ATOM     82  C   UNL A   1      41.828  25.093  28.175  1.00  0.00     0.031 A 
ATOM     83  C   UNL A   1      42.236  27.117  26.939  1.00  0.00     0.131 A 
ATOM     84  C   UNL A   1      41.512  24.453  26.966  1.00  0.00     0.055 A 
ATOM     85  C   UNL A   1      41.856  26.495  25.749  1.00  0.00     0.041 A 
ATOM     86  F   UNL A   1      42.619  28.403  26.872  1.00  0.00    -0.206 F 
ATOM     87  C   UNL A   1      41.508  25.149  25.756  1.00  0.00     0.022 A 
BRANCH  84  88
ATOM     88  S   UNL A   1      41.226  22.660  26.979  1.00  0.00     0.124 S 
ATOM     89  O   UNL A   1      42.206  22.198  26.003  1.00  0.00    -0.237 OA
ATOM     90  O   UNL A   1      41.497  22.323  28.372  1.00  0.00    -0.237 OA
ATOM     91  O   UNL A   1      39.828  22.538  26.570  1.00  0.00    -0.744 OA
ENDBRANCH  84  88
ENDBRANCH  57  81
BRANCH  69  92
ATOM     92  C   UNL A   1      48.423  26.537  31.390  1.00  0.00     0.023 A 
ATOM     93  C   UNL A   1      49.280  26.895  30.334  1.00  0.00     0.031 A 
ATOM     94  C   UNL A   1      48.785  25.433  32.184  1.00  0.00     0.131 A 
ATOM     95  C   UNL A   1      50.406  26.108  30.048  1.00  0.00     0.055 A 
ATOM     96  C   UNL A   1      49.950  24.702  31.944  1.00  0.00     0.041 A 
ATOM     97  F   UNL A   1      48.008  25.039  33.206  1.00  0.00    -0.206 F 
ATOM     98  C   UNL A   1      50.757  25.026  30.858  1.00  0.00     0.022 A 
BRANCH  95  99
ATOM     99  S   UNL A   1      51.324  26.432  28.517  1.00  0.00     0.124 S 
ATOM    100  O   UNL A   1      50.857  25.355  27.651  1.00  0.00    -0.237 OA
ATOM    101  O   UNL A   1      50.874  27.775  28.164  1.00  0.00    -0.237 OA
ATOM    102  O   UNL A   1      52.723  26.335  28.930  1.00  0.00    -0.744 OA
ENDBRANCH  95  99
ENDBRANCH  69  92
ENDBRANCH  43  44
ENDBRANCH  36  38
ENDBRANCH  35  36
ENDBRANCH  34  35
ENDBRANCH  33  34
ENDBRANCH  32  33
ENDBRANCH  31  32
ENDBRANCH  30  31
ENDBRANCH  29  30
ENDBRANCH   1  29
TORSDOF 28
ENDMDL
MODEL 2
REMARK VINA RESULT:      -8.2      4.699      8.551
REMARK SMILES C[C@](Nc1ccc(S(N)(=O)=O)cc1)(C(=O)OCCOCCOCCOCCOC(=O)c1ccc(-c2c3nc(c(-c4cc(S(=O)(=O)[O-])ccc4F)c4ccc([nH]4)c(-c4cc(S(=O)(=O)[O-])ccc4F)c4nc(c(-c5cc(S(=O)(=O)[O-])ccc5F)c5ccc2[nH]5)C=C4)C=C3)cc1)C(F)(F)F
REMARK SMILES IDX 21 1 20 2 19 3 18 4 17 5 16 6 14 7 15 8 2 9 1 10 94 11 95 12
REMARK SMILES IDX 96 13 97 14 3 15 4 17 5 18 13 19 6 20 12 21 7 22 8 23 10 24
REMARK SMILES IDX 11 25 9 26 22 29 23 30 24 31 25 32 26 33 27 34 28 35 29 36
REMARK SMILES IDX 30 37 31 38 32 39 93 40 33 41 92 42 34 43 35 44 36 45 86 46
REMARK SMILES IDX 37 47 91 48 85 49 87 50 38 51 90 52 84 53 83 54 39 56 71 57
REMARK SMILES IDX 51 58 70 59 52 60 55 61 69 62 88 63 53 64 54 65 68 67 89 68
REMARK SMILES IDX 56 69 40 70 41 71 49 72 42 73 48 74 50 75 47 76 43 77 44 78
REMARK SMILES IDX 45 79 46 80 72 81 73 82 81 83 74 84 80 85 82 86 79 87 75 88
REMARK SMILES IDX 76 89 77 90 78 91 57 92 58 93 66 94 59 95 65 96 67 97 64 98
REMARK SMILES IDX 60 99 61 100 62 101 63 102
REMARK H PARENT 3 16 9 27 9 28 87 55 55 66
REMARK Flexibility Score: inf
ROOT
ATOM      1  C   UNL A   1      32.569  36.379  32.002  1.00  0.00     0.188 C 
ENDROOT
BRANCH   1   2
ATOM      2  C   UNL A   1      32.423  34.856  32.124  1.00  0.00     0.188 C 
BRANCH   2   3
ATOM      3  O   UNL A   1      33.021  34.256  33.257  1.00  0.00    -0.376 OA
BRANCH   3   4
ATOM      4  C   UNL A   1      34.413  33.981  33.316  1.00  0.00     0.202 C 
BRANCH   4   5
ATOM      5  C   UNL A   1      35.104  32.658  32.914  1.00  0.00     0.261 C 
BRANCH   5   6
ATOM      6  O   UNL A   1      36.324  32.306  33.581  1.00  0.00    -0.461 OA
BRANCH   6   7
ATOM      7  C   UNL A   1      37.465  32.878  33.125  1.00  0.00     0.341 C 
ATOM      8  O   UNL A   1      37.760  32.910  31.937  1.00  0.00    -0.249 OA
BRANCH   7   9
ATOM      9  C   UNL A   1      38.351  33.415  34.266  1.00  0.00     0.229 C 
ATOM     10  C   UNL A   1      39.217  32.233  34.716  1.00  0.00     0.057 C 
BRANCH   9  11
ATOM     11  C   UNL A   1      39.213  34.499  33.579  1.00  0.00     0.422 C 
ATOM     12  F   UNL A   1      38.569  35.086  32.538  1.00  0.00    -0.168 F 
ATOM     13  F   UNL A   1      39.553  35.493  34.441  1.00  0.00    -0.168 F 
ATOM     14  F   UNL A   1      40.390  34.037  33.100  1.00  0.00    -0.168 F 
ENDBRANCH   9  11
BRANCH   9  15
ATOM     15  N   UNL A   1      37.545  33.871  35.480  1.00  0.00    -0.363 N 
ATOM     16  H   UNL A   1      36.682  34.328  35.354  1.00  0.00     0.162 HD
BRANCH  15  17
ATOM     17  C   UNL A   1      38.029  33.642  36.766  1.00  0.00     0.035 A 
ATOM     18  C   UNL A   1      38.921  34.542  37.359  1.00  0.00     0.027 A 
ATOM     19  C   UNL A   1      37.480  32.629  37.561  1.00  0.00     0.027 A 
ATOM     20  C   UNL A   1      39.088  34.564  38.749  1.00  0.00     0.024 A 
ATOM     21  C   UNL A   1      37.624  32.648  38.948  1.00  0.00     0.024 A 
ATOM     22  C   UNL A   1      38.379  33.659  39.540  1.00  0.00     0.082 A 
BRANCH  22  23
ATOM     23  S   UNL A   1      38.216  33.933  41.280  1.00  0.00     0.238 S 
ATOM     24  O   UNL A   1      39.492  33.677  41.920  1.00  0.00    -0.207 OA
ATOM     25  O   UNL A   1      37.480  35.149  41.511  1.00  0.00    -0.207 OA
BRANCH  23  26
ATOM     26  N   UNL A   1      37.203  32.692  41.770  1.00  0.00    -0.225 NA
ATOM     27  H   UNL A   1      37.662  32.146  42.500  1.00  0.00     0.137 HD
ATOM     28  H   UNL A   1      36.995  32.088  40.975  1.00  0.00     0.137 HD
ENDBRANCH  23  26
ENDBRANCH  22  23
ENDBRANCH  15  17
ENDBRANCH   9  15
ENDBRANCH   7   9
ENDBRANCH   6   7
ENDBRANCH   5   6
ENDBRANCH   4   5
ENDBRANCH   3   4
ENDBRANCH   2   3
ENDBRANCH   1   2
BRANCH   1  29
ATOM     29  O   UNL A   1      32.432  36.853  30.675  1.00  0.00    -0.377 OA
BRANCH  29  30
ATOM     30  C   UNL A   1      33.125  36.138  29.659  1.00  0.00     0.188 C 
BRANCH  30  31
ATOM     31  C   UNL A   1      34.287  35.188  30.031  1.00  0.00     0.188 C 
BRANCH  31  32
ATOM     32  O   UNL A   1      34.905  34.529  28.932  1.00  0.00    -0.376 OA
BRANCH  32  33
ATOM     33  C   UNL A   1      34.259  33.413  28.340  1.00  0.00     0.202 C 
BRANCH  33  34
ATOM     34  C   UNL A   1      35.112  32.179  27.995  1.00  0.00     0.261 C 
BRANCH  34  35
ATOM     35  O   UNL A   1      34.453  31.128  27.272  1.00  0.00    -0.460 OA
BRANCH  35  36
ATOM     36  C   UNL A   1      34.620  29.869  27.734  1.00  0.00     0.338 C 
ATOM     37  O   UNL A   1      33.844  28.941  27.603  1.00  0.00    -0.246 OA
BRANCH  36  38
ATOM     38  C   UNL A   1      36.007  29.742  28.236  1.00  0.00     0.060 A 
ATOM     39  C   UNL A   1      37.059  30.015  27.353  1.00  0.00     0.016 A 
ATOM     40  C   UNL A   1      36.272  29.355  29.552  1.00  0.00     0.016 A 
ATOM     41  C   UNL A   1      38.379  29.847  27.767  1.00  0.00     0.010 A 
ATOM     42  C   UNL A   1      37.598  29.165  29.959  1.00  0.00     0.010 A 
ATOM     43  C   UNL A   1      38.655  29.367  29.054  1.00  0.00    -0.014 A 
BRANCH  43  44
ATOM     44  C   UNL A   1      40.026  28.878  29.351  1.00  0.00     0.031 A 
ATOM     45  C   UNL A   1      40.815  29.576  30.428  1.00  0.00     0.074 A 
ATOM     46  C   UNL A   1      40.524  27.783  28.749  1.00  0.00     0.049 A 
ATOM     47  N   UNL A   1      42.012  29.317  30.885  1.00  0.00    -0.248 NA
ATOM     48  C   UNL A   1      40.159  30.722  31.079  1.00  0.00     0.031 C 
ATOM     49  C   UNL A   1      39.834  26.995  27.729  1.00  0.00     0.029 A 
ATOM     50  N   UNL A   1      41.725  27.140  28.916  1.00  0.00    -0.354 N 
ATOM     51  C   UNL A   1      42.248  30.256  31.884  1.00  0.00     0.074 A 
ATOM     52  C   UNL A   1      41.093  31.126  31.924  1.00  0.00     0.031 C 
ATOM     53  C   UNL A   1      40.628  25.974  27.358  1.00  0.00     0.029 A 
ATOM     54  C   UNL A   1      41.893  26.056  28.086  1.00  0.00     0.049 A 
ATOM     55  H   UNL A   1      42.402  27.426  29.570  1.00  0.00     0.167 HD
ATOM     56  C   UNL A   1      43.318  30.368  32.709  1.00  0.00     0.034 A 
ATOM     57  C   UNL A   1      42.955  25.240  27.918  1.00  0.00     0.034 A 
ATOM     58  C   UNL A   1      44.472  29.507  32.646  1.00  0.00     0.049 A 
ATOM     59  C   UNL A   1      44.180  25.449  28.780  1.00  0.00     0.074 A 
ATOM     60  C   UNL A   1      45.620  29.544  33.419  1.00  0.00     0.029 A 
ATOM     61  N   UNL A   1      44.632  28.454  31.753  1.00  0.00    -0.354 N 
ATOM     62  N   UNL A   1      44.389  26.342  29.721  1.00  0.00    -0.248 NA
ATOM     63  C   UNL A   1      45.303  24.528  28.568  1.00  0.00     0.031 C 
ATOM     64  C   UNL A   1      46.502  28.568  32.944  1.00  0.00     0.029 A 
ATOM     65  C   UNL A   1      45.870  27.856  31.937  1.00  0.00     0.049 A 
ATOM     66  H   UNL A   1      43.964  28.174  31.086  1.00  0.00     0.167 HD
ATOM     67  C   UNL A   1      45.656  26.064  30.234  1.00  0.00     0.074 A 
ATOM     68  C   UNL A   1      46.146  24.906  29.516  1.00  0.00     0.031 C 
ATOM     69  C   UNL A   1      46.353  26.707  31.207  1.00  0.00     0.034 A 
BRANCH  56  70
ATOM     70  C   UNL A   1      43.299  31.491  33.719  1.00  0.00     0.023 A 
ATOM     71  C   UNL A   1      43.005  31.258  35.075  1.00  0.00     0.031 A 
ATOM     72  C   UNL A   1      43.556  32.815  33.321  1.00  0.00     0.131 A 
ATOM     73  C   UNL A   1      42.911  32.338  35.967  1.00  0.00     0.055 A 
ATOM     74  C   UNL A   1      43.544  33.874  34.230  1.00  0.00     0.041 A 
ATOM     75  F   UNL A   1      43.814  33.103  32.035  1.00  0.00    -0.206 F 
ATOM     76  C   UNL A   1      43.207  33.640  35.560  1.00  0.00     0.022 A 
BRANCH  73  77
ATOM     77  S   UNL A   1      42.256  32.032  37.630  1.00  0.00     0.124 S 
ATOM     78  O   UNL A   1      43.147  30.977  38.108  1.00  0.00    -0.237 OA
ATOM     79  O   UNL A   1      42.404  33.333  38.272  1.00  0.00    -0.237 OA
ATOM     80  O   UNL A   1      40.878  31.609  37.384  1.00  0.00    -0.744 OA
ENDBRANCH  73  77
ENDBRANCH  56  70
BRANCH  57  81
ATOM     81  C   UNL A   1      42.942  24.182  26.862  1.00  0.00     0.023 A 
ATOM     82  C   UNL A   1      42.316  22.942  27.069  1.00  0.00     0.031 A 
ATOM     83  C   UNL A   1      43.638  24.371  25.654  1.00  0.00     0.131 A 
ATOM     84  C   UNL A   1      42.451  21.921  26.115  1.00  0.00     0.055 A 
ATOM     85  C   UNL A   1      43.711  23.376  24.677  1.00  0.00     0.041 A 
ATOM     86  F   UNL A   1      44.263  25.532  25.403  1.00  0.00    -0.206 F 
ATOM     87  C   UNL A   1      43.130  22.135  24.914  1.00  0.00     0.022 A 
BRANCH  84  88
ATOM     88  S   UNL A   1      41.830  20.264  26.520  1.00  0.00     0.124 S 
ATOM     89  O   UNL A   1      42.154  19.523  25.306  1.00  0.00    -0.237 OA
ATOM     90  O   UNL A   1      42.614  19.930  27.705  1.00  0.00    -0.237 OA
ATOM     91  O   UNL A   1      40.406  20.485  26.759  1.00  0.00    -0.744 OA
ENDBRANCH  84  88
ENDBRANCH  57  81
BRANCH  69  92
ATOM     92  C   UNL A   1      47.702  26.133  31.581  1.00  0.00     0.023 A 
ATOM     93  C   UNL A   1      47.870  25.299  32.701  1.00  0.00     0.031 A 
ATOM     94  C   UNL A   1      48.844  26.454  30.824  1.00  0.00     0.131 A 
ATOM     95  C   UNL A   1      49.156  24.886  33.080  1.00  0.00     0.055 A 
ATOM     96  C   UNL A   1      50.110  25.973  31.160  1.00  0.00     0.041 A 
ATOM     97  F   UNL A   1      48.750  27.248  29.745  1.00  0.00    -0.206 F 
ATOM     98  C   UNL A   1      50.275  25.200  32.306  1.00  0.00     0.022 A 
BRANCH  95  99
ATOM     99  S   UNL A   1      49.363  24.051  34.677  1.00  0.00     0.124 S 
ATOM    100  O   UNL A   1      50.741  23.577  34.594  1.00  0.00    -0.237 OA
ATOM    101  O   UNL A   1      49.118  25.132  35.626  1.00  0.00    -0.237 OA
ATOM    102  O   UNL A   1      48.343  23.005  34.652  1.00  0.00    -0.744 OA
ENDBRANCH  95  99
ENDBRANCH  69  92
ENDBRANCH  43  44
ENDBRANCH  36  38
ENDBRANCH  35  36
ENDBRANCH  34  35
ENDBRANCH  33  34
ENDBRANCH  32  33
ENDBRANCH  31  32
ENDBRANCH  30  31
ENDBRANCH  29  30
ENDBRANCH   1  29
TORSDOF 28
ENDMDL
MODEL 3
REMARK VINA RESULT:      -8.0      6.238     10.443
REMARK SMILES C[C@](Nc1ccc(S(N)(=O)=O)cc1)(C(=O)OCCOCCOCCOCCOC(=O)c1ccc(-c2c3nc(c(-c4cc(S(=O)(=O)[O-])ccc4F)c4ccc([nH]4)c(-c4cc(S(=O)(=O)[O-])ccc4F)c4nc(c(-c5cc(S(=O)(=O)[O-])ccc5F)c5ccc2[nH]5)C=C4)C=C3)cc1)C(F)(F)F
REMARK SMILES IDX 21 1 20 2 19 3 18 4 17 5 16 6 14 7 15 8 2 9 1 10 94 11 95 12
REMARK SMILES IDX 96 13 97 14 3 15 4 17 5 18 13 19 6 20 12 21 7 22 8 23 10 24
REMARK SMILES IDX 11 25 9 26 22 29 23 30 24 31 25 32 26 33 27 34 28 35 29 36
REMARK SMILES IDX 30 37 31 38 32 39 93 40 33 41 92 42 34 43 35 44 36 45 86 46
REMARK SMILES IDX 37 47 91 48 85 49 87 50 38 51 90 52 84 53 83 54 39 56 71 57
REMARK SMILES IDX 51 58 70 59 52 60 55 61 69 62 88 63 53 64 54 65 68 67 89 68
REMARK SMILES IDX 56 69 40 70 41 71 49 72 42 73 48 74 50 75 47 76 43 77 44 78
REMARK SMILES IDX 45 79 46 80 72 81 73 82 81 83 74 84 80 85 82 86 79 87 75 88
REMARK SMILES IDX 76 89 77 90 78 91 57 92 58 93 66 94 59 95 65 96 67 97 64 98
REMARK SMILES IDX 60 99 61 100 62 101 63 102
REMARK H PARENT 3 16 9 27 9 28 87 55 55 66
REMARK Flexibility Score: inf
ROOT
ATOM      1  C   UNL A   1      40.530  27.897  27.625  1.00  0.00     0.188 C 
ENDROOT
BRANCH   1   2
ATOM      2  C   UNL A   1      39.484  28.975  27.937  1.00  0.00     0.188 C 
BRANCH   2   3
ATOM      3  O   UNL A   1      38.317  28.544  28.610  1.00  0.00    -0.376 OA
BRANCH   3   4
ATOM      4  C   UNL A   1      37.791  29.246  29.727  1.00  0.00     0.202 C 
BRANCH   4   5
ATOM      5  C   UNL A   1      38.594  29.777  30.938  1.00  0.00     0.261 C 
BRANCH   5   6
ATOM      6  O   UNL A   1      37.871  30.430  31.990  1.00  0.00    -0.461 OA
BRANCH   6   7
ATOM      7  C   UNL A   1      38.112  31.751  32.176  1.00  0.00     0.341 C 
ATOM      8  O   UNL A   1      38.643  32.453  31.325  1.00  0.00    -0.249 OA
BRANCH   7   9
ATOM      9  C   UNL A   1      37.701  32.232  33.582  1.00  0.00     0.229 C 
ATOM     10  C   UNL A   1      37.980  31.057  34.525  1.00  0.00     0.057 C 
BRANCH   9  11
ATOM     11  C   UNL A   1      38.668  33.406  33.863  1.00  0.00     0.422 C 
ATOM     12  F   UNL A   1      39.966  33.009  33.886  1.00  0.00    -0.168 F 
ATOM     13  F   UNL A   1      38.571  34.375  32.916  1.00  0.00    -0.168 F 
ATOM     14  F   UNL A   1      38.431  34.039  35.034  1.00  0.00    -0.168 F 
ENDBRANCH   9  11
BRANCH   9  15
ATOM     15  N   UNL A   1      36.212  32.552  33.688  1.00  0.00    -0.363 N 
ATOM     16  H   UNL A   1      35.598  31.907  34.107  1.00  0.00     0.162 HD
BRANCH  15  17
ATOM     17  C   UNL A   1      35.721  33.759  33.193  1.00  0.00     0.035 A 
ATOM     18  C   UNL A   1      35.400  33.892  31.839  1.00  0.00     0.027 A 
ATOM     19  C   UNL A   1      35.347  34.786  34.069  1.00  0.00     0.027 A 
ATOM     20  C   UNL A   1      34.542  34.911  31.409  1.00  0.00     0.024 A 
ATOM     21  C   UNL A   1      34.478  35.797  33.660  1.00  0.00     0.024 A 
ATOM     22  C   UNL A   1      34.029  35.816  32.341  1.00  0.00     0.082 A 
BRANCH  22  23
ATOM     23  S   UNL A   1      32.629  36.817  31.934  1.00  0.00     0.238 S 
ATOM     24  O   UNL A   1      32.306  36.631  30.534  1.00  0.00    -0.207 OA
ATOM     25  O   UNL A   1      31.632  36.695  32.968  1.00  0.00    -0.207 OA
BRANCH  23  26
ATOM     26  N   UNL A   1      33.223  38.378  32.062  1.00  0.00    -0.225 NA
ATOM     27  H   UNL A   1      34.241  38.359  32.006  1.00  0.00     0.137 HD
ATOM     28  H   UNL A   1      32.939  38.778  32.957  1.00  0.00     0.137 HD
ENDBRANCH  23  26
ENDBRANCH  22  23
ENDBRANCH  15  17
ENDBRANCH   9  15
ENDBRANCH   7   9
ENDBRANCH   6   7
ENDBRANCH   5   6
ENDBRANCH   4   5
ENDBRANCH   3   4
ENDBRANCH   2   3
ENDBRANCH   1   2
BRANCH   1  29
ATOM     29  O   UNL A   1      39.966  26.663  27.225  1.00  0.00    -0.377 OA
BRANCH  29  30
ATOM     30  C   UNL A   1      40.129  25.561  28.110  1.00  0.00     0.188 C 
BRANCH  30  31
ATOM     31  C   UNL A   1      39.696  24.142  27.673  1.00  0.00     0.188 C 
BRANCH  31  32
ATOM     32  O   UNL A   1      40.759  23.215  27.489  1.00  0.00    -0.376 OA
BRANCH  32  33
ATOM     33  C   UNL A   1      40.458  21.881  27.109  1.00  0.00     0.202 C 
BRANCH  33  34
ATOM     34  C   UNL A   1      41.619  20.973  26.665  1.00  0.00     0.261 C 
BRANCH  34  35
ATOM     35  O   UNL A   1      42.293  21.344  25.454  1.00  0.00    -0.460 OA
BRANCH  35  36
ATOM     36  C   UNL A   1      43.644  21.291  25.463  1.00  0.00     0.338 C 
ATOM     37  O   UNL A   1      44.336  20.390  25.029  1.00  0.00    -0.246 OA
BRANCH  36  38
ATOM     38  C   UNL A   1      44.155  22.613  25.889  1.00  0.00     0.060 A 
ATOM     39  C   UNL A   1      43.968  23.704  25.031  1.00  0.00     0.016 A 
ATOM     40  C   UNL A   1      44.811  22.781  27.111  1.00  0.00     0.016 A 
ATOM     41  C   UNL A   1      44.489  24.953  25.366  1.00  0.00     0.010 A 
ATOM     42  C   UNL A   1      45.353  24.031  27.435  1.00  0.00     0.010 A 
ATOM     43  C   UNL A   1      45.232  25.111  26.542  1.00  0.00    -0.014 A 
BRANCH  43  44
ATOM     44  C   UNL A   1      46.052  26.338  26.704  1.00  0.00     0.031 A 
ATOM     45  C   UNL A   1      45.532  27.429  27.605  1.00  0.00     0.074 A 
ATOM     46  C   UNL A   1      47.271  26.446  26.146  1.00  0.00     0.049 A 
ATOM     47  N   UNL A   1      46.076  28.574  27.927  1.00  0.00    -0.248 NA
ATOM     48  C   UNL A   1      44.220  27.191  28.229  1.00  0.00     0.031 C 
ATOM     49  C   UNL A   1      47.901  25.436  25.297  1.00  0.00     0.029 A 
ATOM     50  N   UNL A   1      48.200  27.453  26.216  1.00  0.00    -0.354 N 
ATOM     51  C   UNL A   1      45.181  29.186  28.800  1.00  0.00     0.074 A 
ATOM     52  C   UNL A   1      44.034  28.311  28.908  1.00  0.00     0.031 C 
ATOM     53  C   UNL A   1      49.115  25.878  24.922  1.00  0.00     0.029 A 
ATOM     54  C   UNL A   1      49.333  27.215  25.472  1.00  0.00     0.049 A 
ATOM     55  H   UNL A   1      48.070  28.270  26.750  1.00  0.00     0.167 HD
ATOM     56  C   UNL A   1      45.313  30.358  29.468  1.00  0.00     0.034 A 
ATOM     57  C   UNL A   1      50.410  27.996  25.245  1.00  0.00     0.034 A 
ATOM     58  C   UNL A   1      46.453  31.231  29.336  1.00  0.00     0.049 A 
ATOM     59  C   UNL A   1      50.489  29.347  25.922  1.00  0.00     0.074 A 
ATOM     60  C   UNL A   1      46.681  32.450  29.951  1.00  0.00     0.029 A 
ATOM     61  N   UNL A   1      47.557  30.984  28.529  1.00  0.00    -0.354 N 
ATOM     62  N   UNL A   1      49.634  29.913  26.744  1.00  0.00    -0.248 NA
ATOM     63  C   UNL A   1      51.685  30.153  25.653  1.00  0.00     0.031 C 
ATOM     64  C   UNL A   1      47.881  32.973  29.458  1.00  0.00     0.029 A 
ATOM     65  C   UNL A   1      48.452  32.041  28.608  1.00  0.00     0.049 A 
ATOM     66  H   UNL A   1      47.685  30.176  27.981  1.00  0.00     0.167 HD
ATOM     67  C   UNL A   1      50.211  31.128  27.114  1.00  0.00     0.074 A 
ATOM     68  C   UNL A   1      51.494  31.194  26.448  1.00  0.00     0.031 C 
ATOM     69  C   UNL A   1      49.725  32.100  27.929  1.00  0.00     0.034 A 
BRANCH  56  70
ATOM     70  C   UNL A   1      44.173  30.775  30.367  1.00  0.00     0.023 A 
ATOM     71  C   UNL A   1      44.057  30.292  31.683  1.00  0.00     0.031 A 
ATOM     72  C   UNL A   1      43.177  31.650  29.898  1.00  0.00     0.131 A 
ATOM     73  C   UNL A   1      42.939  30.634  32.458  1.00  0.00     0.055 A 
ATOM     74  C   UNL A   1      42.111  32.052  30.704  1.00  0.00     0.041 A 
ATOM     75  F   UNL A   1      43.218  32.120  28.641  1.00  0.00    -0.206 F 
ATOM     76  C   UNL A   1      41.979  31.533  31.988  1.00  0.00     0.022 A 
BRANCH  73  77
ATOM     77  S   UNL A   1      42.681  29.772  34.033  1.00  0.00     0.124 S 
ATOM     78  O   UNL A   1      41.881  30.746  34.774  1.00  0.00    -0.237 OA
ATOM     79  O   UNL A   1      41.987  28.558  33.620  1.00  0.00    -0.237 OA
ATOM     80  O   UNL A   1      44.037  29.575  34.542  1.00  0.00    -0.744 OA
ENDBRANCH  73  77
ENDBRANCH  56  70
BRANCH  57  81
ATOM     81  C   UNL A   1      51.481  27.558  24.300  1.00  0.00     0.023 A 
ATOM     82  C   UNL A   1      51.315  27.642  22.908  1.00  0.00     0.031 A 
ATOM     83  C   UNL A   1      52.663  26.966  24.784  1.00  0.00     0.131 A 
ATOM     84  C   UNL A   1      52.280  27.086  22.052  1.00  0.00     0.055 A 
ATOM     85  C   UNL A   1      53.651  26.477  23.928  1.00  0.00     0.041 A 
ATOM     86  F   UNL A   1      52.874  26.850  26.105  1.00  0.00    -0.206 F 
ATOM     87  C   UNL A   1      53.454  26.519  22.552  1.00  0.00     0.022 A 
BRANCH  84  88
ATOM     88  S   UNL A   1      51.922  27.003  20.274  1.00  0.00     0.124 S 
ATOM     89  O   UNL A   1      53.177  26.482  19.745  1.00  0.00    -0.237 OA
ATOM     90  O   UNL A   1      50.782  26.094  20.239  1.00  0.00    -0.237 OA
ATOM     91  O   UNL A   1      51.622  28.390  19.924  1.00  0.00    -0.744 OA
ENDBRANCH  84  88
ENDBRANCH  57  81
BRANCH  69  92
ATOM     92  C   UNL A   1      50.616  33.297  28.178  1.00  0.00     0.023 A 
ATOM     93  C   UNL A   1      51.536  33.330  29.242  1.00  0.00     0.031 A 
ATOM     94  C   UNL A   1      50.520  34.436  27.358  1.00  0.00     0.131 A 
ATOM     95  C   UNL A   1      52.257  34.504  29.510  1.00  0.00     0.055 A 
ATOM     96  C   UNL A   1      51.300  35.573  27.581  1.00  0.00     0.041 A 
ATOM     97  F   UNL A   1      49.660  34.469  26.328  1.00  0.00    -0.206 F 
ATOM     98  C   UNL A   1      52.160  35.618  28.674  1.00  0.00     0.022 A 
BRANCH  95  99
ATOM     99  S   UNL A   1      53.215  34.602  31.046  1.00  0.00     0.124 S 
ATOM    100  O   UNL A   1      54.196  35.634  30.725  1.00  0.00    -0.237 OA
ATOM    101  O   UNL A   1      52.197  34.973  32.024  1.00  0.00    -0.237 OA
ATOM    102  O   UNL A   1      53.758  33.254  31.198  1.00  0.00    -0.744 OA
ENDBRANCH  95  99
ENDBRANCH  69  92
ENDBRANCH  43  44
ENDBRANCH  36  38
ENDBRANCH  35  36
ENDBRANCH  34  35
ENDBRANCH  33  34
ENDBRANCH  32  33
ENDBRANCH  31  32
ENDBRANCH  30  31
ENDBRANCH  29  30
ENDBRANCH   1  29
TORSDOF 28
ENDMDL
