MODEL 1
REMARK VINA RESULT:      -9.5      0.000      0.000
REMARK SMILES CSCC[C@@H](NC1=[NH+]S(=O)(=O)c2ccccc21)C(=O)OCCOCCOCCOCCOC(=O)c1ccc(-c2c3nc(c(-c4cc(S(=O)(=O)[O-])ccc4F)c4ccc([nH]4)c(-c4cc(S(=O)(=O)[O-])ccc4F)c4nc(c(-c5cc(S(=O)(=O)[O-])ccc5F)c5ccc2[nH]5)C=C4)C=C3)cc1
REMARK SMILES IDX 26 1 25 2 24 3 23 4 22 5 21 6 20 7 18 8 19 9 5 10 4 11 3 12
REMARK SMILES IDX 2 13 1 14 6 15 7 16 8 18 17 19 9 20 12 22 16 23 10 24 11 25
REMARK SMILES IDX 13 26 15 27 14 28 27 29 28 30 29 31 30 32 31 33 32 34 33 35
REMARK SMILES IDX 34 36 35 37 36 38 97 39 37 40 96 41 38 42 39 43 40 44 90 45
REMARK SMILES IDX 41 46 95 47 89 48 91 49 42 50 94 51 88 52 87 53 43 55 75 56
REMARK SMILES IDX 55 57 74 58 56 59 59 60 73 61 92 62 57 63 58 64 72 66 93 67
REMARK SMILES IDX 60 68 44 69 45 70 53 71 46 72 52 73 54 74 51 75 47 76 48 77
REMARK SMILES IDX 49 78 50 79 76 80 77 81 85 82 78 83 84 84 86 85 83 86 79 87
REMARK SMILES IDX 80 88 81 89 82 90 61 91 62 92 70 93 63 94 69 95 71 96 68 97
REMARK SMILES IDX 64 98 65 99 66 100 67 101
REMARK H PARENT 6 17 8 21 91 54 59 65
REMARK Flexibility Score: inf
ROOT
ATOM      1  O   UNL A   1      36.879  23.649  25.823  1.00  0.00    -0.377 OA
ENDROOT
BRANCH   1   2
ATOM      2  C   UNL A   1      35.491  23.629  26.088  1.00  0.00     0.188 C 
BRANCH   2   3
ATOM      3  C   UNL A   1      35.068  22.907  27.375  1.00  0.00     0.188 C 
BRANCH   3   4
ATOM      4  O   UNL A   1      33.988  21.988  27.426  1.00  0.00    -0.376 OA
BRANCH   4   5
ATOM      5  C   UNL A   1      32.716  22.295  27.974  1.00  0.00     0.202 C 
BRANCH   5   6
ATOM      6  C   UNL A   1      31.574  22.895  27.143  1.00  0.00     0.261 C 
BRANCH   6   7
ATOM      7  O   UNL A   1      31.387  24.318  27.198  1.00  0.00    -0.460 OA
BRANCH   7   8
ATOM      8  C   UNL A   1      30.737  24.837  26.128  1.00  0.00     0.351 C 
ATOM      9  O   UNL A   1      29.659  25.426  26.181  1.00  0.00    -0.247 OA
BRANCH   8  10
ATOM     10  C   UNL A   1      31.425  24.545  24.785  1.00  0.00     0.283 C 
BRANCH  10  11
ATOM     11  C   UNL A   1      30.655  23.752  23.717  1.00  0.00     0.073 C 
BRANCH  11  12
ATOM     12  C   UNL A   1      31.546  22.781  22.923  1.00  0.00     0.074 C 
BRANCH  12  13
ATOM     13  S   UNL A   1      33.009  22.126  23.813  1.00  0.00    -0.165 SA
ATOM     14  C   UNL A   1      32.402  20.508  24.381  1.00  0.00     0.085 C 
ENDBRANCH  12  13
ENDBRANCH  11  12
ENDBRANCH  10  11
BRANCH  10  15
ATOM     15  N   UNL A   1      31.979  25.752  24.147  1.00  0.00    -0.260 N 
ATOM     16  C   UNL A   1      32.290  26.862  24.883  1.00  0.00     0.292 C 
ATOM     17  H   UNL A   1      32.128  25.760  23.174  1.00  0.00     0.306 HD
ATOM     18  N   UNL A   1      33.112  26.859  25.889  1.00  0.00    -0.162 N 
ATOM     19  C   UNL A   1      31.624  28.142  24.605  1.00  0.00     0.087 A 
ATOM     20  S   UNL A   1      33.160  28.323  26.618  1.00  0.00     0.329 S 
ATOM     21  H   UNL A   1      33.637  26.077  26.175  1.00  0.00     0.327 HD
ATOM     22  C   UNL A   1      32.007  29.071  25.552  1.00  0.00     0.124 A 
ATOM     23  C   UNL A   1      30.671  28.443  23.650  1.00  0.00     0.018 A 
ATOM     24  O   UNL A   1      34.431  28.956  26.393  1.00  0.00    -0.179 OA
ATOM     25  O   UNL A   1      32.537  28.238  27.930  1.00  0.00    -0.179 OA
ATOM     26  C   UNL A   1      31.475  30.339  25.612  1.00  0.00     0.025 A 
ATOM     27  C   UNL A   1      30.123  29.728  23.672  1.00  0.00     0.001 A 
ATOM     28  C   UNL A   1      30.522  30.666  24.644  1.00  0.00     0.002 A 
ENDBRANCH  10  15
ENDBRANCH   8  10
ENDBRANCH   7   8
ENDBRANCH   6   7
ENDBRANCH   5   6
ENDBRANCH   4   5
ENDBRANCH   3   4
ENDBRANCH   2   3
ENDBRANCH   1   2
BRANCH   1  29
ATOM     29  C   UNL A   1      37.326  22.998  24.633  1.00  0.00     0.188 C 
BRANCH  29  30
ATOM     30  C   UNL A   1      36.681  21.647  24.255  1.00  0.00     0.188 C 
BRANCH  30  31
ATOM     31  O   UNL A   1      36.837  20.639  25.246  1.00  0.00    -0.376 OA
BRANCH  31  32
ATOM     32  C   UNL A   1      37.527  19.446  24.905  1.00  0.00     0.202 C 
BRANCH  32  33
ATOM     33  C   UNL A   1      38.920  19.228  25.520  1.00  0.00     0.261 C 
BRANCH  33  34
ATOM     34  O   UNL A   1      39.717  20.407  25.727  1.00  0.00    -0.460 OA
BRANCH  34  35
ATOM     35  C   UNL A   1      40.563  20.406  26.779  1.00  0.00     0.338 C 
ATOM     36  O   UNL A   1      41.193  19.455  27.203  1.00  0.00    -0.246 OA
BRANCH  35  37
ATOM     37  C   UNL A   1      40.777  21.805  27.205  1.00  0.00     0.060 A 
ATOM     38  C   UNL A   1      40.229  22.826  26.421  1.00  0.00     0.016 A 
ATOM     39  C   UNL A   1      41.539  22.112  28.335  1.00  0.00     0.016 A 
ATOM     40  C   UNL A   1      40.498  24.157  26.724  1.00  0.00     0.010 A 
ATOM     41  C   UNL A   1      41.826  23.450  28.628  1.00  0.00     0.010 A 
ATOM     42  C   UNL A   1      41.347  24.475  27.792  1.00  0.00    -0.014 A 
BRANCH  42  43
ATOM     43  C   UNL A   1      41.898  25.852  27.865  1.00  0.00     0.031 A 
ATOM     44  C   UNL A   1      41.101  26.903  28.593  1.00  0.00     0.074 A 
ATOM     45  C   UNL A   1      43.126  26.135  27.394  1.00  0.00     0.049 A 
ATOM     46  N   UNL A   1      41.404  28.148  28.852  1.00  0.00    -0.248 NA
ATOM     47  C   UNL A   1      39.783  26.488  29.099  1.00  0.00     0.031 C 
ATOM     48  C   UNL A   1      44.009  25.184  26.721  1.00  0.00     0.029 A 
ATOM     49  N   UNL A   1      43.848  27.301  27.426  1.00  0.00    -0.354 N 
ATOM     50  C   UNL A   1      40.320  28.664  29.556  1.00  0.00     0.074 A 
ATOM     51  C   UNL A   1      39.332  27.611  29.635  1.00  0.00     0.031 C 
ATOM     52  C   UNL A   1      45.161  25.803  26.415  1.00  0.00     0.029 A 
ATOM     53  C   UNL A   1      45.086  27.201  26.837  1.00  0.00     0.049 A 
ATOM     54  H   UNL A   1      43.511  28.131  27.834  1.00  0.00     0.167 HD
ATOM     55  C   UNL A   1      40.169  29.897  30.099  1.00  0.00     0.034 A 
ATOM     56  C   UNL A   1      46.042  28.134  26.653  1.00  0.00     0.034 A 
ATOM     57  C   UNL A   1      41.160  30.942  29.998  1.00  0.00     0.049 A 
ATOM     58  C   UNL A   1      45.815  29.527  27.192  1.00  0.00     0.074 A 
ATOM     59  C   UNL A   1      41.112  32.228  30.506  1.00  0.00     0.029 A 
ATOM     60  N   UNL A   1      42.375  30.825  29.333  1.00  0.00    -0.354 N 
ATOM     61  N   UNL A   1      44.787  30.003  27.858  1.00  0.00    -0.248 NA
ATOM     62  C   UNL A   1      46.890  30.503  26.971  1.00  0.00     0.031 C 
ATOM     63  C   UNL A   1      42.254  32.913  30.079  1.00  0.00     0.029 A 
ATOM     64  C   UNL A   1      43.067  32.027  29.389  1.00  0.00     0.049 A 
ATOM     65  H   UNL A   1      42.699  30.009  28.889  1.00  0.00     0.167 HD
ATOM     66  C   UNL A   1      45.112  31.322  28.168  1.00  0.00     0.074 A 
ATOM     67  C   UNL A   1      46.437  31.556  27.633  1.00  0.00     0.031 C 
ATOM     68  C   UNL A   1      44.385  32.254  28.839  1.00  0.00     0.034 A 
BRANCH  55  69
ATOM     69  C   UNL A   1      38.861  30.194  30.796  1.00  0.00     0.023 A 
ATOM     70  C   UNL A   1      37.792  30.829  30.137  1.00  0.00     0.031 A 
ATOM     71  C   UNL A   1      38.693  29.870  32.154  1.00  0.00     0.131 A 
ATOM     72  C   UNL A   1      36.637  31.183  30.853  1.00  0.00     0.055 A 
ATOM     73  C   UNL A   1      37.507  30.145  32.837  1.00  0.00     0.041 A 
ATOM     74  F   UNL A   1      39.686  29.289  32.846  1.00  0.00    -0.206 F 
ATOM     75  C   UNL A   1      36.476  30.819  32.192  1.00  0.00     0.022 A 
BRANCH  72  76
ATOM     76  S   UNL A   1      35.416  32.261  30.054  1.00  0.00     0.124 S 
ATOM     77  O   UNL A   1      34.997  31.441  28.919  1.00  0.00    -0.237 OA
ATOM     78  O   UNL A   1      34.426  32.450  31.107  1.00  0.00    -0.237 OA
ATOM     79  O   UNL A   1      36.188  33.451  29.701  1.00  0.00    -0.744 OA
ENDBRANCH  72  76
ENDBRANCH  55  69
BRANCH  56  80
ATOM     80  C   UNL A   1      47.290  27.803  25.903  1.00  0.00     0.023 A 
ATOM     81  C   UNL A   1      47.383  27.984  24.514  1.00  0.00     0.031 A 
ATOM     82  C   UNL A   1      48.394  27.233  26.566  1.00  0.00     0.131 A 
ATOM     83  C   UNL A   1      48.529  27.552  23.827  1.00  0.00     0.055 A 
ATOM     84  C   UNL A   1      49.555  26.864  25.887  1.00  0.00     0.041 A 
ATOM     85  F   UNL A   1      48.359  27.030  27.893  1.00  0.00    -0.206 F 
ATOM     86  C   UNL A   1      49.623  27.009  24.506  1.00  0.00     0.022 A 
BRANCH  83  87
ATOM     87  S   UNL A   1      48.532  27.616  22.013  1.00  0.00     0.124 S 
ATOM     88  O   UNL A   1      47.196  28.126  21.733  1.00  0.00    -0.237 OA
ATOM     89  O   UNL A   1      49.638  28.529  21.745  1.00  0.00    -0.237 OA
ATOM     90  O   UNL A   1      48.765  26.226  21.626  1.00  0.00    -0.744 OA
ENDBRANCH  83  87
ENDBRANCH  56  80
BRANCH  68  91
ATOM     91  C   UNL A   1      45.040  33.597  29.078  1.00  0.00     0.023 A 
ATOM     92  C   UNL A   1      45.063  34.601  28.093  1.00  0.00     0.031 A 
ATOM     93  C   UNL A   1      45.689  33.861  30.298  1.00  0.00     0.131 A 
ATOM     94  C   UNL A   1      45.794  35.779  28.311  1.00  0.00     0.055 A 
ATOM     95  C   UNL A   1      46.343  35.069  30.540  1.00  0.00     0.041 A 
ATOM     96  F   UNL A   1      45.704  32.942  31.278  1.00  0.00    -0.206 F 
ATOM     97  C   UNL A   1      46.418  36.028  29.535  1.00  0.00     0.022 A 
BRANCH  94  98
ATOM     98  S   UNL A   1      46.041  36.916  26.918  1.00  0.00     0.124 S 
ATOM     99  O   UNL A   1      44.770  37.632  26.883  1.00  0.00    -0.237 OA
ATOM    100  O   UNL A   1      47.199  37.692  27.352  1.00  0.00    -0.237 OA
ATOM    101  O   UNL A   1      46.282  36.022  25.786  1.00  0.00    -0.744 OA
ENDBRANCH  94  98
ENDBRANCH  68  91
ENDBRANCH  42  43
ENDBRANCH  35  37
ENDBRANCH  34  35
ENDBRANCH  33  34
ENDBRANCH  32  33
ENDBRANCH  31  32
ENDBRANCH  30  31
ENDBRANCH  29  30
ENDBRANCH   1  29
TORSDOF 27
ENDMDL
MODEL 2
REMARK VINA RESULT:      -9.4      1.421      2.381
REMARK SMILES CSCC[C@@H](NC1=[NH+]S(=O)(=O)c2ccccc21)C(=O)OCCOCCOCCOCCOC(=O)c1ccc(-c2c3nc(c(-c4cc(S(=O)(=O)[O-])ccc4F)c4ccc([nH]4)c(-c4cc(S(=O)(=O)[O-])ccc4F)c4nc(c(-c5cc(S(=O)(=O)[O-])ccc5F)c5ccc2[nH]5)C=C4)C=C3)cc1
REMARK SMILES IDX 26 1 25 2 24 3 23 4 22 5 21 6 20 7 18 8 19 9 5 10 4 11 3 12
REMARK SMILES IDX 2 13 1 14 6 15 7 16 8 18 17 19 9 20 12 22 16 23 10 24 11 25
REMARK SMILES IDX 13 26 15 27 14 28 27 29 28 30 29 31 30 32 31 33 32 34 33 35
REMARK SMILES IDX 34 36 35 37 36 38 97 39 37 40 96 41 38 42 39 43 40 44 90 45
REMARK SMILES IDX 41 46 95 47 89 48 91 49 42 50 94 51 88 52 87 53 43 55 75 56
REMARK SMILES IDX 55 57 74 58 56 59 59 60 73 61 92 62 57 63 58 64 72 66 93 67
REMARK SMILES IDX 60 68 44 69 45 70 53 71 46 72 52 73 54 74 51 75 47 76 48 77
REMARK SMILES IDX 49 78 50 79 76 80 77 81 85 82 78 83 84 84 86 85 83 86 79 87
REMARK SMILES IDX 80 88 81 89 82 90 61 91 62 92 70 93 63 94 69 95 71 96 68 97
REMARK SMILES IDX 64 98 65 99 66 100 67 101
REMARK H PARENT 6 17 8 21 91 54 59 65
REMARK Flexibility Score: inf
ROOT
ATOM      1  O   UNL A   1      35.449  22.820  26.091  1.00  0.00    -0.377 OA
ENDROOT
BRANCH   1   2
ATOM      2  C   UNL A   1      34.147  22.278  26.161  1.00  0.00     0.188 C 
BRANCH   2   3
ATOM      3  C   UNL A   1      33.809  21.215  25.105  1.00  0.00     0.188 C 
BRANCH   3   4
ATOM      4  O   UNL A   1      32.479  20.887  24.738  1.00  0.00    -0.376 OA
BRANCH   4   5
ATOM      5  C   UNL A   1      32.079  20.590  23.409  1.00  0.00     0.202 C 
BRANCH   5   6
ATOM      6  C   UNL A   1      32.174  21.607  22.264  1.00  0.00     0.261 C 
BRANCH   6   7
ATOM      7  O   UNL A   1      32.227  22.999  22.613  1.00  0.00    -0.460 OA
BRANCH   7   8
ATOM      8  C   UNL A   1      33.046  23.741  21.828  1.00  0.00     0.351 C 
ATOM      9  O   UNL A   1      33.622  23.322  20.825  1.00  0.00    -0.247 OA
BRANCH   8  10
ATOM     10  C   UNL A   1      33.282  25.166  22.351  1.00  0.00     0.283 C 
BRANCH  10  11
ATOM     11  C   UNL A   1      32.175  26.216  22.162  1.00  0.00     0.073 C 
BRANCH  11  12
ATOM     12  C   UNL A   1      32.701  27.661  22.172  1.00  0.00     0.074 C 
BRANCH  12  13
ATOM     13  S   UNL A   1      31.468  28.960  22.566  1.00  0.00    -0.165 SA
ATOM     14  C   UNL A   1      30.150  27.990  23.361  1.00  0.00     0.085 C 
ENDBRANCH  12  13
ENDBRANCH  11  12
ENDBRANCH  10  11
BRANCH  10  15
ATOM     15  N   UNL A   1      33.706  25.198  23.762  1.00  0.00    -0.260 N 
ATOM     16  C   UNL A   1      32.796  25.352  24.771  1.00  0.00     0.292 C 
ATOM     17  H   UNL A   1      34.661  25.108  23.982  1.00  0.00     0.306 HD
ATOM     18  N   UNL A   1      31.782  24.564  24.960  1.00  0.00    -0.162 N 
ATOM     19  C   UNL A   1      32.887  26.506  25.678  1.00  0.00     0.087 A 
ATOM     20  S   UNL A   1      30.830  25.105  26.176  1.00  0.00     0.329 S 
ATOM     21  H   UNL A   1      31.608  23.747  24.439  1.00  0.00     0.327 HD
ATOM     22  C   UNL A   1      31.796  26.509  26.523  1.00  0.00     0.124 A 
ATOM     23  C   UNL A   1      33.809  27.537  25.692  1.00  0.00     0.018 A 
ATOM     24  O   UNL A   1      30.917  24.228  27.312  1.00  0.00    -0.179 OA
ATOM     25  O   UNL A   1      29.565  25.579  25.635  1.00  0.00    -0.179 OA
ATOM     26  C   UNL A   1      31.551  27.522  27.422  1.00  0.00     0.025 A 
ATOM     27  C   UNL A   1      33.599  28.572  26.606  1.00  0.00     0.001 A 
ATOM     28  C   UNL A   1      32.480  28.564  27.462  1.00  0.00     0.002 A 
ENDBRANCH  10  15
ENDBRANCH   8  10
ENDBRANCH   7   8
ENDBRANCH   6   7
ENDBRANCH   5   6
ENDBRANCH   4   5
ENDBRANCH   3   4
ENDBRANCH   2   3
ENDBRANCH   1   2
BRANCH   1  29
ATOM     29  C   UNL A   1      36.073  22.859  24.806  1.00  0.00     0.188 C 
BRANCH  29  30
ATOM     30  C   UNL A   1      37.212  21.859  24.519  1.00  0.00     0.188 C 
BRANCH  30  31
ATOM     31  O   UNL A   1      37.102  20.639  25.241  1.00  0.00    -0.376 OA
BRANCH  31  32
ATOM     32  C   UNL A   1      37.919  19.542  24.859  1.00  0.00     0.202 C 
BRANCH  32  33
ATOM     33  C   UNL A   1      39.278  19.387  25.563  1.00  0.00     0.261 C 
BRANCH  33  34
ATOM     34  O   UNL A   1      39.579  20.352  26.587  1.00  0.00    -0.460 OA
BRANCH  34  35
ATOM     35  C   UNL A   1      40.880  20.553  26.885  1.00  0.00     0.338 C 
ATOM     36  O   UNL A   1      41.802  19.792  26.660  1.00  0.00    -0.246 OA
BRANCH  35  37
ATOM     37  C   UNL A   1      41.043  21.952  27.333  1.00  0.00     0.060 A 
ATOM     38  C   UNL A   1      40.435  22.963  26.581  1.00  0.00     0.016 A 
ATOM     39  C   UNL A   1      41.816  22.271  28.453  1.00  0.00     0.016 A 
ATOM     40  C   UNL A   1      40.653  24.298  26.904  1.00  0.00     0.010 A 
ATOM     41  C   UNL A   1      42.051  23.614  28.765  1.00  0.00     0.010 A 
ATOM     42  C   UNL A   1      41.510  24.633  27.959  1.00  0.00    -0.014 A 
BRANCH  42  43
ATOM     43  C   UNL A   1      42.004  26.031  28.047  1.00  0.00     0.031 A 
ATOM     44  C   UNL A   1      41.134  27.054  28.730  1.00  0.00     0.074 A 
ATOM     45  C   UNL A   1      43.239  26.359  27.628  1.00  0.00     0.049 A 
ATOM     46  N   UNL A   1      41.377  28.312  28.994  1.00  0.00    -0.248 NA
ATOM     47  C   UNL A   1      39.812  26.591  29.181  1.00  0.00     0.031 C 
ATOM     48  C   UNL A   1      44.188  25.440  27.003  1.00  0.00     0.029 A 
ATOM     49  N   UNL A   1      43.913  27.553  27.685  1.00  0.00    -0.354 N 
ATOM     50  C   UNL A   1      40.243  28.788  29.645  1.00  0.00     0.074 A 
ATOM     51  C   UNL A   1      39.294  27.697  29.687  1.00  0.00     0.031 C 
ATOM     52  C   UNL A   1      45.328  26.102  26.744  1.00  0.00     0.029 A 
ATOM     53  C   UNL A   1      45.180  27.498  27.152  1.00  0.00     0.049 A 
ATOM     54  H   UNL A   1      43.526  28.371  28.071  1.00  0.00     0.167 HD
ATOM     55  C   UNL A   1      40.020  30.017  30.172  1.00  0.00     0.034 A 
ATOM     56  C   UNL A   1      46.106  28.467  27.004  1.00  0.00     0.034 A 
ATOM     57  C   UNL A   1      40.973  31.099  30.108  1.00  0.00     0.049 A 
ATOM     58  C   UNL A   1      45.801  29.853  27.522  1.00  0.00     0.074 A 
ATOM     59  C   UNL A   1      40.852  32.386  30.604  1.00  0.00     0.029 A 
ATOM     60  N   UNL A   1      42.220  31.027  29.499  1.00  0.00    -0.354 N 
ATOM     61  N   UNL A   1      44.725  30.292  28.138  1.00  0.00    -0.248 NA
ATOM     62  C   UNL A   1      46.845  30.870  27.342  1.00  0.00     0.031 C 
ATOM     63  C   UNL A   1      41.985  33.112  30.223  1.00  0.00     0.029 A 
ATOM     64  C   UNL A   1      42.861  32.255  29.577  1.00  0.00     0.049 A 
ATOM     65  H   UNL A   1      42.595  30.222  29.075  1.00  0.00     0.167 HD
ATOM     66  C   UNL A   1      44.985  31.625  28.453  1.00  0.00     0.074 A 
ATOM     67  C   UNL A   1      46.322  31.908  27.976  1.00  0.00     0.031 C 
ATOM     68  C   UNL A   1      44.192  32.531  29.084  1.00  0.00     0.034 A 
BRANCH  55  69
ATOM     69  C   UNL A   1      38.671  30.267  30.808  1.00  0.00     0.023 A 
ATOM     70  C   UNL A   1      37.637  30.932  30.125  1.00  0.00     0.031 A 
ATOM     71  C   UNL A   1      38.428  29.864  32.133  1.00  0.00     0.131 A 
ATOM     72  C   UNL A   1      36.439  31.238  30.792  1.00  0.00     0.055 A 
ATOM     73  C   UNL A   1      37.203  30.093  32.761  1.00  0.00     0.041 A 
ATOM     74  F   UNL A   1      39.385  29.251  32.848  1.00  0.00    -0.206 F 
ATOM     75  C   UNL A   1      36.204  30.797  32.097  1.00  0.00     0.022 A 
BRANCH  72  76
ATOM     76  S   UNL A   1      35.256  32.353  29.987  1.00  0.00     0.124 S 
ATOM     77  O   UNL A   1      34.764  31.518  28.892  1.00  0.00    -0.237 OA
ATOM     78  O   UNL A   1      34.306  32.630  31.056  1.00  0.00    -0.237 OA
ATOM     79  O   UNL A   1      36.080  33.486  29.572  1.00  0.00    -0.744 OA
ENDBRANCH  72  76
ENDBRANCH  55  69
BRANCH  56  80
ATOM     80  C   UNL A   1      47.398  28.181  26.313  1.00  0.00     0.023 A 
ATOM     81  C   UNL A   1      47.487  28.129  24.913  1.00  0.00     0.031 A 
ATOM     82  C   UNL A   1      48.558  27.890  27.056  1.00  0.00     0.131 A 
ATOM     83  C   UNL A   1      48.691  27.742  24.302  1.00  0.00     0.055 A 
ATOM     84  C   UNL A   1      49.768  27.566  26.442  1.00  0.00     0.041 A 
ATOM     85  F   UNL A   1      48.530  27.917  28.399  1.00  0.00    -0.206 F 
ATOM     86  C   UNL A   1      49.836  27.477  25.056  1.00  0.00     0.022 A 
BRANCH  83  87
ATOM     87  S   UNL A   1      48.713  27.488  22.505  1.00  0.00     0.124 S 
ATOM     88  O   UNL A   1      50.013  28.039  22.144  1.00  0.00    -0.237 OA
ATOM     89  O   UNL A   1      48.577  26.039  22.403  1.00  0.00    -0.237 OA
ATOM     90  O   UNL A   1      47.558  28.254  22.041  1.00  0.00    -0.744 OA
ENDBRANCH  83  87
ENDBRANCH  56  80
BRANCH  68  91
ATOM     91  C   UNL A   1      44.784  33.900  29.342  1.00  0.00     0.023 A 
ATOM     92  C   UNL A   1      44.699  34.939  28.397  1.00  0.00     0.031 A 
ATOM     93  C   UNL A   1      45.480  34.156  30.538  1.00  0.00     0.131 A 
ATOM     94  C   UNL A   1      45.373  36.149  28.624  1.00  0.00     0.055 A 
ATOM     95  C   UNL A   1      46.078  35.391  30.794  1.00  0.00     0.041 A 
ATOM     96  F   UNL A   1      45.598  33.205  31.479  1.00  0.00    -0.206 F 
ATOM     97  C   UNL A   1      46.046  36.388  29.824  1.00  0.00     0.022 A 
BRANCH  94  98
ATOM     98  S   UNL A   1      45.484  37.347  27.267  1.00  0.00     0.124 S 
ATOM     99  O   UNL A   1      46.247  38.429  27.881  1.00  0.00    -0.237 OA
ATOM    100  O   UNL A   1      46.177  36.585  26.234  1.00  0.00    -0.237 OA
ATOM    101  O   UNL A   1      44.087  37.662  26.974  1.00  0.00    -0.744 OA
ENDBRANCH  94  98
ENDBRANCH  68  91
ENDBRANCH  42  43
ENDBRANCH  35  37
ENDBRANCH  34  35
ENDBRANCH  33  34
ENDBRANCH  32  33
ENDBRANCH  31  32
ENDBRANCH  30  31
ENDBRANCH  29  30
ENDBRANCH   1  29
TORSDOF 27
ENDMDL
MODEL 3
REMARK VINA RESULT:      -7.7      4.591     10.429
REMARK SMILES CSCC[C@@H](NC1=[NH+]S(=O)(=O)c2ccccc21)C(=O)OCCOCCOCCOCCOC(=O)c1ccc(-c2c3nc(c(-c4cc(S(=O)(=O)[O-])ccc4F)c4ccc([nH]4)c(-c4cc(S(=O)(=O)[O-])ccc4F)c4nc(c(-c5cc(S(=O)(=O)[O-])ccc5F)c5ccc2[nH]5)C=C4)C=C3)cc1
REMARK SMILES IDX 26 1 25 2 24 3 23 4 22 5 21 6 20 7 18 8 19 9 5 10 4 11 3 12
REMARK SMILES IDX 2 13 1 14 6 15 7 16 8 18 17 19 9 20 12 22 16 23 10 24 11 25
REMARK SMILES IDX 13 26 15 27 14 28 27 29 28 30 29 31 30 32 31 33 32 34 33 35
REMARK SMILES IDX 34 36 35 37 36 38 97 39 37 40 96 41 38 42 39 43 40 44 90 45
REMARK SMILES IDX 41 46 95 47 89 48 91 49 42 50 94 51 88 52 87 53 43 55 75 56
REMARK SMILES IDX 55 57 74 58 56 59 59 60 73 61 92 62 57 63 58 64 72 66 93 67
REMARK SMILES IDX 60 68 44 69 45 70 53 71 46 72 52 73 54 74 51 75 47 76 48 77
REMARK SMILES IDX 49 78 50 79 76 80 77 81 85 82 78 83 84 84 86 85 83 86 79 87
REMARK SMILES IDX 80 88 81 89 82 90 61 91 62 92 70 93 63 94 69 95 71 96 68 97
REMARK SMILES IDX 64 98 65 99 66 100 67 101
REMARK H PARENT 6 17 8 21 91 54 59 65
REMARK Flexibility Score: inf
ROOT
ATOM      1  O   UNL A   1      40.493  25.931  28.453  1.00  0.00    -0.377 OA
ENDROOT
BRANCH   1   2
ATOM      2  C   UNL A   1      41.341  27.037  28.680  1.00  0.00     0.188 C 
BRANCH   2   3
ATOM      3  C   UNL A   1      40.896  28.002  29.789  1.00  0.00     0.188 C 
BRANCH   3   4
ATOM      4  O   UNL A   1      39.537  28.200  30.141  1.00  0.00    -0.376 OA
BRANCH   4   5
ATOM      5  C   UNL A   1      39.091  29.219  31.023  1.00  0.00     0.202 C 
BRANCH   5   6
ATOM      6  C   UNL A   1      37.970  30.202  30.661  1.00  0.00     0.261 C 
BRANCH   6   7
ATOM      7  O   UNL A   1      36.892  29.711  29.848  1.00  0.00    -0.460 OA
BRANCH   7   8
ATOM      8  C   UNL A   1      37.016  29.991  28.528  1.00  0.00     0.351 C 
ATOM      9  O   UNL A   1      38.069  29.927  27.895  1.00  0.00    -0.247 OA
BRANCH   8  10
ATOM     10  C   UNL A   1      35.720  30.501  27.878  1.00  0.00     0.283 C 
BRANCH  10  11
ATOM     11  C   UNL A   1      35.041  29.635  26.806  1.00  0.00     0.073 C 
BRANCH  11  12
ATOM     12  C   UNL A   1      33.587  29.270  27.152  1.00  0.00     0.074 C 
BRANCH  12  13
ATOM     13  S   UNL A   1      32.703  28.240  25.918  1.00  0.00    -0.165 SA
ATOM     14  C   UNL A   1      31.555  27.303  26.972  1.00  0.00     0.085 C 
ENDBRANCH  12  13
ENDBRANCH  11  12
ENDBRANCH  10  11
BRANCH  10  15
ATOM     15  N   UNL A   1      34.698  30.894  28.864  1.00  0.00    -0.260 N 
ATOM     16  C   UNL A   1      34.390  32.209  29.078  1.00  0.00     0.292 C 
ATOM     17  H   UNL A   1      34.230  30.198  29.379  1.00  0.00     0.306 HD
ATOM     18  N   UNL A   1      33.990  33.021  28.148  1.00  0.00    -0.162 N 
ATOM     19  C   UNL A   1      34.578  32.804  30.409  1.00  0.00     0.087 A 
ATOM     20  S   UNL A   1      33.829  34.545  28.721  1.00  0.00     0.329 S 
ATOM     21  H   UNL A   1      33.807  32.754  27.218  1.00  0.00     0.327 HD
ATOM     22  C   UNL A   1      34.322  34.159  30.343  1.00  0.00     0.124 A 
ATOM     23  C   UNL A   1      35.040  32.217  31.573  1.00  0.00     0.018 A 
ATOM     24  O   UNL A   1      32.441  34.921  28.768  1.00  0.00    -0.179 OA
ATOM     25  O   UNL A   1      34.862  35.396  28.151  1.00  0.00    -0.179 OA
ATOM     26  C   UNL A   1      34.506  35.006  31.412  1.00  0.00     0.025 A 
ATOM     27  C   UNL A   1      35.222  33.046  32.682  1.00  0.00     0.001 A 
ATOM     28  C   UNL A   1      34.958  34.428  32.601  1.00  0.00     0.002 A 
ENDBRANCH  10  15
ENDBRANCH   8  10
ENDBRANCH   7   8
ENDBRANCH   6   7
ENDBRANCH   5   6
ENDBRANCH   4   5
ENDBRANCH   3   4
ENDBRANCH   2   3
ENDBRANCH   1   2
BRANCH   1  29
ATOM     29  C   UNL A   1      41.104  24.724  27.993  1.00  0.00     0.188 C 
BRANCH  29  30
ATOM     30  C   UNL A   1      42.382  24.835  27.136  1.00  0.00     0.188 C 
BRANCH  30  31
ATOM     31  O   UNL A   1      43.215  23.684  27.193  1.00  0.00    -0.376 OA
BRANCH  31  32
ATOM     32  C   UNL A   1      44.621  23.851  27.084  1.00  0.00     0.202 C 
BRANCH  32  33
ATOM     33  C   UNL A   1      45.137  25.157  26.454  1.00  0.00     0.261 C 
BRANCH  33  34
ATOM     34  O   UNL A   1      46.415  25.627  26.917  1.00  0.00    -0.460 OA
BRANCH  34  35
ATOM     35  C   UNL A   1      46.462  26.181  28.147  1.00  0.00     0.338 C 
ATOM     36  O   UNL A   1      46.523  25.589  29.208  1.00  0.00    -0.246 OA
BRANCH  35  37
ATOM     37  C   UNL A   1      46.654  27.638  27.993  1.00  0.00     0.060 A 
ATOM     38  C   UNL A   1      47.067  28.373  29.110  1.00  0.00     0.016 A 
ATOM     39  C   UNL A   1      46.392  28.281  26.779  1.00  0.00     0.016 A 
ATOM     40  C   UNL A   1      47.154  29.760  29.038  1.00  0.00     0.010 A 
ATOM     41  C   UNL A   1      46.461  29.678  26.714  1.00  0.00     0.010 A 
ATOM     42  C   UNL A   1      46.793  30.424  27.859  1.00  0.00    -0.014 A 
BRANCH  42  43
ATOM     43  C   UNL A   1      46.548  31.887  27.925  1.00  0.00     0.031 A 
ATOM     44  C   UNL A   1      47.609  32.814  27.390  1.00  0.00     0.074 A 
ATOM     45  C   UNL A   1      45.368  32.376  28.346  1.00  0.00     0.049 A 
ATOM     46  N   UNL A   1      47.595  34.116  27.271  1.00  0.00    -0.248 NA
ATOM     47  C   UNL A   1      48.853  32.182  26.923  1.00  0.00     0.031 C 
ATOM     48  C   UNL A   1      44.249  31.571  28.833  1.00  0.00     0.029 A 
ATOM     49  N   UNL A   1      44.909  33.667  28.414  1.00  0.00    -0.354 N 
ATOM     50  C   UNL A   1      48.822  34.459  26.711  1.00  0.00     0.074 A 
ATOM     51  C   UNL A   1      49.574  33.232  26.565  1.00  0.00     0.031 C 
ATOM     52  C   UNL A   1      43.227  32.388  29.139  1.00  0.00     0.029 A 
ATOM     53  C   UNL A   1      43.628  33.774  28.902  1.00  0.00     0.049 A 
ATOM     54  H   UNL A   1      45.447  34.444  28.137  1.00  0.00     0.167 HD
ATOM     55  C   UNL A   1      49.275  35.682  26.340  1.00  0.00     0.034 A 
ATOM     56  C   UNL A   1      42.874  34.866  29.140  1.00  0.00     0.034 A 
ATOM     57  C   UNL A   1      48.516  36.899  26.507  1.00  0.00     0.049 A 
ATOM     58  C   UNL A   1      43.433  36.227  28.798  1.00  0.00     0.074 A 
ATOM     59  C   UNL A   1      48.876  38.192  26.170  1.00  0.00     0.029 A 
ATOM     60  N   UNL A   1      47.248  36.976  27.070  1.00  0.00    -0.354 N 
ATOM     61  N   UNL A   1      44.594  36.540  28.267  1.00  0.00    -0.248 NA
ATOM     62  C   UNL A   1      42.568  37.383  29.070  1.00  0.00     0.031 C 
ATOM     63  C   UNL A   1      47.866  39.057  26.604  1.00  0.00     0.029 A 
ATOM     64  C   UNL A   1      46.828  38.298  27.121  1.00  0.00     0.049 A 
ATOM     65  H   UNL A   1      46.723  36.206  27.385  1.00  0.00     0.167 HD
ATOM     66  C   UNL A   1      44.579  37.923  28.106  1.00  0.00     0.074 A 
ATOM     67  C   UNL A   1      43.288  38.379  28.577  1.00  0.00     0.031 C 
ATOM     68  C   UNL A   1      45.542  38.744  27.607  1.00  0.00     0.034 A 
BRANCH  55  69
ATOM     69  C   UNL A   1      50.674  35.763  25.774  1.00  0.00     0.023 A 
ATOM     70  C   UNL A   1      51.814  35.554  26.572  1.00  0.00     0.031 A 
ATOM     71  C   UNL A   1      50.873  36.092  24.421  1.00  0.00     0.131 A 
ATOM     72  C   UNL A   1      53.095  35.747  26.029  1.00  0.00     0.055 A 
ATOM     73  C   UNL A   1      52.149  36.195  23.866  1.00  0.00     0.041 A 
ATOM     74  F   UNL A   1      49.826  36.332  23.615  1.00  0.00    -0.206 F 
ATOM     75  C   UNL A   1      53.271  36.037  24.674  1.00  0.00     0.022 A 
BRANCH  72  76
ATOM     76  S   UNL A   1      54.520  35.767  27.151  1.00  0.00     0.124 S 
ATOM     77  O   UNL A   1      54.844  34.344  27.240  1.00  0.00    -0.237 OA
ATOM     78  O   UNL A   1      55.477  36.596  26.431  1.00  0.00    -0.237 OA
ATOM     79  O   UNL A   1      53.983  36.352  28.378  1.00  0.00    -0.744 OA
ENDBRANCH  72  76
ENDBRANCH  55  69
BRANCH  56  80
ATOM     80  C   UNL A   1      41.521  34.733  29.758  1.00  0.00     0.023 A 
ATOM     81  C   UNL A   1      41.361  34.391  31.110  1.00  0.00     0.031 A 
ATOM     82  C   UNL A   1      40.359  34.884  28.977  1.00  0.00     0.131 A 
ATOM     83  C   UNL A   1      40.075  34.160  31.626  1.00  0.00     0.055 A 
ATOM     84  C   UNL A   1      39.082  34.715  29.511  1.00  0.00     0.041 A 
ATOM     85  F   UNL A   1      40.451  35.204  27.676  1.00  0.00    -0.206 F 
ATOM     86  C   UNL A   1      38.934  34.336  30.841  1.00  0.00     0.022 A 
BRANCH  83  87
ATOM     87  S   UNL A   1      39.919  33.523  33.318  1.00  0.00     0.124 S 
ATOM     88  O   UNL A   1      41.240  33.807  33.865  1.00  0.00    -0.237 OA
ATOM     89  O   UNL A   1      38.820  34.326  33.843  1.00  0.00    -0.237 OA
ATOM     90  O   UNL A   1      39.614  32.107  33.121  1.00  0.00    -0.744 OA
ENDBRANCH  83  87
ENDBRANCH  56  80
BRANCH  68  91
ATOM     91  C   UNL A   1      45.203  40.215  27.498  1.00  0.00     0.023 A 
ATOM     92  C   UNL A   1      44.668  40.771  26.323  1.00  0.00     0.031 A 
ATOM     93  C   UNL A   1      45.462  41.082  28.576  1.00  0.00     0.131 A 
ATOM     94  C   UNL A   1      44.491  42.160  26.223  1.00  0.00     0.055 A 
ATOM     95  C   UNL A   1      45.207  42.451  28.499  1.00  0.00     0.041 A 
ATOM     96  F   UNL A   1      45.976  40.612  29.725  1.00  0.00    -0.206 F 
ATOM     97  C   UNL A   1      44.740  43.001  27.309  1.00  0.00     0.022 A 
BRANCH  94  98
ATOM     98  S   UNL A   1      44.077  42.867  24.604  1.00  0.00     0.124 S 
ATOM     99  O   UNL A   1      44.991  42.152  23.719  1.00  0.00    -0.237 OA
ATOM    100  O   UNL A   1      42.664  42.528  24.469  1.00  0.00    -0.237 OA
ATOM    101  O   UNL A   1      44.360  44.291  24.770  1.00  0.00    -0.744 OA
ENDBRANCH  94  98
ENDBRANCH  68  91
ENDBRANCH  42  43
ENDBRANCH  35  37
ENDBRANCH  34  35
ENDBRANCH  33  34
ENDBRANCH  32  33
ENDBRANCH  31  32
ENDBRANCH  30  31
ENDBRANCH  29  30
ENDBRANCH   1  29
TORSDOF 27
ENDMDL
