MODEL 1
REMARK VINA RESULT:      -8.8      0.000      0.000
REMARK SMILES CCCc1c(C(=O)OCCOCCOCCOCCOC(=O)c2ccc(-c3c4nc(c(-c5cc(S(=O)(=O)[O-])ccc5F)c5ccc([nH]5)c(-c5cc(S(=O)(=O)[O-])ccc5F)c5nc(c(-c6cc(S(=O)(=O)[O-])ccc6F)c6ccc3[nH]6)C=C5)C=C4)cc2)nnn1-c1cc(OC)ccc1F
REMARK SMILES IDX 15 1 14 2 13 3 12 4 11 5 10 6 9 7 8 8 6 9 7 10 5 11 4 12
REMARK SMILES IDX 88 13 86 14 87 15 3 16 2 17 1 18 89 19 90 20 96 21 91 22
REMARK SMILES IDX 95 23 97 24 94 25 92 26 93 27 16 28 17 29 18 30 19 31 20 32
REMARK SMILES IDX 21 33 22 34 23 35 24 36 85 37 25 38 84 39 26 40 27 41 28 42
REMARK SMILES IDX 78 43 29 44 83 45 77 46 79 47 30 48 82 49 76 50 75 51 31 53
REMARK SMILES IDX 63 54 43 55 62 56 44 57 47 58 61 59 80 60 45 61 46 62 60 64
REMARK SMILES IDX 81 65 48 66 32 67 33 68 41 69 34 70 40 71 42 72 39 73 35 74
REMARK SMILES IDX 36 75 37 76 38 77 64 78 65 79 73 80 66 81 72 82 74 83 71 84
REMARK SMILES IDX 67 85 68 86 69 87 70 88 49 89 50 90 58 91 51 92 57 93 59 94
REMARK SMILES IDX 56 95 52 96 53 97 54 98 55 99
REMARK H PARENT 79 52 47 63
REMARK Flexibility Score: inf
ROOT
ATOM      1  C   UNL A   1      33.287  29.257  27.372  1.00  0.00     0.188 C 
ENDROOT
BRANCH   1   2
ATOM      2  O   UNL A   1      32.175  28.929  26.536  1.00  0.00    -0.377 OA
BRANCH   2   3
ATOM      3  C   UNL A   1      32.002  29.757  25.398  1.00  0.00     0.188 C 
BRANCH   3   4
ATOM      4  C   UNL A   1      30.802  29.378  24.491  1.00  0.00     0.188 C 
BRANCH   4   5
ATOM      5  O   UNL A   1      30.972  28.700  23.246  1.00  0.00    -0.376 OA
BRANCH   5   6
ATOM      6  C   UNL A   1      30.177  27.583  22.887  1.00  0.00     0.202 C 
BRANCH   6   7
ATOM      7  C   UNL A   1      29.440  26.783  23.963  1.00  0.00     0.261 C 
BRANCH   7   8
ATOM      8  O   UNL A   1      30.084  25.569  24.351  1.00  0.00    -0.458 OA
BRANCH   8   9
ATOM      9  C   UNL A   1      30.567  25.513  25.616  1.00  0.00     0.360 C 
ATOM     10  O   UNL A   1      30.279  26.314  26.504  1.00  0.00    -0.244 OA
BRANCH   9  11
ATOM     11  C   UNL A   1      31.389  24.335  25.850  1.00  0.00     0.194 A 
ATOM     12  C   UNL A   1      31.964  23.422  24.969  1.00  0.00     0.080 A 
ATOM     13  N   UNL A   1      32.715  22.616  25.822  1.00  0.00    -0.214 N 
ATOM     14  N   UNL A   1      31.611  23.905  27.140  1.00  0.00    -0.122 NA
ATOM     15  N   UNL A   1      32.290  22.774  27.094  1.00  0.00    -0.061 NA
BRANCH  12  16
ATOM     16  C   UNL A   1      31.867  23.146  23.496  1.00  0.00     0.059 C 
BRANCH  16  17
ATOM     17  C   UNL A   1      32.892  23.781  22.563  1.00  0.00     0.003 C 
ATOM     18  C   UNL A   1      33.558  25.039  23.094  1.00  0.00     0.004 C 
ENDBRANCH  16  17
ENDBRANCH  12  16
BRANCH  13  19
ATOM     19  C   UNL A   1      33.858  21.838  25.562  1.00  0.00     0.106 A 
ATOM     20  C   UNL A   1      35.117  22.440  25.438  1.00  0.00     0.078 A 
ATOM     21  C   UNL A   1      33.716  20.475  25.312  1.00  0.00     0.149 A 
ATOM     22  C   UNL A   1      36.237  21.660  25.126  1.00  0.00     0.121 A 
ATOM     23  C   UNL A   1      34.821  19.699  24.991  1.00  0.00     0.045 A 
ATOM     24  F   UNL A   1      32.510  19.894  25.285  1.00  0.00    -0.205 F 
ATOM     25  C   UNL A   1      36.084  20.286  24.910  1.00  0.00     0.049 A 
BRANCH  22  26
ATOM     26  O   UNL A   1      37.420  22.342  25.062  1.00  0.00    -0.497 OA
ATOM     27  C   UNL A   1      38.513  21.801  25.797  1.00  0.00     0.278 C 
ENDBRANCH  22  26
ENDBRANCH  13  19
ENDBRANCH   9  11
ENDBRANCH   8   9
ENDBRANCH   7   8
ENDBRANCH   6   7
ENDBRANCH   5   6
ENDBRANCH   4   5
ENDBRANCH   3   4
ENDBRANCH   2   3
ENDBRANCH   1   2
BRANCH   1  28
ATOM     28  C   UNL A   1      34.690  29.339  26.716  1.00  0.00     0.188 C 
BRANCH  28  29
ATOM     29  O   UNL A   1      35.773  29.098  27.607  1.00  0.00    -0.376 OA
BRANCH  29  30
ATOM     30  C   UNL A   1      36.806  30.044  27.825  1.00  0.00     0.202 C 
BRANCH  30  31
ATOM     31  C   UNL A   1      36.422  31.373  28.466  1.00  0.00     0.261 C 
BRANCH  31  32
ATOM     32  O   UNL A   1      35.528  31.230  29.549  1.00  0.00    -0.460 OA
BRANCH  32  33
ATOM     33  C   UNL A   1      34.936  32.365  29.957  1.00  0.00     0.338 C 
ATOM     34  O   UNL A   1      34.229  33.113  29.288  1.00  0.00    -0.246 OA
BRANCH  33  35
ATOM     35  C   UNL A   1      35.362  32.626  31.328  1.00  0.00     0.060 A 
ATOM     36  C   UNL A   1      36.029  33.835  31.525  1.00  0.00     0.016 A 
ATOM     37  C   UNL A   1      35.545  31.508  32.156  1.00  0.00     0.016 A 
ATOM     38  C   UNL A   1      37.146  33.806  32.317  1.00  0.00     0.010 A 
ATOM     39  C   UNL A   1      36.691  31.464  32.890  1.00  0.00     0.010 A 
ATOM     40  C   UNL A   1      37.523  32.581  32.872  1.00  0.00    -0.014 A 
BRANCH  40  41
ATOM     41  C   UNL A   1      38.779  32.495  33.574  1.00  0.00     0.031 A 
ATOM     42  C   UNL A   1      38.697  33.225  34.851  1.00  0.00     0.074 A 
ATOM     43  C   UNL A   1      39.789  31.718  33.144  1.00  0.00     0.049 A 
ATOM     44  N   UNL A   1      39.137  34.415  35.096  1.00  0.00    -0.248 NA
ATOM     45  C   UNL A   1      37.741  32.723  35.858  1.00  0.00     0.031 C 
ATOM     46  C   UNL A   1      39.797  30.776  32.020  1.00  0.00     0.029 A 
ATOM     47  N   UNL A   1      41.012  31.536  33.698  1.00  0.00    -0.354 N 
ATOM     48  C   UNL A   1      38.765  34.649  36.412  1.00  0.00     0.074 A 
ATOM     49  C   UNL A   1      37.650  33.785  36.657  1.00  0.00     0.031 C 
ATOM     50  C   UNL A   1      40.881  29.969  32.127  1.00  0.00     0.029 A 
ATOM     51  C   UNL A   1      41.696  30.410  33.249  1.00  0.00     0.049 A 
ATOM     52  H   UNL A   1      41.389  32.153  34.366  1.00  0.00     0.167 HD
ATOM     53  C   UNL A   1      39.649  35.199  37.287  1.00  0.00     0.034 A 
ATOM     54  C   UNL A   1      42.800  29.854  33.822  1.00  0.00     0.034 A 
ATOM     55  C   UNL A   1      40.734  35.841  36.567  1.00  0.00     0.049 A 
ATOM     56  C   UNL A   1      43.402  30.904  34.687  1.00  0.00     0.074 A 
ATOM     57  C   UNL A   1      40.806  36.841  35.616  1.00  0.00     0.029 A 
ATOM     58  N   UNL A   1      41.937  35.169  36.496  1.00  0.00    -0.354 N 
ATOM     59  N   UNL A   1      43.928  32.001  34.214  1.00  0.00    -0.248 NA
ATOM     60  C   UNL A   1      42.965  30.986  36.075  1.00  0.00     0.031 C 
ATOM     61  C   UNL A   1      41.847  36.441  34.727  1.00  0.00     0.029 A 
ATOM     62  C   UNL A   1      42.424  35.267  35.216  1.00  0.00     0.049 A 
ATOM     63  H   UNL A   1      42.374  34.696  37.241  1.00  0.00     0.167 HD
ATOM     64  C   UNL A   1      43.490  33.009  35.063  1.00  0.00     0.074 A 
ATOM     65  C   UNL A   1      42.994  32.312  36.248  1.00  0.00     0.031 C 
ATOM     66  C   UNL A   1      43.292  34.278  34.595  1.00  0.00     0.034 A 
BRANCH  53  67
ATOM     67  C   UNL A   1      39.785  34.757  38.736  1.00  0.00     0.023 A 
ATOM     68  C   UNL A   1      39.573  35.754  39.703  1.00  0.00     0.031 A 
ATOM     69  C   UNL A   1      40.364  33.558  39.222  1.00  0.00     0.131 A 
ATOM     70  C   UNL A   1      40.058  35.607  41.012  1.00  0.00     0.055 A 
ATOM     71  C   UNL A   1      40.794  33.396  40.540  1.00  0.00     0.041 A 
ATOM     72  F   UNL A   1      40.618  32.489  38.461  1.00  0.00    -0.206 F 
ATOM     73  C   UNL A   1      40.680  34.438  41.436  1.00  0.00     0.022 A 
BRANCH  70  74
ATOM     74  S   UNL A   1      40.018  37.052  42.094  1.00  0.00     0.124 S 
ATOM     75  O   UNL A   1      41.441  37.282  42.317  1.00  0.00    -0.237 OA
ATOM     76  O   UNL A   1      39.329  38.027  41.257  1.00  0.00    -0.237 OA
ATOM     77  O   UNL A   1      39.268  36.581  43.255  1.00  0.00    -0.744 OA
ENDBRANCH  70  74
ENDBRANCH  53  67
BRANCH  54  78
ATOM     78  C   UNL A   1      43.142  28.405  33.942  1.00  0.00     0.023 A 
ATOM     79  C   UNL A   1      42.503  27.532  34.854  1.00  0.00     0.031 A 
ATOM     80  C   UNL A   1      43.954  27.798  32.957  1.00  0.00     0.131 A 
ATOM     81  C   UNL A   1      42.688  26.131  34.753  1.00  0.00     0.055 A 
ATOM     82  C   UNL A   1      44.132  26.416  32.864  1.00  0.00     0.041 A 
ATOM     83  F   UNL A   1      44.535  28.526  31.991  1.00  0.00    -0.206 F 
ATOM     84  C   UNL A   1      43.491  25.574  33.755  1.00  0.00     0.022 A 
BRANCH  81  85
ATOM     85  S   UNL A   1      41.813  24.985  35.874  1.00  0.00     0.124 S 
ATOM     86  O   UNL A   1      41.938  23.710  35.178  1.00  0.00    -0.237 OA
ATOM     87  O   UNL A   1      42.564  25.124  37.116  1.00  0.00    -0.237 OA
ATOM     88  O   UNL A   1      40.453  25.524  35.922  1.00  0.00    -0.744 OA
ENDBRANCH  81  85
ENDBRANCH  54  78
BRANCH  66  89
ATOM     89  C   UNL A   1      43.876  34.631  33.238  1.00  0.00     0.023 A 
ATOM     90  C   UNL A   1      43.208  34.494  31.998  1.00  0.00     0.031 A 
ATOM     91  C   UNL A   1      45.147  35.228  33.229  1.00  0.00     0.131 A 
ATOM     92  C   UNL A   1      43.828  34.937  30.811  1.00  0.00     0.055 A 
ATOM     93  C   UNL A   1      45.747  35.686  32.059  1.00  0.00     0.041 A 
ATOM     94  F   UNL A   1      45.821  35.409  34.378  1.00  0.00    -0.206 F 
ATOM     95  C   UNL A   1      45.092  35.535  30.842  1.00  0.00     0.022 A 
BRANCH  92  96
ATOM     96  S   UNL A   1      43.014  34.723  29.193  1.00  0.00     0.124 S 
ATOM     97  O   UNL A   1      41.597  34.656  29.529  1.00  0.00    -0.237 OA
ATOM     98  O   UNL A   1      43.443  35.915  28.466  1.00  0.00    -0.237 OA
ATOM     99  O   UNL A   1      43.581  33.470  28.690  1.00  0.00    -0.744 OA
ENDBRANCH  92  96
ENDBRANCH  66  89
ENDBRANCH  40  41
ENDBRANCH  33  35
ENDBRANCH  32  33
ENDBRANCH  31  32
ENDBRANCH  30  31
ENDBRANCH  29  30
ENDBRANCH  28  29
ENDBRANCH   1  28
TORSDOF 27
ENDMDL
MODEL 2
REMARK VINA RESULT:      -8.6      4.820      7.185
REMARK SMILES CCCc1c(C(=O)OCCOCCOCCOCCOC(=O)c2ccc(-c3c4nc(c(-c5cc(S(=O)(=O)[O-])ccc5F)c5ccc([nH]5)c(-c5cc(S(=O)(=O)[O-])ccc5F)c5nc(c(-c6cc(S(=O)(=O)[O-])ccc6F)c6ccc3[nH]6)C=C5)C=C4)cc2)nnn1-c1cc(OC)ccc1F
REMARK SMILES IDX 15 1 14 2 13 3 12 4 11 5 10 6 9 7 8 8 6 9 7 10 5 11 4 12
REMARK SMILES IDX 88 13 86 14 87 15 3 16 2 17 1 18 89 19 90 20 96 21 91 22
REMARK SMILES IDX 95 23 97 24 94 25 92 26 93 27 16 28 17 29 18 30 19 31 20 32
REMARK SMILES IDX 21 33 22 34 23 35 24 36 85 37 25 38 84 39 26 40 27 41 28 42
REMARK SMILES IDX 78 43 29 44 83 45 77 46 79 47 30 48 82 49 76 50 75 51 31 53
REMARK SMILES IDX 63 54 43 55 62 56 44 57 47 58 61 59 80 60 45 61 46 62 60 64
REMARK SMILES IDX 81 65 48 66 32 67 33 68 41 69 34 70 40 71 42 72 39 73 35 74
REMARK SMILES IDX 36 75 37 76 38 77 64 78 65 79 73 80 66 81 72 82 74 83 71 84
REMARK SMILES IDX 67 85 68 86 69 87 70 88 49 89 50 90 58 91 51 92 57 93 59 94
REMARK SMILES IDX 56 95 52 96 53 97 54 98 55 99
REMARK H PARENT 79 52 47 63
REMARK Flexibility Score: inf
ROOT
ATOM      1  C   UNL A   1      33.271  29.319  27.571  1.00  0.00     0.188 C 
ENDROOT
BRANCH   1   2
ATOM      2  O   UNL A   1      32.234  29.066  26.623  1.00  0.00    -0.377 OA
BRANCH   2   3
ATOM      3  C   UNL A   1      32.397  29.689  25.359  1.00  0.00     0.188 C 
BRANCH   3   4
ATOM      4  C   UNL A   1      31.104  29.787  24.507  1.00  0.00     0.188 C 
BRANCH   4   5
ATOM      5  O   UNL A   1      31.104  29.585  23.094  1.00  0.00    -0.376 OA
BRANCH   5   6
ATOM      6  C   UNL A   1      30.127  28.783  22.452  1.00  0.00     0.202 C 
BRANCH   6   7
ATOM      7  C   UNL A   1      29.542  27.561  23.163  1.00  0.00     0.261 C 
BRANCH   7   8
ATOM      8  O   UNL A   1      30.476  26.507  23.403  1.00  0.00    -0.458 OA
BRANCH   8   9
ATOM      9  C   UNL A   1      31.255  26.135  22.358  1.00  0.00     0.360 C 
ATOM     10  O   UNL A   1      31.052  26.465  21.190  1.00  0.00    -0.244 OA
BRANCH   9  11
ATOM     11  C   UNL A   1      32.429  25.382  22.775  1.00  0.00     0.194 A 
ATOM     12  C   UNL A   1      32.726  24.722  23.965  1.00  0.00     0.080 A 
ATOM     13  N   UNL A   1      33.943  24.110  23.671  1.00  0.00    -0.214 N 
ATOM     14  N   UNL A   1      33.536  25.341  21.956  1.00  0.00    -0.122 NA
ATOM     15  N   UNL A   1      34.498  24.691  22.587  1.00  0.00    -0.061 NA
BRANCH  12  16
ATOM     16  C   UNL A   1      32.102  24.636  25.328  1.00  0.00     0.059 C 
BRANCH  16  17
ATOM     17  C   UNL A   1      30.787  23.880  25.484  1.00  0.00     0.003 C 
ATOM     18  C   UNL A   1      30.855  22.634  26.351  1.00  0.00     0.004 C 
ENDBRANCH  16  17
ENDBRANCH  12  16
BRANCH  13  19
ATOM     19  C   UNL A   1      34.539  22.964  24.228  1.00  0.00     0.106 A 
ATOM     20  C   UNL A   1      33.850  21.744  24.258  1.00  0.00     0.078 A 
ATOM     21  C   UNL A   1      35.777  23.074  24.858  1.00  0.00     0.149 A 
ATOM     22  C   UNL A   1      34.436  20.626  24.863  1.00  0.00     0.121 A 
ATOM     23  C   UNL A   1      36.357  21.972  25.471  1.00  0.00     0.045 A 
ATOM     24  F   UNL A   1      36.398  24.256  24.970  1.00  0.00    -0.205 F 
ATOM     25  C   UNL A   1      35.695  20.744  25.463  1.00  0.00     0.049 A 
BRANCH  22  26
ATOM     26  O   UNL A   1      33.693  19.480  24.806  1.00  0.00    -0.497 OA
ATOM     27  C   UNL A   1      32.634  19.449  23.855  1.00  0.00     0.278 C 
ENDBRANCH  22  26
ENDBRANCH  13  19
ENDBRANCH   9  11
ENDBRANCH   8   9
ENDBRANCH   7   8
ENDBRANCH   6   7
ENDBRANCH   5   6
ENDBRANCH   4   5
ENDBRANCH   3   4
ENDBRANCH   2   3
ENDBRANCH   1   2
BRANCH   1  28
ATOM     28  C   UNL A   1      34.646  29.799  27.034  1.00  0.00     0.188 C 
BRANCH  28  29
ATOM     29  O   UNL A   1      35.765  29.117  27.586  1.00  0.00    -0.376 OA
BRANCH  29  30
ATOM     30  C   UNL A   1      36.992  29.770  27.871  1.00  0.00     0.202 C 
BRANCH  30  31
ATOM     31  C   UNL A   1      37.066  30.610  29.141  1.00  0.00     0.261 C 
BRANCH  31  32
ATOM     32  O   UNL A   1      36.730  29.886  30.305  1.00  0.00    -0.460 OA
BRANCH  32  33
ATOM     33  C   UNL A   1      36.735  30.599  31.445  1.00  0.00     0.338 C 
ATOM     34  O   UNL A   1      36.044  31.577  31.710  1.00  0.00    -0.246 OA
BRANCH  33  35
ATOM     35  C   UNL A   1      37.796  30.072  32.298  1.00  0.00     0.060 A 
ATOM     36  C   UNL A   1      38.913  30.896  32.437  1.00  0.00     0.016 A 
ATOM     37  C   UNL A   1      37.850  28.679  32.452  1.00  0.00     0.016 A 
ATOM     38  C   UNL A   1      40.141  30.296  32.361  1.00  0.00     0.010 A 
ATOM     39  C   UNL A   1      39.070  28.089  32.311  1.00  0.00     0.010 A 
ATOM     40  C   UNL A   1      40.183  28.913  32.164  1.00  0.00    -0.014 A 
BRANCH  40  41
ATOM     41  C   UNL A   1      41.457  28.285  31.921  1.00  0.00     0.031 A 
ATOM     42  C   UNL A   1      42.159  28.054  33.195  1.00  0.00     0.074 A 
ATOM     43  C   UNL A   1      41.825  27.858  30.700  1.00  0.00     0.049 A 
ATOM     44  N   UNL A   1      43.100  28.776  33.706  1.00  0.00    -0.248 NA
ATOM     45  C   UNL A   1      41.531  27.126  34.157  1.00  0.00     0.031 C 
ATOM     46  C   UNL A   1      41.033  27.837  29.467  1.00  0.00     0.029 A 
ATOM     47  N   UNL A   1      42.978  27.252  30.327  1.00  0.00    -0.354 N 
ATOM     48  C   UNL A   1      43.373  28.166  34.922  1.00  0.00     0.074 A 
ATOM     49  C   UNL A   1      42.183  27.452  35.271  1.00  0.00     0.031 C 
ATOM     50  C   UNL A   1      41.649  27.043  28.558  1.00  0.00     0.029 A 
ATOM     51  C   UNL A   1      42.925  26.599  29.099  1.00  0.00     0.049 A 
ATOM     52  H   UNL A   1      43.791  27.272  30.881  1.00  0.00     0.167 HD
ATOM     53  C   UNL A   1      44.660  27.956  35.311  1.00  0.00     0.034 A 
ATOM     54  C   UNL A   1      43.834  25.704  28.621  1.00  0.00     0.034 A 
ATOM     55  C   UNL A   1      45.559  28.800  34.545  1.00  0.00     0.049 A 
ATOM     56  C   UNL A   1      45.084  25.913  29.400  1.00  0.00     0.074 A 
ATOM     57  C   UNL A   1      45.673  30.161  34.344  1.00  0.00     0.029 A 
ATOM     58  N   UNL A   1      46.264  28.209  33.516  1.00  0.00    -0.354 N 
ATOM     59  N   UNL A   1      45.793  27.006  29.328  1.00  0.00    -0.248 NA
ATOM     60  C   UNL A   1      45.267  25.146  30.626  1.00  0.00     0.031 C 
ATOM     61  C   UNL A   1      46.049  30.312  32.977  1.00  0.00     0.029 A 
ATOM     62  C   UNL A   1      46.236  29.042  32.424  1.00  0.00     0.049 A 
ATOM     63  H   UNL A   1      46.714  27.334  33.557  1.00  0.00     0.167 HD
ATOM     64  C   UNL A   1      46.152  27.293  30.638  1.00  0.00     0.074 A 
ATOM     65  C   UNL A   1      45.895  26.058  31.377  1.00  0.00     0.031 C 
ATOM     66  C   UNL A   1      46.328  28.586  31.046  1.00  0.00     0.034 A 
BRANCH  53  67
ATOM     67  C   UNL A   1      45.132  26.691  36.012  1.00  0.00     0.023 A 
ATOM     68  C   UNL A   1      45.050  25.507  35.260  1.00  0.00     0.031 A 
ATOM     69  C   UNL A   1      45.374  26.511  37.396  1.00  0.00     0.131 A 
ATOM     70  C   UNL A   1      45.049  24.251  35.885  1.00  0.00     0.055 A 
ATOM     71  C   UNL A   1      45.429  25.256  38.006  1.00  0.00     0.041 A 
ATOM     72  F   UNL A   1      45.509  27.514  38.268  1.00  0.00    -0.206 F 
ATOM     73  C   UNL A   1      45.226  24.115  37.257  1.00  0.00     0.022 A 
BRANCH  70  74
ATOM     74  S   UNL A   1      44.629  22.810  34.882  1.00  0.00     0.124 S 
ATOM     75  O   UNL A   1      43.187  22.972  34.738  1.00  0.00    -0.237 OA
ATOM     76  O   UNL A   1      45.429  23.040  33.684  1.00  0.00    -0.237 OA
ATOM     77  O   UNL A   1      45.056  21.686  35.713  1.00  0.00    -0.744 OA
ENDBRANCH  70  74
ENDBRANCH  53  67
BRANCH  54  78
ATOM     78  C   UNL A   1      43.576  24.477  27.809  1.00  0.00     0.023 A 
ATOM     79  C   UNL A   1      44.327  24.137  26.659  1.00  0.00     0.031 A 
ATOM     80  C   UNL A   1      42.723  23.473  28.320  1.00  0.00     0.131 A 
ATOM     81  C   UNL A   1      44.206  22.851  26.078  1.00  0.00     0.055 A 
ATOM     82  C   UNL A   1      42.608  22.206  27.743  1.00  0.00     0.041 A 
ATOM     83  F   UNL A   1      42.034  23.658  29.457  1.00  0.00    -0.206 F 
ATOM     84  C   UNL A   1      43.358  21.885  26.624  1.00  0.00     0.022 A 
BRANCH  81  85
ATOM     85  S   UNL A   1      45.221  22.370  24.638  1.00  0.00     0.124 S 
ATOM     86  O   UNL A   1      44.350  21.430  23.942  1.00  0.00    -0.237 OA
ATOM     87  O   UNL A   1      45.456  23.649  23.979  1.00  0.00    -0.237 OA
ATOM     88  O   UNL A   1      46.411  21.770  25.243  1.00  0.00    -0.744 OA
ENDBRANCH  81  85
ENDBRANCH  54  78
BRANCH  66  89
ATOM     89  C   UNL A   1      46.456  29.654  29.975  1.00  0.00     0.023 A 
ATOM     90  C   UNL A   1      45.379  30.371  29.400  1.00  0.00     0.031 A 
ATOM     91  C   UNL A   1      47.758  30.023  29.596  1.00  0.00     0.131 A 
ATOM     92  C   UNL A   1      45.635  31.402  28.472  1.00  0.00     0.055 A 
ATOM     93  C   UNL A   1      48.007  31.057  28.697  1.00  0.00     0.041 A 
ATOM     94  F   UNL A   1      48.822  29.397  30.126  1.00  0.00    -0.206 F 
ATOM     95  C   UNL A   1      46.945  31.746  28.125  1.00  0.00     0.022 A 
BRANCH  92  96
ATOM     96  S   UNL A   1      44.265  32.304  27.674  1.00  0.00     0.124 S 
ATOM     97  O   UNL A   1      43.150  32.115  28.594  1.00  0.00    -0.237 OA
ATOM     98  O   UNL A   1      44.795  33.662  27.582  1.00  0.00    -0.237 OA
ATOM     99  O   UNL A   1      44.115  31.624  26.386  1.00  0.00    -0.744 OA
ENDBRANCH  92  96
ENDBRANCH  66  89
ENDBRANCH  40  41
ENDBRANCH  33  35
ENDBRANCH  32  33
ENDBRANCH  31  32
ENDBRANCH  30  31
ENDBRANCH  29  30
ENDBRANCH  28  29
ENDBRANCH   1  28
TORSDOF 27
ENDMDL
MODEL 3
REMARK VINA RESULT:      -8.5      5.707     14.310
REMARK SMILES CCCc1c(C(=O)OCCOCCOCCOCCOC(=O)c2ccc(-c3c4nc(c(-c5cc(S(=O)(=O)[O-])ccc5F)c5ccc([nH]5)c(-c5cc(S(=O)(=O)[O-])ccc5F)c5nc(c(-c6cc(S(=O)(=O)[O-])ccc6F)c6ccc3[nH]6)C=C5)C=C4)cc2)nnn1-c1cc(OC)ccc1F
REMARK SMILES IDX 15 1 14 2 13 3 12 4 11 5 10 6 9 7 8 8 6 9 7 10 5 11 4 12
REMARK SMILES IDX 88 13 86 14 87 15 3 16 2 17 1 18 89 19 90 20 96 21 91 22
REMARK SMILES IDX 95 23 97 24 94 25 92 26 93 27 16 28 17 29 18 30 19 31 20 32
REMARK SMILES IDX 21 33 22 34 23 35 24 36 85 37 25 38 84 39 26 40 27 41 28 42
REMARK SMILES IDX 78 43 29 44 83 45 77 46 79 47 30 48 82 49 76 50 75 51 31 53
REMARK SMILES IDX 63 54 43 55 62 56 44 57 47 58 61 59 80 60 45 61 46 62 60 64
REMARK SMILES IDX 81 65 48 66 32 67 33 68 41 69 34 70 40 71 42 72 39 73 35 74
REMARK SMILES IDX 36 75 37 76 38 77 64 78 65 79 73 80 66 81 72 82 74 83 71 84
REMARK SMILES IDX 67 85 68 86 69 87 70 88 49 89 50 90 58 91 51 92 57 93 59 94
REMARK SMILES IDX 56 95 52 96 53 97 54 98 55 99
REMARK H PARENT 79 52 47 63
REMARK Flexibility Score: inf
ROOT
ATOM      1  C   UNL A   1      34.886  34.378  30.945  1.00  0.00     0.188 C 
ENDROOT
BRANCH   1   2
ATOM      2  O   UNL A   1      35.159  33.418  31.967  1.00  0.00    -0.377 OA
BRANCH   2   3
ATOM      3  C   UNL A   1      35.184  33.927  33.291  1.00  0.00     0.188 C 
BRANCH   3   4
ATOM      4  C   UNL A   1      36.374  33.437  34.157  1.00  0.00     0.188 C 
BRANCH   4   5
ATOM      5  O   UNL A   1      36.571  32.058  34.472  1.00  0.00    -0.376 OA
BRANCH   5   6
ATOM      6  C   UNL A   1      37.848  31.542  34.807  1.00  0.00     0.202 C 
BRANCH   6   7
ATOM      7  C   UNL A   1      38.398  31.705  36.225  1.00  0.00     0.261 C 
BRANCH   7   8
ATOM      8  O   UNL A   1      37.507  32.342  37.141  1.00  0.00    -0.458 OA
BRANCH   8   9
ATOM      9  C   UNL A   1      37.930  32.453  38.424  1.00  0.00     0.360 C 
ATOM     10  O   UNL A   1      39.090  32.695  38.753  1.00  0.00    -0.244 OA
BRANCH   9  11
ATOM     11  C   UNL A   1      36.839  32.360  39.383  1.00  0.00     0.194 A 
ATOM     12  C   UNL A   1      36.545  33.108  40.521  1.00  0.00     0.080 A 
ATOM     13  N   UNL A   1      35.313  32.587  40.912  1.00  0.00    -0.214 N 
ATOM     14  N   UNL A   1      35.942  31.318  39.295  1.00  0.00    -0.122 NA
ATOM     15  N   UNL A   1      35.115  31.389  40.322  1.00  0.00    -0.061 NA
BRANCH  12  16
ATOM     16  C   UNL A   1      37.254  34.161  41.325  1.00  0.00     0.059 C 
BRANCH  16  17
ATOM     17  C   UNL A   1      37.845  33.776  42.676  1.00  0.00     0.003 C 
ATOM     18  C   UNL A   1      37.706  34.825  43.767  1.00  0.00     0.004 C 
ENDBRANCH  16  17
ENDBRANCH  12  16
BRANCH  13  19
ATOM     19  C   UNL A   1      34.278  33.173  41.662  1.00  0.00     0.106 A 
ATOM     20  C   UNL A   1      34.161  32.921  43.035  1.00  0.00     0.078 A 
ATOM     21  C   UNL A   1      33.295  33.914  41.010  1.00  0.00     0.149 A 
ATOM     22  C   UNL A   1      33.094  33.468  43.758  1.00  0.00     0.121 A 
ATOM     23  C   UNL A   1      32.228  34.449  41.719  1.00  0.00     0.045 A 
ATOM     24  F   UNL A   1      33.299  34.058  39.678  1.00  0.00    -0.205 F 
ATOM     25  C   UNL A   1      32.133  34.239  43.095  1.00  0.00     0.049 A 
BRANCH  22  26
ATOM     26  O   UNL A   1      33.096  33.187  45.097  1.00  0.00    -0.497 OA
ATOM     27  C   UNL A   1      32.886  31.828  45.466  1.00  0.00     0.278 C 
ENDBRANCH  22  26
ENDBRANCH  13  19
ENDBRANCH   9  11
ENDBRANCH   8   9
ENDBRANCH   7   8
ENDBRANCH   6   7
ENDBRANCH   5   6
ENDBRANCH   4   5
ENDBRANCH   3   4
ENDBRANCH   2   3
ENDBRANCH   1   2
BRANCH   1  28
ATOM     28  C   UNL A   1      34.425  33.853  29.560  1.00  0.00     0.188 C 
BRANCH  28  29
ATOM     29  O   UNL A   1      34.338  32.436  29.464  1.00  0.00    -0.376 OA
BRANCH  29  30
ATOM     30  C   UNL A   1      34.352  31.753  28.222  1.00  0.00     0.202 C 
BRANCH  30  31
ATOM     31  C   UNL A   1      35.647  31.063  27.809  1.00  0.00     0.261 C 
BRANCH  31  32
ATOM     32  O   UNL A   1      36.072  30.082  28.731  1.00  0.00    -0.460 OA
BRANCH  32  33
ATOM     33  C   UNL A   1      37.339  30.211  29.161  1.00  0.00     0.338 C 
ATOM     34  O   UNL A   1      37.803  31.126  29.834  1.00  0.00    -0.246 OA
BRANCH  33  35
ATOM     35  C   UNL A   1      38.117  29.112  28.598  1.00  0.00     0.060 A 
ATOM     36  C   UNL A   1      38.489  28.119  29.504  1.00  0.00     0.016 A 
ATOM     37  C   UNL A   1      38.835  29.384  27.424  1.00  0.00     0.016 A 
ATOM     38  C   UNL A   1      39.775  27.656  29.425  1.00  0.00     0.010 A 
ATOM     39  C   UNL A   1      40.133  28.972  27.385  1.00  0.00     0.010 A 
ATOM     40  C   UNL A   1      40.607  28.200  28.443  1.00  0.00    -0.014 A 
BRANCH  40  41
ATOM     41  C   UNL A   1      42.004  27.846  28.444  1.00  0.00     0.031 A 
ATOM     42  C   UNL A   1      42.203  26.564  27.746  1.00  0.00     0.074 A 
ATOM     43  C   UNL A   1      42.955  28.682  28.897  1.00  0.00     0.049 A 
ATOM     44  N   UNL A   1      42.353  25.400  28.286  1.00  0.00    -0.248 NA
ATOM     45  C   UNL A   1      41.869  26.516  26.308  1.00  0.00     0.031 C 
ATOM     46  C   UNL A   1      42.807  30.069  29.349  1.00  0.00     0.029 A 
ATOM     47  N   UNL A   1      44.295  28.489  28.955  1.00  0.00    -0.354 N 
ATOM     48  C   UNL A   1      42.446  24.535  27.205  1.00  0.00     0.074 A 
ATOM     49  C   UNL A   1      41.790  25.200  26.121  1.00  0.00     0.031 C 
ATOM     50  C   UNL A   1      44.031  30.648  29.411  1.00  0.00     0.029 A 
ATOM     51  C   UNL A   1      45.047  29.649  29.117  1.00  0.00     0.049 A 
ATOM     52  H   UNL A   1      44.706  27.597  28.886  1.00  0.00     0.167 HD
ATOM     53  C   UNL A   1      43.402  23.567  27.183  1.00  0.00     0.034 A 
ATOM     54  C   UNL A   1      46.392  29.770  28.940  1.00  0.00     0.034 A 
ATOM     55  C   UNL A   1      43.917  23.339  28.521  1.00  0.00     0.049 A 
ATOM     56  C   UNL A   1      46.955  28.395  29.016  1.00  0.00     0.074 A 
ATOM     57  C   UNL A   1      43.351  22.978  29.727  1.00  0.00     0.029 A 
ATOM     58  N   UNL A   1      45.143  23.890  28.832  1.00  0.00    -0.354 N 
ATOM     59  N   UNL A   1      46.941  27.678  30.106  1.00  0.00    -0.248 NA
ATOM     60  C   UNL A   1      47.060  27.625  27.782  1.00  0.00     0.031 C 
ATOM     61  C   UNL A   1      44.054  23.729  30.715  1.00  0.00     0.029 A 
ATOM     62  C   UNL A   1      45.073  24.447  30.086  1.00  0.00     0.049 A 
ATOM     63  H   UNL A   1      45.939  23.884  28.252  1.00  0.00     0.167 HD
ATOM     64  C   UNL A   1      46.588  26.400  29.697  1.00  0.00     0.074 A 
ATOM     65  C   UNL A   1      46.782  26.402  28.248  1.00  0.00     0.031 C 
ATOM     66  C   UNL A   1      45.886  25.570  30.527  1.00  0.00     0.034 A 
BRANCH  53  67
ATOM     67  C   UNL A   1      44.183  23.184  25.935  1.00  0.00     0.023 A 
ATOM     68  C   UNL A   1      44.135  21.828  25.574  1.00  0.00     0.031 A 
ATOM     69  C   UNL A   1      45.165  23.953  25.262  1.00  0.00     0.131 A 
ATOM     70  C   UNL A   1      45.106  21.269  24.728  1.00  0.00     0.055 A 
ATOM     71  C   UNL A   1      46.094  23.403  24.377  1.00  0.00     0.041 A 
ATOM     72  F   UNL A   1      45.346  25.264  25.451  1.00  0.00    -0.206 F 
ATOM     73  C   UNL A   1      46.095  22.045  24.135  1.00  0.00     0.022 A 
BRANCH  70  74
ATOM     74  S   UNL A   1      45.151  19.471  24.568  1.00  0.00     0.124 S 
ATOM     75  O   UNL A   1      43.845  19.204  23.975  1.00  0.00    -0.237 OA
ATOM     76  O   UNL A   1      46.308  19.281  23.700  1.00  0.00    -0.237 OA
ATOM     77  O   UNL A   1      45.320  19.016  25.946  1.00  0.00    -0.744 OA
ENDBRANCH  70  74
ENDBRANCH  53  67
BRANCH  54  78
ATOM     78  C   UNL A   1      47.143  30.926  28.365  1.00  0.00     0.023 A 
ATOM     79  C   UNL A   1      46.569  31.847  27.457  1.00  0.00     0.031 A 
ATOM     80  C   UNL A   1      48.395  31.285  28.914  1.00  0.00     0.131 A 
ATOM     81  C   UNL A   1      47.240  33.054  27.141  1.00  0.00     0.055 A 
ATOM     82  C   UNL A   1      49.052  32.476  28.597  1.00  0.00     0.041 A 
ATOM     83  F   UNL A   1      48.985  30.526  29.851  1.00  0.00    -0.206 F 
ATOM     84  C   UNL A   1      48.472  33.372  27.716  1.00  0.00     0.022 A 
BRANCH  81  85
ATOM     85  S   UNL A   1      46.480  34.288  26.029  1.00  0.00     0.124 S 
ATOM     86  O   UNL A   1      47.542  34.530  25.059  1.00  0.00    -0.237 OA
ATOM     87  O   UNL A   1      45.300  33.585  25.539  1.00  0.00    -0.237 OA
ATOM     88  O   UNL A   1      46.192  35.417  26.915  1.00  0.00    -0.744 OA
ENDBRANCH  81  85
ENDBRANCH  54  78
BRANCH  66  89
ATOM     89  C   UNL A   1      45.802  25.945  31.995  1.00  0.00     0.023 A 
ATOM     90  C   UNL A   1      44.649  26.440  32.650  1.00  0.00     0.031 A 
ATOM     91  C   UNL A   1      46.937  25.689  32.783  1.00  0.00     0.131 A 
ATOM     92  C   UNL A   1      44.673  26.672  34.041  1.00  0.00     0.055 A 
ATOM     93  C   UNL A   1      46.950  25.897  34.160  1.00  0.00     0.041 A 
ATOM     94  F   UNL A   1      48.054  25.194  32.224  1.00  0.00    -0.206 F 
ATOM     95  C   UNL A   1      45.819  26.398  34.794  1.00  0.00     0.022 A 
BRANCH  92  96
ATOM     96  S   UNL A   1      43.220  27.362  34.902  1.00  0.00     0.124 S 
ATOM     97  O   UNL A   1      42.275  27.621  33.822  1.00  0.00    -0.237 OA
ATOM     98  O   UNL A   1      42.860  26.285  35.821  1.00  0.00    -0.237 OA
ATOM     99  O   UNL A   1      43.748  28.563  35.552  1.00  0.00    -0.744 OA
ENDBRANCH  92  96
ENDBRANCH  66  89
ENDBRANCH  40  41
ENDBRANCH  33  35
ENDBRANCH  32  33
ENDBRANCH  31  32
ENDBRANCH  30  31
ENDBRANCH  29  30
ENDBRANCH  28  29
ENDBRANCH   1  28
TORSDOF 27
ENDMDL
