MODEL 1
REMARK VINA RESULT:      -8.7      0.000      0.000
REMARK SMILES CCc1c(C)nc(Nc2cc(Cl)ccc2C)nc1OCC(=O)OCCOCCOCCOCCOC(=O)c1ccc(-c2c3nc(c(-c4cc(S(=O)(=O)[O-])ccc4F)c4ccc([nH]4)c(-c4cc(S(=O)(=O)[O-])ccc4F)c4nc(c(-c5cc(S(=O)(=O)[O-])ccc5F)c5ccc2[nH]5)C=C4)C=C3)cc1
REMARK SMILES IDX 28 1 27 2 26 3 25 4 24 5 23 6 21 7 22 8 20 9 19 10 18 11
REMARK SMILES IDX 3 12 4 13 5 14 6 15 17 16 7 17 2 18 1 19 8 20 9 22 10 23
REMARK SMILES IDX 15 24 11 25 14 26 16 27 12 28 13 29 29 30 30 31 31 32 32 33
REMARK SMILES IDX 33 34 34 35 35 36 36 37 37 38 38 39 39 40 100 41 40 42 99 43
REMARK SMILES IDX 41 44 42 45 43 46 93 47 44 48 98 49 92 50 94 51 45 52 97 53
REMARK SMILES IDX 91 54 90 55 46 57 78 58 58 59 77 60 59 61 62 62 76 63 95 64
REMARK SMILES IDX 60 65 61 66 75 68 96 69 63 70 47 71 48 72 56 73 49 74 55 75
REMARK SMILES IDX 57 76 54 77 50 78 51 79 52 80 53 81 79 82 80 83 88 84 81 85
REMARK SMILES IDX 87 86 89 87 86 88 82 89 83 90 84 91 85 92 64 93 65 94 73 95
REMARK SMILES IDX 66 96 72 97 74 98 71 99 67 100 68 101 69 102 70 103
REMARK H PARENT 8 21 94 56 62 67
REMARK Flexibility Score: inf
ROOT
ATOM      1  C   UNL A   1      33.395  32.413  27.895  1.00  0.00     0.188 C 
ENDROOT
BRANCH   1   2
ATOM      2  C   UNL A   1      34.582  31.425  28.009  1.00  0.00     0.188 C 
BRANCH   2   3
ATOM      3  O   UNL A   1      34.732  30.410  27.048  1.00  0.00    -0.376 OA
BRANCH   3   4
ATOM      4  C   UNL A   1      34.525  29.049  27.360  1.00  0.00     0.202 C 
BRANCH   4   5
ATOM      5  C   UNL A   1      33.591  28.096  26.588  1.00  0.00     0.261 C 
BRANCH   5   6
ATOM      6  O   UNL A   1      32.523  28.670  25.813  1.00  0.00    -0.461 OA
BRANCH   6   7
ATOM      7  C   UNL A   1      31.501  27.852  25.451  1.00  0.00     0.344 C 
ATOM      8  O   UNL A   1      30.623  28.174  24.654  1.00  0.00    -0.248 OA
BRANCH   7   9
ATOM      9  C   UNL A   1      31.503  26.468  26.175  1.00  0.00     0.353 C 
BRANCH   9  10
ATOM     10  O   UNL A   1      32.258  25.318  25.897  1.00  0.00    -0.465 OA
BRANCH  10  11
ATOM     11  C   UNL A   1      32.277  24.342  24.965  1.00  0.00     0.222 A 
ATOM     12  C   UNL A   1      32.415  24.369  23.580  1.00  0.00     0.035 A 
ATOM     13  C   UNL A   1      32.762  23.110  23.027  1.00  0.00     0.050 A 
ATOM     14  C   UNL A   1      33.201  22.905  21.598  1.00  0.00     0.067 C 
ATOM     15  N   UNL A   1      32.786  21.954  23.715  1.00  0.00    -0.218 NA
ATOM     16  N   UNL A   1      32.322  23.156  25.650  1.00  0.00    -0.177 NA
ATOM     17  C   UNL A   1      32.555  21.997  25.018  1.00  0.00     0.230 A 
BRANCH  12  18
ATOM     18  C   UNL A   1      32.343  25.486  22.571  1.00  0.00     0.040 C 
ATOM     19  C   UNL A   1      31.075  26.192  22.168  1.00  0.00     0.009 C 
ENDBRANCH  12  18
BRANCH  17  20
ATOM     20  N   UNL A   1      32.642  20.812  25.764  1.00  0.00    -0.324 N 
ATOM     21  H   UNL A   1      32.182  20.805  26.635  1.00  0.00     0.170 HD
BRANCH  20  22
ATOM     22  C   UNL A   1      33.318  19.631  25.398  1.00  0.00     0.045 A 
ATOM     23  C   UNL A   1      32.644  18.403  25.427  1.00  0.00     0.047 A 
ATOM     24  C   UNL A   1      34.670  19.632  25.002  1.00  0.00    -0.027 A 
ATOM     25  C   UNL A   1      33.282  17.224  25.022  1.00  0.00     0.043 A 
ATOM     26  C   UNL A   1      35.279  18.453  24.531  1.00  0.00     0.007 A 
ATOM     27  C   UNL A   1      35.536  20.839  25.169  1.00  0.00     0.046 C 
ATOM     28  Cl  UNL A   1      32.460  15.716  25.147  1.00  0.00    -0.084 Cl
ATOM     29  C   UNL A   1      34.584  17.250  24.535  1.00  0.00     0.021 A 
ENDBRANCH  20  22
ENDBRANCH  17  20
ENDBRANCH  10  11
ENDBRANCH   9  10
ENDBRANCH   7   9
ENDBRANCH   6   7
ENDBRANCH   5   6
ENDBRANCH   4   5
ENDBRANCH   3   4
ENDBRANCH   2   3
ENDBRANCH   1   2
BRANCH   1  30
ATOM     30  O   UNL A   1      33.471  33.823  27.903  1.00  0.00    -0.377 OA
BRANCH  30  31
ATOM     31  C   UNL A   1      34.378  34.463  28.761  1.00  0.00     0.188 C 
BRANCH  31  32
ATOM     32  C   UNL A   1      33.803  35.008  30.075  1.00  0.00     0.188 C 
BRANCH  32  33
ATOM     33  O   UNL A   1      33.652  34.019  31.079  1.00  0.00    -0.376 OA
BRANCH  33  34
ATOM     34  C   UNL A   1      34.699  33.082  31.285  1.00  0.00     0.202 C 
BRANCH  34  35
ATOM     35  C   UNL A   1      35.313  32.839  32.673  1.00  0.00     0.261 C 
BRANCH  35  36
ATOM     36  O   UNL A   1      36.698  32.491  32.701  1.00  0.00    -0.460 OA
BRANCH  36  37
ATOM     37  C   UNL A   1      37.056  31.248  32.338  1.00  0.00     0.338 C 
ATOM     38  O   UNL A   1      36.380  30.234  32.409  1.00  0.00    -0.246 OA
BRANCH  37  39
ATOM     39  C   UNL A   1      38.377  31.365  31.694  1.00  0.00     0.060 A 
ATOM     40  C   UNL A   1      39.467  31.723  32.492  1.00  0.00     0.016 A 
ATOM     41  C   UNL A   1      38.552  31.078  30.336  1.00  0.00     0.016 A 
ATOM     42  C   UNL A   1      40.736  31.799  31.931  1.00  0.00     0.010 A 
ATOM     43  C   UNL A   1      39.819  31.189  29.764  1.00  0.00     0.010 A 
ATOM     44  C   UNL A   1      40.907  31.579  30.558  1.00  0.00    -0.014 A 
BRANCH  44  45
ATOM     45  C   UNL A   1      42.181  31.992  29.936  1.00  0.00     0.031 A 
ATOM     46  C   UNL A   1      42.412  33.464  29.745  1.00  0.00     0.074 A 
ATOM     47  C   UNL A   1      43.125  31.085  29.633  1.00  0.00     0.049 A 
ATOM     48  N   UNL A   1      43.463  34.087  29.289  1.00  0.00    -0.248 NA
ATOM     49  C   UNL A   1      41.300  34.352  30.127  1.00  0.00     0.031 C 
ATOM     50  C   UNL A   1      43.002  29.642  29.830  1.00  0.00     0.029 A 
ATOM     51  N   UNL A   1      44.379  31.248  29.105  1.00  0.00    -0.354 N 
ATOM     52  C   UNL A   1      43.145  35.441  29.335  1.00  0.00     0.074 A 
ATOM     53  C   UNL A   1      41.790  35.545  29.826  1.00  0.00     0.031 C 
ATOM     54  C   UNL A   1      44.142  29.049  29.434  1.00  0.00     0.029 A 
ATOM     55  C   UNL A   1      45.059  30.067  28.923  1.00  0.00     0.049 A 
ATOM     56  H   UNL A   1      44.757  32.128  28.877  1.00  0.00     0.167 HD
ATOM     57  C   UNL A   1      43.923  36.498  29.003  1.00  0.00     0.034 A 
ATOM     58  C   UNL A   1      46.277  29.845  28.390  1.00  0.00     0.034 A 
ATOM     59  C   UNL A   1      45.264  36.357  28.493  1.00  0.00     0.049 A 
ATOM     60  C   UNL A   1      47.088  31.039  27.935  1.00  0.00     0.074 A 
ATOM     61  C   UNL A   1      46.154  37.349  28.128  1.00  0.00     0.029 A 
ATOM     62  N   UNL A   1      45.897  35.143  28.254  1.00  0.00    -0.354 N 
ATOM     63  N   UNL A   1      46.790  32.318  28.008  1.00  0.00    -0.248 NA
ATOM     64  C   UNL A   1      48.399  30.761  27.338  1.00  0.00     0.031 C 
ATOM     65  C   UNL A   1      47.288  36.737  27.586  1.00  0.00     0.029 A 
ATOM     66  C   UNL A   1      47.149  35.361  27.705  1.00  0.00     0.049 A 
ATOM     67  H   UNL A   1      45.512  34.258  28.446  1.00  0.00     0.167 HD
ATOM     68  C   UNL A   1      47.897  32.996  27.501  1.00  0.00     0.074 A 
ATOM     69  C   UNL A   1      48.869  31.983  27.141  1.00  0.00     0.031 C 
ATOM     70  C   UNL A   1      48.097  34.330  27.348  1.00  0.00     0.034 A 
BRANCH  57  71
ATOM     71  C   UNL A   1      43.314  37.873  29.114  1.00  0.00     0.023 A 
ATOM     72  C   UNL A   1      43.579  38.723  30.203  1.00  0.00     0.031 A 
ATOM     73  C   UNL A   1      42.423  38.329  28.127  1.00  0.00     0.131 A 
ATOM     74  C   UNL A   1      42.911  39.952  30.310  1.00  0.00     0.055 A 
ATOM     75  C   UNL A   1      41.823  39.588  28.199  1.00  0.00     0.041 A 
ATOM     76  F   UNL A   1      42.104  37.550  27.081  1.00  0.00    -0.206 F 
ATOM     77  C   UNL A   1      42.057  40.403  29.301  1.00  0.00     0.022 A 
BRANCH  74  78
ATOM     78  S   UNL A   1      43.063  40.893  31.855  1.00  0.00     0.124 S 
ATOM     79  O   UNL A   1      42.865  39.849  32.857  1.00  0.00    -0.237 OA
ATOM     80  O   UNL A   1      44.411  41.441  31.759  1.00  0.00    -0.237 OA
ATOM     81  O   UNL A   1      41.982  41.874  31.767  1.00  0.00    -0.744 OA
ENDBRANCH  74  78
ENDBRANCH  57  71
BRANCH  58  82
ATOM     82  C   UNL A   1      46.799  28.457  28.222  1.00  0.00     0.023 A 
ATOM     83  C   UNL A   1      46.471  27.687  27.095  1.00  0.00     0.031 A 
ATOM     84  C   UNL A   1      47.577  27.851  29.226  1.00  0.00     0.131 A 
ATOM     85  C   UNL A   1      46.869  26.341  27.024  1.00  0.00     0.055 A 
ATOM     86  C   UNL A   1      48.025  26.532  29.121  1.00  0.00     0.041 A 
ATOM     87  F   UNL A   1      47.917  28.536  30.329  1.00  0.00    -0.206 F 
ATOM     88  C   UNL A   1      47.656  25.764  28.022  1.00  0.00     0.022 A 
BRANCH  85  89
ATOM     89  S   UNL A   1      46.246  25.323  25.658  1.00  0.00     0.124 S 
ATOM     90  O   UNL A   1      45.929  26.332  24.656  1.00  0.00    -0.237 OA
ATOM     91  O   UNL A   1      47.394  24.469  25.371  1.00  0.00    -0.237 OA
ATOM     92  O   UNL A   1      45.094  24.638  26.243  1.00  0.00    -0.744 OA
ENDBRANCH  85  89
ENDBRANCH  58  82
BRANCH  70  93
ATOM     93  C   UNL A   1      49.442  34.766  26.817  1.00  0.00     0.023 A 
ATOM     94  C   UNL A   1      50.562  34.903  27.655  1.00  0.00     0.031 A 
ATOM     95  C   UNL A   1      49.601  35.050  25.448  1.00  0.00     0.131 A 
ATOM     96  C   UNL A   1      51.774  35.373  27.127  1.00  0.00     0.055 A 
ATOM     97  C   UNL A   1      50.827  35.445  24.917  1.00  0.00     0.041 A 
ATOM     98  F   UNL A   1      48.564  34.940  24.602  1.00  0.00    -0.206 F 
ATOM     99  C   UNL A   1      51.920  35.623  25.761  1.00  0.00     0.022 A 
BRANCH  96 100
ATOM    100  S   UNL A   1      53.127  35.757  28.271  1.00  0.00     0.124 S 
ATOM    101  O   UNL A   1      52.454  35.702  29.565  1.00  0.00    -0.237 OA
ATOM    102  O   UNL A   1      54.079  34.685  28.002  1.00  0.00    -0.237 OA
ATOM    103  O   UNL A   1      53.560  37.089  27.853  1.00  0.00    -0.744 OA
ENDBRANCH  96 100
ENDBRANCH  70  93
ENDBRANCH  44  45
ENDBRANCH  37  39
ENDBRANCH  36  37
ENDBRANCH  35  36
ENDBRANCH  34  35
ENDBRANCH  33  34
ENDBRANCH  32  33
ENDBRANCH  31  32
ENDBRANCH  30  31
ENDBRANCH   1  30
TORSDOF 28
ENDMDL
MODEL 2
REMARK VINA RESULT:      -8.6      3.078      7.789
REMARK SMILES CCc1c(C)nc(Nc2cc(Cl)ccc2C)nc1OCC(=O)OCCOCCOCCOCCOC(=O)c1ccc(-c2c3nc(c(-c4cc(S(=O)(=O)[O-])ccc4F)c4ccc([nH]4)c(-c4cc(S(=O)(=O)[O-])ccc4F)c4nc(c(-c5cc(S(=O)(=O)[O-])ccc5F)c5ccc2[nH]5)C=C4)C=C3)cc1
REMARK SMILES IDX 28 1 27 2 26 3 25 4 24 5 23 6 21 7 22 8 20 9 19 10 18 11
REMARK SMILES IDX 3 12 4 13 5 14 6 15 17 16 7 17 2 18 1 19 8 20 9 22 10 23
REMARK SMILES IDX 15 24 11 25 14 26 16 27 12 28 13 29 29 30 30 31 31 32 32 33
REMARK SMILES IDX 33 34 34 35 35 36 36 37 37 38 38 39 39 40 100 41 40 42 99 43
REMARK SMILES IDX 41 44 42 45 43 46 93 47 44 48 98 49 92 50 94 51 45 52 97 53
REMARK SMILES IDX 91 54 90 55 46 57 78 58 58 59 77 60 59 61 62 62 76 63 95 64
REMARK SMILES IDX 60 65 61 66 75 68 96 69 63 70 47 71 48 72 56 73 49 74 55 75
REMARK SMILES IDX 57 76 54 77 50 78 51 79 52 80 53 81 79 82 80 83 88 84 81 85
REMARK SMILES IDX 87 86 89 87 86 88 82 89 83 90 84 91 85 92 64 93 65 94 73 95
REMARK SMILES IDX 66 96 72 97 74 98 71 99 67 100 68 101 69 102 70 103
REMARK H PARENT 8 21 94 56 62 67
REMARK Flexibility Score: inf
ROOT
ATOM      1  C   UNL A   1      33.556  32.161  27.745  1.00  0.00     0.188 C 
ENDROOT
BRANCH   1   2
ATOM      2  C   UNL A   1      34.690  31.135  27.991  1.00  0.00     0.188 C 
BRANCH   2   3
ATOM      3  O   UNL A   1      35.021  30.215  26.981  1.00  0.00    -0.376 OA
BRANCH   3   4
ATOM      4  C   UNL A   1      34.827  28.827  27.141  1.00  0.00     0.202 C 
BRANCH   4   5
ATOM      5  C   UNL A   1      33.819  27.976  26.342  1.00  0.00     0.261 C 
BRANCH   5   6
ATOM      6  O   UNL A   1      32.733  28.650  25.682  1.00  0.00    -0.461 OA
BRANCH   6   7
ATOM      7  C   UNL A   1      31.632  27.914  25.374  1.00  0.00     0.344 C 
ATOM      8  O   UNL A   1      30.755  28.296  24.603  1.00  0.00    -0.248 OA
BRANCH   7   9
ATOM      9  C   UNL A   1      31.546  26.549  26.127  1.00  0.00     0.353 C 
BRANCH   9  10
ATOM     10  O   UNL A   1      32.223  25.346  25.870  1.00  0.00    -0.465 OA
BRANCH  10  11
ATOM     11  C   UNL A   1      32.187  24.362  24.947  1.00  0.00     0.222 A 
ATOM     12  C   UNL A   1      32.239  24.377  23.557  1.00  0.00     0.035 A 
ATOM     13  C   UNL A   1      32.554  23.114  22.994  1.00  0.00     0.050 A 
ATOM     14  C   UNL A   1      32.905  22.897  21.542  1.00  0.00     0.067 C 
ATOM     15  N   UNL A   1      32.624  21.964  23.689  1.00  0.00    -0.218 NA
ATOM     16  N   UNL A   1      32.277  23.182  25.639  1.00  0.00    -0.177 NA
ATOM     17  C   UNL A   1      32.473  22.018  25.003  1.00  0.00     0.230 A 
BRANCH  12  18
ATOM     18  C   UNL A   1      32.102  25.485  22.544  1.00  0.00     0.040 C 
ATOM     19  C   UNL A   1      33.043  26.655  22.428  1.00  0.00     0.009 C 
ENDBRANCH  12  18
BRANCH  17  20
ATOM     20  N   UNL A   1      32.609  20.840  25.753  1.00  0.00    -0.324 N 
ATOM     21  H   UNL A   1      32.153  20.817  26.625  1.00  0.00     0.170 HD
BRANCH  20  22
ATOM     22  C   UNL A   1      33.331  19.686  25.388  1.00  0.00     0.045 A 
ATOM     23  C   UNL A   1      32.700  18.434  25.400  1.00  0.00     0.047 A 
ATOM     24  C   UNL A   1      34.687  19.736  25.012  1.00  0.00    -0.027 A 
ATOM     25  C   UNL A   1      33.383  17.281  24.996  1.00  0.00     0.043 A 
ATOM     26  C   UNL A   1      35.343  18.582  24.541  1.00  0.00     0.007 A 
ATOM     27  C   UNL A   1      35.509  20.971  25.198  1.00  0.00     0.046 C 
ATOM     28  Cl  UNL A   1      32.612  15.745  25.100  1.00  0.00    -0.084 Cl
ATOM     29  C   UNL A   1      34.689  17.355  24.528  1.00  0.00     0.021 A 
ENDBRANCH  20  22
ENDBRANCH  17  20
ENDBRANCH  10  11
ENDBRANCH   9  10
ENDBRANCH   7   9
ENDBRANCH   6   7
ENDBRANCH   5   6
ENDBRANCH   4   5
ENDBRANCH   3   4
ENDBRANCH   2   3
ENDBRANCH   1   2
BRANCH   1  30
ATOM     30  O   UNL A   1      33.687  33.566  27.711  1.00  0.00    -0.377 OA
BRANCH  30  31
ATOM     31  C   UNL A   1      34.588  34.199  28.580  1.00  0.00     0.188 C 
BRANCH  31  32
ATOM     32  C   UNL A   1      33.995  34.770  29.876  1.00  0.00     0.188 C 
BRANCH  32  33
ATOM     33  O   UNL A   1      33.759  33.787  30.870  1.00  0.00    -0.376 OA
BRANCH  33  34
ATOM     34  C   UNL A   1      34.785  32.852  31.170  1.00  0.00     0.202 C 
BRANCH  34  35
ATOM     35  C   UNL A   1      35.414  32.755  32.569  1.00  0.00     0.261 C 
BRANCH  35  36
ATOM     36  O   UNL A   1      36.775  32.323  32.624  1.00  0.00    -0.460 OA
BRANCH  36  37
ATOM     37  C   UNL A   1      37.052  31.038  32.346  1.00  0.00     0.338 C 
ATOM     38  O   UNL A   1      36.279  30.093  32.373  1.00  0.00    -0.246 OA
BRANCH  37  39
ATOM     39  C   UNL A   1      38.441  31.006  31.856  1.00  0.00     0.060 A 
ATOM     40  C   UNL A   1      38.657  31.154  30.483  1.00  0.00     0.016 A 
ATOM     41  C   UNL A   1      39.521  30.883  32.738  1.00  0.00     0.016 A 
ATOM     42  C   UNL A   1      39.955  31.174  29.987  1.00  0.00     0.010 A 
ATOM     43  C   UNL A   1      40.823  30.867  32.238  1.00  0.00     0.010 A 
ATOM     44  C   UNL A   1      41.037  30.983  30.857  1.00  0.00    -0.014 A 
BRANCH  44  45
ATOM     45  C   UNL A   1      42.358  30.673  30.273  1.00  0.00     0.031 A 
ATOM     46  C   UNL A   1      42.633  29.243  29.906  1.00  0.00     0.074 A 
ATOM     47  C   UNL A   1      43.241  31.651  30.008  1.00  0.00     0.049 A 
ATOM     48  N   UNL A   1      43.677  28.722  29.323  1.00  0.00    -0.248 NA
ATOM     49  C   UNL A   1      41.579  28.270  30.241  1.00  0.00     0.031 C 
ATOM     50  C   UNL A   1      43.035  33.071  30.289  1.00  0.00     0.029 A 
ATOM     51  N   UNL A   1      44.483  31.597  29.432  1.00  0.00    -0.354 N 
ATOM     52  C   UNL A   1      43.404  27.362  29.214  1.00  0.00     0.074 A 
ATOM     53  C   UNL A   1      42.116  27.134  29.826  1.00  0.00     0.031 C 
ATOM     54  C   UNL A   1      44.115  33.758  29.876  1.00  0.00     0.029 A 
ATOM     55  C   UNL A   1      45.100  32.823  29.336  1.00  0.00     0.049 A 
ATOM     56  H   UNL A   1      44.895  30.761  29.119  1.00  0.00     0.167 HD
ATOM     57  C   UNL A   1      44.164  26.396  28.645  1.00  0.00     0.034 A 
ATOM     58  C   UNL A   1      46.328  33.137  28.876  1.00  0.00     0.034 A 
ATOM     59  C   UNL A   1      45.458  26.654  28.064  1.00  0.00     0.049 A 
ATOM     60  C   UNL A   1      47.196  32.023  28.335  1.00  0.00     0.074 A 
ATOM     61  C   UNL A   1      46.319  25.764  27.451  1.00  0.00     0.029 A 
ATOM     62  N   UNL A   1      46.084  27.895  28.046  1.00  0.00    -0.354 N 
ATOM     63  N   UNL A   1      46.919  30.744  28.209  1.00  0.00    -0.248 NA
ATOM     64  C   UNL A   1      48.535  32.397  27.863  1.00  0.00     0.031 C 
ATOM     65  C   UNL A   1      47.501  26.445  27.144  1.00  0.00     0.029 A 
ATOM     66  C   UNL A   1      47.340  27.783  27.473  1.00  0.00     0.049 A 
ATOM     67  H   UNL A   1      45.694  28.730  28.390  1.00  0.00     0.167 HD
ATOM     68  C   UNL A   1      48.037  30.169  27.609  1.00  0.00     0.074 A 
ATOM     69  C   UNL A   1      48.982  31.245  27.386  1.00  0.00     0.031 C 
ATOM     70  C   UNL A   1      48.266  28.874  27.269  1.00  0.00     0.034 A 
BRANCH  57  71
ATOM     71  C   UNL A   1      43.645  24.981  28.694  1.00  0.00     0.023 A 
ATOM     72  C   UNL A   1      42.851  24.439  27.668  1.00  0.00     0.031 A 
ATOM     73  C   UNL A   1      43.920  24.170  29.809  1.00  0.00     0.131 A 
ATOM     74  C   UNL A   1      42.310  23.152  27.806  1.00  0.00     0.055 A 
ATOM     75  C   UNL A   1      43.444  22.861  29.904  1.00  0.00     0.041 A 
ATOM     76  F   UNL A   1      44.642  24.643  30.837  1.00  0.00    -0.206 F 
ATOM     77  C   UNL A   1      42.624  22.349  28.904  1.00  0.00     0.022 A 
BRANCH  74  78
ATOM     78  S   UNL A   1      41.073  22.594  26.601  1.00  0.00     0.124 S 
ATOM     79  O   UNL A   1      40.448  21.482  27.312  1.00  0.00    -0.237 OA
ATOM     80  O   UNL A   1      40.247  23.783  26.423  1.00  0.00    -0.237 OA
ATOM     81  O   UNL A   1      41.873  22.211  25.439  1.00  0.00    -0.744 OA
ENDBRANCH  74  78
ENDBRANCH  57  71
BRANCH  58  82
ATOM     82  C   UNL A   1      46.829  34.542  28.930  1.00  0.00     0.023 A 
ATOM     83  C   UNL A   1      46.634  35.426  27.857  1.00  0.00     0.031 A 
ATOM     84  C   UNL A   1      47.577  35.000  30.030  1.00  0.00     0.131 A 
ATOM     85  C   UNL A   1      47.227  36.700  27.882  1.00  0.00     0.055 A 
ATOM     86  C   UNL A   1      48.111  36.290  30.077  1.00  0.00     0.041 A 
ATOM     87  F   UNL A   1      47.802  34.198  31.082  1.00  0.00    -0.206 F 
ATOM     88  C   UNL A   1      47.951  37.143  28.989  1.00  0.00     0.022 A 
BRANCH  85  89
ATOM     89  S   UNL A   1      47.131  37.730  26.390  1.00  0.00     0.124 S 
ATOM     90  O   UNL A   1      48.306  38.579  26.541  1.00  0.00    -0.237 OA
ATOM     91  O   UNL A   1      47.192  36.729  25.329  1.00  0.00    -0.237 OA
ATOM     92  O   UNL A   1      45.845  38.410  26.529  1.00  0.00    -0.744 OA
ENDBRANCH  85  89
ENDBRANCH  58  82
BRANCH  70  93
ATOM     93  C   UNL A   1      49.569  28.568  26.569  1.00  0.00     0.023 A 
ATOM     94  C   UNL A   1      49.674  28.554  25.168  1.00  0.00     0.031 A 
ATOM     95  C   UNL A   1      50.723  28.284  27.322  1.00  0.00     0.131 A 
ATOM     96  C   UNL A   1      50.889  28.201  24.563  1.00  0.00     0.055 A 
ATOM     97  C   UNL A   1      51.947  28.006  26.715  1.00  0.00     0.041 A 
ATOM     98  F   UNL A   1      50.680  28.278  28.664  1.00  0.00    -0.206 F 
ATOM     99  C   UNL A   1      52.031  27.949  25.326  1.00  0.00     0.022 A 
BRANCH  96 100
ATOM    100  S   UNL A   1      50.928  27.969  22.765  1.00  0.00     0.124 S 
ATOM    101  O   UNL A   1      51.951  26.939  22.616  1.00  0.00    -0.237 OA
ATOM    102  O   UNL A   1      49.560  27.555  22.473  1.00  0.00    -0.237 OA
ATOM    103  O   UNL A   1      51.297  29.289  22.257  1.00  0.00    -0.744 OA
ENDBRANCH  96 100
ENDBRANCH  70  93
ENDBRANCH  44  45
ENDBRANCH  37  39
ENDBRANCH  36  37
ENDBRANCH  35  36
ENDBRANCH  34  35
ENDBRANCH  33  34
ENDBRANCH  32  33
ENDBRANCH  31  32
ENDBRANCH  30  31
ENDBRANCH   1  30
TORSDOF 28
ENDMDL
MODEL 3
REMARK VINA RESULT:      -8.6      6.405      8.050
REMARK SMILES CCc1c(C)nc(Nc2cc(Cl)ccc2C)nc1OCC(=O)OCCOCCOCCOCCOC(=O)c1ccc(-c2c3nc(c(-c4cc(S(=O)(=O)[O-])ccc4F)c4ccc([nH]4)c(-c4cc(S(=O)(=O)[O-])ccc4F)c4nc(c(-c5cc(S(=O)(=O)[O-])ccc5F)c5ccc2[nH]5)C=C4)C=C3)cc1
REMARK SMILES IDX 28 1 27 2 26 3 25 4 24 5 23 6 21 7 22 8 20 9 19 10 18 11
REMARK SMILES IDX 3 12 4 13 5 14 6 15 17 16 7 17 2 18 1 19 8 20 9 22 10 23
REMARK SMILES IDX 15 24 11 25 14 26 16 27 12 28 13 29 29 30 30 31 31 32 32 33
REMARK SMILES IDX 33 34 34 35 35 36 36 37 37 38 38 39 39 40 100 41 40 42 99 43
REMARK SMILES IDX 41 44 42 45 43 46 93 47 44 48 98 49 92 50 94 51 45 52 97 53
REMARK SMILES IDX 91 54 90 55 46 57 78 58 58 59 77 60 59 61 62 62 76 63 95 64
REMARK SMILES IDX 60 65 61 66 75 68 96 69 63 70 47 71 48 72 56 73 49 74 55 75
REMARK SMILES IDX 57 76 54 77 50 78 51 79 52 80 53 81 79 82 80 83 88 84 81 85
REMARK SMILES IDX 87 86 89 87 86 88 82 89 83 90 84 91 85 92 64 93 65 94 73 95
REMARK SMILES IDX 66 96 72 97 74 98 71 99 67 100 68 101 69 102 70 103
REMARK H PARENT 8 21 94 56 62 67
REMARK Flexibility Score: inf
ROOT
ATOM      1  C   UNL A   1      33.718  32.030  27.709  1.00  0.00     0.188 C 
ENDROOT
BRANCH   1   2
ATOM      2  C   UNL A   1      32.966  30.765  27.224  1.00  0.00     0.188 C 
BRANCH   2   3
ATOM      3  O   UNL A   1      33.329  30.169  26.004  1.00  0.00    -0.376 OA
BRANCH   3   4
ATOM      4  C   UNL A   1      32.513  29.211  25.367  1.00  0.00     0.202 C 
BRANCH   4   5
ATOM      5  C   UNL A   1      32.427  28.991  23.844  1.00  0.00     0.261 C 
BRANCH   5   6
ATOM      6  O   UNL A   1      31.332  28.213  23.329  1.00  0.00    -0.461 OA
BRANCH   6   7
ATOM      7  C   UNL A   1      31.633  27.172  22.509  1.00  0.00     0.344 C 
ATOM      8  O   UNL A   1      31.140  27.022  21.394  1.00  0.00    -0.248 OA
BRANCH   7   9
ATOM      9  C   UNL A   1      32.632  26.141  23.126  1.00  0.00     0.353 C 
BRANCH   9  10
ATOM     10  O   UNL A   1      32.861  25.819  24.473  1.00  0.00    -0.465 OA
BRANCH  10  11
ATOM     11  C   UNL A   1      32.320  25.011  25.408  1.00  0.00     0.222 A 
ATOM     12  C   UNL A   1      31.030  24.897  25.918  1.00  0.00     0.035 A 
ATOM     13  C   UNL A   1      30.804  23.677  26.604  1.00  0.00     0.050 A 
ATOM     14  C   UNL A   1      29.445  23.193  27.046  1.00  0.00     0.067 C 
ATOM     15  N   UNL A   1      31.761  22.780  26.904  1.00  0.00    -0.218 NA
ATOM     16  N   UNL A   1      33.278  24.078  25.711  1.00  0.00    -0.177 NA
ATOM     17  C   UNL A   1      32.988  23.004  26.459  1.00  0.00     0.230 A 
BRANCH  12  18
ATOM     18  C   UNL A   1      29.813  25.781  25.817  1.00  0.00     0.040 C 
ATOM     19  C   UNL A   1      29.075  26.073  24.537  1.00  0.00     0.009 C 
ENDBRANCH  12  18
BRANCH  17  20
ATOM     20  N   UNL A   1      33.986  22.048  26.704  1.00  0.00    -0.324 N 
ATOM     21  H   UNL A   1      33.767  21.337  27.348  1.00  0.00     0.170 HD
BRANCH  20  22
ATOM     22  C   UNL A   1      35.270  22.001  26.124  1.00  0.00     0.045 A 
ATOM     23  C   UNL A   1      36.192  23.023  26.384  1.00  0.00     0.047 A 
ATOM     24  C   UNL A   1      35.670  20.953  25.272  1.00  0.00    -0.027 A 
ATOM     25  C   UNL A   1      37.488  22.973  25.856  1.00  0.00     0.043 A 
ATOM     26  C   UNL A   1      36.996  20.876  24.804  1.00  0.00     0.007 A 
ATOM     27  C   UNL A   1      34.692  19.953  24.743  1.00  0.00     0.046 C 
ATOM     28  Cl  UNL A   1      38.575  24.282  26.120  1.00  0.00    -0.084 Cl
ATOM     29  C   UNL A   1      37.907  21.884  25.101  1.00  0.00     0.021 A 
ENDBRANCH  20  22
ENDBRANCH  17  20
ENDBRANCH  10  11
ENDBRANCH   9  10
ENDBRANCH   7   9
ENDBRANCH   6   7
ENDBRANCH   5   6
ENDBRANCH   4   5
ENDBRANCH   3   4
ENDBRANCH   2   3
ENDBRANCH   1   2
BRANCH   1  30
ATOM     30  O   UNL A   1      35.117  32.204  27.769  1.00  0.00    -0.377 OA
BRANCH  30  31
ATOM     31  C   UNL A   1      35.938  31.111  28.089  1.00  0.00     0.188 C 
BRANCH  31  32
ATOM     32  C   UNL A   1      36.945  31.328  29.226  1.00  0.00     0.188 C 
BRANCH  32  33
ATOM     33  O   UNL A   1      36.537  32.311  30.162  1.00  0.00    -0.376 OA
BRANCH  33  34
ATOM     34  C   UNL A   1      36.070  31.897  31.437  1.00  0.00     0.202 C 
BRANCH  34  35
ATOM     35  C   UNL A   1      36.832  32.227  32.730  1.00  0.00     0.261 C 
BRANCH  35  36
ATOM     36  O   UNL A   1      37.847  31.301  33.121  1.00  0.00    -0.460 OA
BRANCH  36  37
ATOM     37  C   UNL A   1      37.737  30.023  32.724  1.00  0.00     0.338 C 
ATOM     38  O   UNL A   1      36.708  29.395  32.530  1.00  0.00    -0.246 OA
BRANCH  37  39
ATOM     39  C   UNL A   1      39.103  29.560  32.420  1.00  0.00     0.060 A 
ATOM     40  C   UNL A   1      39.443  28.247  32.759  1.00  0.00     0.016 A 
ATOM     41  C   UNL A   1      40.023  30.388  31.767  1.00  0.00     0.016 A 
ATOM     42  C   UNL A   1      40.707  27.760  32.449  1.00  0.00     0.010 A 
ATOM     43  C   UNL A   1      41.304  29.912  31.487  1.00  0.00     0.010 A 
ATOM     44  C   UNL A   1      41.654  28.605  31.855  1.00  0.00    -0.014 A 
BRANCH  44  45
ATOM     45  C   UNL A   1      43.067  28.175  31.848  1.00  0.00     0.031 A 
ATOM     46  C   UNL A   1      43.849  28.349  33.118  1.00  0.00     0.074 A 
ATOM     47  C   UNL A   1      43.599  27.577  30.768  1.00  0.00     0.049 A 
ATOM     48  N   UNL A   1      45.075  27.996  33.393  1.00  0.00    -0.248 NA
ATOM     49  C   UNL A   1      43.146  29.011  34.231  1.00  0.00     0.031 C 
ATOM     50  C   UNL A   1      42.896  27.326  29.512  1.00  0.00     0.029 A 
ATOM     51  N   UNL A   1      44.852  27.062  30.563  1.00  0.00    -0.354 N 
ATOM     52  C   UNL A   1      45.288  28.385  34.712  1.00  0.00     0.074 A 
ATOM     53  C   UNL A   1      44.081  29.035  35.167  1.00  0.00     0.031 C 
ATOM     54  C   UNL A   1      43.729  26.695  28.665  1.00  0.00     0.029 A 
ATOM     55  C   UNL A   1      45.032  26.531  29.308  1.00  0.00     0.049 A 
ATOM     56  H   UNL A   1      45.557  27.073  31.250  1.00  0.00     0.167 HD
ATOM     57  C   UNL A   1      46.395  28.205  35.472  1.00  0.00     0.034 A 
ATOM     58  C   UNL A   1      46.133  25.992  28.748  1.00  0.00     0.034 A 
ATOM     59  C   UNL A   1      47.592  27.572  34.978  1.00  0.00     0.049 A 
ATOM     60  C   UNL A   1      47.387  25.891  29.588  1.00  0.00     0.074 A 
ATOM     61  C   UNL A   1      48.774  27.324  35.650  1.00  0.00     0.029 A 
ATOM     62  N   UNL A   1      47.766  27.109  33.679  1.00  0.00    -0.354 N 
ATOM     63  N   UNL A   1      47.572  26.236  30.844  1.00  0.00    -0.248 NA
ATOM     64  C   UNL A   1      48.574  25.320  28.941  1.00  0.00     0.031 C 
ATOM     65  C   UNL A   1      49.691  26.795  34.736  1.00  0.00     0.029 A 
ATOM     66  C   UNL A   1      49.051  26.618  33.518  1.00  0.00     0.049 A 
ATOM     67  H   UNL A   1      47.077  27.128  32.976  1.00  0.00     0.167 HD
ATOM     68  C   UNL A   1      48.887  25.886  31.145  1.00  0.00     0.074 A 
ATOM     69  C   UNL A   1      49.438  25.291  29.944  1.00  0.00     0.031 C 
ATOM     70  C   UNL A   1      49.577  26.036  32.305  1.00  0.00     0.034 A 
BRANCH  57  71
ATOM     71  C   UNL A   1      46.376  28.760  36.874  1.00  0.00     0.023 A 
ATOM     72  C   UNL A   1      46.066  27.963  37.990  1.00  0.00     0.031 A 
ATOM     73  C   UNL A   1      46.638  30.124  37.093  1.00  0.00     0.131 A 
ATOM     74  C   UNL A   1      45.964  28.548  39.262  1.00  0.00     0.055 A 
ATOM     75  C   UNL A   1      46.614  30.684  38.372  1.00  0.00     0.041 A 
ATOM     76  F   UNL A   1      46.905  30.943  36.063  1.00  0.00    -0.206 F 
ATOM     77  C   UNL A   1      46.264  29.897  39.464  1.00  0.00     0.022 A 
BRANCH  74  78
ATOM     78  S   UNL A   1      45.296  27.555  40.625  1.00  0.00     0.124 S 
ATOM     79  O   UNL A   1      46.515  27.127  41.306  1.00  0.00    -0.237 OA
ATOM     80  O   UNL A   1      44.469  28.519  41.342  1.00  0.00    -0.237 OA
ATOM     81  O   UNL A   1      44.563  26.488  39.946  1.00  0.00    -0.744 OA
ENDBRANCH  74  78
ENDBRANCH  57  71
BRANCH  58  82
ATOM     82  C   UNL A   1      46.125  25.536  27.327  1.00  0.00     0.023 A 
ATOM     83  C   UNL A   1      45.564  24.303  26.961  1.00  0.00     0.031 A 
ATOM     84  C   UNL A   1      46.747  26.298  26.320  1.00  0.00     0.131 A 
ATOM     85  C   UNL A   1      45.685  23.842  25.639  1.00  0.00     0.055 A 
ATOM     86  C   UNL A   1      46.808  25.865  24.994  1.00  0.00     0.041 A 
ATOM     87  F   UNL A   1      47.306  27.483  26.611  1.00  0.00    -0.206 F 
ATOM     88  C   UNL A   1      46.289  24.620  24.651  1.00  0.00     0.022 A 
BRANCH  85  89
ATOM     89  S   UNL A   1      45.138  22.155  25.255  1.00  0.00     0.124 S 
ATOM     90  O   UNL A   1      46.395  21.419  25.297  1.00  0.00    -0.237 OA
ATOM     91  O   UNL A   1      44.199  21.888  26.340  1.00  0.00    -0.237 OA
ATOM     92  O   UNL A   1      44.533  22.287  23.931  1.00  0.00    -0.744 OA
ENDBRANCH  85  89
ENDBRANCH  58  82
BRANCH  70  93
ATOM     93  C   UNL A   1      50.988  25.498  32.339  1.00  0.00     0.023 A 
ATOM     94  C   UNL A   1      51.256  24.132  32.535  1.00  0.00     0.031 A 
ATOM     95  C   UNL A   1      52.079  26.369  32.174  1.00  0.00     0.131 A 
ATOM     96  C   UNL A   1      52.583  23.688  32.624  1.00  0.00     0.055 A 
ATOM     97  C   UNL A   1      53.396  25.910  32.189  1.00  0.00     0.041 A 
ATOM     98  F   UNL A   1      51.882  27.684  31.987  1.00  0.00    -0.206 F 
ATOM     99  C   UNL A   1      53.654  24.564  32.430  1.00  0.00     0.022 A 
BRANCH  96 100
ATOM    100  S   UNL A   1      52.893  21.968  33.106  1.00  0.00     0.124 S 
ATOM    101  O   UNL A   1      54.347  21.887  33.021  1.00  0.00    -0.237 OA
ATOM    102  O   UNL A   1      52.329  21.913  34.450  1.00  0.00    -0.237 OA
ATOM    103  O   UNL A   1      52.168  21.194  32.099  1.00  0.00    -0.744 OA
ENDBRANCH  96 100
ENDBRANCH  70  93
ENDBRANCH  44  45
ENDBRANCH  37  39
ENDBRANCH  36  37
ENDBRANCH  35  36
ENDBRANCH  34  35
ENDBRANCH  33  34
ENDBRANCH  32  33
ENDBRANCH  31  32
ENDBRANCH  30  31
ENDBRANCH   1  30
TORSDOF 28
ENDMDL
