MODEL 1
REMARK VINA RESULT:      -7.6      0.000      0.000
REMARK SMILES O=C(COc1cc(-c2ccccc2)nc(Nc2ccccc2Br)n1)OCCOCCOCCOCCOC(=O)c1ccc(-c2c3nc(c(-c4cc(S(=O)(=O)[O-])ccc4F)c4ccc([nH]4)c(-c4cc(S(=O)(=O)[O-])ccc4F)c4nc(c(-c5cc(S(=O)(=O)[O-])ccc5F)c5ccc2[nH]5)C=C4)C=C3)cc1
REMARK SMILES IDX 30 1 29 2 28 3 27 4 26 5 25 6 2 7 1 8 3 9 4 10 5 11 6 12
REMARK SMILES IDX 24 13 7 14 15 15 14 16 8 17 9 18 13 19 10 20 12 21 11 22
REMARK SMILES IDX 16 23 17 25 18 26 22 27 19 28 21 29 23 30 20 31 31 32 32 33
REMARK SMILES IDX 33 34 34 35 35 36 36 37 37 38 38 39 39 40 40 41 41 42 102 43
REMARK SMILES IDX 42 44 101 45 43 46 44 47 45 48 95 49 46 50 100 51 94 52
REMARK SMILES IDX 96 53 47 54 99 55 93 56 92 57 48 59 80 60 60 61 79 62 61 63
REMARK SMILES IDX 64 64 78 65 97 66 62 67 63 68 77 70 98 71 65 72 49 73 50 74
REMARK SMILES IDX 58 75 51 76 57 77 59 78 56 79 52 80 53 81 54 82 55 83 81 84
REMARK SMILES IDX 82 85 90 86 83 87 89 88 91 89 88 90 84 91 85 92 86 93 87 94
REMARK SMILES IDX 66 95 67 96 75 97 68 98 74 99 76 100 73 101 69 102 70 103
REMARK SMILES IDX 71 104 72 105
REMARK H PARENT 16 24 96 58 64 69
REMARK Flexibility Score: inf
ROOT
ATOM      1  C   UNL A   1      46.083  38.672  29.416  1.00  0.00     0.188 C 
ENDROOT
BRANCH   1   2
ATOM      2  C   UNL A   1      44.730  38.941  30.093  1.00  0.00     0.188 C 
BRANCH   2   3
ATOM      3  O   UNL A   1      43.993  40.105  29.767  1.00  0.00    -0.376 OA
BRANCH   3   4
ATOM      4  C   UNL A   1      43.301  40.413  28.577  1.00  0.00     0.202 C 
BRANCH   4   5
ATOM      5  C   UNL A   1      42.752  39.350  27.631  1.00  0.00     0.261 C 
BRANCH   5   6
ATOM      6  O   UNL A   1      41.517  39.634  26.951  1.00  0.00    -0.461 OA
BRANCH   6   7
ATOM      7  C   UNL A   1      41.208  40.752  26.259  1.00  0.00     0.344 C 
ATOM      8  O   UNL A   1      40.079  41.229  26.347  1.00  0.00    -0.248 OA
BRANCH   7   9
ATOM      9  C   UNL A   1      42.269  41.380  25.365  1.00  0.00     0.353 C 
BRANCH   9  10
ATOM     10  O   UNL A   1      41.845  41.596  24.030  1.00  0.00    -0.466 OA
BRANCH  10  11
ATOM     11  C   UNL A   1      42.878  42.104  23.312  1.00  0.00     0.219 A 
ATOM     12  C   UNL A   1      43.971  42.646  23.911  1.00  0.00     0.097 A 
ATOM     13  N   UNL A   1      42.667  42.112  22.013  1.00  0.00    -0.177 NA
ATOM     14  C   UNL A   1      44.800  43.373  23.095  1.00  0.00     0.080 A 
ATOM     15  C   UNL A   1      43.557  42.749  21.254  1.00  0.00     0.231 A 
ATOM     16  N   UNL A   1      44.617  43.423  21.751  1.00  0.00    -0.212 NA
BRANCH  14  17
ATOM     17  C   UNL A   1      45.803  44.232  23.757  1.00  0.00     0.000 A 
ATOM     18  C   UNL A   1      45.759  44.474  25.137  1.00  0.00     0.010 A 
ATOM     19  C   UNL A   1      46.957  44.655  23.056  1.00  0.00     0.010 A 
ATOM     20  C   UNL A   1      46.836  45.087  25.793  1.00  0.00     0.001 A 
ATOM     21  C   UNL A   1      48.034  45.255  23.710  1.00  0.00     0.001 A 
ATOM     22  C   UNL A   1      47.974  45.469  25.081  1.00  0.00     0.000 A 
ENDBRANCH  14  17
BRANCH  15  23
ATOM     23  N   UNL A   1      43.362  42.645  19.872  1.00  0.00    -0.323 N 
ATOM     24  H   UNL A   1      43.626  41.809  19.427  1.00  0.00     0.170 HD
BRANCH  23  25
ATOM     25  C   UNL A   1      42.806  43.678  19.082  1.00  0.00     0.055 A 
ATOM     26  C   UNL A   1      41.414  43.701  18.885  1.00  0.00     0.027 A 
ATOM     27  C   UNL A   1      43.546  44.800  18.644  1.00  0.00     0.041 A 
ATOM     28  C   UNL A   1      40.786  44.795  18.271  1.00  0.00     0.002 A 
ATOM     29  C   UNL A   1      42.917  45.891  18.030  1.00  0.00     0.018 A 
ATOM     30  Br  UNL A   1      45.444  44.891  18.805  1.00  0.00    -0.049 Br
ATOM     31  C   UNL A   1      41.536  45.888  17.846  1.00  0.00     0.001 A 
ENDBRANCH  23  25
ENDBRANCH  15  23
ENDBRANCH  10  11
ENDBRANCH   9  10
ENDBRANCH   7   9
ENDBRANCH   6   7
ENDBRANCH   5   6
ENDBRANCH   4   5
ENDBRANCH   3   4
ENDBRANCH   2   3
ENDBRANCH   1   2
BRANCH   1  32
ATOM     32  O   UNL A   1      46.822  39.771  28.904  1.00  0.00    -0.377 OA
BRANCH  32  33
ATOM     33  C   UNL A   1      47.651  39.496  27.786  1.00  0.00     0.188 C 
BRANCH  33  34
ATOM     34  C   UNL A   1      48.315  38.108  27.859  1.00  0.00     0.188 C 
BRANCH  34  35
ATOM     35  O   UNL A   1      49.201  37.816  26.798  1.00  0.00    -0.376 OA
BRANCH  35  36
ATOM     36  C   UNL A   1      48.773  37.160  25.618  1.00  0.00     0.202 C 
BRANCH  36  37
ATOM     37  C   UNL A   1      48.063  35.792  25.534  1.00  0.00     0.261 C 
BRANCH  37  38
ATOM     38  O   UNL A   1      46.848  35.595  26.253  1.00  0.00    -0.460 OA
BRANCH  38  39
ATOM     39  C   UNL A   1      45.967  34.720  25.738  1.00  0.00     0.338 C 
ATOM     40  O   UNL A   1      45.630  34.629  24.566  1.00  0.00    -0.246 OA
BRANCH  39  41
ATOM     41  C   UNL A   1      45.674  33.724  26.790  1.00  0.00     0.060 A 
ATOM     42  C   UNL A   1      46.068  34.019  28.101  1.00  0.00     0.016 A 
ATOM     43  C   UNL A   1      44.980  32.541  26.508  1.00  0.00     0.016 A 
ATOM     44  C   UNL A   1      45.815  33.116  29.125  1.00  0.00     0.010 A 
ATOM     45  C   UNL A   1      44.761  31.613  27.532  1.00  0.00     0.010 A 
ATOM     46  C   UNL A   1      45.218  31.883  28.833  1.00  0.00    -0.014 A 
BRANCH  46  47
ATOM     47  C   UNL A   1      45.325  30.813  29.852  1.00  0.00     0.031 A 
ATOM     48  C   UNL A   1      44.127  30.557  30.727  1.00  0.00     0.074 A 
ATOM     49  C   UNL A   1      46.402  30.012  29.906  1.00  0.00     0.049 A 
ATOM     50  N   UNL A   1      43.943  29.639  31.638  1.00  0.00    -0.248 NA
ATOM     51  C   UNL A   1      42.976  31.458  30.538  1.00  0.00     0.031 C 
ATOM     52  C   UNL A   1      47.589  30.136  29.063  1.00  0.00     0.029 A 
ATOM     53  N   UNL A   1      46.662  28.922  30.697  1.00  0.00    -0.354 N 
ATOM     54  C   UNL A   1      42.653  29.840  32.120  1.00  0.00     0.074 A 
ATOM     55  C   UNL A   1      42.123  31.001  31.439  1.00  0.00     0.031 C 
ATOM     56  C   UNL A   1      48.456  29.160  29.386  1.00  0.00     0.029 A 
ATOM     57  C   UNL A   1      47.900  28.364  30.478  1.00  0.00     0.049 A 
ATOM     58  H   UNL A   1      46.024  28.573  31.360  1.00  0.00     0.167 HD
ATOM     59  C   UNL A   1      41.969  29.110  33.031  1.00  0.00     0.034 A 
ATOM     60  C   UNL A   1      48.514  27.340  31.104  1.00  0.00     0.034 A 
ATOM     61  C   UNL A   1      42.524  27.969  33.717  1.00  0.00     0.049 A 
ATOM     62  C   UNL A   1      47.766  26.604  32.192  1.00  0.00     0.074 A 
ATOM     63  C   UNL A   1      41.934  27.170  34.679  1.00  0.00     0.029 A 
ATOM     64  N   UNL A   1      43.806  27.471  33.520  1.00  0.00    -0.354 N 
ATOM     65  N   UNL A   1      46.547  26.805  32.642  1.00  0.00    -0.248 NA
ATOM     66  C   UNL A   1      48.469  25.491  32.839  1.00  0.00     0.031 C 
ATOM     67  C   UNL A   1      42.881  26.239  35.116  1.00  0.00     0.029 A 
ATOM     68  C   UNL A   1      44.034  26.394  34.363  1.00  0.00     0.049 A 
ATOM     69  H   UNL A   1      44.457  27.830  32.874  1.00  0.00     0.167 HD
ATOM     70  C   UNL A   1      46.333  25.824  33.610  1.00  0.00     0.074 A 
ATOM     71  C   UNL A   1      47.533  25.015  33.645  1.00  0.00     0.031 C 
ATOM     72  C   UNL A   1      45.247  25.611  34.400  1.00  0.00     0.034 A 
BRANCH  59  73
ATOM     73  C   UNL A   1      40.567  29.559  33.368  1.00  0.00     0.023 A 
ATOM     74  C   UNL A   1      40.320  30.565  34.320  1.00  0.00     0.031 A 
ATOM     75  C   UNL A   1      39.459  28.954  32.749  1.00  0.00     0.131 A 
ATOM     76  C   UNL A   1      39.001  30.893  34.667  1.00  0.00     0.055 A 
ATOM     77  C   UNL A   1      38.150  29.342  33.040  1.00  0.00     0.041 A 
ATOM     78  F   UNL A   1      39.630  27.966  31.856  1.00  0.00    -0.206 F 
ATOM     79  C   UNL A   1      37.915  30.308  34.013  1.00  0.00     0.022 A 
BRANCH  76  80
ATOM     80  S   UNL A   1      38.723  31.995  36.080  1.00  0.00     0.124 S 
ATOM     81  O   UNL A   1      38.945  33.307  35.479  1.00  0.00    -0.237 OA
ATOM     82  O   UNL A   1      37.348  31.688  36.456  1.00  0.00    -0.237 OA
ATOM     83  O   UNL A   1      39.741  31.580  37.045  1.00  0.00    -0.744 OA
ENDBRANCH  76  80
ENDBRANCH  59  73
BRANCH  60  84
ATOM     84  C   UNL A   1      49.923  26.980  30.769  1.00  0.00     0.023 A 
ATOM     85  C   UNL A   1      51.012  27.531  31.464  1.00  0.00     0.031 A 
ATOM     86  C   UNL A   1      50.203  26.130  29.682  1.00  0.00     0.131 A 
ATOM     87  C   UNL A   1      52.323  27.274  31.030  1.00  0.00     0.055 A 
ATOM     88  C   UNL A   1      51.508  25.825  29.295  1.00  0.00     0.041 A 
ATOM     89  F   UNL A   1      49.202  25.579  28.975  1.00  0.00    -0.206 F 
ATOM     90  C   UNL A   1      52.578  26.413  29.961  1.00  0.00     0.022 A 
BRANCH  87  91
ATOM     91  S   UNL A   1      53.690  28.175  31.811  1.00  0.00     0.124 S 
ATOM     92  O   UNL A   1      54.054  29.125  30.767  1.00  0.00    -0.237 OA
ATOM     93  O   UNL A   1      53.044  28.736  32.993  1.00  0.00    -0.237 OA
ATOM     94  O   UNL A   1      54.676  27.130  32.080  1.00  0.00    -0.744 OA
ENDBRANCH  87  91
ENDBRANCH  60  84
BRANCH  72  95
ATOM     95  C   UNL A   1      45.312  24.430  35.343  1.00  0.00     0.023 A 
ATOM     96  C   UNL A   1      45.426  24.603  36.734  1.00  0.00     0.031 A 
ATOM     97  C   UNL A   1      45.308  23.116  34.842  1.00  0.00     0.131 A 
ATOM     98  C   UNL A   1      45.627  23.491  37.563  1.00  0.00     0.055 A 
ATOM     99  C   UNL A   1      45.422  22.007  35.683  1.00  0.00     0.041 A 
ATOM    100  F   UNL A   1      45.203  22.886  33.524  1.00  0.00    -0.206 F 
ATOM    101  C   UNL A   1      45.605  22.192  37.050  1.00  0.00     0.022 A 
BRANCH  98 102
ATOM    102  S   UNL A   1      46.074  23.775  39.298  1.00  0.00     0.124 S 
ATOM    103  O   UNL A   1      45.373  25.021  39.589  1.00  0.00    -0.237 OA
ATOM    104  O   UNL A   1      45.549  22.581  39.954  1.00  0.00    -0.237 OA
ATOM    105  O   UNL A   1      47.532  23.875  39.266  1.00  0.00    -0.744 OA
ENDBRANCH  98 102
ENDBRANCH  72  95
ENDBRANCH  46  47
ENDBRANCH  39  41
ENDBRANCH  38  39
ENDBRANCH  37  38
ENDBRANCH  36  37
ENDBRANCH  35  36
ENDBRANCH  34  35
ENDBRANCH  33  34
ENDBRANCH  32  33
ENDBRANCH   1  32
TORSDOF 28
ENDMDL
MODEL 2
REMARK VINA RESULT:      -7.6      8.234     17.822
REMARK SMILES O=C(COc1cc(-c2ccccc2)nc(Nc2ccccc2Br)n1)OCCOCCOCCOCCOC(=O)c1ccc(-c2c3nc(c(-c4cc(S(=O)(=O)[O-])ccc4F)c4ccc([nH]4)c(-c4cc(S(=O)(=O)[O-])ccc4F)c4nc(c(-c5cc(S(=O)(=O)[O-])ccc5F)c5ccc2[nH]5)C=C4)C=C3)cc1
REMARK SMILES IDX 30 1 29 2 28 3 27 4 26 5 25 6 2 7 1 8 3 9 4 10 5 11 6 12
REMARK SMILES IDX 24 13 7 14 15 15 14 16 8 17 9 18 13 19 10 20 12 21 11 22
REMARK SMILES IDX 16 23 17 25 18 26 22 27 19 28 21 29 23 30 20 31 31 32 32 33
REMARK SMILES IDX 33 34 34 35 35 36 36 37 37 38 38 39 39 40 40 41 41 42 102 43
REMARK SMILES IDX 42 44 101 45 43 46 44 47 45 48 95 49 46 50 100 51 94 52
REMARK SMILES IDX 96 53 47 54 99 55 93 56 92 57 48 59 80 60 60 61 79 62 61 63
REMARK SMILES IDX 64 64 78 65 97 66 62 67 63 68 77 70 98 71 65 72 49 73 50 74
REMARK SMILES IDX 58 75 51 76 57 77 59 78 56 79 52 80 53 81 54 82 55 83 81 84
REMARK SMILES IDX 82 85 90 86 83 87 89 88 91 89 88 90 84 91 85 92 86 93 87 94
REMARK SMILES IDX 66 95 67 96 75 97 68 98 74 99 76 100 73 101 69 102 70 103
REMARK SMILES IDX 71 104 72 105
REMARK H PARENT 16 24 96 58 64 69
REMARK Flexibility Score: inf
ROOT
ATOM      1  C   UNL A   1      38.844  34.347  33.235  1.00  0.00     0.188 C 
ENDROOT
BRANCH   1   2
ATOM      2  C   UNL A   1      37.431  33.872  32.868  1.00  0.00     0.188 C 
BRANCH   2   3
ATOM      3  O   UNL A   1      37.105  32.495  32.933  1.00  0.00    -0.376 OA
BRANCH   3   4
ATOM      4  C   UNL A   1      37.330  31.485  31.975  1.00  0.00     0.202 C 
BRANCH   4   5
ATOM      5  C   UNL A   1      37.682  30.047  32.344  1.00  0.00     0.261 C 
BRANCH   5   6
ATOM      6  O   UNL A   1      37.445  29.027  31.359  1.00  0.00    -0.461 OA
BRANCH   6   7
ATOM      7  C   UNL A   1      37.732  29.088  30.040  1.00  0.00     0.344 C 
ATOM      8  O   UNL A   1      38.900  28.999  29.668  1.00  0.00    -0.248 OA
BRANCH   7   9
ATOM      9  C   UNL A   1      36.595  29.289  29.048  1.00  0.00     0.353 C 
BRANCH   9  10
ATOM     10  O   UNL A   1      36.821  30.331  28.114  1.00  0.00    -0.466 OA
BRANCH  10  11
ATOM     11  C   UNL A   1      35.665  31.014  27.920  1.00  0.00     0.219 A 
ATOM     12  C   UNL A   1      35.516  32.302  28.326  1.00  0.00     0.097 A 
ATOM     13  N   UNL A   1      34.697  30.283  27.410  1.00  0.00    -0.177 NA
ATOM     14  C   UNL A   1      34.231  32.781  28.333  1.00  0.00     0.080 A 
ATOM     15  C   UNL A   1      33.484  30.831  27.350  1.00  0.00     0.231 A 
ATOM     16  N   UNL A   1      33.196  32.061  27.830  1.00  0.00    -0.212 NA
BRANCH  14  17
ATOM     17  C   UNL A   1      33.992  34.044  29.061  1.00  0.00     0.000 A 
ATOM     18  C   UNL A   1      33.194  35.061  28.517  1.00  0.00     0.010 A 
ATOM     19  C   UNL A   1      34.379  34.173  30.416  1.00  0.00     0.010 A 
ATOM     20  C   UNL A   1      32.779  36.145  29.301  1.00  0.00     0.001 A 
ATOM     21  C   UNL A   1      33.956  35.247  31.201  1.00  0.00     0.001 A 
ATOM     22  C   UNL A   1      33.152  36.232  30.643  1.00  0.00     0.000 A 
ENDBRANCH  14  17
BRANCH  15  23
ATOM     23  N   UNL A   1      32.505  30.071  26.702  1.00  0.00    -0.323 N 
ATOM     24  H   UNL A   1      31.570  30.371  26.759  1.00  0.00     0.170 HD
BRANCH  23  25
ATOM     25  C   UNL A   1      32.787  28.893  25.971  1.00  0.00     0.055 A 
ATOM     26  C   UNL A   1      33.747  28.000  26.475  1.00  0.00     0.027 A 
ATOM     27  C   UNL A   1      32.015  28.467  24.866  1.00  0.00     0.041 A 
ATOM     28  C   UNL A   1      33.937  26.736  25.899  1.00  0.00     0.002 A 
ATOM     29  C   UNL A   1      32.206  27.203  24.291  1.00  0.00     0.018 A 
ATOM     30  Br  UNL A   1      30.705  29.585  24.048  1.00  0.00    -0.049 Br
ATOM     31  C   UNL A   1      33.167  26.338  24.809  1.00  0.00     0.001 A 
ENDBRANCH  23  25
ENDBRANCH  15  23
ENDBRANCH  10  11
ENDBRANCH   9  10
ENDBRANCH   7   9
ENDBRANCH   6   7
ENDBRANCH   5   6
ENDBRANCH   4   5
ENDBRANCH   3   4
ENDBRANCH   2   3
ENDBRANCH   1   2
BRANCH   1  32
ATOM     32  O   UNL A   1      39.908  33.407  33.220  1.00  0.00    -0.377 OA
BRANCH  32  33
ATOM     33  C   UNL A   1      40.880  33.585  32.203  1.00  0.00     0.188 C 
BRANCH  33  34
ATOM     34  C   UNL A   1      41.998  32.526  32.249  1.00  0.00     0.188 C 
BRANCH  34  35
ATOM     35  O   UNL A   1      42.991  32.664  31.254  1.00  0.00    -0.376 OA
BRANCH  35  36
ATOM     36  C   UNL A   1      43.305  33.917  30.672  1.00  0.00     0.202 C 
BRANCH  36  37
ATOM     37  C   UNL A   1      42.860  34.422  29.283  1.00  0.00     0.261 C 
BRANCH  37  38
ATOM     38  O   UNL A   1      43.837  34.585  28.258  1.00  0.00    -0.460 OA
BRANCH  38  39
ATOM     39  C   UNL A   1      43.583  35.504  27.310  1.00  0.00     0.338 C 
ATOM     40  O   UNL A   1      42.649  35.500  26.523  1.00  0.00    -0.246 OA
BRANCH  39  41
ATOM     41  C   UNL A   1      44.485  36.650  27.561  1.00  0.00     0.060 A 
ATOM     42  C   UNL A   1      43.908  37.865  27.947  1.00  0.00     0.016 A 
ATOM     43  C   UNL A   1      45.876  36.523  27.466  1.00  0.00     0.016 A 
ATOM     44  C   UNL A   1      44.712  38.971  28.195  1.00  0.00     0.010 A 
ATOM     45  C   UNL A   1      46.682  37.646  27.675  1.00  0.00     0.010 A 
ATOM     46  C   UNL A   1      46.095  38.882  27.998  1.00  0.00    -0.014 A 
BRANCH  46  47
ATOM     47  C   UNL A   1      46.853  40.150  27.887  1.00  0.00     0.031 A 
ATOM     48  C   UNL A   1      46.826  40.868  26.564  1.00  0.00     0.074 A 
ATOM     49  C   UNL A   1      47.435  40.708  28.962  1.00  0.00     0.049 A 
ATOM     50  N   UNL A   1      47.345  42.020  26.232  1.00  0.00    -0.248 NA
ATOM     51  C   UNL A   1      46.105  40.194  25.470  1.00  0.00     0.031 C 
ATOM     52  C   UNL A   1      47.466  40.124  30.302  1.00  0.00     0.029 A 
ATOM     53  N   UNL A   1      48.097  41.901  29.098  1.00  0.00    -0.354 N 
ATOM     54  C   UNL A   1      47.000  42.217  24.899  1.00  0.00     0.074 A 
ATOM     55  C   UNL A   1      46.278  41.041  24.469  1.00  0.00     0.031 C 
ATOM     56  C   UNL A   1      48.119  40.961  31.126  1.00  0.00     0.029 A 
ATOM     57  C   UNL A   1      48.580  42.122  30.366  1.00  0.00     0.049 A 
ATOM     58  H   UNL A   1      48.216  42.538  28.357  1.00  0.00     0.167 HD
ATOM     59  C   UNL A   1      47.248  43.291  24.112  1.00  0.00     0.034 A 
ATOM     60  C   UNL A   1      49.325  43.138  30.847  1.00  0.00     0.034 A 
ATOM     61  C   UNL A   1      47.993  44.445  24.552  1.00  0.00     0.049 A 
ATOM     62  C   UNL A   1      49.676  44.279  29.919  1.00  0.00     0.074 A 
ATOM     63  C   UNL A   1      48.328  45.579  23.835  1.00  0.00     0.029 A 
ATOM     64  N   UNL A   1      48.527  44.608  25.824  1.00  0.00    -0.354 N 
ATOM     65  N   UNL A   1      49.348  44.454  28.658  1.00  0.00    -0.248 NA
ATOM     66  C   UNL A   1      50.480  45.367  30.487  1.00  0.00     0.031 C 
ATOM     67  C   UNL A   1      49.127  46.391  24.648  1.00  0.00     0.029 A 
ATOM     68  C   UNL A   1      49.213  45.810  25.903  1.00  0.00     0.049 A 
ATOM     69  H   UNL A   1      48.430  43.963  26.563  1.00  0.00     0.167 HD
ATOM     70  C   UNL A   1      49.887  45.686  28.292  1.00  0.00     0.074 A 
ATOM     71  C   UNL A   1      50.525  46.222  29.477  1.00  0.00     0.031 C 
ATOM     72  C   UNL A   1      49.863  46.319  27.089  1.00  0.00     0.034 A 
BRANCH  59  73
ATOM     73  C   UNL A   1      46.751  43.237  22.687  1.00  0.00     0.023 A 
ATOM     74  C   UNL A   1      45.380  43.292  22.379  1.00  0.00     0.031 A 
ATOM     75  C   UNL A   1      47.659  43.101  21.623  1.00  0.00     0.131 A 
ATOM     76  C   UNL A   1      44.954  43.152  21.050  1.00  0.00     0.055 A 
ATOM     77  C   UNL A   1      47.234  43.045  20.294  1.00  0.00     0.041 A 
ATOM     78  F   UNL A   1      48.978  43.011  21.856  1.00  0.00    -0.206 F 
ATOM     79  C   UNL A   1      45.873  43.057  20.003  1.00  0.00     0.022 A 
BRANCH  76  80
ATOM     80  S   UNL A   1      43.181  42.958  20.721  1.00  0.00     0.124 S 
ATOM     81  O   UNL A   1      43.092  43.377  19.325  1.00  0.00    -0.237 OA
ATOM     82  O   UNL A   1      42.964  41.539  20.978  1.00  0.00    -0.237 OA
ATOM     83  O   UNL A   1      42.553  43.869  21.678  1.00  0.00    -0.744 OA
ENDBRANCH  76  80
ENDBRANCH  59  73
BRANCH  60  84
ATOM     84  C   UNL A   1      49.838  43.108  32.248  1.00  0.00     0.023 A 
ATOM     85  C   UNL A   1      49.126  43.693  33.308  1.00  0.00     0.031 A 
ATOM     86  C   UNL A   1      51.102  42.557  32.533  1.00  0.00     0.131 A 
ATOM     87  C   UNL A   1      49.705  43.764  34.586  1.00  0.00     0.055 A 
ATOM     88  C   UNL A   1      51.644  42.571  33.818  1.00  0.00     0.041 A 
ATOM     89  F   UNL A   1      51.831  41.990  31.558  1.00  0.00    -0.206 F 
ATOM     90  C   UNL A   1      50.952  43.194  34.850  1.00  0.00     0.022 A 
BRANCH  87  91
ATOM     91  S   UNL A   1      48.856  44.719  35.874  1.00  0.00     0.124 S 
ATOM     92  O   UNL A   1      47.457  44.421  35.590  1.00  0.00    -0.237 OA
ATOM     93  O   UNL A   1      49.403  44.131  37.093  1.00  0.00    -0.237 OA
ATOM     94  O   UNL A   1      49.271  46.094  35.607  1.00  0.00    -0.744 OA
ENDBRANCH  87  91
ENDBRANCH  60  84
BRANCH  72  95
ATOM     95  C   UNL A   1      50.523  47.679  27.020  1.00  0.00     0.023 A 
ATOM     96  C   UNL A   1      49.812  48.858  27.304  1.00  0.00     0.031 A 
ATOM     97  C   UNL A   1      51.865  47.800  26.617  1.00  0.00     0.131 A 
ATOM     98  C   UNL A   1      50.412  50.106  27.091  1.00  0.00     0.055 A 
ATOM     99  C   UNL A   1      52.485  49.045  26.491  1.00  0.00     0.041 A 
ATOM    100  F   UNL A   1      52.596  46.712  26.330  1.00  0.00    -0.206 F 
ATOM    101  C   UNL A   1      51.751  50.208  26.706  1.00  0.00     0.022 A 
BRANCH  98 102
ATOM    102  S   UNL A   1      49.375  51.591  27.174  1.00  0.00     0.124 S 
ATOM    103  O   UNL A   1      48.707  51.420  28.460  1.00  0.00    -0.237 OA
ATOM    104  O   UNL A   1      50.361  52.664  27.106  1.00  0.00    -0.237 OA
ATOM    105  O   UNL A   1      48.507  51.470  26.004  1.00  0.00    -0.744 OA
ENDBRANCH  98 102
ENDBRANCH  72  95
ENDBRANCH  46  47
ENDBRANCH  39  41
ENDBRANCH  38  39
ENDBRANCH  37  38
ENDBRANCH  36  37
ENDBRANCH  35  36
ENDBRANCH  34  35
ENDBRANCH  33  34
ENDBRANCH  32  33
ENDBRANCH   1  32
TORSDOF 28
ENDMDL
MODEL 3
REMARK VINA RESULT:      -7.6      8.179     12.704
REMARK SMILES O=C(COc1cc(-c2ccccc2)nc(Nc2ccccc2Br)n1)OCCOCCOCCOCCOC(=O)c1ccc(-c2c3nc(c(-c4cc(S(=O)(=O)[O-])ccc4F)c4ccc([nH]4)c(-c4cc(S(=O)(=O)[O-])ccc4F)c4nc(c(-c5cc(S(=O)(=O)[O-])ccc5F)c5ccc2[nH]5)C=C4)C=C3)cc1
REMARK SMILES IDX 30 1 29 2 28 3 27 4 26 5 25 6 2 7 1 8 3 9 4 10 5 11 6 12
REMARK SMILES IDX 24 13 7 14 15 15 14 16 8 17 9 18 13 19 10 20 12 21 11 22
REMARK SMILES IDX 16 23 17 25 18 26 22 27 19 28 21 29 23 30 20 31 31 32 32 33
REMARK SMILES IDX 33 34 34 35 35 36 36 37 37 38 38 39 39 40 40 41 41 42 102 43
REMARK SMILES IDX 42 44 101 45 43 46 44 47 45 48 95 49 46 50 100 51 94 52
REMARK SMILES IDX 96 53 47 54 99 55 93 56 92 57 48 59 80 60 60 61 79 62 61 63
REMARK SMILES IDX 64 64 78 65 97 66 62 67 63 68 77 70 98 71 65 72 49 73 50 74
REMARK SMILES IDX 58 75 51 76 57 77 59 78 56 79 52 80 53 81 54 82 55 83 81 84
REMARK SMILES IDX 82 85 90 86 83 87 89 88 91 89 88 90 84 91 85 92 86 93 87 94
REMARK SMILES IDX 66 95 67 96 75 97 68 98 74 99 76 100 73 101 69 102 70 103
REMARK SMILES IDX 71 104 72 105
REMARK H PARENT 16 24 96 58 64 69
REMARK Flexibility Score: inf
ROOT
ATOM      1  C   UNL A   1      50.469  27.749  33.813  1.00  0.00     0.188 C 
ENDROOT
BRANCH   1   2
ATOM      2  C   UNL A   1      51.488  27.652  32.667  1.00  0.00     0.188 C 
BRANCH   2   3
ATOM      3  O   UNL A   1      51.687  28.753  31.799  1.00  0.00    -0.376 OA
BRANCH   3   4
ATOM      4  C   UNL A   1      51.675  28.785  30.389  1.00  0.00     0.202 C 
BRANCH   4   5
ATOM      5  C   UNL A   1      52.704  28.057  29.529  1.00  0.00     0.261 C 
BRANCH   5   6
ATOM      6  O   UNL A   1      53.312  28.790  28.452  1.00  0.00    -0.461 OA
BRANCH   6   7
ATOM      7  C   UNL A   1      52.746  29.771  27.715  1.00  0.00     0.344 C 
ATOM      8  O   UNL A   1      53.202  30.911  27.770  1.00  0.00    -0.248 OA
BRANCH   7   9
ATOM      9  C   UNL A   1      51.539  29.438  26.849  1.00  0.00     0.353 C 
BRANCH   9  10
ATOM     10  O   UNL A   1      50.550  30.454  26.823  1.00  0.00    -0.466 OA
BRANCH  10  11
ATOM     11  C   UNL A   1      49.434  30.004  27.450  1.00  0.00     0.219 A 
ATOM     12  C   UNL A   1      49.157  28.678  27.561  1.00  0.00     0.097 A 
ATOM     13  N   UNL A   1      48.620  30.964  27.835  1.00  0.00    -0.177 NA
ATOM     14  C   UNL A   1      47.881  28.366  27.956  1.00  0.00     0.080 A 
ATOM     15  C   UNL A   1      47.427  30.602  28.304  1.00  0.00     0.231 A 
ATOM     16  N   UNL A   1      47.000  29.321  28.350  1.00  0.00    -0.212 NA
BRANCH  14  17
ATOM     17  C   UNL A   1      47.451  26.964  27.778  1.00  0.00     0.000 A 
ATOM     18  C   UNL A   1      46.132  26.567  28.042  1.00  0.00     0.010 A 
ATOM     19  C   UNL A   1      48.295  26.033  27.129  1.00  0.00     0.010 A 
ATOM     20  C   UNL A   1      45.671  25.303  27.648  1.00  0.00     0.001 A 
ATOM     21  C   UNL A   1      47.834  24.779  26.727  1.00  0.00     0.001 A 
ATOM     22  C   UNL A   1      46.518  24.416  26.984  1.00  0.00     0.000 A 
ENDBRANCH  14  17
BRANCH  15  23
ATOM     23  N   UNL A   1      46.631  31.637  28.805  1.00  0.00    -0.323 N 
ATOM     24  H   UNL A   1      46.925  32.564  28.657  1.00  0.00     0.170 HD
BRANCH  23  25
ATOM     25  C   UNL A   1      45.426  31.422  29.514  1.00  0.00     0.055 A 
ATOM     26  C   UNL A   1      45.467  31.384  30.919  1.00  0.00     0.027 A 
ATOM     27  C   UNL A   1      44.153  31.443  28.898  1.00  0.00     0.041 A 
ATOM     28  C   UNL A   1      44.289  31.360  31.679  1.00  0.00     0.002 A 
ATOM     29  C   UNL A   1      42.977  31.419  29.660  1.00  0.00     0.018 A 
ATOM     30  Br  UNL A   1      43.941  31.452  27.004  1.00  0.00    -0.049 Br
ATOM     31  C   UNL A   1      43.046  31.379  31.051  1.00  0.00     0.001 A 
ENDBRANCH  23  25
ENDBRANCH  15  23
ENDBRANCH  10  11
ENDBRANCH   9  10
ENDBRANCH   7   9
ENDBRANCH   6   7
ENDBRANCH   5   6
ENDBRANCH   4   5
ENDBRANCH   3   4
ENDBRANCH   2   3
ENDBRANCH   1   2
BRANCH   1  32
ATOM     32  O   UNL A   1      50.250  29.010  34.428  1.00  0.00    -0.377 OA
BRANCH  32  33
ATOM     33  C   UNL A   1      51.164  29.370  35.451  1.00  0.00     0.188 C 
BRANCH  33  34
ATOM     34  C   UNL A   1      52.240  28.297  35.700  1.00  0.00     0.188 C 
BRANCH  34  35
ATOM     35  O   UNL A   1      51.931  27.369  36.719  1.00  0.00    -0.376 OA
BRANCH  35  36
ATOM     36  C   UNL A   1      50.792  27.514  37.549  1.00  0.00     0.202 C 
BRANCH  36  37
ATOM     37  C   UNL A   1      49.477  26.713  37.451  1.00  0.00     0.261 C 
BRANCH  37  38
ATOM     38  O   UNL A   1      48.442  27.179  36.587  1.00  0.00    -0.460 OA
BRANCH  38  39
ATOM     39  C   UNL A   1      47.792  26.256  35.857  1.00  0.00     0.338 C 
ATOM     40  O   UNL A   1      48.025  25.056  35.824  1.00  0.00    -0.246 OA
BRANCH  39  41
ATOM     41  C   UNL A   1      46.586  26.907  35.304  1.00  0.00     0.060 A 
ATOM     42  C   UNL A   1      45.337  26.379  35.652  1.00  0.00     0.016 A 
ATOM     43  C   UNL A   1      46.673  28.047  34.496  1.00  0.00     0.016 A 
ATOM     44  C   UNL A   1      44.174  26.955  35.158  1.00  0.00     0.010 A 
ATOM     45  C   UNL A   1      45.503  28.603  33.966  1.00  0.00     0.010 A 
ATOM     46  C   UNL A   1      44.255  28.029  34.264  1.00  0.00    -0.014 A 
BRANCH  46  47
ATOM     47  C   UNL A   1      43.048  28.351  33.469  1.00  0.00     0.031 A 
ATOM     48  C   UNL A   1      42.042  29.293  34.075  1.00  0.00     0.074 A 
ATOM     49  C   UNL A   1      42.917  27.924  32.202  1.00  0.00     0.049 A 
ATOM     50  N   UNL A   1      40.947  29.784  33.559  1.00  0.00    -0.248 NA
ATOM     51  C   UNL A   1      42.318  29.748  35.448  1.00  0.00     0.031 C 
ATOM     52  C   UNL A   1      43.863  27.058  31.501  1.00  0.00     0.029 A 
ATOM     53  N   UNL A   1      41.939  28.176  31.274  1.00  0.00    -0.354 N 
ATOM     54  C   UNL A   1      40.412  30.617  34.537  1.00  0.00     0.074 A 
ATOM     55  C   UNL A   1      41.273  30.521  35.694  1.00  0.00     0.031 C 
ATOM     56  C   UNL A   1      43.417  26.848  30.251  1.00  0.00     0.029 A 
ATOM     57  C   UNL A   1      42.139  27.536  30.074  1.00  0.00     0.049 A 
ATOM     58  H   UNL A   1      41.167  28.761  31.450  1.00  0.00     0.167 HD
ATOM     59  C   UNL A   1      39.313  31.406  34.466  1.00  0.00     0.034 A 
ATOM     60  C   UNL A   1      41.365  27.498  28.970  1.00  0.00     0.034 A 
ATOM     61  C   UNL A   1      38.452  31.470  33.311  1.00  0.00     0.049 A 
ATOM     62  C   UNL A   1      40.089  28.308  28.953  1.00  0.00     0.074 A 
ATOM     63  C   UNL A   1      37.299  32.212  33.135  1.00  0.00     0.029 A 
ATOM     64  N   UNL A   1      38.647  30.755  32.135  1.00  0.00    -0.354 N 
ATOM     65  N   UNL A   1      39.591  29.090  29.885  1.00  0.00    -0.248 NA
ATOM     66  C   UNL A   1      39.284  28.244  27.729  1.00  0.00     0.031 C 
ATOM     67  C   UNL A   1      36.756  31.890  31.887  1.00  0.00     0.029 A 
ATOM     68  C   UNL A   1      37.619  31.017  31.242  1.00  0.00     0.049 A 
ATOM     69  H   UNL A   1      39.406  30.152  31.961  1.00  0.00     0.167 HD
ATOM     70  C   UNL A   1      38.425  29.630  29.344  1.00  0.00     0.074 A 
ATOM     71  C   UNL A   1      38.321  29.112  27.995  1.00  0.00     0.031 C 
ATOM     72  C   UNL A   1      37.519  30.473  29.907  1.00  0.00     0.034 A 
BRANCH  59  73
ATOM     73  C   UNL A   1      38.962  32.218  35.689  1.00  0.00     0.023 A 
ATOM     74  C   UNL A   1      39.424  33.535  35.861  1.00  0.00     0.031 A 
ATOM     75  C   UNL A   1      38.176  31.658  36.711  1.00  0.00     0.131 A 
ATOM     76  C   UNL A   1      39.147  34.225  37.051  1.00  0.00     0.055 A 
ATOM     77  C   UNL A   1      37.835  32.379  37.857  1.00  0.00     0.041 A 
ATOM     78  F   UNL A   1      37.732  30.394  36.619  1.00  0.00    -0.206 F 
ATOM     79  C   UNL A   1      38.333  33.667  38.038  1.00  0.00     0.022 A 
BRANCH  76  80
ATOM     80  S   UNL A   1      39.979  35.809  37.350  1.00  0.00     0.124 S 
ATOM     81  O   UNL A   1      39.537  36.596  36.202  1.00  0.00    -0.237 OA
ATOM     82  O   UNL A   1      39.440  36.210  38.645  1.00  0.00    -0.237 OA
ATOM     83  O   UNL A   1      41.398  35.458  37.347  1.00  0.00    -0.744 OA
ENDBRANCH  76  80
ENDBRANCH  59  73
BRANCH  60  84
ATOM     84  C   UNL A   1      41.734  26.630  27.813  1.00  0.00     0.023 A 
ATOM     85  C   UNL A   1      41.590  25.234  27.861  1.00  0.00     0.031 A 
ATOM     86  C   UNL A   1      42.318  27.188  26.660  1.00  0.00     0.131 A 
ATOM     87  C   UNL A   1      42.075  24.442  26.808  1.00  0.00     0.055 A 
ATOM     88  C   UNL A   1      42.739  26.402  25.586  1.00  0.00     0.041 A 
ATOM     89  F   UNL A   1      42.488  28.517  26.559  1.00  0.00    -0.206 F 
ATOM     90  C   UNL A   1      42.634  25.018  25.665  1.00  0.00     0.022 A 
BRANCH  87  91
ATOM     91  S   UNL A   1      42.072  22.638  27.001  1.00  0.00     0.124 S 
ATOM     92  O   UNL A   1      41.023  22.448  27.995  1.00  0.00    -0.237 OA
ATOM     93  O   UNL A   1      41.763  22.192  25.646  1.00  0.00    -0.237 OA
ATOM     94  O   UNL A   1      43.429  22.344  27.457  1.00  0.00    -0.744 OA
ENDBRANCH  87  91
ENDBRANCH  60  84
BRANCH  72  95
ATOM     95  C   UNL A   1      36.358  30.906  29.039  1.00  0.00     0.023 A 
ATOM     96  C   UNL A   1      35.413  29.983  28.559  1.00  0.00     0.031 A 
ATOM     97  C   UNL A   1      36.223  32.250  28.648  1.00  0.00     0.131 A 
ATOM     98  C   UNL A   1      34.436  30.395  27.643  1.00  0.00     0.055 A 
ATOM     99  C   UNL A   1      35.194  32.671  27.803  1.00  0.00     0.041 A 
ATOM    100  F   UNL A   1      37.094  33.179  29.073  1.00  0.00    -0.206 F 
ATOM    101  C   UNL A   1      34.307  31.737  27.277  1.00  0.00     0.022 A 
BRANCH  98 102
ATOM    102  S   UNL A   1      33.436  29.127  26.816  1.00  0.00     0.124 S 
ATOM    103  O   UNL A   1      33.162  29.754  25.527  1.00  0.00    -0.237 OA
ATOM    104  O   UNL A   1      34.342  27.984  26.788  1.00  0.00    -0.237 OA
ATOM    105  O   UNL A   1      32.276  28.979  27.693  1.00  0.00    -0.744 OA
ENDBRANCH  98 102
ENDBRANCH  72  95
ENDBRANCH  46  47
ENDBRANCH  39  41
ENDBRANCH  38  39
ENDBRANCH  37  38
ENDBRANCH  36  37
ENDBRANCH  35  36
ENDBRANCH  34  35
ENDBRANCH  33  34
ENDBRANCH  32  33
ENDBRANCH   1  32
TORSDOF 28
ENDMDL
