MODEL 1
REMARK VINA RESULT:      -6.7      0.000      0.000
REMARK SMILES O=C(OCCOCCOCCOCCOC(=O)c1ccc(-c2c3nc(c(-c4cc(S(=O)(=O)[O-])ccc4F)c4ccc([nH]4)c(-c4cc(S(=O)(=O)[O-])ccc4F)c4nc(c(-c5cc(S(=O)(=O)[O-])ccc5F)c5ccc2[nH]5)C=C4)C=C3)cc1)C1=Cc2cc(Cl)cc(-c3ccc(CO)cc3)c2O[C@@H]1C(F)(F)F
REMARK SMILES IDX 9 1 8 2 7 3 6 4 5 5 4 6 3 7 2 8 1 9 81 10 82 11 99 12 83 13
REMARK SMILES IDX 98 14 84 15 97 16 85 17 88 18 86 19 87 20 100 21 101 22
REMARK SMILES IDX 102 23 103 24 89 25 90 26 96 27 91 28 95 29 92 30 93 31
REMARK SMILES IDX 94 32 10 34 11 35 12 36 13 37 14 38 15 39 16 40 17 41 18 42
REMARK SMILES IDX 19 43 80 44 20 45 79 46 21 47 22 48 23 49 73 50 24 51 78 52
REMARK SMILES IDX 72 53 74 54 25 55 77 56 71 57 70 58 26 60 58 61 38 62 57 63
REMARK SMILES IDX 39 64 42 65 56 66 75 67 40 68 41 69 55 71 76 72 43 73 27 74
REMARK SMILES IDX 28 75 36 76 29 77 35 78 37 79 34 80 30 81 31 82 32 83 33 84
REMARK SMILES IDX 59 85 60 86 68 87 61 88 67 89 69 90 66 91 62 92 63 93 64 94
REMARK SMILES IDX 65 95 44 96 45 97 53 98 46 99 52 100 54 101 51 102 47 103
REMARK SMILES IDX 48 104 49 105 50 106
REMARK H PARENT 94 33 74 59 42 70
REMARK Flexibility Score: inf
ROOT
ATOM      1  O   UNL A   1      41.594  25.017  28.754  1.00  0.00    -0.377 OA
ENDROOT
BRANCH   1   2
ATOM      2  C   UNL A   1      41.591  26.401  28.405  1.00  0.00     0.188 C 
BRANCH   2   3
ATOM      3  C   UNL A   1      40.467  26.757  27.444  1.00  0.00     0.188 C 
BRANCH   3   4
ATOM      4  O   UNL A   1      40.065  28.101  27.572  1.00  0.00    -0.376 OA
BRANCH   4   5
ATOM      5  C   UNL A   1      38.866  28.393  28.263  1.00  0.00     0.202 C 
BRANCH   5   6
ATOM      6  C   UNL A   1      38.956  28.547  29.789  1.00  0.00     0.261 C 
BRANCH   6   7
ATOM      7  O   UNL A   1      40.247  28.972  30.293  1.00  0.00    -0.460 OA
BRANCH   7   8
ATOM      8  C   UNL A   1      40.495  30.314  30.419  1.00  0.00     0.338 C 
ATOM      9  O   UNL A   1      40.206  31.120  29.549  1.00  0.00    -0.246 OA
BRANCH   8  10
ATOM     10  C   UNL A   1      41.230  30.660  31.664  1.00  0.00     0.087 C 
ATOM     11  C   UNL A   1      42.160  31.625  31.724  1.00  0.00     0.027 C 
ATOM     12  C   UNL A   1      40.596  30.282  32.952  1.00  0.00     0.316 C 
ATOM     13  C   UNL A   1      41.801  32.729  32.638  1.00  0.00     0.019 A 
ATOM     14  O   UNL A   1      40.009  31.447  33.594  1.00  0.00    -0.475 OA
ATOM     15  C   UNL A   1      42.556  33.891  32.730  1.00  0.00     0.032 A 
ATOM     16  C   UNL A   1      40.539  32.685  33.266  1.00  0.00     0.135 A 
ATOM     17  C   UNL A   1      42.027  34.996  33.398  1.00  0.00     0.042 A 
ATOM     18  C   UNL A   1      39.873  33.890  33.619  1.00  0.00     0.026 A 
ATOM     19  Cl  UNL A   1      43.021  36.364  33.701  1.00  0.00    -0.084 Cl
ATOM     20  C   UNL A   1      40.680  35.026  33.764  1.00  0.00     0.033 A 
BRANCH  12  21
ATOM     21  C   UNL A   1      41.492  29.319  33.758  1.00  0.00     0.430 C 
ATOM     22  F   UNL A   1      42.310  29.981  34.607  1.00  0.00    -0.167 F 
ATOM     23  F   UNL A   1      40.711  28.522  34.550  1.00  0.00    -0.167 F 
ATOM     24  F   UNL A   1      42.242  28.493  33.003  1.00  0.00    -0.167 F 
ENDBRANCH  12  21
BRANCH  18  25
ATOM     25  C   UNL A   1      38.394  34.092  33.620  1.00  0.00    -0.015 A 
ATOM     26  C   UNL A   1      37.718  34.554  32.461  1.00  0.00     0.009 A 
ATOM     27  C   UNL A   1      37.600  33.871  34.740  1.00  0.00     0.009 A 
ATOM     28  C   UNL A   1      36.314  34.717  32.413  1.00  0.00     0.007 A 
ATOM     29  C   UNL A   1      36.195  33.985  34.672  1.00  0.00     0.007 A 
ATOM     30  C   UNL A   1      35.525  34.397  33.516  1.00  0.00    -0.023 A 
BRANCH  30  31
ATOM     31  C   UNL A   1      34.015  34.485  33.480  1.00  0.00     0.191 C 
BRANCH  31  32
ATOM     32  O   UNL A   1      33.491  34.290  32.182  1.00  0.00    -0.392 OA
ATOM     33  H   UNL A   1      33.829  34.979  31.590  1.00  0.00     0.211 HD
ENDBRANCH  31  32
ENDBRANCH  30  31
ENDBRANCH  18  25
ENDBRANCH   8  10
ENDBRANCH   7   8
ENDBRANCH   6   7
ENDBRANCH   5   6
ENDBRANCH   4   5
ENDBRANCH   3   4
ENDBRANCH   2   3
ENDBRANCH   1   2
BRANCH   1  34
ATOM     34  C   UNL A   1      41.525  24.107  27.657  1.00  0.00     0.188 C 
BRANCH  34  35
ATOM     35  C   UNL A   1      41.743  22.619  28.008  1.00  0.00     0.188 C 
BRANCH  35  36
ATOM     36  O   UNL A   1      42.721  21.808  27.378  1.00  0.00    -0.376 OA
BRANCH  36  37
ATOM     37  C   UNL A   1      42.452  21.282  26.100  1.00  0.00     0.202 C 
BRANCH  37  38
ATOM     38  C   UNL A   1      43.548  20.398  25.480  1.00  0.00     0.261 C 
BRANCH  38  39
ATOM     39  O   UNL A   1      44.790  21.057  25.162  1.00  0.00    -0.460 OA
BRANCH  39  40
ATOM     40  C   UNL A   1      44.712  22.171  24.377  1.00  0.00     0.338 C 
ATOM     41  O   UNL A   1      44.401  22.202  23.217  1.00  0.00    -0.246 OA
BRANCH  40  42
ATOM     42  C   UNL A   1      44.938  23.385  25.237  1.00  0.00     0.060 A 
ATOM     43  C   UNL A   1      46.014  23.375  26.138  1.00  0.00     0.016 A 
ATOM     44  C   UNL A   1      44.142  24.533  25.155  1.00  0.00     0.016 A 
ATOM     45  C   UNL A   1      46.265  24.474  26.984  1.00  0.00     0.010 A 
ATOM     46  C   UNL A   1      44.402  25.635  25.992  1.00  0.00     0.010 A 
ATOM     47  C   UNL A   1      45.443  25.608  26.947  1.00  0.00    -0.014 A 
BRANCH  47  48
ATOM     48  C   UNL A   1      45.513  26.664  28.014  1.00  0.00     0.031 A 
ATOM     49  C   UNL A   1      45.244  26.237  29.439  1.00  0.00     0.074 A 
ATOM     50  C   UNL A   1      45.778  27.970  27.782  1.00  0.00     0.049 A 
ATOM     51  N   UNL A   1      45.202  26.955  30.532  1.00  0.00    -0.248 NA
ATOM     52  C   UNL A   1      44.979  24.804  29.651  1.00  0.00     0.031 C 
ATOM     53  C   UNL A   1      46.101  28.562  26.490  1.00  0.00     0.029 A 
ATOM     54  N   UNL A   1      45.759  29.057  28.632  1.00  0.00    -0.354 N 
ATOM     55  C   UNL A   1      44.968  26.052  31.563  1.00  0.00     0.074 A 
ATOM     56  C   UNL A   1      44.726  24.766  30.947  1.00  0.00     0.031 C 
ATOM     57  C   UNL A   1      46.125  29.904  26.601  1.00  0.00     0.029 A 
ATOM     58  C   UNL A   1      45.889  30.273  27.994  1.00  0.00     0.049 A 
ATOM     59  H   UNL A   1      45.661  28.971  29.608  1.00  0.00     0.167 HD
ATOM     60  C   UNL A   1      45.029  26.245  32.904  1.00  0.00     0.034 A 
ATOM     61  C   UNL A   1      45.835  31.539  28.467  1.00  0.00     0.034 A 
ATOM     62  C   UNL A   1      45.247  27.522  33.531  1.00  0.00     0.049 A 
ATOM     63  C   UNL A   1      45.746  31.763  29.960  1.00  0.00     0.074 A 
ATOM     64  C   UNL A   1      45.360  27.812  34.879  1.00  0.00     0.029 A 
ATOM     65  N   UNL A   1      45.369  28.727  32.855  1.00  0.00    -0.354 N 
ATOM     66  N   UNL A   1      45.638  30.879  30.926  1.00  0.00    -0.248 NA
ATOM     67  C   UNL A   1      45.844  33.153  30.431  1.00  0.00     0.031 C 
ATOM     68  C   UNL A   1      45.476  29.200  35.021  1.00  0.00     0.029 A 
ATOM     69  C   UNL A   1      45.522  29.767  33.760  1.00  0.00     0.049 A 
ATOM     70  H   UNL A   1      45.349  28.830  31.876  1.00  0.00     0.167 HD
ATOM     71  C   UNL A   1      45.731  31.603  32.115  1.00  0.00     0.074 A 
ATOM     72  C   UNL A   1      45.904  32.990  31.744  1.00  0.00     0.031 C 
ATOM     73  C   UNL A   1      45.696  31.154  33.396  1.00  0.00     0.034 A 
BRANCH  60  74
ATOM     74  C   UNL A   1      44.881  25.018  33.769  1.00  0.00     0.023 A 
ATOM     75  C   UNL A   1      45.998  24.216  34.073  1.00  0.00     0.031 A 
ATOM     76  C   UNL A   1      43.628  24.615  34.254  1.00  0.00     0.131 A 
ATOM     77  C   UNL A   1      45.825  23.006  34.757  1.00  0.00     0.055 A 
ATOM     78  C   UNL A   1      43.478  23.455  35.017  1.00  0.00     0.041 A 
ATOM     79  F   UNL A   1      42.525  25.329  33.979  1.00  0.00    -0.206 F 
ATOM     80  C   UNL A   1      44.577  22.633  35.256  1.00  0.00     0.022 A 
BRANCH  77  81
ATOM     81  S   UNL A   1      47.225  21.857  34.833  1.00  0.00     0.124 S 
ATOM     82  O   UNL A   1      47.249  21.519  36.254  1.00  0.00    -0.237 OA
ATOM     83  O   UNL A   1      46.809  20.790  33.931  1.00  0.00    -0.237 OA
ATOM     84  O   UNL A   1      48.354  22.663  34.371  1.00  0.00    -0.744 OA
ENDBRANCH  77  81
ENDBRANCH  60  74
BRANCH  61  85
ATOM     85  C   UNL A   1      45.871  32.720  27.548  1.00  0.00     0.023 A 
ATOM     86  C   UNL A   1      47.084  33.301  27.139  1.00  0.00     0.031 A 
ATOM     87  C   UNL A   1      44.678  33.364  27.170  1.00  0.00     0.131 A 
ATOM     88  C   UNL A   1      47.081  34.523  26.445  1.00  0.00     0.055 A 
ATOM     89  C   UNL A   1      44.680  34.553  26.432  1.00  0.00     0.041 A 
ATOM     90  F   UNL A   1      43.490  32.863  27.540  1.00  0.00    -0.206 F 
ATOM     91  C   UNL A   1      45.887  35.149  26.081  1.00  0.00     0.022 A 
BRANCH  88  92
ATOM     92  S   UNL A   1      48.668  35.348  26.125  1.00  0.00     0.124 S 
ATOM     93  O   UNL A   1      49.180  34.580  24.998  1.00  0.00    -0.237 OA
ATOM     94  O   UNL A   1      48.242  36.712  25.832  1.00  0.00    -0.237 OA
ATOM     95  O   UNL A   1      49.398  35.181  27.380  1.00  0.00    -0.744 OA
ENDBRANCH  88  92
ENDBRANCH  61  85
BRANCH  73  96
ATOM     96  C   UNL A   1      45.923  32.167  34.495  1.00  0.00     0.023 A 
ATOM     97  C   UNL A   1      44.884  32.600  35.336  1.00  0.00     0.031 A 
ATOM     98  C   UNL A   1      47.196  32.738  34.681  1.00  0.00     0.131 A 
ATOM     99  C   UNL A   1      45.113  33.629  36.262  1.00  0.00     0.055 A 
ATOM    100  C   UNL A   1      47.438  33.703  35.660  1.00  0.00     0.041 A 
ATOM    101  F   UNL A   1      48.231  32.371  33.907  1.00  0.00    -0.206 F 
ATOM    102  C   UNL A   1      46.388  34.170  36.443  1.00  0.00     0.022 A 
BRANCH  99 103
ATOM    103  S   UNL A   1      43.690  34.351  37.125  1.00  0.00     0.124 S 
ATOM    104  O   UNL A   1      43.917  35.780  36.939  1.00  0.00    -0.237 OA
ATOM    105  O   UNL A   1      42.561  33.784  36.393  1.00  0.00    -0.237 OA
ATOM    106  O   UNL A   1      43.842  33.871  38.497  1.00  0.00    -0.744 OA
ENDBRANCH  99 103
ENDBRANCH  73  96
ENDBRANCH  47  48
ENDBRANCH  40  42
ENDBRANCH  39  40
ENDBRANCH  38  39
ENDBRANCH  37  38
ENDBRANCH  36  37
ENDBRANCH  35  36
ENDBRANCH  34  35
ENDBRANCH   1  34
TORSDOF 27
ENDMDL
MODEL 2
REMARK VINA RESULT:      -6.2      3.698      9.413
REMARK SMILES O=C(OCCOCCOCCOCCOC(=O)c1ccc(-c2c3nc(c(-c4cc(S(=O)(=O)[O-])ccc4F)c4ccc([nH]4)c(-c4cc(S(=O)(=O)[O-])ccc4F)c4nc(c(-c5cc(S(=O)(=O)[O-])ccc5F)c5ccc2[nH]5)C=C4)C=C3)cc1)C1=Cc2cc(Cl)cc(-c3ccc(CO)cc3)c2O[C@@H]1C(F)(F)F
REMARK SMILES IDX 9 1 8 2 7 3 6 4 5 5 4 6 3 7 2 8 1 9 81 10 82 11 99 12 83 13
REMARK SMILES IDX 98 14 84 15 97 16 85 17 88 18 86 19 87 20 100 21 101 22
REMARK SMILES IDX 102 23 103 24 89 25 90 26 96 27 91 28 95 29 92 30 93 31
REMARK SMILES IDX 94 32 10 34 11 35 12 36 13 37 14 38 15 39 16 40 17 41 18 42
REMARK SMILES IDX 19 43 80 44 20 45 79 46 21 47 22 48 23 49 73 50 24 51 78 52
REMARK SMILES IDX 72 53 74 54 25 55 77 56 71 57 70 58 26 60 58 61 38 62 57 63
REMARK SMILES IDX 39 64 42 65 56 66 75 67 40 68 41 69 55 71 76 72 43 73 27 74
REMARK SMILES IDX 28 75 36 76 29 77 35 78 37 79 34 80 30 81 31 82 32 83 33 84
REMARK SMILES IDX 59 85 60 86 68 87 61 88 67 89 69 90 66 91 62 92 63 93 64 94
REMARK SMILES IDX 65 95 44 96 45 97 53 98 46 99 52 100 54 101 51 102 47 103
REMARK SMILES IDX 48 104 49 105 50 106
REMARK H PARENT 94 33 74 59 42 70
REMARK Flexibility Score: inf
ROOT
ATOM      1  O   UNL A   1      39.776  34.209  29.922  1.00  0.00    -0.377 OA
ENDROOT
BRANCH   1   2
ATOM      2  C   UNL A   1      40.828  33.758  30.773  1.00  0.00     0.188 C 
BRANCH   2   3
ATOM      3  C   UNL A   1      41.848  34.848  31.066  1.00  0.00     0.188 C 
BRANCH   3   4
ATOM      4  O   UNL A   1      43.020  34.699  30.297  1.00  0.00    -0.376 OA
BRANCH   4   5
ATOM      5  C   UNL A   1      43.739  35.857  29.917  1.00  0.00     0.202 C 
BRANCH   5   6
ATOM      6  C   UNL A   1      43.729  36.229  28.426  1.00  0.00     0.261 C 
BRANCH   6   7
ATOM      7  O   UNL A   1      44.663  35.493  27.597  1.00  0.00    -0.460 OA
BRANCH   7   8
ATOM      8  C   UNL A   1      45.850  36.087  27.256  1.00  0.00     0.338 C 
ATOM      9  O   UNL A   1      45.906  37.117  26.605  1.00  0.00    -0.246 OA
BRANCH   8  10
ATOM     10  C   UNL A   1      47.041  35.300  27.673  1.00  0.00     0.087 C 
ATOM     11  C   UNL A   1      47.402  35.135  28.954  1.00  0.00     0.027 C 
ATOM     12  C   UNL A   1      47.554  34.290  26.713  1.00  0.00     0.316 C 
ATOM     13  C   UNL A   1      47.371  33.724  29.394  1.00  0.00     0.019 A 
ATOM     14  O   UNL A   1      47.171  32.950  27.130  1.00  0.00    -0.475 OA
ATOM     15  C   UNL A   1      47.566  33.356  30.719  1.00  0.00     0.032 A 
ATOM     16  C   UNL A   1      46.915  32.754  28.478  1.00  0.00     0.135 A 
ATOM     17  C   UNL A   1      47.259  32.054  31.117  1.00  0.00     0.042 A 
ATOM     18  C   UNL A   1      46.279  31.572  28.944  1.00  0.00     0.026 A 
ATOM     19  Cl  UNL A   1      47.686  31.523  32.694  1.00  0.00    -0.084 Cl
ATOM     20  C   UNL A   1      46.552  31.201  30.267  1.00  0.00     0.033 A 
BRANCH  12  21
ATOM     21  C   UNL A   1      49.011  34.591  26.306  1.00  0.00     0.430 C 
ATOM     22  F   UNL A   1      49.361  35.867  26.587  1.00  0.00    -0.167 F 
ATOM     23  F   UNL A   1      49.862  33.808  27.037  1.00  0.00    -0.167 F 
ATOM     24  F   UNL A   1      49.287  34.351  25.010  1.00  0.00    -0.167 F 
ENDBRANCH  12  21
BRANCH  18  25
ATOM     25  C   UNL A   1      45.189  30.839  28.235  1.00  0.00    -0.015 A 
ATOM     26  C   UNL A   1      43.855  31.320  28.247  1.00  0.00     0.009 A 
ATOM     27  C   UNL A   1      45.400  29.646  27.551  1.00  0.00     0.009 A 
ATOM     28  C   UNL A   1      42.806  30.675  27.553  1.00  0.00     0.007 A 
ATOM     29  C   UNL A   1      44.362  29.034  26.816  1.00  0.00     0.007 A 
ATOM     30  C   UNL A   1      43.056  29.534  26.792  1.00  0.00    -0.023 A 
BRANCH  30  31
ATOM     31  C   UNL A   1      41.978  28.858  25.974  1.00  0.00     0.191 C 
BRANCH  31  32
ATOM     32  O   UNL A   1      42.484  28.266  24.794  1.00  0.00    -0.392 OA
ATOM     33  H   UNL A   1      42.213  28.794  24.026  1.00  0.00     0.211 HD
ENDBRANCH  31  32
ENDBRANCH  30  31
ENDBRANCH  18  25
ENDBRANCH   8  10
ENDBRANCH   7   8
ENDBRANCH   6   7
ENDBRANCH   5   6
ENDBRANCH   4   5
ENDBRANCH   3   4
ENDBRANCH   2   3
ENDBRANCH   1   2
BRANCH   1  34
ATOM     34  C   UNL A   1      38.457  34.060  30.444  1.00  0.00     0.188 C 
BRANCH  34  35
ATOM     35  C   UNL A   1      37.312  34.193  29.415  1.00  0.00     0.188 C 
BRANCH  35  36
ATOM     36  O   UNL A   1      36.008  33.679  29.634  1.00  0.00    -0.376 OA
BRANCH  36  37
ATOM     37  C   UNL A   1      34.966  34.073  28.773  1.00  0.00     0.202 C 
BRANCH  37  38
ATOM     38  C   UNL A   1      34.200  32.941  28.066  1.00  0.00     0.261 C 
BRANCH  38  39
ATOM     39  O   UNL A   1      34.318  31.631  28.657  1.00  0.00    -0.460 OA
BRANCH  39  40
ATOM     40  C   UNL A   1      34.822  30.642  27.865  1.00  0.00     0.338 C 
ATOM     41  O   UNL A   1      34.378  30.280  26.808  1.00  0.00    -0.246 OA
BRANCH  40  42
ATOM     42  C   UNL A   1      36.122  30.165  28.456  1.00  0.00     0.060 A 
ATOM     43  C   UNL A   1      36.084  29.437  29.654  1.00  0.00     0.016 A 
ATOM     44  C   UNL A   1      37.362  30.391  27.847  1.00  0.00     0.016 A 
ATOM     45  C   UNL A   1      37.268  28.981  30.267  1.00  0.00     0.010 A 
ATOM     46  C   UNL A   1      38.544  29.924  28.454  1.00  0.00     0.010 A 
ATOM     47  C   UNL A   1      38.518  29.245  29.693  1.00  0.00    -0.014 A 
BRANCH  47  48
ATOM     48  C   UNL A   1      39.796  29.020  30.454  1.00  0.00     0.031 A 
ATOM     49  C   UNL A   1      40.070  29.917  31.639  1.00  0.00     0.074 A 
ATOM     50  C   UNL A   1      40.721  28.087  30.134  1.00  0.00     0.049 A 
ATOM     51  N   UNL A   1      41.110  29.956  32.433  1.00  0.00    -0.248 NA
ATOM     52  C   UNL A   1      39.028  30.904  31.965  1.00  0.00     0.031 C 
ATOM     53  C   UNL A   1      40.618  27.110  29.058  1.00  0.00     0.029 A 
ATOM     54  N   UNL A   1      41.975  27.848  30.660  1.00  0.00    -0.354 N 
ATOM     55  C   UNL A   1      40.818  30.929  33.383  1.00  0.00     0.074 A 
ATOM     56  C   UNL A   1      39.579  31.554  32.976  1.00  0.00     0.031 C 
ATOM     57  C   UNL A   1      41.793  26.467  28.917  1.00  0.00     0.029 A 
ATOM     58  C   UNL A   1      42.720  26.934  29.943  1.00  0.00     0.049 A 
ATOM     59  H   UNL A   1      42.307  28.290  31.474  1.00  0.00     0.167 HD
ATOM     60  C   UNL A   1      41.467  31.226  34.535  1.00  0.00     0.034 A 
ATOM     61  C   UNL A   1      43.996  26.511  30.093  1.00  0.00     0.034 A 
ATOM     62  C   UNL A   1      42.711  30.627  34.943  1.00  0.00     0.049 A 
ATOM     63  C   UNL A   1      44.784  26.963  31.302  1.00  0.00     0.074 A 
ATOM     64  C   UNL A   1      43.427  30.837  36.108  1.00  0.00     0.029 A 
ATOM     65  N   UNL A   1      43.436  29.714  34.192  1.00  0.00    -0.354 N 
ATOM     66  N   UNL A   1      44.438  27.803  32.251  1.00  0.00    -0.248 NA
ATOM     67  C   UNL A   1      46.109  26.355  31.498  1.00  0.00     0.031 C 
ATOM     68  C   UNL A   1      44.619  30.108  36.029  1.00  0.00     0.029 A 
ATOM     69  C   UNL A   1      44.607  29.377  34.854  1.00  0.00     0.049 A 
ATOM     70  H   UNL A   1      43.160  29.357  33.316  1.00  0.00     0.167 HD
ATOM     71  C   UNL A   1      45.470  27.763  33.189  1.00  0.00     0.074 A 
ATOM     72  C   UNL A   1      46.446  26.819  32.691  1.00  0.00     0.031 C 
ATOM     73  C   UNL A   1      45.585  28.434  34.364  1.00  0.00     0.034 A 
BRANCH  60  74
ATOM     74  C   UNL A   1      40.805  32.233  35.442  1.00  0.00     0.023 A 
ATOM     75  C   UNL A   1      39.805  31.834  36.349  1.00  0.00     0.031 A 
ATOM     76  C   UNL A   1      41.130  33.597  35.376  1.00  0.00     0.131 A 
ATOM     77  C   UNL A   1      39.100  32.797  37.082  1.00  0.00     0.055 A 
ATOM     78  C   UNL A   1      40.487  34.541  36.181  1.00  0.00     0.041 A 
ATOM     79  F   UNL A   1      42.061  34.038  34.516  1.00  0.00    -0.206 F 
ATOM     80  C   UNL A   1      39.454  34.145  37.026  1.00  0.00     0.022 A 
BRANCH  77  81
ATOM     81  S   UNL A   1      37.613  32.274  37.977  1.00  0.00     0.124 S 
ATOM     82  O   UNL A   1      37.988  32.560  39.360  1.00  0.00    -0.237 OA
ATOM     83  O   UNL A   1      36.581  33.130  37.405  1.00  0.00    -0.237 OA
ATOM     84  O   UNL A   1      37.499  30.854  37.650  1.00  0.00    -0.744 OA
ENDBRANCH  77  81
ENDBRANCH  60  74
BRANCH  61  85
ATOM     85  C   UNL A   1      44.639  25.598  29.096  1.00  0.00     0.023 A 
ATOM     86  C   UNL A   1      45.329  26.096  27.977  1.00  0.00     0.031 A 
ATOM     87  C   UNL A   1      44.458  24.205  29.185  1.00  0.00     0.131 A 
ATOM     88  C   UNL A   1      45.745  25.221  26.959  1.00  0.00     0.055 A 
ATOM     89  C   UNL A   1      44.921  23.333  28.194  1.00  0.00     0.041 A 
ATOM     90  F   UNL A   1      43.797  23.672  30.224  1.00  0.00    -0.206 F 
ATOM     91  C   UNL A   1      45.552  23.841  27.064  1.00  0.00     0.022 A 
BRANCH  88  92
ATOM     92  S   UNL A   1      46.437  25.923  25.433  1.00  0.00     0.124 S 
ATOM     93  O   UNL A   1      47.653  26.558  25.924  1.00  0.00    -0.237 OA
ATOM     94  O   UNL A   1      46.620  24.731  24.611  1.00  0.00    -0.237 OA
ATOM     95  O   UNL A   1      45.393  26.839  24.975  1.00  0.00    -0.744 OA
ENDBRANCH  88  92
ENDBRANCH  61  85
BRANCH  73  96
ATOM     96  C   UNL A   1      46.780  28.114  35.233  1.00  0.00     0.023 A 
ATOM     97  C   UNL A   1      47.992  28.817  35.123  1.00  0.00     0.031 A 
ATOM     98  C   UNL A   1      46.718  27.060  36.164  1.00  0.00     0.131 A 
ATOM     99  C   UNL A   1      49.111  28.408  35.863  1.00  0.00     0.055 A 
ATOM    100  C   UNL A   1      47.810  26.710  36.958  1.00  0.00     0.041 A 
ATOM    101  F   UNL A   1      45.591  26.345  36.314  1.00  0.00    -0.206 F 
ATOM    102  C   UNL A   1      49.023  27.371  36.795  1.00  0.00     0.022 A 
BRANCH  99 103
ATOM    103  S   UNL A   1      50.721  29.156  35.487  1.00  0.00     0.124 S 
ATOM    104  O   UNL A   1      50.927  28.746  34.102  1.00  0.00    -0.237 OA
ATOM    105  O   UNL A   1      50.460  30.577  35.700  1.00  0.00    -0.237 OA
ATOM    106  O   UNL A   1      51.621  28.539  36.458  1.00  0.00    -0.744 OA
ENDBRANCH  99 103
ENDBRANCH  73  96
ENDBRANCH  47  48
ENDBRANCH  40  42
ENDBRANCH  39  40
ENDBRANCH  38  39
ENDBRANCH  37  38
ENDBRANCH  36  37
ENDBRANCH  35  36
ENDBRANCH  34  35
ENDBRANCH   1  34
TORSDOF 27
ENDMDL
MODEL 3
REMARK VINA RESULT:      -6.1      4.243     10.963
REMARK SMILES O=C(OCCOCCOCCOCCOC(=O)c1ccc(-c2c3nc(c(-c4cc(S(=O)(=O)[O-])ccc4F)c4ccc([nH]4)c(-c4cc(S(=O)(=O)[O-])ccc4F)c4nc(c(-c5cc(S(=O)(=O)[O-])ccc5F)c5ccc2[nH]5)C=C4)C=C3)cc1)C1=Cc2cc(Cl)cc(-c3ccc(CO)cc3)c2O[C@@H]1C(F)(F)F
REMARK SMILES IDX 9 1 8 2 7 3 6 4 5 5 4 6 3 7 2 8 1 9 81 10 82 11 99 12 83 13
REMARK SMILES IDX 98 14 84 15 97 16 85 17 88 18 86 19 87 20 100 21 101 22
REMARK SMILES IDX 102 23 103 24 89 25 90 26 96 27 91 28 95 29 92 30 93 31
REMARK SMILES IDX 94 32 10 34 11 35 12 36 13 37 14 38 15 39 16 40 17 41 18 42
REMARK SMILES IDX 19 43 80 44 20 45 79 46 21 47 22 48 23 49 73 50 24 51 78 52
REMARK SMILES IDX 72 53 74 54 25 55 77 56 71 57 70 58 26 60 58 61 38 62 57 63
REMARK SMILES IDX 39 64 42 65 56 66 75 67 40 68 41 69 55 71 76 72 43 73 27 74
REMARK SMILES IDX 28 75 36 76 29 77 35 78 37 79 34 80 30 81 31 82 32 83 33 84
REMARK SMILES IDX 59 85 60 86 68 87 61 88 67 89 69 90 66 91 62 92 63 93 64 94
REMARK SMILES IDX 65 95 44 96 45 97 53 98 46 99 52 100 54 101 51 102 47 103
REMARK SMILES IDX 48 104 49 105 50 106
REMARK H PARENT 94 33 74 59 42 70
REMARK Flexibility Score: inf
ROOT
ATOM      1  O   UNL A   1      46.750  33.574  30.821  1.00  0.00    -0.377 OA
ENDROOT
BRANCH   1   2
ATOM      2  C   UNL A   1      46.450  32.179  30.831  1.00  0.00     0.188 C 
BRANCH   2   3
ATOM      3  C   UNL A   1      45.114  31.876  31.494  1.00  0.00     0.188 C 
BRANCH   3   4
ATOM      4  O   UNL A   1      44.615  30.610  31.127  1.00  0.00    -0.376 OA
BRANCH   4   5
ATOM      5  C   UNL A   1      44.678  30.218  29.769  1.00  0.00     0.202 C 
BRANCH   5   6
ATOM      6  C   UNL A   1      43.424  29.566  29.168  1.00  0.00     0.261 C 
BRANCH   6   7
ATOM      7  O   UNL A   1      43.109  28.245  29.675  1.00  0.00    -0.460 OA
BRANCH   7   8
ATOM      8  C   UNL A   1      42.864  27.237  28.779  1.00  0.00     0.338 C 
ATOM      9  O   UNL A   1      41.865  27.210  28.078  1.00  0.00    -0.246 OA
BRANCH   8  10
ATOM     10  C   UNL A   1      43.878  26.151  28.825  1.00  0.00     0.087 C 
ATOM     11  C   UNL A   1      45.196  26.379  28.921  1.00  0.00     0.027 C 
ATOM     12  C   UNL A   1      43.414  24.810  29.261  1.00  0.00     0.316 C 
ATOM     13  C   UNL A   1      45.797  25.837  30.156  1.00  0.00     0.019 A 
ATOM     14  O   UNL A   1      43.829  24.546  30.630  1.00  0.00    -0.475 OA
ATOM     15  C   UNL A   1      47.115  26.094  30.516  1.00  0.00     0.032 A 
ATOM     16  C   UNL A   1      44.942  25.227  31.097  1.00  0.00     0.135 A 
ATOM     17  C   UNL A   1      47.540  25.787  31.809  1.00  0.00     0.042 A 
ATOM     18  C   UNL A   1      45.266  25.250  32.480  1.00  0.00     0.026 A 
ATOM     19  Cl  UNL A   1      49.208  25.903  32.206  1.00  0.00    -0.084 Cl
ATOM     20  C   UNL A   1      46.616  25.448  32.799  1.00  0.00     0.033 A 
BRANCH  12  21
ATOM     21  C   UNL A   1      43.640  23.752  28.162  1.00  0.00     0.430 C 
ATOM     22  F   UNL A   1      44.750  24.011  27.432  1.00  0.00    -0.167 F 
ATOM     23  F   UNL A   1      43.860  22.531  28.740  1.00  0.00    -0.167 F 
ATOM     24  F   UNL A   1      42.604  23.597  27.317  1.00  0.00    -0.167 F 
ENDBRANCH  12  21
BRANCH  18  25
ATOM     25  C   UNL A   1      44.279  25.312  33.599  1.00  0.00    -0.015 A 
ATOM     26  C   UNL A   1      43.854  24.135  34.266  1.00  0.00     0.009 A 
ATOM     27  C   UNL A   1      43.702  26.500  34.034  1.00  0.00     0.009 A 
ATOM     28  C   UNL A   1      42.953  24.159  35.355  1.00  0.00     0.007 A 
ATOM     29  C   UNL A   1      42.843  26.526  35.154  1.00  0.00     0.007 A 
ATOM     30  C   UNL A   1      42.460  25.369  35.840  1.00  0.00    -0.023 A 
BRANCH  30  31
ATOM     31  C   UNL A   1      41.555  25.444  37.049  1.00  0.00     0.191 C 
BRANCH  31  32
ATOM     32  O   UNL A   1      40.870  24.232  37.291  1.00  0.00    -0.392 OA
ATOM     33  H   UNL A   1      40.262  24.347  38.039  1.00  0.00     0.211 HD
ENDBRANCH  31  32
ENDBRANCH  30  31
ENDBRANCH  18  25
ENDBRANCH   8  10
ENDBRANCH   7   8
ENDBRANCH   6   7
ENDBRANCH   5   6
ENDBRANCH   4   5
ENDBRANCH   3   4
ENDBRANCH   2   3
ENDBRANCH   1   2
BRANCH   1  34
ATOM     34  C   UNL A   1      48.105  33.913  31.113  1.00  0.00     0.188 C 
BRANCH  34  35
ATOM     35  C   UNL A   1      48.553  33.673  32.571  1.00  0.00     0.188 C 
BRANCH  35  36
ATOM     36  O   UNL A   1      49.825  34.062  33.066  1.00  0.00    -0.376 OA
BRANCH  36  37
ATOM     37  C   UNL A   1      49.990  35.365  33.574  1.00  0.00     0.202 C 
BRANCH  37  38
ATOM     38  C   UNL A   1      50.767  35.488  34.896  1.00  0.00     0.261 C 
BRANCH  38  39
ATOM     39  O   UNL A   1      50.079  35.038  36.081  1.00  0.00    -0.460 OA
BRANCH  39  40
ATOM     40  C   UNL A   1      49.315  35.958  36.737  1.00  0.00     0.338 C 
ATOM     41  O   UNL A   1      49.719  36.840  37.448  1.00  0.00    -0.246 OA
BRANCH  40  42
ATOM     42  C   UNL A   1      47.882  35.788  36.312  1.00  0.00     0.060 A 
ATOM     43  C   UNL A   1      47.388  34.487  36.130  1.00  0.00     0.016 A 
ATOM     44  C   UNL A   1      47.013  36.868  36.120  1.00  0.00     0.016 A 
ATOM     45  C   UNL A   1      46.061  34.264  35.713  1.00  0.00     0.010 A 
ATOM     46  C   UNL A   1      45.683  36.644  35.716  1.00  0.00     0.010 A 
ATOM     47  C   UNL A   1      45.197  35.339  35.469  1.00  0.00    -0.014 A 
BRANCH  47  48
ATOM     48  C   UNL A   1      43.883  35.147  34.765  1.00  0.00     0.031 A 
ATOM     49  C   UNL A   1      42.699  34.717  35.600  1.00  0.00     0.074 A 
ATOM     50  C   UNL A   1      43.696  35.313  33.436  1.00  0.00     0.049 A 
ATOM     51  N   UNL A   1      41.472  34.445  35.233  1.00  0.00    -0.248 NA
ATOM     52  C   UNL A   1      42.940  34.568  37.045  1.00  0.00     0.031 C 
ATOM     53  C   UNL A   1      44.699  35.760  32.478  1.00  0.00     0.029 A 
ATOM     54  N   UNL A   1      42.593  35.061  32.644  1.00  0.00    -0.354 N 
ATOM     55  C   UNL A   1      40.787  34.154  36.407  1.00  0.00     0.074 A 
ATOM     56  C   UNL A   1      41.767  34.134  37.471  1.00  0.00     0.031 C 
ATOM     57  C   UNL A   1      44.217  35.634  31.227  1.00  0.00     0.029 A 
ATOM     58  C   UNL A   1      42.838  35.162  31.290  1.00  0.00     0.049 A 
ATOM     59  H   UNL A   1      41.710  34.831  33.014  1.00  0.00     0.167 HD
ATOM     60  C   UNL A   1      39.455  33.999  36.608  1.00  0.00     0.034 A 
ATOM     61  C   UNL A   1      42.048  34.914  30.221  1.00  0.00     0.034 A 
ATOM     62  C   UNL A   1      38.471  33.996  35.557  1.00  0.00     0.049 A 
ATOM     63  C   UNL A   1      40.589  34.586  30.444  1.00  0.00     0.074 A 
ATOM     64  C   UNL A   1      37.096  33.881  35.665  1.00  0.00     0.029 A 
ATOM     65  N   UNL A   1      38.755  34.094  34.203  1.00  0.00    -0.354 N 
ATOM     66  N   UNL A   1      39.938  34.427  31.574  1.00  0.00    -0.248 NA
ATOM     67  C   UNL A   1      39.741  34.476  29.247  1.00  0.00     0.031 C 
ATOM     68  C   UNL A   1      36.557  33.837  34.374  1.00  0.00     0.029 A 
ATOM     69  C   UNL A   1      37.586  34.010  33.464  1.00  0.00     0.049 A 
ATOM     70  H   UNL A   1      39.657  34.207  33.822  1.00  0.00     0.167 HD
ATOM     71  C   UNL A   1      38.597  34.273  31.222  1.00  0.00     0.074 A 
ATOM     72  C   UNL A   1      38.534  34.359  29.779  1.00  0.00     0.031 C 
ATOM     73  C   UNL A   1      37.516  34.097  32.024  1.00  0.00     0.034 A 
BRANCH  60  74
ATOM     74  C   UNL A   1      39.002  33.850  38.039  1.00  0.00     0.023 A 
ATOM     75  C   UNL A   1      38.460  32.633  38.496  1.00  0.00     0.031 A 
ATOM     76  C   UNL A   1      39.061  34.924  38.939  1.00  0.00     0.131 A 
ATOM     77  C   UNL A   1      37.913  32.549  39.782  1.00  0.00     0.055 A 
ATOM     78  C   UNL A   1      38.600  34.804  40.252  1.00  0.00     0.041 A 
ATOM     79  F   UNL A   1      39.548  36.114  38.553  1.00  0.00    -0.206 F 
ATOM     80  C   UNL A   1      38.005  33.618  40.674  1.00  0.00     0.022 A 
BRANCH  77  81
ATOM     81  S   UNL A   1      36.938  31.081  40.206  1.00  0.00     0.124 S 
ATOM     82  O   UNL A   1      35.910  31.653  41.072  1.00  0.00    -0.237 OA
ATOM     83  O   UNL A   1      36.485  30.614  38.901  1.00  0.00    -0.237 OA
ATOM     84  O   UNL A   1      37.902  30.214  40.881  1.00  0.00    -0.744 OA
ENDBRANCH  77  81
ENDBRANCH  60  74
BRANCH  61  85
ATOM     85  C   UNL A   1      42.584  34.966  28.823  1.00  0.00     0.023 A 
ATOM     86  C   UNL A   1      43.216  33.858  28.234  1.00  0.00     0.031 A 
ATOM     87  C   UNL A   1      42.584  36.176  28.106  1.00  0.00     0.131 A 
ATOM     88  C   UNL A   1      43.884  33.999  27.005  1.00  0.00     0.055 A 
ATOM     89  C   UNL A   1      43.205  36.298  26.858  1.00  0.00     0.041 A 
ATOM     90  F   UNL A   1      42.007  37.271  28.623  1.00  0.00    -0.206 F 
ATOM     91  C   UNL A   1      43.876  35.210  26.309  1.00  0.00     0.022 A 
BRANCH  88  92
ATOM     92  S   UNL A   1      44.870  32.606  26.382  1.00  0.00     0.124 S 
ATOM     93  O   UNL A   1      45.310  33.109  25.087  1.00  0.00    -0.237 OA
ATOM     94  O   UNL A   1      45.900  32.485  27.408  1.00  0.00    -0.237 OA
ATOM     95  O   UNL A   1      43.910  31.504  26.333  1.00  0.00    -0.744 OA
ENDBRANCH  88  92
ENDBRANCH  61  85
BRANCH  73  96
ATOM     96  C   UNL A   1      36.157  34.059  31.362  1.00  0.00     0.023 A 
ATOM     97  C   UNL A   1      35.232  35.109  31.498  1.00  0.00     0.031 A 
ATOM     98  C   UNL A   1      35.765  32.936  30.610  1.00  0.00     0.131 A 
ATOM     99  C   UNL A   1      33.939  34.979  30.968  1.00  0.00     0.055 A 
ATOM    100  C   UNL A   1      34.507  32.847  30.015  1.00  0.00     0.041 A 
ATOM    101  F   UNL A   1      36.601  31.897  30.446  1.00  0.00    -0.206 F 
ATOM    102  C   UNL A   1      33.577  33.863  30.210  1.00  0.00     0.022 A 
BRANCH  99 103
ATOM    103  S   UNL A   1      32.694  36.224  31.404  1.00  0.00     0.124 S 
ATOM    104  O   UNL A   1      32.213  36.641  30.091  1.00  0.00    -0.237 OA
ATOM    105  O   UNL A   1      31.754  35.454  32.213  1.00  0.00    -0.237 OA
ATOM    106  O   UNL A   1      33.459  37.232  32.134  1.00  0.00    -0.744 OA
ENDBRANCH  99 103
ENDBRANCH  73  96
ENDBRANCH  47  48
ENDBRANCH  40  42
ENDBRANCH  39  40
ENDBRANCH  38  39
ENDBRANCH  37  38
ENDBRANCH  36  37
ENDBRANCH  35  36
ENDBRANCH  34  35
ENDBRANCH   1  34
TORSDOF 27
ENDMDL
