MODEL 1
REMARK VINA RESULT:      -8.7      0.000      0.000
REMARK SMILES CC[C@@H]1CCCN(S(=O)(=O)c2cc(C(=O)OCCOCCOCCOCCOC(=O)c3ccc(-c4c5nc(c(-c6cc(S(=O)(=O)[O-])ccc6F)c6ccc([nH]6)c(-c6cc(S(=O)(=O)[O-])ccc6F)c6nc(c(-c7cc(S(=O)(=O)[O-])ccc7F)c7ccc4[nH]7)C=C6)C=C5)cc3)ccc2F)C1
REMARK SMILES IDX 22 1 21 2 20 3 19 4 18 5 17 6 16 7 14 8 15 9 13 10 11 11
REMARK SMILES IDX 12 12 96 13 95 14 97 15 94 16 8 17 9 18 10 19 7 20 3 21 4 22
REMARK SMILES IDX 98 23 5 24 6 25 2 26 1 27 23 28 24 29 25 30 26 31 27 32
REMARK SMILES IDX 28 33 29 34 30 35 31 36 32 37 93 38 33 39 92 40 34 41 35 42
REMARK SMILES IDX 36 43 86 44 37 45 91 46 85 47 87 48 38 49 90 50 84 51 83 52
REMARK SMILES IDX 39 54 71 55 51 56 70 57 52 58 55 59 69 60 88 61 53 62 54 63
REMARK SMILES IDX 68 65 89 66 56 67 40 68 41 69 49 70 42 71 48 72 50 73 47 74
REMARK SMILES IDX 43 75 44 76 45 77 46 78 72 79 73 80 81 81 74 82 80 83 82 84
REMARK SMILES IDX 79 85 75 86 76 87 77 88 78 89 57 90 58 91 66 92 59 93 65 94
REMARK SMILES IDX 67 95 64 96 60 97 61 98 62 99 63 100
REMARK H PARENT 87 53 55 64
REMARK Flexibility Score: inf
ROOT
ATOM      1  O   UNL A   1      33.646  34.092  30.596  1.00  0.00    -0.377 OA
ENDROOT
BRANCH   1   2
ATOM      2  C   UNL A   1      34.626  33.183  30.129  1.00  0.00     0.188 C 
BRANCH   2   3
ATOM      3  C   UNL A   1      34.534  32.870  28.623  1.00  0.00     0.188 C 
BRANCH   3   4
ATOM      4  O   UNL A   1      34.307  31.509  28.321  1.00  0.00    -0.376 OA
BRANCH   4   5
ATOM      5  C   UNL A   1      33.236  31.085  27.496  1.00  0.00     0.202 C 
BRANCH   5   6
ATOM      6  C   UNL A   1      33.122  29.721  26.785  1.00  0.00     0.261 C 
BRANCH   6   7
ATOM      7  O   UNL A   1      31.827  29.272  26.396  1.00  0.00    -0.460 OA
BRANCH   7   8
ATOM      8  C   UNL A   1      31.591  27.943  26.373  1.00  0.00     0.338 C 
ATOM      9  O   UNL A   1      31.224  27.240  27.288  1.00  0.00    -0.246 OA
BRANCH   8  10
ATOM     10  C   UNL A   1      31.635  27.533  24.944  1.00  0.00     0.061 A 
ATOM     11  C   UNL A   1      32.051  25.790  23.321  1.00  0.00     0.119 A 
ATOM     12  C   UNL A   1      32.147  26.269  24.635  1.00  0.00     0.040 A 
ATOM     13  C   UNL A   1      31.449  26.562  22.335  1.00  0.00     0.143 A 
ATOM     14  C   UNL A   1      30.967  27.833  22.634  1.00  0.00     0.041 A 
ATOM     15  F   UNL A   1      31.350  26.131  21.071  1.00  0.00    -0.206 F 
ATOM     16  C   UNL A   1      31.052  28.320  23.939  1.00  0.00     0.019 A 
BRANCH  11  17
ATOM     17  S   UNL A   1      32.628  24.166  22.947  1.00  0.00     0.246 S 
ATOM     18  O   UNL A   1      33.543  24.210  21.828  1.00  0.00    -0.207 OA
ATOM     19  O   UNL A   1      31.462  23.308  22.898  1.00  0.00    -0.207 OA
BRANCH  17  20
ATOM     20  N   UNL A   1      33.518  23.756  24.349  1.00  0.00    -0.197 NA
ATOM     21  C   UNL A   1      33.774  22.200  26.244  1.00  0.00     0.004 C 
ATOM     22  C   UNL A   1      35.248  22.609  26.371  1.00  0.00     0.006 C 
ATOM     23  C   UNL A   1      33.299  22.359  24.795  1.00  0.00     0.106 C 
ATOM     24  C   UNL A   1      35.585  23.938  25.698  1.00  0.00     0.017 C 
ATOM     25  C   UNL A   1      34.967  24.088  24.311  1.00  0.00     0.102 C 
BRANCH  21  26
ATOM     26  C   UNL A   1      32.815  22.848  27.270  1.00  0.00     0.001 C 
ATOM     27  C   UNL A   1      31.491  23.410  26.772  1.00  0.00     0.004 C 
ENDBRANCH  21  26
ENDBRANCH  17  20
ENDBRANCH  11  17
ENDBRANCH   8  10
ENDBRANCH   7   8
ENDBRANCH   6   7
ENDBRANCH   5   6
ENDBRANCH   4   5
ENDBRANCH   3   4
ENDBRANCH   2   3
ENDBRANCH   1   2
BRANCH   1  28
ATOM     28  C   UNL A   1      34.074  35.290  31.246  1.00  0.00     0.188 C 
BRANCH  28  29
ATOM     29  C   UNL A   1      33.802  35.567  32.746  1.00  0.00     0.188 C 
BRANCH  29  30
ATOM     30  O   UNL A   1      34.961  35.606  33.566  1.00  0.00    -0.376 OA
BRANCH  30  31
ATOM     31  C   UNL A   1      35.222  34.505  34.419  1.00  0.00     0.202 C 
BRANCH  31  32
ATOM     32  C   UNL A   1      36.618  33.876  34.313  1.00  0.00     0.261 C 
BRANCH  32  33
ATOM     33  O   UNL A   1      36.843  33.044  33.166  1.00  0.00    -0.460 OA
BRANCH  33  34
ATOM     34  C   UNL A   1      37.603  33.565  32.176  1.00  0.00     0.338 C 
ATOM     35  O   UNL A   1      37.488  34.664  31.668  1.00  0.00    -0.246 OA
BRANCH  34  36
ATOM     36  C   UNL A   1      38.724  32.633  31.937  1.00  0.00     0.060 A 
ATOM     37  C   UNL A   1      38.696  31.368  32.536  1.00  0.00     0.016 A 
ATOM     38  C   UNL A   1      39.795  33.009  31.121  1.00  0.00     0.016 A 
ATOM     39  C   UNL A   1      39.762  30.487  32.351  1.00  0.00     0.010 A 
ATOM     40  C   UNL A   1      40.869  32.133  30.952  1.00  0.00     0.010 A 
ATOM     41  C   UNL A   1      40.875  30.882  31.595  1.00  0.00    -0.014 A 
BRANCH  41  42
ATOM     42  C   UNL A   1      42.121  30.078  31.639  1.00  0.00     0.031 A 
ATOM     43  C   UNL A   1      43.075  30.308  32.781  1.00  0.00     0.074 A 
ATOM     44  C   UNL A   1      42.387  29.141  30.711  1.00  0.00     0.049 A 
ATOM     45  N   UNL A   1      44.248  29.776  33.001  1.00  0.00    -0.248 NA
ATOM     46  C   UNL A   1      42.647  31.270  33.811  1.00  0.00     0.031 C 
ATOM     47  C   UNL A   1      41.511  28.783  29.597  1.00  0.00     0.029 A 
ATOM     48  N   UNL A   1      43.475  28.317  30.562  1.00  0.00    -0.354 N 
ATOM     49  C   UNL A   1      44.699  30.336  34.190  1.00  0.00     0.074 A 
ATOM     50  C   UNL A   1      43.690  31.276  34.628  1.00  0.00     0.031 C 
ATOM     51  C   UNL A   1      42.097  27.807  28.880  1.00  0.00     0.029 A 
ATOM     52  C   UNL A   1      43.407  27.503  29.456  1.00  0.00     0.049 A 
ATOM     53  H   UNL A   1      44.235  28.309  31.189  1.00  0.00     0.167 HD
ATOM     54  C   UNL A   1      45.846  30.082  34.863  1.00  0.00     0.034 A 
ATOM     55  C   UNL A   1      44.306  26.632  28.951  1.00  0.00     0.034 A 
ATOM     56  C   UNL A   1      46.843  29.142  34.421  1.00  0.00     0.049 A 
ATOM     57  C   UNL A   1      45.626  26.442  29.661  1.00  0.00     0.074 A 
ATOM     58  C   UNL A   1      48.036  28.807  35.035  1.00  0.00     0.029 A 
ATOM     59  N   UNL A   1      46.770  28.395  33.254  1.00  0.00    -0.354 N 
ATOM     60  N   UNL A   1      46.053  27.001  30.769  1.00  0.00    -0.248 NA
ATOM     61  C   UNL A   1      46.585  25.509  29.051  1.00  0.00     0.031 C 
ATOM     62  C   UNL A   1      48.718  27.914  34.204  1.00  0.00     0.029 A 
ATOM     63  C   UNL A   1      47.914  27.628  33.113  1.00  0.00     0.049 A 
ATOM     64  H   UNL A   1      46.016  28.408  32.620  1.00  0.00     0.167 HD
ATOM     65  C   UNL A   1      47.319  26.469  31.001  1.00  0.00     0.074 A 
ATOM     66  C   UNL A   1      47.587  25.544  29.920  1.00  0.00     0.031 C 
ATOM     67  C   UNL A   1      48.175  26.718  32.024  1.00  0.00     0.034 A 
BRANCH  54  68
ATOM     68  C   UNL A   1      46.106  30.855  36.128  1.00  0.00     0.023 A 
ATOM     69  C   UNL A   1      45.518  30.489  37.350  1.00  0.00     0.031 A 
ATOM     70  C   UNL A   1      46.983  31.954  36.115  1.00  0.00     0.131 A 
ATOM     71  C   UNL A   1      45.791  31.237  38.506  1.00  0.00     0.055 A 
ATOM     72  C   UNL A   1      47.299  32.656  37.278  1.00  0.00     0.041 A 
ATOM     73  F   UNL A   1      47.553  32.357  34.968  1.00  0.00    -0.206 F 
ATOM     74  C   UNL A   1      46.698  32.301  38.483  1.00  0.00     0.022 A 
BRANCH  71  75
ATOM     75  S   UNL A   1      44.893  30.844  40.030  1.00  0.00     0.124 S 
ATOM     76  O   UNL A   1      45.075  29.397  40.113  1.00  0.00    -0.237 OA
ATOM     77  O   UNL A   1      45.599  31.636  41.029  1.00  0.00    -0.237 OA
ATOM     78  O   UNL A   1      43.527  31.277  39.742  1.00  0.00    -0.744 OA
ENDBRANCH  71  75
ENDBRANCH  54  68
BRANCH  55  79
ATOM     79  C   UNL A   1      44.006  25.900  27.690  1.00  0.00     0.023 A 
ATOM     80  C   UNL A   1      43.310  24.681  27.706  1.00  0.00     0.031 A 
ATOM     81  C   UNL A   1      44.414  26.411  26.445  1.00  0.00     0.131 A 
ATOM     82  C   UNL A   1      43.057  24.006  26.500  1.00  0.00     0.055 A 
ATOM     83  C   UNL A   1      44.126  25.757  25.247  1.00  0.00     0.041 A 
ATOM     84  F   UNL A   1      45.083  27.574  26.376  1.00  0.00    -0.206 F 
ATOM     85  C   UNL A   1      43.447  24.544  25.270  1.00  0.00     0.022 A 
BRANCH  82  86
ATOM     86  S   UNL A   1      42.227  22.394  26.558  1.00  0.00     0.124 S 
ATOM     87  O   UNL A   1      42.579  21.927  27.894  1.00  0.00    -0.237 OA
ATOM     88  O   UNL A   1      40.830  22.763  26.353  1.00  0.00    -0.237 OA
ATOM     89  O   UNL A   1      42.841  21.656  25.456  1.00  0.00    -0.744 OA
ENDBRANCH  82  86
ENDBRANCH  55  79
BRANCH  67  90
ATOM     90  C   UNL A   1      49.478  25.961  32.055  1.00  0.00     0.023 A 
ATOM     91  C   UNL A   1      49.614  24.756  32.765  1.00  0.00     0.031 A 
ATOM     92  C   UNL A   1      50.571  26.411  31.292  1.00  0.00     0.131 A 
ATOM     93  C   UNL A   1      50.825  24.050  32.710  1.00  0.00     0.055 A 
ATOM     94  C   UNL A   1      51.755  25.680  31.203  1.00  0.00     0.041 A 
ATOM     95  F   UNL A   1      50.489  27.553  30.590  1.00  0.00    -0.206 F 
ATOM     96  C   UNL A   1      51.888  24.493  31.918  1.00  0.00     0.022 A 
BRANCH  93  97
ATOM     97  S   UNL A   1      51.004  22.546  33.707  1.00  0.00     0.124 S 
ATOM     98  O   UNL A   1      49.831  22.617  34.574  1.00  0.00    -0.237 OA
ATOM     99  O   UNL A   1      50.989  21.492  32.699  1.00  0.00    -0.237 OA
ATOM    100  O   UNL A   1      52.286  22.734  34.385  1.00  0.00    -0.744 OA
ENDBRANCH  93  97
ENDBRANCH  67  90
ENDBRANCH  41  42
ENDBRANCH  34  36
ENDBRANCH  33  34
ENDBRANCH  32  33
ENDBRANCH  31  32
ENDBRANCH  30  31
ENDBRANCH  29  30
ENDBRANCH  28  29
ENDBRANCH   1  28
TORSDOF 26
ENDMDL
MODEL 2
REMARK VINA RESULT:      -8.6      4.780      8.369
REMARK SMILES CC[C@@H]1CCCN(S(=O)(=O)c2cc(C(=O)OCCOCCOCCOCCOC(=O)c3ccc(-c4c5nc(c(-c6cc(S(=O)(=O)[O-])ccc6F)c6ccc([nH]6)c(-c6cc(S(=O)(=O)[O-])ccc6F)c6nc(c(-c7cc(S(=O)(=O)[O-])ccc7F)c7ccc4[nH]7)C=C6)C=C5)cc3)ccc2F)C1
REMARK SMILES IDX 22 1 21 2 20 3 19 4 18 5 17 6 16 7 14 8 15 9 13 10 11 11
REMARK SMILES IDX 12 12 96 13 95 14 97 15 94 16 8 17 9 18 10 19 7 20 3 21 4 22
REMARK SMILES IDX 98 23 5 24 6 25 2 26 1 27 23 28 24 29 25 30 26 31 27 32
REMARK SMILES IDX 28 33 29 34 30 35 31 36 32 37 93 38 33 39 92 40 34 41 35 42
REMARK SMILES IDX 36 43 86 44 37 45 91 46 85 47 87 48 38 49 90 50 84 51 83 52
REMARK SMILES IDX 39 54 71 55 51 56 70 57 52 58 55 59 69 60 88 61 53 62 54 63
REMARK SMILES IDX 68 65 89 66 56 67 40 68 41 69 49 70 42 71 48 72 50 73 47 74
REMARK SMILES IDX 43 75 44 76 45 77 46 78 72 79 73 80 81 81 74 82 80 83 82 84
REMARK SMILES IDX 79 85 75 86 76 87 77 88 78 89 57 90 58 91 66 92 59 93 65 94
REMARK SMILES IDX 67 95 64 96 60 97 61 98 62 99 63 100
REMARK H PARENT 87 53 55 64
REMARK Flexibility Score: inf
ROOT
ATOM      1  O   UNL A   1      33.612  31.381  26.971  1.00  0.00    -0.377 OA
ENDROOT
BRANCH   1   2
ATOM      2  C   UNL A   1      33.520  30.057  27.466  1.00  0.00     0.188 C 
BRANCH   2   3
ATOM      3  C   UNL A   1      34.812  29.232  27.313  1.00  0.00     0.188 C 
BRANCH   3   4
ATOM      4  O   UNL A   1      35.976  30.003  27.093  1.00  0.00    -0.376 OA
BRANCH   4   5
ATOM      5  C   UNL A   1      37.102  29.935  27.950  1.00  0.00     0.202 C 
BRANCH   5   6
ATOM      6  C   UNL A   1      37.184  29.164  29.282  1.00  0.00     0.261 C 
BRANCH   6   7
ATOM      7  O   UNL A   1      38.335  28.359  29.523  1.00  0.00    -0.460 OA
BRANCH   7   8
ATOM      8  C   UNL A   1      39.486  28.686  28.898  1.00  0.00     0.338 C 
ATOM      9  O   UNL A   1      40.142  29.694  29.034  1.00  0.00    -0.246 OA
BRANCH   8  10
ATOM     10  C   UNL A   1      39.936  27.464  28.180  1.00  0.00     0.061 A 
ATOM     11  C   UNL A   1      41.439  26.465  26.570  1.00  0.00     0.119 A 
ATOM     12  C   UNL A   1      40.875  27.609  27.153  1.00  0.00     0.040 A 
ATOM     13  C   UNL A   1      41.072  25.200  27.009  1.00  0.00     0.143 A 
ATOM     14  C   UNL A   1      40.114  25.053  28.009  1.00  0.00     0.041 A 
ATOM     15  F   UNL A   1      41.590  24.092  26.465  1.00  0.00    -0.206 F 
ATOM     16  C   UNL A   1      39.549  26.183  28.602  1.00  0.00     0.019 A 
BRANCH  11  17
ATOM     17  S   UNL A   1      42.679  26.649  25.330  1.00  0.00     0.246 S 
ATOM     18  O   UNL A   1      42.490  27.895  24.620  1.00  0.00    -0.207 OA
ATOM     19  O   UNL A   1      42.729  25.398  24.599  1.00  0.00    -0.207 OA
BRANCH  17  20
ATOM     20  N   UNL A   1      44.113  26.771  26.253  1.00  0.00    -0.197 NA
ATOM     21  C   UNL A   1      46.167  25.646  27.026  1.00  0.00     0.004 C 
ATOM     22  C   UNL A   1      46.818  27.016  27.264  1.00  0.00     0.006 C 
ATOM     23  C   UNL A   1      45.122  25.740  25.907  1.00  0.00     0.106 C 
ATOM     24  C   UNL A   1      45.821  28.167  27.375  1.00  0.00     0.017 C 
ATOM     25  C   UNL A   1      44.727  28.124  26.312  1.00  0.00     0.102 C 
BRANCH  21  26
ATOM     26  C   UNL A   1      45.636  24.934  28.292  1.00  0.00     0.001 C 
ATOM     27  C   UNL A   1      44.579  23.851  28.126  1.00  0.00     0.004 C 
ENDBRANCH  21  26
ENDBRANCH  17  20
ENDBRANCH  11  17
ENDBRANCH   8  10
ENDBRANCH   7   8
ENDBRANCH   6   7
ENDBRANCH   5   6
ENDBRANCH   4   5
ENDBRANCH   3   4
ENDBRANCH   2   3
ENDBRANCH   1   2
BRANCH   1  28
ATOM     28  C   UNL A   1      33.730  32.456  27.905  1.00  0.00     0.188 C 
BRANCH  28  29
ATOM     29  C   UNL A   1      34.995  33.345  27.997  1.00  0.00     0.188 C 
BRANCH  29  30
ATOM     30  O   UNL A   1      35.250  33.889  29.283  1.00  0.00    -0.376 OA
BRANCH  30  31
ATOM     31  C   UNL A   1      34.214  34.609  29.929  1.00  0.00     0.202 C 
BRANCH  31  32
ATOM     32  C   UNL A   1      34.094  34.417  31.447  1.00  0.00     0.261 C 
BRANCH  32  33
ATOM     33  O   UNL A   1      34.434  33.114  31.941  1.00  0.00    -0.460 OA
BRANCH  33  34
ATOM     34  C   UNL A   1      35.113  33.063  33.110  1.00  0.00     0.338 C 
ATOM     35  O   UNL A   1      34.651  33.182  34.228  1.00  0.00    -0.246 OA
BRANCH  34  36
ATOM     36  C   UNL A   1      36.499  32.652  32.803  1.00  0.00     0.060 A 
ATOM     37  C   UNL A   1      37.517  32.958  33.713  1.00  0.00     0.016 A 
ATOM     38  C   UNL A   1      36.786  31.963  31.621  1.00  0.00     0.016 A 
ATOM     39  C   UNL A   1      38.837  32.610  33.424  1.00  0.00     0.010 A 
ATOM     40  C   UNL A   1      38.110  31.631  31.325  1.00  0.00     0.010 A 
ATOM     41  C   UNL A   1      39.146  31.985  32.208  1.00  0.00    -0.014 A 
BRANCH  41  42
ATOM     42  C   UNL A   1      40.560  31.881  31.770  1.00  0.00     0.031 A 
ATOM     43  C   UNL A   1      41.147  33.025  30.986  1.00  0.00     0.074 A 
ATOM     44  C   UNL A   1      41.318  30.816  32.087  1.00  0.00     0.049 A 
ATOM     45  N   UNL A   1      42.331  33.138  30.446  1.00  0.00    -0.248 NA
ATOM     46  C   UNL A   1      40.279  34.197  30.786  1.00  0.00     0.031 C 
ATOM     47  C   UNL A   1      40.881  29.679  32.895  1.00  0.00     0.029 A 
ATOM     48  N   UNL A   1      42.621  30.521  31.767  1.00  0.00    -0.354 N 
ATOM     49  C   UNL A   1      42.351  34.389  29.841  1.00  0.00     0.074 A 
ATOM     50  C   UNL A   1      41.050  34.984  30.050  1.00  0.00     0.031 C 
ATOM     51  C   UNL A   1      41.902  28.809  33.009  1.00  0.00     0.029 A 
ATOM     52  C   UNL A   1      43.048  29.306  32.247  1.00  0.00     0.049 A 
ATOM     53  H   UNL A   1      43.196  31.124  31.242  1.00  0.00     0.167 HD
ATOM     54  C   UNL A   1      43.368  34.991  29.180  1.00  0.00     0.034 A 
ATOM     55  C   UNL A   1      44.219  28.656  32.072  1.00  0.00     0.034 A 
ATOM     56  C   UNL A   1      44.661  34.391  28.979  1.00  0.00     0.049 A 
ATOM     57  C   UNL A   1      45.302  29.302  31.241  1.00  0.00     0.074 A 
ATOM     58  C   UNL A   1      45.760  34.923  28.330  1.00  0.00     0.029 A 
ATOM     59  N   UNL A   1      45.027  33.126  29.415  1.00  0.00    -0.354 N 
ATOM     60  N   UNL A   1      45.298  30.473  30.649  1.00  0.00    -0.248 NA
ATOM     61  C   UNL A   1      46.544  28.538  31.051  1.00  0.00     0.031 C 
ATOM     62  C   UNL A   1      46.765  33.953  28.308  1.00  0.00     0.029 A 
ATOM     63  C   UNL A   1      46.324  32.847  29.017  1.00  0.00     0.049 A 
ATOM     64  H   UNL A   1      44.451  32.517  29.932  1.00  0.00     0.167 HD
ATOM     65  C   UNL A   1      46.542  30.596  30.037  1.00  0.00     0.074 A 
ATOM     66  C   UNL A   1      47.274  29.381  30.332  1.00  0.00     0.031 C 
ATOM     67  C   UNL A   1      47.038  31.627  29.307  1.00  0.00     0.034 A 
BRANCH  54  68
ATOM     68  C   UNL A   1      43.114  36.354  28.592  1.00  0.00     0.023 A 
ATOM     69  C   UNL A   1      43.376  37.529  29.314  1.00  0.00     0.031 A 
ATOM     70  C   UNL A   1      42.637  36.475  27.275  1.00  0.00     0.131 A 
ATOM     71  C   UNL A   1      43.128  38.779  28.725  1.00  0.00     0.055 A 
ATOM     72  C   UNL A   1      42.451  37.720  26.673  1.00  0.00     0.041 A 
ATOM     73  F   UNL A   1      42.351  35.383  26.550  1.00  0.00    -0.206 F 
ATOM     74  C   UNL A   1      42.692  38.882  27.401  1.00  0.00     0.022 A 
BRANCH  71  75
ATOM     75  S   UNL A   1      43.318  40.271  29.737  1.00  0.00     0.124 S 
ATOM     76  O   UNL A   1      44.361  40.989  29.009  1.00  0.00    -0.237 OA
ATOM     77  O   UNL A   1      41.984  40.858  29.689  1.00  0.00    -0.237 OA
ATOM     78  O   UNL A   1      43.723  39.750  31.041  1.00  0.00    -0.744 OA
ENDBRANCH  71  75
ENDBRANCH  54  68
BRANCH  55  79
ATOM     79  C   UNL A   1      44.415  27.305  32.665  1.00  0.00     0.023 A 
ATOM     80  C   UNL A   1      44.839  27.149  33.994  1.00  0.00     0.031 A 
ATOM     81  C   UNL A   1      44.183  26.144  31.906  1.00  0.00     0.131 A 
ATOM     82  C   UNL A   1      45.032  25.860  34.519  1.00  0.00     0.055 A 
ATOM     83  C   UNL A   1      44.337  24.866  32.444  1.00  0.00     0.041 A 
ATOM     84  F   UNL A   1      43.776  26.239  30.629  1.00  0.00    -0.206 F 
ATOM     85  C   UNL A   1      44.769  24.719  33.758  1.00  0.00     0.022 A 
BRANCH  82  86
ATOM     86  S   UNL A   1      45.657  25.692  36.214  1.00  0.00     0.124 S 
ATOM     87  O   UNL A   1      47.060  26.054  36.049  1.00  0.00    -0.237 OA
ATOM     88  O   UNL A   1      44.827  26.648  36.941  1.00  0.00    -0.237 OA
ATOM     89  O   UNL A   1      45.406  24.287  36.530  1.00  0.00    -0.744 OA
ENDBRANCH  82  86
ENDBRANCH  55  79
BRANCH  67  90
ATOM     90  C   UNL A   1      48.451  31.516  28.794  1.00  0.00     0.023 A 
ATOM     91  C   UNL A   1      49.555  31.842  29.599  1.00  0.00     0.031 A 
ATOM     92  C   UNL A   1      48.694  30.995  27.510  1.00  0.00     0.131 A 
ATOM     93  C   UNL A   1      50.855  31.658  29.104  1.00  0.00     0.055 A 
ATOM     94  C   UNL A   1      49.988  30.770  27.042  1.00  0.00     0.041 A 
ATOM     95  F   UNL A   1      47.672  30.661  26.705  1.00  0.00    -0.206 F 
ATOM     96  C   UNL A   1      51.078  31.106  27.840  1.00  0.00     0.022 A 
BRANCH  93  97
ATOM     97  S   UNL A   1      52.260  32.172  30.129  1.00  0.00     0.124 S 
ATOM     98  O   UNL A   1      53.212  32.636  29.124  1.00  0.00    -0.237 OA
ATOM     99  O   UNL A   1      51.673  33.205  30.976  1.00  0.00    -0.237 OA
ATOM    100  O   UNL A   1      52.643  30.946  30.825  1.00  0.00    -0.744 OA
ENDBRANCH  93  97
ENDBRANCH  67  90
ENDBRANCH  41  42
ENDBRANCH  34  36
ENDBRANCH  33  34
ENDBRANCH  32  33
ENDBRANCH  31  32
ENDBRANCH  30  31
ENDBRANCH  29  30
ENDBRANCH  28  29
ENDBRANCH   1  28
TORSDOF 26
ENDMDL
MODEL 3
REMARK VINA RESULT:      -8.6      5.959      7.462
REMARK SMILES CC[C@@H]1CCCN(S(=O)(=O)c2cc(C(=O)OCCOCCOCCOCCOC(=O)c3ccc(-c4c5nc(c(-c6cc(S(=O)(=O)[O-])ccc6F)c6ccc([nH]6)c(-c6cc(S(=O)(=O)[O-])ccc6F)c6nc(c(-c7cc(S(=O)(=O)[O-])ccc7F)c7ccc4[nH]7)C=C6)C=C5)cc3)ccc2F)C1
REMARK SMILES IDX 22 1 21 2 20 3 19 4 18 5 17 6 16 7 14 8 15 9 13 10 11 11
REMARK SMILES IDX 12 12 96 13 95 14 97 15 94 16 8 17 9 18 10 19 7 20 3 21 4 22
REMARK SMILES IDX 98 23 5 24 6 25 2 26 1 27 23 28 24 29 25 30 26 31 27 32
REMARK SMILES IDX 28 33 29 34 30 35 31 36 32 37 93 38 33 39 92 40 34 41 35 42
REMARK SMILES IDX 36 43 86 44 37 45 91 46 85 47 87 48 38 49 90 50 84 51 83 52
REMARK SMILES IDX 39 54 71 55 51 56 70 57 52 58 55 59 69 60 88 61 53 62 54 63
REMARK SMILES IDX 68 65 89 66 56 67 40 68 41 69 49 70 42 71 48 72 50 73 47 74
REMARK SMILES IDX 43 75 44 76 45 77 46 78 72 79 73 80 81 81 74 82 80 83 82 84
REMARK SMILES IDX 79 85 75 86 76 87 77 88 78 89 57 90 58 91 66 92 59 93 65 94
REMARK SMILES IDX 67 95 64 96 60 97 61 98 62 99 63 100
REMARK H PARENT 87 53 55 64
REMARK Flexibility Score: inf
ROOT
ATOM      1  O   UNL A   1      33.572  36.379  30.457  1.00  0.00    -0.377 OA
ENDROOT
BRANCH   1   2
ATOM      2  C   UNL A   1      32.979  35.855  29.282  1.00  0.00     0.188 C 
BRANCH   2   3
ATOM      3  C   UNL A   1      33.820  34.772  28.579  1.00  0.00     0.188 C 
BRANCH   3   4
ATOM      4  O   UNL A   1      33.138  33.555  28.355  1.00  0.00    -0.376 OA
BRANCH   4   5
ATOM      5  C   UNL A   1      33.780  32.419  27.801  1.00  0.00     0.202 C 
BRANCH   5   6
ATOM      6  C   UNL A   1      33.107  31.076  27.454  1.00  0.00     0.261 C 
BRANCH   6   7
ATOM      7  O   UNL A   1      33.720  30.253  26.465  1.00  0.00    -0.460 OA
BRANCH   7   8
ATOM      8  C   UNL A   1      34.348  29.129  26.868  1.00  0.00     0.338 C 
ATOM      9  O   UNL A   1      35.363  29.041  27.522  1.00  0.00    -0.246 OA
BRANCH   8  10
ATOM     10  C   UNL A   1      33.427  28.001  26.562  1.00  0.00     0.061 A 
ATOM     11  C   UNL A   1      33.154  25.646  26.085  1.00  0.00     0.119 A 
ATOM     12  C   UNL A   1      33.987  26.766  26.217  1.00  0.00     0.040 A 
ATOM     13  C   UNL A   1      31.787  25.760  26.297  1.00  0.00     0.143 A 
ATOM     14  C   UNL A   1      31.224  26.994  26.610  1.00  0.00     0.041 A 
ATOM     15  F   UNL A   1      30.968  24.708  26.171  1.00  0.00    -0.206 F 
ATOM     16  C   UNL A   1      32.042  28.116  26.750  1.00  0.00     0.019 A 
BRANCH  11  17
ATOM     17  S   UNL A   1      33.868  24.075  25.724  1.00  0.00     0.246 S 
ATOM     18  O   UNL A   1      33.323  23.067  26.607  1.00  0.00    -0.207 OA
ATOM     19  O   UNL A   1      35.302  24.274  25.647  1.00  0.00    -0.207 OA
BRANCH  17  20
ATOM     20  N   UNL A   1      33.300  23.763  24.141  1.00  0.00    -0.197 NA
ATOM     21  C   UNL A   1      33.138  24.566  21.816  1.00  0.00     0.004 C 
ATOM     22  C   UNL A   1      32.933  23.122  21.339  1.00  0.00     0.006 C 
ATOM     23  C   UNL A   1      33.967  24.590  23.106  1.00  0.00     0.106 C 
ATOM     24  C   UNL A   1      32.485  22.161  22.439  1.00  0.00     0.017 C 
ATOM     25  C   UNL A   1      33.261  22.331  23.742  1.00  0.00     0.102 C 
BRANCH  21  26
ATOM     26  C   UNL A   1      31.854  25.424  21.906  1.00  0.00     0.001 C 
ATOM     27  C   UNL A   1      31.907  26.730  22.685  1.00  0.00     0.004 C 
ENDBRANCH  21  26
ENDBRANCH  17  20
ENDBRANCH  11  17
ENDBRANCH   8  10
ENDBRANCH   7   8
ENDBRANCH   6   7
ENDBRANCH   5   6
ENDBRANCH   4   5
ENDBRANCH   3   4
ENDBRANCH   2   3
ENDBRANCH   1   2
BRANCH   1  28
ATOM     28  C   UNL A   1      33.055  35.974  31.726  1.00  0.00     0.188 C 
BRANCH  28  29
ATOM     29  C   UNL A   1      33.934  35.289  32.804  1.00  0.00     0.188 C 
BRANCH  29  30
ATOM     30  O   UNL A   1      33.650  33.915  33.020  1.00  0.00    -0.376 OA
BRANCH  30  31
ATOM     31  C   UNL A   1      34.165  32.966  32.103  1.00  0.00     0.202 C 
BRANCH  31  32
ATOM     32  C   UNL A   1      35.660  33.079  31.772  1.00  0.00     0.261 C 
BRANCH  32  33
ATOM     33  O   UNL A   1      36.140  32.201  30.744  1.00  0.00    -0.460 OA
BRANCH  33  34
ATOM     34  C   UNL A   1      36.718  31.047  31.150  1.00  0.00     0.338 C 
ATOM     35  O   UNL A   1      36.152  30.042  31.534  1.00  0.00    -0.246 OA
BRANCH  34  36
ATOM     36  C   UNL A   1      38.166  31.153  30.872  1.00  0.00     0.060 A 
ATOM     37  C   UNL A   1      39.027  31.562  31.896  1.00  0.00     0.016 A 
ATOM     38  C   UNL A   1      38.667  30.843  29.604  1.00  0.00     0.016 A 
ATOM     39  C   UNL A   1      40.392  31.702  31.643  1.00  0.00     0.010 A 
ATOM     40  C   UNL A   1      40.031  31.002  29.348  1.00  0.00     0.010 A 
ATOM     41  C   UNL A   1      40.894  31.466  30.356  1.00  0.00    -0.014 A 
BRANCH  41  42
ATOM     42  C   UNL A   1      42.273  31.892  30.011  1.00  0.00     0.031 A 
ATOM     43  C   UNL A   1      42.516  33.351  29.728  1.00  0.00     0.074 A 
ATOM     44  C   UNL A   1      43.294  31.017  29.982  1.00  0.00     0.049 A 
ATOM     45  N   UNL A   1      43.613  33.950  29.348  1.00  0.00    -0.248 NA
ATOM     46  C   UNL A   1      41.364  34.253  29.896  1.00  0.00     0.031 C 
ATOM     47  C   UNL A   1      43.195  29.593  30.301  1.00  0.00     0.029 A 
ATOM     48  N   UNL A   1      44.619  31.201  29.672  1.00  0.00    -0.354 N 
ATOM     49  C   UNL A   1      43.286  35.296  29.230  1.00  0.00     0.074 A 
ATOM     50  C   UNL A   1      41.880  35.422  29.544  1.00  0.00     0.031 C 
ATOM     51  C   UNL A   1      44.411  29.033  30.171  1.00  0.00     0.029 A 
ATOM     52  C   UNL A   1      45.364  30.047  29.718  1.00  0.00     0.049 A 
ATOM     53  H   UNL A   1      45.000  32.078  29.437  1.00  0.00     0.167 HD
ATOM     54  C   UNL A   1      44.089  36.334  28.900  1.00  0.00     0.034 A 
ATOM     55  C   UNL A   1      46.660  29.827  29.408  1.00  0.00     0.034 A 
ATOM     56  C   UNL A   1      45.489  36.200  28.591  1.00  0.00     0.049 A 
ATOM     57  C   UNL A   1      47.512  30.983  28.940  1.00  0.00     0.074 A 
ATOM     58  C   UNL A   1      46.391  37.192  28.253  1.00  0.00     0.029 A 
ATOM     59  N   UNL A   1      46.188  35.001  28.575  1.00  0.00    -0.354 N 
ATOM     60  N   UNL A   1      47.182  32.246  28.803  1.00  0.00    -0.248 NA
ATOM     61  C   UNL A   1      48.905  30.684  28.580  1.00  0.00     0.031 C 
ATOM     62  C   UNL A   1      47.615  36.587  27.960  1.00  0.00     0.029 A 
ATOM     63  C   UNL A   1      47.500  35.226  28.197  1.00  0.00     0.049 A 
ATOM     64  H   UNL A   1      45.807  34.122  28.800  1.00  0.00     0.167 HD
ATOM     65  C   UNL A   1      48.333  32.895  28.365  1.00  0.00     0.074 A 
ATOM     66  C   UNL A   1      49.367  31.886  28.261  1.00  0.00     0.031 C 
ATOM     67  C   UNL A   1      48.519  34.210  28.085  1.00  0.00     0.034 A 
BRANCH  54  68
ATOM     68  C   UNL A   1      43.469  37.704  28.818  1.00  0.00     0.023 A 
ATOM     69  C   UNL A   1      43.443  38.570  29.923  1.00  0.00     0.031 A 
ATOM     70  C   UNL A   1      42.929  38.161  27.603  1.00  0.00     0.131 A 
ATOM     71  C   UNL A   1      42.857  39.839  29.800  1.00  0.00     0.055 A 
ATOM     72  C   UNL A   1      42.403  39.446  27.470  1.00  0.00     0.041 A 
ATOM     73  F   UNL A   1      42.909  37.364  26.523  1.00  0.00    -0.206 F 
ATOM     74  C   UNL A   1      42.361  40.293  28.574  1.00  0.00     0.022 A 
BRANCH  71  75
ATOM     75  S   UNL A   1      42.690  40.868  31.282  1.00  0.00     0.124 S 
ATOM     76  O   UNL A   1      42.968  39.903  32.343  1.00  0.00    -0.237 OA
ATOM     77  O   UNL A   1      43.702  41.896  31.072  1.00  0.00    -0.237 OA
ATOM     78  O   UNL A   1      41.306  41.334  31.221  1.00  0.00    -0.744 OA
ENDBRANCH  71  75
ENDBRANCH  54  68
BRANCH  55  79
ATOM     79  C   UNL A   1      47.222  28.451  29.495  1.00  0.00     0.023 A 
ATOM     80  C   UNL A   1      47.353  27.646  28.352  1.00  0.00     0.031 A 
ATOM     81  C   UNL A   1      47.636  27.918  30.729  1.00  0.00     0.131 A 
ATOM     82  C   UNL A   1      47.872  26.346  28.470  1.00  0.00     0.055 A 
ATOM     83  C   UNL A   1      48.188  26.641  30.835  1.00  0.00     0.041 A 
ATOM     84  F   UNL A   1      47.532  28.648  31.851  1.00  0.00    -0.206 F 
ATOM     85  C   UNL A   1      48.304  25.845  29.701  1.00  0.00     0.022 A 
BRANCH  82  86
ATOM     86  S   UNL A   1      47.955  25.300  26.990  1.00  0.00     0.124 S 
ATOM     87  O   UNL A   1      47.373  24.054  27.474  1.00  0.00    -0.237 OA
ATOM     88  O   UNL A   1      47.149  26.058  26.037  1.00  0.00    -0.237 OA
ATOM     89  O   UNL A   1      49.384  25.249  26.689  1.00  0.00    -0.744 OA
ENDBRANCH  82  86
ENDBRANCH  55  79
BRANCH  67  90
ATOM     90  C   UNL A   1      49.896  34.657  27.668  1.00  0.00     0.023 A 
ATOM     91  C   UNL A   1      50.340  34.536  26.341  1.00  0.00     0.031 A 
ATOM     92  C   UNL A   1      50.742  35.290  28.597  1.00  0.00     0.131 A 
ATOM     93  C   UNL A   1      51.605  35.027  25.983  1.00  0.00     0.055 A 
ATOM     94  C   UNL A   1      51.977  35.820  28.224  1.00  0.00     0.041 A 
ATOM     95  F   UNL A   1      50.361  35.437  29.877  1.00  0.00    -0.206 F 
ATOM     96  C   UNL A   1      52.416  35.686  26.911  1.00  0.00     0.022 A 
BRANCH  93  97
ATOM     97  S   UNL A   1      52.190  34.776  24.285  1.00  0.00     0.124 S 
ATOM     98  O   UNL A   1      51.460  33.575  23.888  1.00  0.00    -0.237 OA
ATOM     99  O   UNL A   1      51.788  36.013  23.625  1.00  0.00    -0.237 OA
ATOM    100  O   UNL A   1      53.632  34.600  24.442  1.00  0.00    -0.744 OA
ENDBRANCH  93  97
ENDBRANCH  67  90
ENDBRANCH  41  42
ENDBRANCH  34  36
ENDBRANCH  33  34
ENDBRANCH  32  33
ENDBRANCH  31  32
ENDBRANCH  30  31
ENDBRANCH  29  30
ENDBRANCH  28  29
ENDBRANCH   1  28
TORSDOF 26
ENDMDL
