MODEL 1
REMARK VINA RESULT:     -10.0      0.000      0.000
REMARK SMILES CN(C)S(=O)(=O)c1ccc(-n2c(CCC(=O)OCCOCCOCCOCCOC(=O)c3ccc(-c4c5nc(c(-c6cc(S(=O)(=O)[O-])ccc6F)c6ccc([nH]6)c(-c6cc(S(=O)(=O)[O-])ccc6F)c6nc(c(-c7cc(S(=O)(=O)[O-])ccc7F)c7ccc4[nH]7)C=C6)C=C5)cc3)ccc2-c2ccc(F)cc2)cc1
REMARK SMILES IDX 22 1 21 2 20 3 19 4 18 5 17 6 15 7 16 8 14 9 13 10 12 11
REMARK SMILES IDX 11 12 97 13 95 14 96 15 10 16 7 17 8 18 106 19 9 20 105 21
REMARK SMILES IDX 4 22 5 23 6 24 2 25 1 26 3 27 98 28 99 29 104 30 100 31
REMARK SMILES IDX 103 32 101 33 102 34 23 35 24 36 25 37 26 38 27 39 28 40
REMARK SMILES IDX 29 41 30 42 31 43 32 44 33 45 94 46 34 47 93 48 35 49 36 50
REMARK SMILES IDX 37 51 87 52 38 53 92 54 86 55 88 56 39 57 91 58 85 59 84 60
REMARK SMILES IDX 40 62 72 63 52 64 71 65 53 66 56 67 70 68 89 69 54 70 55 71
REMARK SMILES IDX 69 73 90 74 57 75 41 76 42 77 50 78 43 79 49 80 51 81 48 82
REMARK SMILES IDX 44 83 45 84 46 85 47 86 73 87 74 88 82 89 75 90 81 91 83 92
REMARK SMILES IDX 80 93 76 94 77 95 78 96 79 97 58 98 59 99 67 100 60 101
REMARK SMILES IDX 66 102 68 103 65 104 61 105 62 106 63 107 64 108
REMARK H PARENT 88 61 56 72
REMARK Flexibility Score: inf
ROOT
ATOM      1  C   UNL A   1      33.699  31.216  27.739  1.00  0.00     0.188 C 
ENDROOT
BRANCH   1   2
ATOM      2  C   UNL A   1      32.448  31.489  26.893  1.00  0.00     0.188 C 
BRANCH   2   3
ATOM      3  O   UNL A   1      32.356  30.466  25.733  1.00  0.00    -0.376 OA
BRANCH   3   4
ATOM      4  C   UNL A   1      31.255  29.606  24.308  1.00  0.00     0.202 C 
BRANCH   4   5
ATOM      5  C   UNL A   1      31.681  28.584  22.982  1.00  0.00     0.261 C 
BRANCH   5   6
ATOM      6  O   UNL A   1      31.829  27.150  23.189  1.00  0.00    -0.463 OA
BRANCH   6   7
ATOM      7  C   UNL A   1      33.090  26.646  23.088  1.00  0.00     0.306 C 
ATOM      8  O   UNL A   1      33.810  26.816  22.109  1.00  0.00    -0.252 OA
BRANCH   7   9
ATOM      9  C   UNL A   1      33.597  25.916  24.336  1.00  0.00     0.129 C 
BRANCH   9  10
ATOM     10  C   UNL A   1      34.672  24.824  24.243  1.00  0.00     0.066 C 
BRANCH  10  11
ATOM     11  C   UNL A   1      34.140  23.463  23.972  1.00  0.00     0.024 A 
ATOM     12  N   UNL A   1      34.746  22.270  24.355  1.00  0.00    -0.314 N 
ATOM     13  C   UNL A   1      33.806  21.242  24.114  1.00  0.00     0.053 A 
ATOM     14  C   UNL A   1      33.002  23.158  23.247  1.00  0.00     0.024 A 
ATOM     15  C   UNL A   1      32.798  21.775  23.328  1.00  0.00     0.029 A 
BRANCH  12  16
ATOM     16  C   UNL A   1      36.044  22.106  24.959  1.00  0.00     0.046 A 
ATOM     17  C   UNL A   1      39.331  22.042  26.453  1.00  0.00     0.082 A 
ATOM     18  C   UNL A   1      38.252  23.436  26.710  1.00  0.00     0.024 A 
ATOM     19  C   UNL A   1      38.838  20.662  25.406  1.00  0.00     0.024 A 
ATOM     20  C   UNL A   1      36.609  23.457  26.010  1.00  0.00     0.028 A 
ATOM     21  C   UNL A   1      37.160  20.665  24.679  1.00  0.00     0.028 A 
BRANCH  17  22
ATOM     22  S   UNL A   1      40.763  21.933  27.463  1.00  0.00     0.242 S 
ATOM     23  O   UNL A   1      40.551  20.873  28.410  1.00  0.00    -0.207 OA
ATOM     24  O   UNL A   1      41.084  23.288  27.889  1.00  0.00    -0.207 OA
BRANCH  22  25
ATOM     25  N   UNL A   1      41.981  21.427  26.368  1.00  0.00    -0.204 NA
ATOM     26  C   UNL A   1      41.715  20.092  25.782  1.00  0.00     0.124 C 
ATOM     27  C   UNL A   1      42.361  22.420  25.345  1.00  0.00     0.124 C 
ENDBRANCH  22  25
ENDBRANCH  17  22
ENDBRANCH  12  16
BRANCH  13  28
ATOM     28  C   UNL A   1      33.820  19.873  24.654  1.00  0.00    -0.001 A 
ATOM     29  C   UNL A   1      32.844  19.458  25.575  1.00  0.00     0.013 A 
ATOM     30  C   UNL A   1      34.796  18.952  24.236  1.00  0.00     0.013 A 
ATOM     31  C   UNL A   1      32.791  18.126  25.999  1.00  0.00     0.040 A 
ATOM     32  C   UNL A   1      34.736  17.620  24.652  1.00  0.00     0.040 A 
ATOM     33  C   UNL A   1      33.728  17.216  25.519  1.00  0.00     0.123 A 
ATOM     34  F   UNL A   1      33.655  15.931  25.888  1.00  0.00    -0.207 F 
ENDBRANCH  13  28
ENDBRANCH  10  11
ENDBRANCH   9  10
ENDBRANCH   7   9
ENDBRANCH   6   7
ENDBRANCH   5   6
ENDBRANCH   4   5
ENDBRANCH   3   4
ENDBRANCH   2   3
ENDBRANCH   1   2
BRANCH   1  35
ATOM     35  O   UNL A   1      34.167  32.253  28.593  1.00  0.00    -0.377 OA
BRANCH  35  36
ATOM     36  C   UNL A   1      34.138  33.585  28.116  1.00  0.00     0.188 C 
BRANCH  36  37
ATOM     37  C   UNL A   1      33.054  34.527  28.645  1.00  0.00     0.188 C 
BRANCH  37  38
ATOM     38  O   UNL A   1      33.006  34.936  30.000  1.00  0.00    -0.376 OA
BRANCH  38  39
ATOM     39  C   UNL A   1      33.915  34.454  30.976  1.00  0.00     0.202 C 
BRANCH  39  40
ATOM     40  C   UNL A   1      33.822  34.826  32.454  1.00  0.00     0.261 C 
BRANCH  40  41
ATOM     41  O   UNL A   1      33.999  33.731  33.339  1.00  0.00    -0.460 OA
BRANCH  41  42
ATOM     42  C   UNL A   1      35.245  33.229  33.282  1.00  0.00     0.338 C 
ATOM     43  O   UNL A   1      35.586  32.126  32.882  1.00  0.00    -0.246 OA
BRANCH  42  44
ATOM     44  C   UNL A   1      36.202  34.144  33.905  1.00  0.00     0.060 A 
ATOM     45  C   UNL A   1      37.329  34.398  33.113  1.00  0.00     0.016 A 
ATOM     46  C   UNL A   1      36.274  33.952  35.286  1.00  0.00     0.016 A 
ATOM     47  C   UNL A   1      38.561  34.117  33.652  1.00  0.00     0.010 A 
ATOM     48  C   UNL A   1      37.495  33.595  35.801  1.00  0.00     0.010 A 
ATOM     49  C   UNL A   1      38.616  33.622  34.960  1.00  0.00    -0.014 A 
BRANCH  49  50
ATOM     50  C   UNL A   1      39.931  33.277  35.497  1.00  0.00     0.031 A 
ATOM     51  C   UNL A   1      40.681  34.577  35.826  1.00  0.00     0.074 A 
ATOM     52  C   UNL A   1      40.237  31.937  35.524  1.00  0.00     0.049 A 
ATOM     53  N   UNL A   1      41.947  34.831  35.787  1.00  0.00    -0.248 NA
ATOM     54  C   UNL A   1      39.910  35.830  36.119  1.00  0.00     0.031 C 
ATOM     55  C   UNL A   1      39.318  30.831  35.130  1.00  0.00     0.029 A 
ATOM     56  N   UNL A   1      41.362  31.217  35.867  1.00  0.00    -0.354 N 
ATOM     57  C   UNL A   1      42.135  36.132  36.304  1.00  0.00     0.074 A 
ATOM     58  C   UNL A   1      40.851  36.751  36.326  1.00  0.00     0.031 C 
ATOM     59  C   UNL A   1      39.943  29.628  35.174  1.00  0.00     0.029 A 
ATOM     60  C   UNL A   1      41.311  29.809  35.625  1.00  0.00     0.049 A 
ATOM     61  H   UNL A   1      42.156  31.650  36.258  1.00  0.00     0.167 HD
ATOM     62  C   UNL A   1      43.316  36.540  36.845  1.00  0.00     0.034 A 
ATOM     63  C   UNL A   1      42.315  28.877  35.743  1.00  0.00     0.034 A 
ATOM     64  C   UNL A   1      44.261  35.476  36.749  1.00  0.00     0.049 A 
ATOM     65  C   UNL A   1      43.415  29.631  36.363  1.00  0.00     0.074 A 
ATOM     66  C   UNL A   1      44.899  34.920  35.674  1.00  0.00     0.029 A 
ATOM     67  N   UNL A   1      44.334  34.617  37.823  1.00  0.00    -0.354 N 
ATOM     68  N   UNL A   1      43.447  30.008  37.603  1.00  0.00    -0.248 NA
ATOM     69  C   UNL A   1      44.528  30.080  35.517  1.00  0.00     0.031 C 
ATOM     70  C   UNL A   1      44.875  33.546  35.981  1.00  0.00     0.029 A 
ATOM     71  C   UNL A   1      44.485  33.355  37.315  1.00  0.00     0.049 A 
ATOM     72  H   UNL A   1      44.287  34.865  38.775  1.00  0.00     0.167 HD
ATOM     73  C   UNL A   1      44.389  31.004  37.587  1.00  0.00     0.074 A 
ATOM     74  C   UNL A   1      45.223  30.758  36.427  1.00  0.00     0.031 C 
ATOM     75  C   UNL A   1      44.080  32.217  38.116  1.00  0.00     0.034 A 
BRANCH  62  76
ATOM     76  C   UNL A   1      43.706  37.707  37.705  1.00  0.00     0.023 A 
ATOM     77  C   UNL A   1      42.951  37.860  38.892  1.00  0.00     0.031 A 
ATOM     78  C   UNL A   1      44.469  38.809  37.303  1.00  0.00     0.131 A 
ATOM     79  C   UNL A   1      42.816  39.101  39.516  1.00  0.00     0.055 A 
ATOM     80  C   UNL A   1      44.405  40.033  37.985  1.00  0.00     0.041 A 
ATOM     81  F   UNL A   1      45.227  38.779  36.198  1.00  0.00    -0.206 F 
ATOM     82  C   UNL A   1      43.540  40.199  39.068  1.00  0.00     0.022 A 
BRANCH  79  83
ATOM     83  S   UNL A   1      41.522  39.274  40.776  1.00  0.00     0.124 S 
ATOM     84  O   UNL A   1      40.819  40.472  40.329  1.00  0.00    -0.237 OA
ATOM     85  O   UNL A   1      40.793  38.017  40.638  1.00  0.00    -0.237 OA
ATOM     86  O   UNL A   1      42.278  39.422  42.017  1.00  0.00    -0.744 OA
ENDBRANCH  79  83
ENDBRANCH  62  76
BRANCH  63  87
ATOM     87  C   UNL A   1      42.645  27.423  35.397  1.00  0.00     0.023 A 
ATOM     88  C   UNL A   1      43.394  26.950  34.304  1.00  0.00     0.031 A 
ATOM     89  C   UNL A   1      42.218  26.391  36.299  1.00  0.00     0.131 A 
ATOM     90  C   UNL A   1      43.740  25.564  34.215  1.00  0.00     0.055 A 
ATOM     91  C   UNL A   1      42.639  25.063  36.259  1.00  0.00     0.041 A 
ATOM     92  F   UNL A   1      41.348  26.618  37.292  1.00  0.00    -0.206 F 
ATOM     93  C   UNL A   1      43.423  24.643  35.217  1.00  0.00     0.022 A 
BRANCH  90  94
ATOM     94  S   UNL A   1      44.637  24.879  32.786  1.00  0.00     0.124 S 
ATOM     95  O   UNL A   1      44.151  25.718  31.694  1.00  0.00    -0.237 OA
ATOM     96  O   UNL A   1      46.035  25.051  33.157  1.00  0.00    -0.237 OA
ATOM     97  O   UNL A   1      44.180  23.488  32.743  1.00  0.00    -0.744 OA
ENDBRANCH  90  94
ENDBRANCH  63  87
BRANCH  75  98
ATOM     98  C   UNL A   1      43.011  32.180  39.210  1.00  0.00     0.023 A 
ATOM     99  C   UNL A   1      41.687  32.570  38.912  1.00  0.00     0.031 A 
ATOM    100  C   UNL A   1      43.270  31.899  40.564  1.00  0.00     0.131 A 
ATOM    101  C   UNL A   1      40.718  32.712  39.925  1.00  0.00     0.055 A 
ATOM    102  C   UNL A   1      42.307  32.035  41.576  1.00  0.00     0.041 A 
ATOM    103  F   UNL A   1      44.474  31.490  40.963  1.00  0.00    -0.206 F 
ATOM    104  C   UNL A   1      41.023  32.451  41.260  1.00  0.00     0.022 A 
BRANCH 101 105
ATOM    105  S   UNL A   1      39.037  33.229  39.478  1.00  0.00     0.124 S 
ATOM    106  O   UNL A   1      38.341  33.203  40.760  1.00  0.00    -0.237 OA
ATOM    107  O   UNL A   1      39.257  34.550  38.897  1.00  0.00    -0.237 OA
ATOM    108  O   UNL A   1      38.607  32.207  38.523  1.00  0.00    -0.744 OA
ENDBRANCH 101 105
ENDBRANCH  75  98
ENDBRANCH  49  50
ENDBRANCH  42  44
ENDBRANCH  41  42
ENDBRANCH  40  41
ENDBRANCH  39  40
ENDBRANCH  38  39
ENDBRANCH  37  38
ENDBRANCH  36  37
ENDBRANCH  35  36
ENDBRANCH   1  35
TORSDOF 29
ENDMDL
MODEL 2
REMARK VINA RESULT:     -10.0      5.829     12.492
REMARK SMILES CN(C)S(=O)(=O)c1ccc(-n2c(CCC(=O)OCCOCCOCCOCCOC(=O)c3ccc(-c4c5nc(c(-c6cc(S(=O)(=O)[O-])ccc6F)c6ccc([nH]6)c(-c6cc(S(=O)(=O)[O-])ccc6F)c6nc(c(-c7cc(S(=O)(=O)[O-])ccc7F)c7ccc4[nH]7)C=C6)C=C5)cc3)ccc2-c2ccc(F)cc2)cc1
REMARK SMILES IDX 22 1 21 2 20 3 19 4 18 5 17 6 15 7 16 8 14 9 13 10 12 11
REMARK SMILES IDX 11 12 97 13 95 14 96 15 10 16 7 17 8 18 106 19 9 20 105 21
REMARK SMILES IDX 4 22 5 23 6 24 2 25 1 26 3 27 98 28 99 29 104 30 100 31
REMARK SMILES IDX 103 32 101 33 102 34 23 35 24 36 25 37 26 38 27 39 28 40
REMARK SMILES IDX 29 41 30 42 31 43 32 44 33 45 94 46 34 47 93 48 35 49 36 50
REMARK SMILES IDX 37 51 87 52 38 53 92 54 86 55 88 56 39 57 91 58 85 59 84 60
REMARK SMILES IDX 40 62 72 63 52 64 71 65 53 66 56 67 70 68 89 69 54 70 55 71
REMARK SMILES IDX 69 73 90 74 57 75 41 76 42 77 50 78 43 79 49 80 51 81 48 82
REMARK SMILES IDX 44 83 45 84 46 85 47 86 73 87 74 88 82 89 75 90 81 91 83 92
REMARK SMILES IDX 80 93 76 94 77 95 78 96 79 97 58 98 59 99 67 100 60 101
REMARK SMILES IDX 66 102 68 103 65 104 61 105 62 106 63 107 64 108
REMARK H PARENT 88 61 56 72
REMARK Flexibility Score: inf
ROOT
ATOM      1  C   UNL A   1      35.436  30.951  27.604  1.00  0.00     0.188 C 
ENDROOT
BRANCH   1   2
ATOM      2  C   UNL A   1      34.061  31.510  27.998  1.00  0.00     0.188 C 
BRANCH   2   3
ATOM      3  O   UNL A   1      34.216  32.925  28.610  1.00  0.00    -0.376 OA
BRANCH   3   4
ATOM      4  C   UNL A   1      33.695  34.851  28.591  1.00  0.00     0.202 C 
BRANCH   4   5
ATOM      5  C   UNL A   1      32.799  35.814  29.711  1.00  0.00     0.261 C 
BRANCH   5   6
ATOM      6  O   UNL A   1      33.466  36.875  30.452  1.00  0.00    -0.463 OA
BRANCH   6   7
ATOM      7  C   UNL A   1      33.347  36.841  31.808  1.00  0.00     0.306 C 
ATOM      8  O   UNL A   1      32.787  37.716  32.461  1.00  0.00    -0.252 OA
BRANCH   7   9
ATOM      9  C   UNL A   1      33.885  35.569  32.472  1.00  0.00     0.129 C 
BRANCH   9  10
ATOM     10  C   UNL A   1      35.324  35.492  33.004  1.00  0.00     0.066 C 
BRANCH  10  11
ATOM     11  C   UNL A   1      36.166  34.461  32.344  1.00  0.00     0.024 A 
ATOM     12  N   UNL A   1      37.213  33.768  32.946  1.00  0.00    -0.314 N 
ATOM     13  C   UNL A   1      37.581  32.734  32.055  1.00  0.00     0.053 A 
ATOM     14  C   UNL A   1      36.093  34.070  31.019  1.00  0.00     0.024 A 
ATOM     15  C   UNL A   1      36.979  33.001  30.837  1.00  0.00     0.029 A 
BRANCH  12  16
ATOM     16  C   UNL A   1      37.768  33.996  34.255  1.00  0.00     0.046 A 
ATOM     17  C   UNL A   1      39.474  34.527  37.393  1.00  0.00     0.082 A 
ATOM     18  C   UNL A   1      40.233  35.024  35.860  1.00  0.00     0.024 A 
ATOM     19  C   UNL A   1      37.873  33.704  37.417  1.00  0.00     0.024 A 
ATOM     20  C   UNL A   1      39.378  34.804  34.308  1.00  0.00     0.028 A 
ATOM     21  C   UNL A   1      36.981  33.468  35.837  1.00  0.00     0.028 A 
BRANCH  17  22
ATOM     22  S   UNL A   1      40.205  35.106  38.881  1.00  0.00     0.242 S 
ATOM     23  O   UNL A   1      39.211  35.859  39.594  1.00  0.00    -0.207 OA
ATOM     24  O   UNL A   1      41.493  35.684  38.522  1.00  0.00    -0.207 OA
BRANCH  22  25
ATOM     25  N   UNL A   1      40.507  33.665  39.760  1.00  0.00    -0.204 NA
ATOM     26  C   UNL A   1      41.761  33.720  40.546  1.00  0.00     0.124 C 
ATOM     27  C   UNL A   1      39.370  33.161  40.555  1.00  0.00     0.124 C 
ENDBRANCH  22  25
ENDBRANCH  17  22
ENDBRANCH  12  16
BRANCH  13  28
ATOM     28  C   UNL A   1      38.381  31.537  32.357  1.00  0.00    -0.001 A 
ATOM     29  C   UNL A   1      38.462  31.044  33.670  1.00  0.00     0.013 A 
ATOM     30  C   UNL A   1      39.056  30.853  31.332  1.00  0.00     0.013 A 
ATOM     31  C   UNL A   1      39.128  29.844  33.936  1.00  0.00     0.040 A 
ATOM     32  C   UNL A   1      39.712  29.649  31.597  1.00  0.00     0.040 A 
ATOM     33  C   UNL A   1      39.731  29.149  32.893  1.00  0.00     0.123 A 
ATOM     34  F   UNL A   1      40.333  27.977  33.136  1.00  0.00    -0.207 F 
ENDBRANCH  13  28
ENDBRANCH  10  11
ENDBRANCH   9  10
ENDBRANCH   7   9
ENDBRANCH   6   7
ENDBRANCH   5   6
ENDBRANCH   4   5
ENDBRANCH   3   4
ENDBRANCH   2   3
ENDBRANCH   1   2
BRANCH   1  35
ATOM     35  O   UNL A   1      36.342  30.612  28.646  1.00  0.00    -0.377 OA
BRANCH  35  36
ATOM     36  C   UNL A   1      36.807  29.278  28.728  1.00  0.00     0.188 C 
BRANCH  36  37
ATOM     37  C   UNL A   1      38.232  28.971  28.262  1.00  0.00     0.188 C 
BRANCH  37  38
ATOM     38  O   UNL A   1      38.782  27.668  28.330  1.00  0.00    -0.376 OA
BRANCH  38  39
ATOM     39  C   UNL A   1      40.167  27.413  28.158  1.00  0.00     0.202 C 
BRANCH  39  40
ATOM     40  C   UNL A   1      40.701  26.286  27.277  1.00  0.00     0.261 C 
BRANCH  40  41
ATOM     41  O   UNL A   1      40.877  26.648  25.916  1.00  0.00    -0.460 OA
BRANCH  41  42
ATOM     42  C   UNL A   1      42.137  26.446  25.495  1.00  0.00     0.338 C 
ATOM     43  O   UNL A   1      42.703  25.376  25.327  1.00  0.00    -0.246 OA
BRANCH  42  44
ATOM     44  C   UNL A   1      42.854  27.715  25.373  1.00  0.00     0.060 A 
ATOM     45  C   UNL A   1      44.126  27.697  25.959  1.00  0.00     0.016 A 
ATOM     46  C   UNL A   1      41.989  28.806  25.474  1.00  0.00     0.016 A 
ATOM     47  C   UNL A   1      44.393  28.631  26.930  1.00  0.00     0.010 A 
ATOM     48  C   UNL A   1      42.220  29.691  26.498  1.00  0.00     0.010 A 
ATOM     49  C   UNL A   1      43.391  29.554  27.256  1.00  0.00    -0.014 A 
BRANCH  49  50
ATOM     50  C   UNL A   1      43.672  30.505  28.330  1.00  0.00     0.031 A 
ATOM     51  C   UNL A   1      43.523  29.779  29.676  1.00  0.00     0.074 A 
ATOM     52  C   UNL A   1      43.923  31.798  27.938  1.00  0.00     0.049 A 
ATOM     53  N   UNL A   1      43.136  30.238  30.821  1.00  0.00    -0.248 NA
ATOM     54  C   UNL A   1      43.701  28.292  29.747  1.00  0.00     0.031 C 
ATOM     55  C   UNL A   1      44.007  32.274  26.528  1.00  0.00     0.029 A 
ATOM     56  N   UNL A   1      44.147  32.979  28.615  1.00  0.00    -0.354 N 
ATOM     57  C   UNL A   1      43.295  29.201  31.767  1.00  0.00     0.074 A 
ATOM     58  C   UNL A   1      43.475  27.996  31.027  1.00  0.00     0.031 C 
ATOM     59  C   UNL A   1      44.170  33.619  26.468  1.00  0.00     0.029 A 
ATOM     60  C   UNL A   1      44.241  34.159  27.813  1.00  0.00     0.049 A 
ATOM     61  H   UNL A   1      44.238  33.006  29.595  1.00  0.00     0.167 HD
ATOM     62  C   UNL A   1      43.444  29.444  33.100  1.00  0.00     0.034 A 
ATOM     63  C   UNL A   1      44.327  35.471  28.217  1.00  0.00     0.034 A 
ATOM     64  C   UNL A   1      43.370  30.850  33.324  1.00  0.00     0.049 A 
ATOM     65  C   UNL A   1      44.493  35.373  29.676  1.00  0.00     0.074 A 
ATOM     66  C   UNL A   1      42.327  31.732  33.239  1.00  0.00     0.029 A 
ATOM     67  N   UNL A   1      44.561  31.541  33.303  1.00  0.00    -0.354 N 
ATOM     68  N   UNL A   1      45.577  34.986  30.273  1.00  0.00    -0.248 NA
ATOM     69  C   UNL A   1      43.335  35.640  30.538  1.00  0.00     0.031 C 
ATOM     70  C   UNL A   1      42.927  32.860  32.649  1.00  0.00     0.029 A 
ATOM     71  C   UNL A   1      44.324  32.724  32.654  1.00  0.00     0.049 A 
ATOM     72  H   UNL A   1      45.419  31.242  33.682  1.00  0.00     0.167 HD
ATOM     73  C   UNL A   1      45.124  34.644  31.520  1.00  0.00     0.074 A 
ATOM     74  C   UNL A   1      43.886  35.372  31.718  1.00  0.00     0.031 C 
ATOM     75  C   UNL A   1      45.428  33.418  32.022  1.00  0.00     0.034 A 
BRANCH  62  76
ATOM     76  C   UNL A   1      43.910  28.604  34.254  1.00  0.00     0.023 A 
ATOM     77  C   UNL A   1      42.993  27.620  34.691  1.00  0.00     0.031 A 
ATOM     78  C   UNL A   1      44.963  28.910  35.124  1.00  0.00     0.131 A 
ATOM     79  C   UNL A   1      43.020  27.127  35.997  1.00  0.00     0.055 A 
ATOM     80  C   UNL A   1      45.042  28.345  36.405  1.00  0.00     0.041 A 
ATOM     81  F   UNL A   1      45.893  29.823  34.814  1.00  0.00    -0.206 F 
ATOM     82  C   UNL A   1      44.043  27.486  36.866  1.00  0.00     0.022 A 
BRANCH  79  83
ATOM     83  S   UNL A   1      41.578  26.188  36.573  1.00  0.00     0.124 S 
ATOM     84  O   UNL A   1      40.992  25.730  35.319  1.00  0.00    -0.237 OA
ATOM     85  O   UNL A   1      42.196  25.159  37.403  1.00  0.00    -0.237 OA
ATOM     86  O   UNL A   1      40.795  27.185  37.299  1.00  0.00    -0.744 OA
ENDBRANCH  79  83
ENDBRANCH  62  76
BRANCH  63  87
ATOM     87  C   UNL A   1      44.244  36.899  27.673  1.00  0.00     0.023 A 
ATOM     88  C   UNL A   1      45.296  37.691  27.178  1.00  0.00     0.031 A 
ATOM     89  C   UNL A   1      42.953  37.519  27.575  1.00  0.00     0.131 A 
ATOM     90  C   UNL A   1      45.018  38.953  26.562  1.00  0.00     0.055 A 
ATOM     91  C   UNL A   1      42.679  38.701  26.888  1.00  0.00     0.041 A 
ATOM     92  F   UNL A   1      41.860  37.003  28.153  1.00  0.00    -0.206 F 
ATOM     93  C   UNL A   1      43.717  39.421  26.359  1.00  0.00     0.022 A 
BRANCH  90  94
ATOM     94  S   UNL A   1      46.342  40.058  25.977  1.00  0.00     0.124 S 
ATOM     95  O   UNL A   1      47.435  39.727  26.886  1.00  0.00    -0.237 OA
ATOM     96  O   UNL A   1      46.517  39.659  24.586  1.00  0.00    -0.237 OA
ATOM     97  O   UNL A   1      45.768  41.392  26.166  1.00  0.00    -0.744 OA
ENDBRANCH  90  94
ENDBRANCH  63  87
BRANCH  75  98
ATOM     98  C   UNL A   1      46.720  32.808  31.474  1.00  0.00     0.023 A 
ATOM     99  C   UNL A   1      46.832  32.523  30.096  1.00  0.00     0.031 A 
ATOM    100  C   UNL A   1      47.797  32.380  32.270  1.00  0.00     0.131 A 
ATOM    101  C   UNL A   1      47.932  31.809  29.581  1.00  0.00     0.055 A 
ATOM    102  C   UNL A   1      48.898  31.673  31.762  1.00  0.00     0.041 A 
ATOM    103  F   UNL A   1      47.820  32.621  33.581  1.00  0.00    -0.206 F 
ATOM    104  C   UNL A   1      48.966  31.378  30.409  1.00  0.00     0.022 A 
BRANCH 101 105
ATOM    105  S   UNL A   1      48.012  31.463  27.801  1.00  0.00     0.124 S 
ATOM    106  O   UNL A   1      47.447  32.671  27.212  1.00  0.00    -0.237 OA
ATOM    107  O   UNL A   1      49.441  31.253  27.584  1.00  0.00    -0.237 OA
ATOM    108  O   UNL A   1      47.191  30.261  27.650  1.00  0.00    -0.744 OA
ENDBRANCH 101 105
ENDBRANCH  75  98
ENDBRANCH  49  50
ENDBRANCH  42  44
ENDBRANCH  41  42
ENDBRANCH  40  41
ENDBRANCH  39  40
ENDBRANCH  38  39
ENDBRANCH  37  38
ENDBRANCH  36  37
ENDBRANCH  35  36
ENDBRANCH   1  35
TORSDOF 29
ENDMDL
MODEL 3
REMARK VINA RESULT:      -9.5      1.733      1.950
REMARK SMILES CN(C)S(=O)(=O)c1ccc(-n2c(CCC(=O)OCCOCCOCCOCCOC(=O)c3ccc(-c4c5nc(c(-c6cc(S(=O)(=O)[O-])ccc6F)c6ccc([nH]6)c(-c6cc(S(=O)(=O)[O-])ccc6F)c6nc(c(-c7cc(S(=O)(=O)[O-])ccc7F)c7ccc4[nH]7)C=C6)C=C5)cc3)ccc2-c2ccc(F)cc2)cc1
REMARK SMILES IDX 22 1 21 2 20 3 19 4 18 5 17 6 15 7 16 8 14 9 13 10 12 11
REMARK SMILES IDX 11 12 97 13 95 14 96 15 10 16 7 17 8 18 106 19 9 20 105 21
REMARK SMILES IDX 4 22 5 23 6 24 2 25 1 26 3 27 98 28 99 29 104 30 100 31
REMARK SMILES IDX 103 32 101 33 102 34 23 35 24 36 25 37 26 38 27 39 28 40
REMARK SMILES IDX 29 41 30 42 31 43 32 44 33 45 94 46 34 47 93 48 35 49 36 50
REMARK SMILES IDX 37 51 87 52 38 53 92 54 86 55 88 56 39 57 91 58 85 59 84 60
REMARK SMILES IDX 40 62 72 63 52 64 71 65 53 66 56 67 70 68 89 69 54 70 55 71
REMARK SMILES IDX 69 73 90 74 57 75 41 76 42 77 50 78 43 79 49 80 51 81 48 82
REMARK SMILES IDX 44 83 45 84 46 85 47 86 73 87 74 88 82 89 75 90 81 91 83 92
REMARK SMILES IDX 80 93 76 94 77 95 78 96 79 97 58 98 59 99 67 100 60 101
REMARK SMILES IDX 66 102 68 103 65 104 61 105 62 106 63 107 64 108
REMARK H PARENT 88 61 56 72
REMARK Flexibility Score: inf
ROOT
ATOM      1  C   UNL A   1      33.312  30.327  27.479  1.00  0.00     0.188 C 
ENDROOT
BRANCH   1   2
ATOM      2  C   UNL A   1      32.209  30.846  26.546  1.00  0.00     0.188 C 
BRANCH   2   3
ATOM      3  O   UNL A   1      32.051  29.901  25.329  1.00  0.00    -0.376 OA
BRANCH   3   4
ATOM      4  C   UNL A   1      30.946  29.288  23.784  1.00  0.00     0.202 C 
BRANCH   4   5
ATOM      5  C   UNL A   1      31.264  28.157  22.517  1.00  0.00     0.261 C 
BRANCH   5   6
ATOM      6  O   UNL A   1      31.224  26.728  22.795  1.00  0.00    -0.463 OA
BRANCH   6   7
ATOM      7  C   UNL A   1      32.390  26.042  22.629  1.00  0.00     0.306 C 
ATOM      8  O   UNL A   1      32.966  25.937  21.550  1.00  0.00    -0.252 OA
BRANCH   7   9
ATOM      9  C   UNL A   1      32.996  25.477  23.918  1.00  0.00     0.129 C 
BRANCH   9  10
ATOM     10  C   UNL A   1      34.127  24.439  23.882  1.00  0.00     0.066 C 
BRANCH  10  11
ATOM     11  C   UNL A   1      33.666  23.039  23.690  1.00  0.00     0.024 A 
ATOM     12  N   UNL A   1      34.343  21.901  24.120  1.00  0.00    -0.314 N 
ATOM     13  C   UNL A   1      33.457  20.813  23.948  1.00  0.00     0.053 A 
ATOM     14  C   UNL A   1      32.535  22.637  23.002  1.00  0.00     0.024 A 
ATOM     15  C   UNL A   1      32.409  21.250  23.156  1.00  0.00     0.029 A 
BRANCH  12  16
ATOM     16  C   UNL A   1      35.658  21.839  24.706  1.00  0.00     0.046 A 
ATOM     17  C   UNL A   1      38.979  22.025  26.111  1.00  0.00     0.082 A 
ATOM     18  C   UNL A   1      37.877  23.420  26.218  1.00  0.00     0.024 A 
ATOM     19  C   UNL A   1      38.492  20.515  25.259  1.00  0.00     0.024 A 
ATOM     20  C   UNL A   1      36.219  23.322  25.563  1.00  0.00     0.028 A 
ATOM     21  C   UNL A   1      36.798  20.395  24.581  1.00  0.00     0.028 A 
BRANCH  17  22
ATOM     22  S   UNL A   1      40.436  22.070  27.090  1.00  0.00     0.242 S 
ATOM     23  O   UNL A   1      40.441  20.900  27.923  1.00  0.00    -0.207 OA
ATOM     24  O   UNL A   1      40.527  23.411  27.651  1.00  0.00    -0.207 OA
BRANCH  22  25
ATOM     25  N   UNL A   1      41.693  21.902  25.935  1.00  0.00    -0.204 NA
ATOM     26  C   UNL A   1      42.509  23.129  25.786  1.00  0.00     0.124 C 
ATOM     27  C   UNL A   1      42.525  20.691  26.081  1.00  0.00     0.124 C 
ENDBRANCH  22  25
ENDBRANCH  17  22
ENDBRANCH  12  16
BRANCH  13  28
ATOM     28  C   UNL A   1      33.556  19.476  24.555  1.00  0.00    -0.001 A 
ATOM     29  C   UNL A   1      32.614  19.052  25.507  1.00  0.00     0.013 A 
ATOM     30  C   UNL A   1      34.580  18.593  24.172  1.00  0.00     0.013 A 
ATOM     31  C   UNL A   1      32.643  17.743  25.997  1.00  0.00     0.040 A 
ATOM     32  C   UNL A   1      34.602  17.282  24.654  1.00  0.00     0.040 A 
ATOM     33  C   UNL A   1      33.626  16.866  25.552  1.00  0.00     0.123 A 
ATOM     34  F   UNL A   1      33.632  15.598  25.985  1.00  0.00    -0.207 F 
ENDBRANCH  13  28
ENDBRANCH  10  11
ENDBRANCH   9  10
ENDBRANCH   7   9
ENDBRANCH   6   7
ENDBRANCH   5   6
ENDBRANCH   4   5
ENDBRANCH   3   4
ENDBRANCH   2   3
ENDBRANCH   1   2
BRANCH   1  35
ATOM     35  O   UNL A   1      33.951  31.259  28.342  1.00  0.00    -0.377 OA
BRANCH  35  36
ATOM     36  C   UNL A   1      34.281  32.536  27.831  1.00  0.00     0.188 C 
BRANCH  36  37
ATOM     37  C   UNL A   1      33.437  33.737  28.264  1.00  0.00     0.188 C 
BRANCH  37  38
ATOM     38  O   UNL A   1      33.597  34.353  29.529  1.00  0.00    -0.376 OA
BRANCH  38  39
ATOM     39  C   UNL A   1      34.508  33.873  30.503  1.00  0.00     0.202 C 
BRANCH  39  40
ATOM     40  C   UNL A   1      34.582  34.435  31.922  1.00  0.00     0.261 C 
BRANCH  40  41
ATOM     41  O   UNL A   1      34.638  33.443  32.935  1.00  0.00    -0.460 OA
BRANCH  41  42
ATOM     42  C   UNL A   1      35.866  32.911  33.056  1.00  0.00     0.338 C 
ATOM     43  O   UNL A   1      36.189  31.742  32.910  1.00  0.00    -0.246 OA
BRANCH  42  44
ATOM     44  C   UNL A   1      36.820  33.911  33.537  1.00  0.00     0.060 A 
ATOM     45  C   UNL A   1      37.970  34.012  32.744  1.00  0.00     0.016 A 
ATOM     46  C   UNL A   1      36.854  33.960  34.932  1.00  0.00     0.016 A 
ATOM     47  C   UNL A   1      39.184  33.817  33.357  1.00  0.00     0.010 A 
ATOM     48  C   UNL A   1      38.057  33.685  35.535  1.00  0.00     0.010 A 
ATOM     49  C   UNL A   1      39.199  33.555  34.732  1.00  0.00    -0.014 A 
BRANCH  49  50
ATOM     50  C   UNL A   1      40.496  33.296  35.356  1.00  0.00     0.031 A 
ATOM     51  C   UNL A   1      41.227  34.635  35.539  1.00  0.00     0.074 A 
ATOM     52  C   UNL A   1      40.806  31.974  35.568  1.00  0.00     0.049 A 
ATOM     53  N   UNL A   1      42.492  34.893  35.511  1.00  0.00    -0.248 NA
ATOM     54  C   UNL A   1      40.440  35.908  35.637  1.00  0.00     0.031 C 
ATOM     55  C   UNL A   1      39.908  30.818  35.290  1.00  0.00     0.029 A 
ATOM     56  N   UNL A   1      41.922  31.316  36.043  1.00  0.00    -0.354 N 
ATOM     57  C   UNL A   1      42.655  36.252  35.860  1.00  0.00     0.074 A 
ATOM     58  C   UNL A   1      41.369  36.857  35.755  1.00  0.00     0.031 C 
ATOM     59  C   UNL A   1      40.536  29.637  35.514  1.00  0.00     0.029 A 
ATOM     60  C   UNL A   1      41.886  29.888  35.985  1.00  0.00     0.049 A 
ATOM     61  H   UNL A   1      42.699  31.803  36.402  1.00  0.00     0.167 HD
ATOM     62  C   UNL A   1      43.814  36.738  36.385  1.00  0.00     0.034 A 
ATOM     63  C   UNL A   1      42.889  28.988  36.260  1.00  0.00     0.034 A 
ATOM     64  C   UNL A   1      44.767  35.680  36.462  1.00  0.00     0.049 A 
ATOM     65  C   UNL A   1      43.963  29.827  36.815  1.00  0.00     0.074 A 
ATOM     66  C   UNL A   1      45.446  34.994  35.492  1.00  0.00     0.029 A 
ATOM     67  N   UNL A   1      44.804  34.970  37.641  1.00  0.00    -0.354 N 
ATOM     68  N   UNL A   1      43.947  30.363  37.996  1.00  0.00    -0.248 NA
ATOM     69  C   UNL A   1      45.103  30.172  35.957  1.00  0.00     0.031 C 
ATOM     70  C   UNL A   1      45.417  33.672  35.976  1.00  0.00     0.029 A 
ATOM     71  C   UNL A   1      44.979  33.653  37.309  1.00  0.00     0.049 A 
ATOM     72  H   UNL A   1      44.721  35.339  38.550  1.00  0.00     0.167 HD
ATOM     73  C   UNL A   1      44.885  31.357  37.883  1.00  0.00     0.074 A 
ATOM     74  C   UNL A   1      45.761  30.969  36.795  1.00  0.00     0.031 C 
ATOM     75  C   UNL A   1      44.551  32.626  38.237  1.00  0.00     0.034 A 
BRANCH  62  76
ATOM     76  C   UNL A   1      44.167  38.012  37.098  1.00  0.00     0.023 A 
ATOM     77  C   UNL A   1      43.637  38.137  38.404  1.00  0.00     0.031 A 
ATOM     78  C   UNL A   1      44.652  39.183  36.504  1.00  0.00     0.131 A 
ATOM     79  C   UNL A   1      43.425  39.388  38.987  1.00  0.00     0.055 A 
ATOM     80  C   UNL A   1      44.521  40.430  37.131  1.00  0.00     0.041 A 
ATOM     81  F   UNL A   1      45.180  39.184  35.272  1.00  0.00    -0.206 F 
ATOM     82  C   UNL A   1      43.863  40.545  38.356  1.00  0.00     0.022 A 
BRANCH  79  83
ATOM     83  S   UNL A   1      42.383  39.458  40.471  1.00  0.00     0.124 S 
ATOM     84  O   UNL A   1      42.314  40.892  40.729  1.00  0.00    -0.237 OA
ATOM     85  O   UNL A   1      41.149  38.833  40.007  1.00  0.00    -0.237 OA
ATOM     86  O   UNL A   1      43.141  38.685  41.452  1.00  0.00    -0.744 OA
ENDBRANCH  79  83
ENDBRANCH  62  76
BRANCH  63  87
ATOM     87  C   UNL A   1      43.238  27.505  36.119  1.00  0.00     0.023 A 
ATOM     88  C   UNL A   1      44.140  26.757  36.899  1.00  0.00     0.031 A 
ATOM     89  C   UNL A   1      42.541  26.729  35.133  1.00  0.00     0.131 A 
ATOM     90  C   UNL A   1      44.232  25.339  36.731  1.00  0.00     0.055 A 
ATOM     91  C   UNL A   1      42.564  25.338  35.040  1.00  0.00     0.041 A 
ATOM     92  F   UNL A   1      41.782  27.289  34.181  1.00  0.00    -0.206 F 
ATOM     93  C   UNL A   1      43.404  24.629  35.857  1.00  0.00     0.022 A 
BRANCH  90  94
ATOM     94  S   UNL A   1      45.436  24.330  37.652  1.00  0.00     0.124 S 
ATOM     95  O   UNL A   1      46.581  25.232  37.741  1.00  0.00    -0.237 OA
ATOM     96  O   UNL A   1      44.743  24.045  38.902  1.00  0.00    -0.237 OA
ATOM     97  O   UNL A   1      45.633  23.170  36.780  1.00  0.00    -0.744 OA
ENDBRANCH  90  94
ENDBRANCH  63  87
BRANCH  75  98
ATOM     98  C   UNL A   1      43.443  32.722  39.288  1.00  0.00     0.023 A 
ATOM     99  C   UNL A   1      43.506  31.923  40.449  1.00  0.00     0.031 A 
ATOM    100  C   UNL A   1      42.265  33.475  39.132  1.00  0.00     0.131 A 
ATOM    101  C   UNL A   1      42.427  31.857  41.354  1.00  0.00     0.055 A 
ATOM    102  C   UNL A   1      41.189  33.416  40.033  1.00  0.00     0.041 A 
ATOM    103  F   UNL A   1      42.104  34.292  38.092  1.00  0.00    -0.206 F 
ATOM    104  C   UNL A   1      41.264  32.598  41.149  1.00  0.00     0.022 A 
BRANCH 101 105
ATOM    105  S   UNL A   1      42.564  30.800  42.823  1.00  0.00     0.124 S 
ATOM    106  O   UNL A   1      43.194  31.684  43.797  1.00  0.00    -0.237 OA
ATOM    107  O   UNL A   1      41.172  30.447  43.087  1.00  0.00    -0.237 OA
ATOM    108  O   UNL A   1      43.398  29.688  42.368  1.00  0.00    -0.744 OA
ENDBRANCH 101 105
ENDBRANCH  75  98
ENDBRANCH  49  50
ENDBRANCH  42  44
ENDBRANCH  41  42
ENDBRANCH  40  41
ENDBRANCH  39  40
ENDBRANCH  38  39
ENDBRANCH  37  38
ENDBRANCH  36  37
ENDBRANCH  35  36
ENDBRANCH   1  35
TORSDOF 29
ENDMDL
