MODEL 1
REMARK VINA RESULT:      -8.3      0.000      0.000
REMARK SMILES CC(=O)N[C@@H](C)C(=O)N1CCC[C@H]1C(=O)OCCOCCOCCOCCOC(=O)c1ccc(-c2c3nc(c(-c4cc(S(=O)(=O)[O-])ccc4F)c4ccc([nH]4)c(-c4cc(S(=O)(=O)[O-])ccc4F)c4nc(c(-c5cc(S(=O)(=O)[O-])ccc5F)c5ccc2[nH]5)C=C4)C=C3)cc1
REMARK SMILES IDX 22 1 21 2 20 3 19 4 18 5 17 6 16 7 14 8 15 9 13 10 9 11
REMARK SMILES IDX 10 12 11 13 12 14 7 15 8 16 5 17 6 18 4 19 1 20 2 21 3 22
REMARK SMILES IDX 23 24 24 25 25 26 26 27 27 28 28 29 29 30 30 31 31 32 32 33
REMARK SMILES IDX 93 34 33 35 92 36 34 37 35 38 36 39 86 40 37 41 91 42 85 43
REMARK SMILES IDX 87 44 38 45 90 46 84 47 83 48 39 50 71 51 51 52 70 53 52 54
REMARK SMILES IDX 55 55 69 56 88 57 53 58 54 59 68 61 89 62 56 63 40 64 41 65
REMARK SMILES IDX 49 66 42 67 48 68 50 69 47 70 43 71 44 72 45 73 46 74 72 75
REMARK SMILES IDX 73 76 81 77 74 78 80 79 82 80 79 81 75 82 76 83 77 84 78 85
REMARK SMILES IDX 57 86 58 87 66 88 59 89 65 90 67 91 64 92 60 93 61 94 62 95
REMARK SMILES IDX 63 96
REMARK H PARENT 4 23 87 49 55 60
REMARK Flexibility Score: inf
ROOT
ATOM      1  O   UNL A   1      36.891  30.211  31.179  1.00  0.00    -0.377 OA
ENDROOT
BRANCH   1   2
ATOM      2  C   UNL A   1      36.383  29.687  29.973  1.00  0.00     0.188 C 
BRANCH   2   3
ATOM      3  C   UNL A   1      37.231  30.088  28.762  1.00  0.00     0.188 C 
BRANCH   3   4
ATOM      4  O   UNL A   1      36.527  30.023  27.533  1.00  0.00    -0.376 OA
BRANCH   4   5
ATOM      5  C   UNL A   1      35.165  29.616  27.481  1.00  0.00     0.202 C 
BRANCH   5   6
ATOM      6  C   UNL A   1      33.988  30.586  27.247  1.00  0.00     0.261 C 
BRANCH   6   7
ATOM      7  O   UNL A   1      32.663  30.072  27.421  1.00  0.00    -0.462 OA
BRANCH   7   8
ATOM      8  C   UNL A   1      31.824  30.163  26.358  1.00  0.00     0.328 C 
ATOM      9  O   UNL A   1      31.428  31.221  25.887  1.00  0.00    -0.250 OA
BRANCH   8  10
ATOM     10  C   UNL A   1      31.451  28.756  25.847  1.00  0.00     0.195 C 
ATOM     11  N   UNL A   1      32.244  28.392  24.673  1.00  0.00    -0.327 N 
ATOM     12  C   UNL A   1      33.312  27.481  25.041  1.00  0.00     0.120 C 
ATOM     13  C   UNL A   1      32.683  26.642  26.132  1.00  0.00     0.024 C 
ATOM     14  C   UNL A   1      31.699  27.592  26.819  1.00  0.00     0.039 C 
BRANCH  11  15
ATOM     15  C   UNL A   1      31.787  28.815  23.447  1.00  0.00     0.245 C 
ATOM     16  O   UNL A   1      32.580  29.219  22.588  1.00  0.00    -0.272 OA
BRANCH  15  17
ATOM     17  C   UNL A   1      30.302  29.166  23.276  1.00  0.00     0.168 C 
ATOM     18  C   UNL A   1      29.564  27.846  23.047  1.00  0.00     0.041 C 
BRANCH  17  19
ATOM     19  N   UNL A   1      29.935  30.146  22.264  1.00  0.00    -0.345 N 
ATOM     20  C   UNL A   1      28.087  31.132  23.563  1.00  0.00     0.114 C 
ATOM     21  C   UNL A   1      28.955  31.089  22.336  1.00  0.00     0.217 C 
ATOM     22  O   UNL A   1      28.791  31.857  21.391  1.00  0.00    -0.275 OA
ATOM     23  H   UNL A   1      30.457  30.125  21.429  1.00  0.00     0.164 HD
ENDBRANCH  17  19
ENDBRANCH  15  17
ENDBRANCH  11  15
ENDBRANCH   8  10
ENDBRANCH   7   8
ENDBRANCH   6   7
ENDBRANCH   5   6
ENDBRANCH   4   5
ENDBRANCH   3   4
ENDBRANCH   2   3
ENDBRANCH   1   2
BRANCH   1  24
ATOM     24  C   UNL A   1      36.331  31.450  31.619  1.00  0.00     0.188 C 
BRANCH  24  25
ATOM     25  C   UNL A   1      35.054  32.079  30.985  1.00  0.00     0.188 C 
BRANCH  25  26
ATOM     26  O   UNL A   1      34.393  33.091  31.736  1.00  0.00    -0.376 OA
BRANCH  26  27
ATOM     27  C   UNL A   1      34.434  33.044  33.155  1.00  0.00     0.202 C 
BRANCH  27  28
ATOM     28  C   UNL A   1      34.995  34.280  33.880  1.00  0.00     0.261 C 
BRANCH  28  29
ATOM     29  O   UNL A   1      36.419  34.297  34.039  1.00  0.00    -0.460 OA
BRANCH  29  30
ATOM     30  C   UNL A   1      36.899  33.498  35.017  1.00  0.00     0.338 C 
ATOM     31  O   UNL A   1      36.442  33.375  36.143  1.00  0.00    -0.246 OA
BRANCH  30  32
ATOM     32  C   UNL A   1      37.943  32.632  34.438  1.00  0.00     0.060 A 
ATOM     33  C   UNL A   1      37.985  31.289  34.840  1.00  0.00     0.016 A 
ATOM     34  C   UNL A   1      38.848  33.119  33.491  1.00  0.00     0.016 A 
ATOM     35  C   UNL A   1      38.960  30.439  34.327  1.00  0.00     0.010 A 
ATOM     36  C   UNL A   1      39.849  32.274  33.006  1.00  0.00     0.010 A 
ATOM     37  C   UNL A   1      39.932  30.943  33.456  1.00  0.00    -0.014 A 
BRANCH  37  38
ATOM     38  C   UNL A   1      41.173  30.162  33.249  1.00  0.00     0.031 A 
ATOM     39  C   UNL A   1      42.245  30.271  34.300  1.00  0.00     0.074 A 
ATOM     40  C   UNL A   1      41.327  29.337  32.200  1.00  0.00     0.049 A 
ATOM     41  N   UNL A   1      43.424  29.712  34.352  1.00  0.00    -0.248 NA
ATOM     42  C   UNL A   1      41.935  31.134  35.451  1.00  0.00     0.031 C 
ATOM     43  C   UNL A   1      40.327  29.095  31.161  1.00  0.00     0.029 A 
ATOM     44  N   UNL A   1      42.387  28.545  31.840  1.00  0.00    -0.354 N 
ATOM     45  C   UNL A   1      44.003  30.166  35.533  1.00  0.00     0.074 A 
ATOM     46  C   UNL A   1      43.058  31.073  36.145  1.00  0.00     0.031 C 
ATOM     47  C   UNL A   1      40.825  28.212  30.277  1.00  0.00     0.029 A 
ATOM     48  C   UNL A   1      42.192  27.860  30.663  1.00  0.00     0.049 A 
ATOM     49  H   UNL A   1      43.211  28.473  32.374  1.00  0.00     0.167 HD
ATOM     50  C   UNL A   1      45.211  29.850  36.060  1.00  0.00     0.034 A 
ATOM     51  C   UNL A   1      43.032  27.062  29.972  1.00  0.00     0.034 A 
ATOM     52  C   UNL A   1      46.145  28.954  35.423  1.00  0.00     0.049 A 
ATOM     53  C   UNL A   1      44.418  26.810  30.522  1.00  0.00     0.074 A 
ATOM     54  C   UNL A   1      47.391  28.553  35.867  1.00  0.00     0.029 A 
ATOM     55  N   UNL A   1      45.944  28.338  34.195  1.00  0.00    -0.354 N 
ATOM     56  N   UNL A   1      44.959  27.243  31.640  1.00  0.00    -0.248 NA
ATOM     57  C   UNL A   1      45.303  25.957  29.719  1.00  0.00     0.031 C 
ATOM     58  C   UNL A   1      47.980  27.771  34.868  1.00  0.00     0.029 A 
ATOM     59  C   UNL A   1      47.061  27.596  33.844  1.00  0.00     0.049 A 
ATOM     60  H   UNL A   1      45.126  28.417  33.652  1.00  0.00     0.167 HD
ATOM     61  C   UNL A   1      46.232  26.676  31.690  1.00  0.00     0.074 A 
ATOM     62  C   UNL A   1      46.373  25.870  30.496  1.00  0.00     0.031 C 
ATOM     63  C   UNL A   1      47.192  26.801  32.644  1.00  0.00     0.034 A 
BRANCH  50  64
ATOM     64  C   UNL A   1      45.608  30.542  37.343  1.00  0.00     0.023 A 
ATOM     65  C   UNL A   1      45.333  29.989  38.606  1.00  0.00     0.031 A 
ATOM     66  C   UNL A   1      46.220  31.807  37.300  1.00  0.00     0.131 A 
ATOM     67  C   UNL A   1      45.586  30.736  39.767  1.00  0.00     0.055 A 
ATOM     68  C   UNL A   1      46.556  32.504  38.461  1.00  0.00     0.041 A 
ATOM     69  F   UNL A   1      46.479  32.402  36.124  1.00  0.00    -0.206 F 
ATOM     70  C   UNL A   1      46.222  31.978  39.704  1.00  0.00     0.022 A 
BRANCH  67  71
ATOM     71  S   UNL A   1      44.910  30.144  41.343  1.00  0.00     0.124 S 
ATOM     72  O   UNL A   1      44.840  28.703  41.111  1.00  0.00    -0.237 OA
ATOM     73  O   UNL A   1      45.913  30.588  42.304  1.00  0.00    -0.237 OA
ATOM     74  O   UNL A   1      43.615  30.815  41.436  1.00  0.00    -0.744 OA
ENDBRANCH  67  71
ENDBRANCH  50  64
BRANCH  51  75
ATOM     75  C   UNL A   1      42.612  26.466  28.671  1.00  0.00     0.023 A 
ATOM     76  C   UNL A   1      42.219  25.121  28.582  1.00  0.00     0.031 A 
ATOM     77  C   UNL A   1      42.652  27.219  27.483  1.00  0.00     0.131 A 
ATOM     78  C   UNL A   1      41.924  24.559  27.329  1.00  0.00     0.055 A 
ATOM     79  C   UNL A   1      42.301  26.671  26.248  1.00  0.00     0.041 A 
ATOM     80  F   UNL A   1      43.029  28.507  27.508  1.00  0.00    -0.206 F 
ATOM     81  C   UNL A   1      41.946  25.328  26.165  1.00  0.00     0.022 A 
BRANCH  78  82
ATOM     82  S   UNL A   1      41.592  22.777  27.233  1.00  0.00     0.124 S 
ATOM     83  O   UNL A   1      41.803  22.514  25.815  1.00  0.00    -0.237 OA
ATOM     84  O   UNL A   1      42.592  22.233  28.145  1.00  0.00    -0.237 OA
ATOM     85  O   UNL A   1      40.208  22.665  27.689  1.00  0.00    -0.744 OA
ENDBRANCH  78  82
ENDBRANCH  51  75
BRANCH  63  86
ATOM     86  C   UNL A   1      48.460  25.996  32.464  1.00  0.00     0.023 A 
ATOM     87  C   UNL A   1      48.685  24.792  33.152  1.00  0.00     0.031 A 
ATOM     88  C   UNL A   1      49.459  26.450  31.584  1.00  0.00     0.131 A 
ATOM     89  C   UNL A   1      49.906  24.115  32.995  1.00  0.00     0.055 A 
ATOM     90  C   UNL A   1      50.639  25.735  31.376  1.00  0.00     0.041 A 
ATOM     91  F   UNL A   1      49.302  27.596  30.902  1.00  0.00    -0.206 F 
ATOM     92  C   UNL A   1      50.874  24.567  32.095  1.00  0.00     0.022 A 
BRANCH  89  93
ATOM     93  S   UNL A   1      50.257  22.691  34.062  1.00  0.00     0.124 S 
ATOM     94  O   UNL A   1      51.547  23.057  34.638  1.00  0.00    -0.237 OA
ATOM     95  O   UNL A   1      49.124  22.701  34.981  1.00  0.00    -0.237 OA
ATOM     96  O   UNL A   1      50.290  21.565  33.132  1.00  0.00    -0.744 OA
ENDBRANCH  89  93
ENDBRANCH  63  86
ENDBRANCH  37  38
ENDBRANCH  30  32
ENDBRANCH  29  30
ENDBRANCH  28  29
ENDBRANCH  27  28
ENDBRANCH  26  27
ENDBRANCH  25  26
ENDBRANCH  24  25
ENDBRANCH   1  24
TORSDOF 26
ENDMDL
MODEL 2
REMARK VINA RESULT:      -7.5      1.938      2.248
REMARK SMILES CC(=O)N[C@@H](C)C(=O)N1CCC[C@H]1C(=O)OCCOCCOCCOCCOC(=O)c1ccc(-c2c3nc(c(-c4cc(S(=O)(=O)[O-])ccc4F)c4ccc([nH]4)c(-c4cc(S(=O)(=O)[O-])ccc4F)c4nc(c(-c5cc(S(=O)(=O)[O-])ccc5F)c5ccc2[nH]5)C=C4)C=C3)cc1
REMARK SMILES IDX 22 1 21 2 20 3 19 4 18 5 17 6 16 7 14 8 15 9 13 10 9 11
REMARK SMILES IDX 10 12 11 13 12 14 7 15 8 16 5 17 6 18 4 19 1 20 2 21 3 22
REMARK SMILES IDX 23 24 24 25 25 26 26 27 27 28 28 29 29 30 30 31 31 32 32 33
REMARK SMILES IDX 93 34 33 35 92 36 34 37 35 38 36 39 86 40 37 41 91 42 85 43
REMARK SMILES IDX 87 44 38 45 90 46 84 47 83 48 39 50 71 51 51 52 70 53 52 54
REMARK SMILES IDX 55 55 69 56 88 57 53 58 54 59 68 61 89 62 56 63 40 64 41 65
REMARK SMILES IDX 49 66 42 67 48 68 50 69 47 70 43 71 44 72 45 73 46 74 72 75
REMARK SMILES IDX 73 76 81 77 74 78 80 79 82 80 79 81 75 82 76 83 77 84 78 85
REMARK SMILES IDX 57 86 58 87 66 88 59 89 65 90 67 91 64 92 60 93 61 94 62 95
REMARK SMILES IDX 63 96
REMARK H PARENT 4 23 87 49 55 60
REMARK Flexibility Score: inf
ROOT
ATOM      1  O   UNL A   1      37.034  30.117  31.261  1.00  0.00    -0.377 OA
ENDROOT
BRANCH   1   2
ATOM      2  C   UNL A   1      36.469  29.724  30.031  1.00  0.00     0.188 C 
BRANCH   2   3
ATOM      3  C   UNL A   1      37.270  30.242  28.832  1.00  0.00     0.188 C 
BRANCH   3   4
ATOM      4  O   UNL A   1      36.549  30.202  27.612  1.00  0.00    -0.376 OA
BRANCH   4   5
ATOM      5  C   UNL A   1      35.195  29.770  27.566  1.00  0.00     0.202 C 
BRANCH   5   6
ATOM      6  C   UNL A   1      34.005  30.707  27.275  1.00  0.00     0.261 C 
BRANCH   6   7
ATOM      7  O   UNL A   1      32.687  30.177  27.455  1.00  0.00    -0.462 OA
BRANCH   7   8
ATOM      8  C   UNL A   1      31.852  30.231  26.386  1.00  0.00     0.328 C 
ATOM      9  O   UNL A   1      31.448  31.271  25.884  1.00  0.00    -0.250 OA
BRANCH   8  10
ATOM     10  C   UNL A   1      31.496  28.806  25.911  1.00  0.00     0.195 C 
ATOM     11  N   UNL A   1      32.297  28.420  24.749  1.00  0.00    -0.327 N 
ATOM     12  C   UNL A   1      33.374  27.532  25.143  1.00  0.00     0.120 C 
ATOM     13  C   UNL A   1      32.751  26.715  26.255  1.00  0.00     0.024 C 
ATOM     14  C   UNL A   1      31.754  27.672  26.914  1.00  0.00     0.039 C 
BRANCH  11  15
ATOM     15  C   UNL A   1      31.839  28.806  23.511  1.00  0.00     0.245 C 
ATOM     16  O   UNL A   1      32.631  29.181  22.638  1.00  0.00    -0.272 OA
BRANCH  15  17
ATOM     17  C   UNL A   1      30.353  29.153  23.332  1.00  0.00     0.168 C 
ATOM     18  C   UNL A   1      29.624  27.835  23.067  1.00  0.00     0.041 C 
BRANCH  17  19
ATOM     19  N   UNL A   1      29.993  30.153  22.336  1.00  0.00    -0.345 N 
ATOM     20  C   UNL A   1      28.152  31.129  23.653  1.00  0.00     0.114 C 
ATOM     21  C   UNL A   1      29.019  31.101  22.426  1.00  0.00     0.217 C 
ATOM     22  O   UNL A   1      28.859  31.886  21.493  1.00  0.00    -0.275 OA
ATOM     23  H   UNL A   1      30.514  30.142  21.501  1.00  0.00     0.164 HD
ENDBRANCH  17  19
ENDBRANCH  15  17
ENDBRANCH  11  15
ENDBRANCH   8  10
ENDBRANCH   7   8
ENDBRANCH   6   7
ENDBRANCH   5   6
ENDBRANCH   4   5
ENDBRANCH   3   4
ENDBRANCH   2   3
ENDBRANCH   1   2
BRANCH   1  24
ATOM     24  C   UNL A   1      36.561  31.348  31.813  1.00  0.00     0.188 C 
BRANCH  24  25
ATOM     25  C   UNL A   1      35.298  32.090  31.281  1.00  0.00     0.188 C 
BRANCH  25  26
ATOM     26  O   UNL A   1      34.781  33.141  32.088  1.00  0.00    -0.376 OA
BRANCH  26  27
ATOM     27  C   UNL A   1      34.890  33.053  33.501  1.00  0.00     0.202 C 
BRANCH  27  28
ATOM     28  C   UNL A   1      35.520  34.254  34.230  1.00  0.00     0.261 C 
BRANCH  28  29
ATOM     29  O   UNL A   1      36.939  34.180  34.411  1.00  0.00    -0.460 OA
BRANCH  29  30
ATOM     30  C   UNL A   1      37.353  33.344  35.389  1.00  0.00     0.338 C 
ATOM     31  O   UNL A   1      36.812  33.170  36.470  1.00  0.00    -0.246 OA
BRANCH  30  32
ATOM     32  C   UNL A   1      38.448  32.512  34.856  1.00  0.00     0.060 A 
ATOM     33  C   UNL A   1      38.337  31.119  34.976  1.00  0.00     0.016 A 
ATOM     34  C   UNL A   1      39.552  33.086  34.221  1.00  0.00     0.016 A 
ATOM     35  C   UNL A   1      39.352  30.297  34.497  1.00  0.00     0.010 A 
ATOM     36  C   UNL A   1      40.588  32.261  33.775  1.00  0.00     0.010 A 
ATOM     37  C   UNL A   1      40.508  30.867  33.951  1.00  0.00    -0.014 A 
BRANCH  37  38
ATOM     38  C   UNL A   1      41.724  30.028  33.831  1.00  0.00     0.031 A 
ATOM     39  C   UNL A   1      42.661  29.994  35.008  1.00  0.00     0.074 A 
ATOM     40  C   UNL A   1      41.963  29.276  32.744  1.00  0.00     0.049 A 
ATOM     41  N   UNL A   1      43.795  29.363  35.155  1.00  0.00    -0.248 NA
ATOM     42  C   UNL A   1      42.256  30.787  36.180  1.00  0.00     0.031 C 
ATOM     43  C   UNL A   1      41.089  29.172  31.578  1.00  0.00     0.029 A 
ATOM     44  N   UNL A   1      43.018  28.450  32.450  1.00  0.00    -0.354 N 
ATOM     45  C   UNL A   1      44.246  29.692  36.429  1.00  0.00     0.074 A 
ATOM     46  C   UNL A   1      43.280  30.607  36.996  1.00  0.00     0.031 C 
ATOM     47  C   UNL A   1      41.647  28.329  30.691  1.00  0.00     0.029 A 
ATOM     48  C   UNL A   1      42.935  27.867  31.207  1.00  0.00     0.049 A 
ATOM     49  H   UNL A   1      43.765  28.289  33.071  1.00  0.00     0.167 HD
ATOM     50  C   UNL A   1      45.361  29.265  37.069  1.00  0.00     0.034 A 
ATOM     51  C   UNL A   1      43.813  27.074  30.560  1.00  0.00     0.034 A 
ATOM     52  C   UNL A   1      46.319  28.364  36.479  1.00  0.00     0.049 A 
ATOM     53  C   UNL A   1      45.105  26.697  31.249  1.00  0.00     0.074 A 
ATOM     54  C   UNL A   1      47.479  27.856  37.034  1.00  0.00     0.029 A 
ATOM     55  N   UNL A   1      46.241  27.854  35.189  1.00  0.00    -0.354 N 
ATOM     56  N   UNL A   1      45.525  27.013  32.454  1.00  0.00    -0.248 NA
ATOM     57  C   UNL A   1      46.038  25.854  30.491  1.00  0.00     0.031 C 
ATOM     58  C   UNL A   1      48.146  27.117  36.052  1.00  0.00     0.029 A 
ATOM     59  C   UNL A   1      47.353  27.073  34.915  1.00  0.00     0.049 A 
ATOM     60  H   UNL A   1      45.501  28.022  34.560  1.00  0.00     0.167 HD
ATOM     61  C   UNL A   1      46.751  26.368  32.611  1.00  0.00     0.074 A 
ATOM     62  C   UNL A   1      46.997  25.646  31.380  1.00  0.00     0.031 C 
ATOM     63  C   UNL A   1      47.591  26.363  33.680  1.00  0.00     0.034 A 
BRANCH  50  64
ATOM     64  C   UNL A   1      45.631  29.835  38.443  1.00  0.00     0.023 A 
ATOM     65  C   UNL A   1      46.164  31.122  38.626  1.00  0.00     0.031 A 
ATOM     66  C   UNL A   1      45.405  29.049  39.587  1.00  0.00     0.131 A 
ATOM     67  C   UNL A   1      46.536  31.550  39.910  1.00  0.00     0.055 A 
ATOM     68  C   UNL A   1      45.688  29.517  40.871  1.00  0.00     0.041 A 
ATOM     69  F   UNL A   1      44.927  27.799  39.476  1.00  0.00    -0.206 F 
ATOM     70  C   UNL A   1      46.275  30.767  41.036  1.00  0.00     0.022 A 
BRANCH  67  71
ATOM     71  S   UNL A   1      47.527  33.061  40.067  1.00  0.00     0.124 S 
ATOM     72  O   UNL A   1      46.732  33.837  41.017  1.00  0.00    -0.237 OA
ATOM     73  O   UNL A   1      48.800  32.554  40.564  1.00  0.00    -0.237 OA
ATOM     74  O   UNL A   1      47.555  33.597  38.708  1.00  0.00    -0.744 OA
ENDBRANCH  67  71
ENDBRANCH  50  64
BRANCH  51  75
ATOM     75  C   UNL A   1      43.527  26.602  29.174  1.00  0.00     0.023 A 
ATOM     76  C   UNL A   1      43.701  27.448  28.068  1.00  0.00     0.031 A 
ATOM     77  C   UNL A   1      43.019  25.310  28.939  1.00  0.00     0.131 A 
ATOM     78  C   UNL A   1      43.330  27.012  26.785  1.00  0.00     0.055 A 
ATOM     79  C   UNL A   1      42.708  24.860  27.655  1.00  0.00     0.041 A 
ATOM     80  F   UNL A   1      42.825  24.461  29.960  1.00  0.00    -0.206 F 
ATOM     81  C   UNL A   1      42.851  25.719  26.569  1.00  0.00     0.022 A 
BRANCH  78  82
ATOM     82  S   UNL A   1      43.404  28.194  25.410  1.00  0.00     0.124 S 
ATOM     83  O   UNL A   1      42.963  29.425  26.055  1.00  0.00    -0.237 OA
ATOM     84  O   UNL A   1      44.812  28.134  25.034  1.00  0.00    -0.237 OA
ATOM     85  O   UNL A   1      42.475  27.634  24.431  1.00  0.00    -0.744 OA
ENDBRANCH  78  82
ENDBRANCH  51  75
BRANCH  63  86
ATOM     86  C   UNL A   1      48.828  25.499  33.587  1.00  0.00     0.023 A 
ATOM     87  C   UNL A   1      48.830  24.150  33.982  1.00  0.00     0.031 A 
ATOM     88  C   UNL A   1      50.028  26.042  33.093  1.00  0.00     0.131 A 
ATOM     89  C   UNL A   1      50.021  23.408  33.934  1.00  0.00     0.055 A 
ATOM     90  C   UNL A   1      51.191  25.280  32.978  1.00  0.00     0.041 A 
ATOM     91  F   UNL A   1      50.090  27.325  32.704  1.00  0.00    -0.206 F 
ATOM     92  C   UNL A   1      51.195  23.958  33.414  1.00  0.00     0.022 A 
BRANCH  89  93
ATOM     93  S   UNL A   1      50.045  21.746  34.660  1.00  0.00     0.124 S 
ATOM     94  O   UNL A   1      48.638  21.363  34.583  1.00  0.00    -0.237 OA
ATOM     95  O   UNL A   1      50.949  21.028  33.768  1.00  0.00    -0.237 OA
ATOM     96  O   UNL A   1      50.554  21.969  36.011  1.00  0.00    -0.744 OA
ENDBRANCH  89  93
ENDBRANCH  63  86
ENDBRANCH  37  38
ENDBRANCH  30  32
ENDBRANCH  29  30
ENDBRANCH  28  29
ENDBRANCH  27  28
ENDBRANCH  26  27
ENDBRANCH  25  26
ENDBRANCH  24  25
ENDBRANCH   1  24
TORSDOF 26
ENDMDL
MODEL 3
REMARK VINA RESULT:      -7.2      4.383      6.984
REMARK SMILES CC(=O)N[C@@H](C)C(=O)N1CCC[C@H]1C(=O)OCCOCCOCCOCCOC(=O)c1ccc(-c2c3nc(c(-c4cc(S(=O)(=O)[O-])ccc4F)c4ccc([nH]4)c(-c4cc(S(=O)(=O)[O-])ccc4F)c4nc(c(-c5cc(S(=O)(=O)[O-])ccc5F)c5ccc2[nH]5)C=C4)C=C3)cc1
REMARK SMILES IDX 22 1 21 2 20 3 19 4 18 5 17 6 16 7 14 8 15 9 13 10 9 11
REMARK SMILES IDX 10 12 11 13 12 14 7 15 8 16 5 17 6 18 4 19 1 20 2 21 3 22
REMARK SMILES IDX 23 24 24 25 25 26 26 27 27 28 28 29 29 30 30 31 31 32 32 33
REMARK SMILES IDX 93 34 33 35 92 36 34 37 35 38 36 39 86 40 37 41 91 42 85 43
REMARK SMILES IDX 87 44 38 45 90 46 84 47 83 48 39 50 71 51 51 52 70 53 52 54
REMARK SMILES IDX 55 55 69 56 88 57 53 58 54 59 68 61 89 62 56 63 40 64 41 65
REMARK SMILES IDX 49 66 42 67 48 68 50 69 47 70 43 71 44 72 45 73 46 74 72 75
REMARK SMILES IDX 73 76 81 77 74 78 80 79 82 80 79 81 75 82 76 83 77 84 78 85
REMARK SMILES IDX 57 86 58 87 66 88 59 89 65 90 67 91 64 92 60 93 61 94 62 95
REMARK SMILES IDX 63 96
REMARK H PARENT 4 23 87 49 55 60
REMARK Flexibility Score: inf
ROOT
ATOM      1  O   UNL A   1      34.051  32.778  30.326  1.00  0.00    -0.377 OA
ENDROOT
BRANCH   1   2
ATOM      2  C   UNL A   1      34.387  33.459  29.139  1.00  0.00     0.188 C 
BRANCH   2   3
ATOM      3  C   UNL A   1      34.229  32.575  27.897  1.00  0.00     0.188 C 
BRANCH   3   4
ATOM      4  O   UNL A   1      34.891  31.326  28.006  1.00  0.00    -0.376 OA
BRANCH   4   5
ATOM      5  C   UNL A   1      36.307  31.228  27.916  1.00  0.00     0.202 C 
BRANCH   5   6
ATOM      6  C   UNL A   1      37.239  31.124  29.141  1.00  0.00     0.261 C 
BRANCH   6   7
ATOM      7  O   UNL A   1      37.934  29.888  29.340  1.00  0.00    -0.462 OA
BRANCH   7   8
ATOM      8  C   UNL A   1      37.477  29.078  30.328  1.00  0.00     0.328 C 
ATOM      9  O   UNL A   1      36.390  29.212  30.876  1.00  0.00    -0.250 OA
BRANCH   8  10
ATOM     10  C   UNL A   1      38.518  27.986  30.651  1.00  0.00     0.195 C 
ATOM     11  N   UNL A   1      39.741  28.174  29.871  1.00  0.00    -0.327 N 
ATOM     12  C   UNL A   1      40.781  28.770  30.689  1.00  0.00     0.120 C 
ATOM     13  C   UNL A   1      40.537  28.154  32.050  1.00  0.00     0.024 C 
ATOM     14  C   UNL A   1      39.023  27.935  32.100  1.00  0.00     0.039 C 
BRANCH  11  15
ATOM     15  C   UNL A   1      39.770  27.643  28.603  1.00  0.00     0.245 C 
ATOM     16  O   UNL A   1      38.828  26.956  28.189  1.00  0.00    -0.272 OA
BRANCH  15  17
ATOM     17  C   UNL A   1      41.107  27.558  27.852  1.00  0.00     0.168 C 
ATOM     18  C   UNL A   1      41.163  28.769  26.919  1.00  0.00     0.041 C 
BRANCH  17  19
ATOM     19  N   UNL A   1      41.416  26.333  27.128  1.00  0.00    -0.345 N 
ATOM     20  C   UNL A   1      43.056  25.507  28.773  1.00  0.00     0.114 C 
ATOM     21  C   UNL A   1      42.273  25.342  27.500  1.00  0.00     0.217 C 
ATOM     22  O   UNL A   1      42.403  24.359  26.775  1.00  0.00    -0.275 OA
ATOM     23  H   UNL A   1      40.951  26.206  26.270  1.00  0.00     0.164 HD
ENDBRANCH  17  19
ENDBRANCH  15  17
ENDBRANCH  11  15
ENDBRANCH   8  10
ENDBRANCH   7   8
ENDBRANCH   6   7
ENDBRANCH   5   6
ENDBRANCH   4   5
ENDBRANCH   3   4
ENDBRANCH   2   3
ENDBRANCH   1   2
BRANCH   1  24
ATOM     24  C   UNL A   1      35.043  32.764  31.355  1.00  0.00     0.188 C 
BRANCH  24  25
ATOM     25  C   UNL A   1      35.925  34.001  31.702  1.00  0.00     0.188 C 
BRANCH  25  26
ATOM     26  O   UNL A   1      35.332  35.008  32.513  1.00  0.00    -0.376 OA
BRANCH  26  27
ATOM     27  C   UNL A   1      34.992  34.708  33.858  1.00  0.00     0.202 C 
BRANCH  27  28
ATOM     28  C   UNL A   1      36.154  34.414  34.824  1.00  0.00     0.261 C 
BRANCH  28  29
ATOM     29  O   UNL A   1      36.219  33.065  35.303  1.00  0.00    -0.460 OA
BRANCH  29  30
ATOM     30  C   UNL A   1      37.275  32.786  36.099  1.00  0.00     0.338 C 
ATOM     31  O   UNL A   1      37.239  32.564  37.299  1.00  0.00    -0.246 OA
BRANCH  30  32
ATOM     32  C   UNL A   1      38.458  32.578  35.244  1.00  0.00     0.060 A 
ATOM     33  C   UNL A   1      38.340  31.704  34.154  1.00  0.00     0.016 A 
ATOM     34  C   UNL A   1      39.657  33.253  35.488  1.00  0.00     0.016 A 
ATOM     35  C   UNL A   1      39.434  31.469  33.327  1.00  0.00     0.010 A 
ATOM     36  C   UNL A   1      40.766  32.987  34.680  1.00  0.00     0.010 A 
ATOM     37  C   UNL A   1      40.667  32.062  33.624  1.00  0.00    -0.014 A 
BRANCH  37  38
ATOM     38  C   UNL A   1      41.892  31.500  33.008  1.00  0.00     0.031 A 
ATOM     39  C   UNL A   1      42.538  30.327  33.696  1.00  0.00     0.074 A 
ATOM     40  C   UNL A   1      42.384  31.968  31.849  1.00  0.00     0.049 A 
ATOM     41  N   UNL A   1      43.618  29.665  33.380  1.00  0.00    -0.248 NA
ATOM     42  C   UNL A   1      41.864  29.840  34.911  1.00  0.00     0.031 C 
ATOM     43  C   UNL A   1      41.798  33.048  31.057  1.00  0.00     0.029 A 
ATOM     44  N   UNL A   1      43.491  31.586  31.134  1.00  0.00    -0.354 N 
ATOM     45  C   UNL A   1      43.762  28.692  34.364  1.00  0.00     0.074 A 
ATOM     46  C   UNL A   1      42.679  28.876  35.303  1.00  0.00     0.031 C 
ATOM     47  C   UNL A   1      42.557  33.243  29.963  1.00  0.00     0.029 A 
ATOM     48  C   UNL A   1      43.701  32.333  29.999  1.00  0.00     0.049 A 
ATOM     49  H   UNL A   1      44.079  30.846  31.408  1.00  0.00     0.167 HD
ATOM     50  C   UNL A   1      44.710  27.728  34.469  1.00  0.00     0.034 A 
ATOM     51  C   UNL A   1      44.715  32.295  29.110  1.00  0.00     0.034 A 
ATOM     52  C   UNL A   1      45.791  27.573  33.528  1.00  0.00     0.049 A 
ATOM     53  C   UNL A   1      45.823  31.285  29.307  1.00  0.00     0.074 A 
ATOM     54  C   UNL A   1      46.803  26.630  33.528  1.00  0.00     0.029 A 
ATOM     55  N   UNL A   1      46.016  28.395  32.431  1.00  0.00    -0.354 N 
ATOM     56  N   UNL A   1      45.953  30.368  30.240  1.00  0.00    -0.248 NA
ATOM     57  C   UNL A   1      46.917  31.304  28.328  1.00  0.00     0.031 C 
ATOM     58  C   UNL A   1      47.687  26.938  32.489  1.00  0.00     0.029 A 
ATOM     59  C   UNL A   1      47.173  28.010  31.774  1.00  0.00     0.049 A 
ATOM     60  H   UNL A   1      45.436  29.144  32.161  1.00  0.00     0.167 HD
ATOM     61  C   UNL A   1      47.122  29.673  29.930  1.00  0.00     0.074 A 
ATOM     62  C   UNL A   1      47.652  30.276  28.725  1.00  0.00     0.031 C 
ATOM     63  C   UNL A   1      47.697  28.625  30.576  1.00  0.00     0.034 A 
BRANCH  50  64
ATOM     64  C   UNL A   1      44.652  26.831  35.684  1.00  0.00     0.023 A 
ATOM     65  C   UNL A   1      45.083  27.261  36.951  1.00  0.00     0.031 A 
ATOM     66  C   UNL A   1      44.212  25.502  35.556  1.00  0.00     0.131 A 
ATOM     67  C   UNL A   1      45.149  26.348  38.015  1.00  0.00     0.055 A 
ATOM     68  C   UNL A   1      44.191  24.624  36.642  1.00  0.00     0.041 A 
ATOM     69  F   UNL A   1      43.818  25.023  34.365  1.00  0.00    -0.206 F 
ATOM     70  C   UNL A   1      44.679  25.040  37.876  1.00  0.00     0.022 A 
BRANCH  67  71
ATOM     71  S   UNL A   1      46.023  26.839  39.526  1.00  0.00     0.124 S 
ATOM     72  O   UNL A   1      47.025  27.764  39.000  1.00  0.00    -0.237 OA
ATOM     73  O   UNL A   1      44.960  27.436  40.326  1.00  0.00    -0.237 OA
ATOM     74  O   UNL A   1      46.559  25.580  40.038  1.00  0.00    -0.744 OA
ENDBRANCH  67  71
ENDBRANCH  50  64
BRANCH  51  75
ATOM     75  C   UNL A   1      44.759  33.257  27.971  1.00  0.00     0.023 A 
ATOM     76  C   UNL A   1      45.287  34.548  28.129  1.00  0.00     0.031 A 
ATOM     77  C   UNL A   1      44.221  32.917  26.716  1.00  0.00     0.131 A 
ATOM     78  C   UNL A   1      45.225  35.466  27.069  1.00  0.00     0.055 A 
ATOM     79  C   UNL A   1      44.215  33.814  25.646  1.00  0.00     0.041 A 
ATOM     80  F   UNL A   1      43.695  31.699  26.509  1.00  0.00    -0.206 F 
ATOM     81  C   UNL A   1      44.708  35.103  25.823  1.00  0.00     0.022 A 
BRANCH  78  82
ATOM     82  S   UNL A   1      45.755  37.176  27.367  1.00  0.00     0.124 S 
ATOM     83  O   UNL A   1      46.354  37.527  26.085  1.00  0.00    -0.237 OA
ATOM     84  O   UNL A   1      44.493  37.832  27.689  1.00  0.00    -0.237 OA
ATOM     85  O   UNL A   1      46.693  37.051  28.481  1.00  0.00    -0.744 OA
ENDBRANCH  78  82
ENDBRANCH  51  75
BRANCH  63  86
ATOM     86  C   UNL A   1      48.937  28.021  29.954  1.00  0.00     0.023 A 
ATOM     87  C   UNL A   1      48.873  27.149  28.854  1.00  0.00     0.031 A 
ATOM     88  C   UNL A   1      50.205  28.329  30.479  1.00  0.00     0.131 A 
ATOM     89  C   UNL A   1      50.049  26.567  28.353  1.00  0.00     0.055 A 
ATOM     90  C   UNL A   1      51.377  27.806  29.931  1.00  0.00     0.041 A 
ATOM     91  F   UNL A   1      50.329  29.152  31.531  1.00  0.00    -0.206 F 
ATOM     92  C   UNL A   1      51.301  26.907  28.871  1.00  0.00     0.022 A 
BRANCH  89  93
ATOM     93  S   UNL A   1      49.913  25.276  27.086  1.00  0.00     0.124 S 
ATOM     94  O   UNL A   1      51.285  24.784  27.008  1.00  0.00    -0.237 OA
ATOM     95  O   UNL A   1      48.941  24.362  27.674  1.00  0.00    -0.237 OA
ATOM     96  O   UNL A   1      49.447  26.002  25.907  1.00  0.00    -0.744 OA
ENDBRANCH  89  93
ENDBRANCH  63  86
ENDBRANCH  37  38
ENDBRANCH  30  32
ENDBRANCH  29  30
ENDBRANCH  28  29
ENDBRANCH  27  28
ENDBRANCH  26  27
ENDBRANCH  25  26
ENDBRANCH  24  25
ENDBRANCH   1  24
TORSDOF 26
ENDMDL
