MODEL 1
REMARK VINA RESULT:     -10.2      0.000      0.000
REMARK SMILES O=C(OCCOCCOCCOCCOC(=O)c1ccccc1C(=O)Nc1ccc(Cl)cn1)c1ccc(-c2c3nc(c(-c4cc(S(=O)(=O)[O-])ccc4F)c4ccc([nH]4)c(-c4cc(S(=O)(=O)[O-])ccc4F)c4nc(c(-c5cc(S(=O)(=O)[O-])ccc5F)c5ccc2[nH]5)C=C4)C=C3)cc1
REMARK SMILES IDX 8 1 7 2 6 3 5 4 4 5 3 6 2 7 1 8 34 9 35 10 96 11 36 12 95 13
REMARK SMILES IDX 37 14 38 15 39 16 89 17 40 18 94 19 88 20 90 21 41 22 93 23
REMARK SMILES IDX 87 24 86 25 42 27 74 28 54 29 73 30 55 31 58 32 72 33 91 34
REMARK SMILES IDX 56 35 57 36 71 38 92 39 59 40 43 41 44 42 52 43 45 44 51 45
REMARK SMILES IDX 53 46 50 47 46 48 47 49 48 50 49 51 75 52 76 53 84 54 77 55
REMARK SMILES IDX 83 56 85 57 82 58 78 59 79 60 80 61 81 62 60 63 61 64 69 65
REMARK SMILES IDX 62 66 68 67 70 68 67 69 63 70 64 71 65 72 66 73 9 74 10 75
REMARK SMILES IDX 11 76 12 77 13 78 14 79 15 80 16 81 17 82 18 83 19 84 23 85
REMARK SMILES IDX 20 86 22 87 21 88 24 89 25 90 26 91 27 93 28 94 33 95 29 96
REMARK SMILES IDX 32 97 30 98 31 99
REMARK H PARENT 90 26 58 37 26 92
REMARK Flexibility Score: inf
ROOT
ATOM      1  C   UNL A   1      35.547  22.018  24.325  1.00  0.00     0.188 C 
ENDROOT
BRANCH   1   2
ATOM      2  C   UNL A   1      36.741  22.936  24.484  1.00  0.00     0.188 C 
BRANCH   2   3
ATOM      3  O   UNL A   1      37.195  22.974  25.824  1.00  0.00    -0.376 OA
BRANCH   3   4
ATOM      4  C   UNL A   1      38.587  22.801  26.091  1.00  0.00     0.202 C 
BRANCH   4   5
ATOM      5  C   UNL A   1      39.027  21.375  25.797  1.00  0.00     0.261 C 
BRANCH   5   6
ATOM      6  O   UNL A   1      40.061  21.011  26.727  1.00  0.00    -0.460 OA
BRANCH   6   7
ATOM      7  C   UNL A   1      41.181  20.455  26.192  1.00  0.00     0.338 C 
ATOM      8  O   UNL A   1      41.309  19.319  25.767  1.00  0.00    -0.246 OA
BRANCH   7   9
ATOM      9  C   UNL A   1      42.254  21.472  26.262  1.00  0.00     0.060 A 
ATOM     10  C   UNL A   1      42.859  21.739  27.497  1.00  0.00     0.016 A 
ATOM     11  C   UNL A   1      42.593  22.226  25.142  1.00  0.00     0.016 A 
ATOM     12  C   UNL A   1      43.674  22.822  27.674  1.00  0.00     0.010 A 
ATOM     13  C   UNL A   1      43.392  23.359  25.319  1.00  0.00     0.010 A 
ATOM     14  C   UNL A   1      43.848  23.692  26.607  1.00  0.00    -0.014 A 
BRANCH  14  15
ATOM     15  C   UNL A   1      44.124  25.078  27.019  1.00  0.00     0.031 A 
ATOM     16  C   UNL A   1      45.465  25.641  26.634  1.00  0.00     0.074 A 
ATOM     17  C   UNL A   1      43.109  25.861  27.423  1.00  0.00     0.049 A 
ATOM     18  N   UNL A   1      45.986  26.805  26.900  1.00  0.00    -0.248 NA
ATOM     19  C   UNL A   1      46.335  24.772  25.817  1.00  0.00     0.031 C 
ATOM     20  C   UNL A   1      41.712  25.431  27.548  1.00  0.00     0.029 A 
ATOM     21  N   UNL A   1      43.080  27.188  27.735  1.00  0.00    -0.354 N 
ATOM     22  C   UNL A   1      47.263  26.778  26.344  1.00  0.00     0.074 A 
ATOM     23  C   UNL A   1      47.438  25.491  25.719  1.00  0.00     0.031 C 
ATOM     24  C   UNL A   1      40.959  26.488  27.891  1.00  0.00     0.029 A 
ATOM     25  C   UNL A   1      41.836  27.631  28.112  1.00  0.00     0.049 A 
ATOM     26  H   UNL A   1      43.872  27.772  27.694  1.00  0.00     0.167 HD
ATOM     27  C   UNL A   1      48.203  27.751  26.381  1.00  0.00     0.034 A 
ATOM     28  C   UNL A   1      41.478  28.817  28.637  1.00  0.00     0.034 A 
ATOM     29  C   UNL A   1      47.950  29.022  27.008  1.00  0.00     0.049 A 
ATOM     30  C   UNL A   1      42.577  29.834  28.813  1.00  0.00     0.074 A 
ATOM     31  C   UNL A   1      48.815  30.074  27.229  1.00  0.00     0.029 A 
ATOM     32  N   UNL A   1      46.711  29.405  27.519  1.00  0.00    -0.354 N 
ATOM     33  N   UNL A   1      43.840  29.760  28.444  1.00  0.00    -0.248 NA
ATOM     34  C   UNL A   1      42.216  31.083  29.484  1.00  0.00     0.031 C 
ATOM     35  C   UNL A   1      48.120  31.056  27.945  1.00  0.00     0.029 A 
ATOM     36  C   UNL A   1      46.795  30.663  28.082  1.00  0.00     0.049 A 
ATOM     37  H   UNL A   1      45.894  28.857  27.484  1.00  0.00     0.167 HD
ATOM     38  C   UNL A   1      44.417  30.970  28.811  1.00  0.00     0.074 A 
ATOM     39  C   UNL A   1      43.354  31.757  29.411  1.00  0.00     0.031 C 
ATOM     40  C   UNL A   1      45.699  31.401  28.669  1.00  0.00     0.034 A 
BRANCH  27  41
ATOM     41  C   UNL A   1      49.581  27.396  25.873  1.00  0.00     0.023 A 
ATOM     42  C   UNL A   1      50.086  27.864  24.646  1.00  0.00     0.031 A 
ATOM     43  C   UNL A   1      50.356  26.461  26.585  1.00  0.00     0.131 A 
ATOM     44  C   UNL A   1      51.279  27.328  24.129  1.00  0.00     0.055 A 
ATOM     45  C   UNL A   1      51.583  25.999  26.108  1.00  0.00     0.041 A 
ATOM     46  F   UNL A   1      49.910  25.945  27.741  1.00  0.00    -0.206 F 
ATOM     47  C   UNL A   1      52.043  26.419  24.864  1.00  0.00     0.022 A 
BRANCH  44  48
ATOM     48  S   UNL A   1      51.728  27.694  22.408  1.00  0.00     0.124 S 
ATOM     49  O   UNL A   1      50.957  26.687  21.681  1.00  0.00    -0.237 OA
ATOM     50  O   UNL A   1      51.283  29.074  22.250  1.00  0.00    -0.237 OA
ATOM     51  O   UNL A   1      53.175  27.498  22.381  1.00  0.00    -0.744 OA
ENDBRANCH  44  48
ENDBRANCH  27  41
BRANCH  28  52
ATOM     52  C   UNL A   1      40.086  29.061  29.112  1.00  0.00     0.023 A 
ATOM     53  C   UNL A   1      39.761  29.021  30.475  1.00  0.00     0.031 A 
ATOM     54  C   UNL A   1      39.036  29.282  28.196  1.00  0.00     0.131 A 
ATOM     55  C   UNL A   1      38.422  29.149  30.881  1.00  0.00     0.055 A 
ATOM     56  C   UNL A   1      37.717  29.473  28.609  1.00  0.00     0.041 A 
ATOM     57  F   UNL A   1      39.278  29.319  26.876  1.00  0.00    -0.206 F 
ATOM     58  C   UNL A   1      37.400  29.390  29.960  1.00  0.00     0.022 A 
BRANCH  55  59
ATOM     59  S   UNL A   1      38.015  28.883  32.630  1.00  0.00     0.124 S 
ATOM     60  O   UNL A   1      39.039  29.681  33.296  1.00  0.00    -0.237 OA
ATOM     61  O   UNL A   1      36.652  29.395  32.705  1.00  0.00    -0.237 OA
ATOM     62  O   UNL A   1      38.146  27.437  32.792  1.00  0.00    -0.744 OA
ENDBRANCH  55  59
ENDBRANCH  28  52
BRANCH  40  63
ATOM     63  C   UNL A   1      45.981  32.810  29.116  1.00  0.00     0.023 A 
ATOM     64  C   UNL A   1      45.883  33.898  28.236  1.00  0.00     0.031 A 
ATOM     65  C   UNL A   1      46.365  33.057  30.446  1.00  0.00     0.131 A 
ATOM     66  C   UNL A   1      46.244  35.177  28.675  1.00  0.00     0.055 A 
ATOM     67  C   UNL A   1      46.641  34.344  30.899  1.00  0.00     0.041 A 
ATOM     68  F   UNL A   1      46.474  32.048  31.325  1.00  0.00    -0.206 F 
ATOM     69  C   UNL A   1      46.599  35.412  30.007  1.00  0.00     0.022 A 
BRANCH  66  70
ATOM     70  S   UNL A   1      46.371  36.506  27.450  1.00  0.00     0.124 S 
ATOM     71  O   UNL A   1      45.876  37.656  28.201  1.00  0.00    -0.237 OA
ATOM     72  O   UNL A   1      47.797  36.513  27.143  1.00  0.00    -0.237 OA
ATOM     73  O   UNL A   1      45.504  36.054  26.364  1.00  0.00    -0.744 OA
ENDBRANCH  66  70
ENDBRANCH  40  63
ENDBRANCH  14  15
ENDBRANCH   7   9
ENDBRANCH   6   7
ENDBRANCH   5   6
ENDBRANCH   4   5
ENDBRANCH   3   4
ENDBRANCH   2   3
ENDBRANCH   1   2
BRANCH   1  74
ATOM     74  O   UNL A   1      35.246  21.421  25.570  1.00  0.00    -0.377 OA
BRANCH  74  75
ATOM     75  C   UNL A   1      33.873  21.455  25.974  1.00  0.00     0.188 C 
BRANCH  75  76
ATOM     76  C   UNL A   1      32.987  22.730  26.044  1.00  0.00     0.188 C 
BRANCH  76  77
ATOM     77  O   UNL A   1      32.134  22.935  24.923  1.00  0.00    -0.376 OA
BRANCH  77  78
ATOM     78  C   UNL A   1      30.790  23.307  25.202  1.00  0.00     0.202 C 
BRANCH  78  79
ATOM     79  C   UNL A   1      30.653  24.530  26.116  1.00  0.00     0.261 C 
BRANCH  79  80
ATOM     80  O   UNL A   1      31.218  25.804  25.723  1.00  0.00    -0.460 OA
BRANCH  80  81
ATOM     81  C   UNL A   1      30.781  26.484  24.649  1.00  0.00     0.339 C 
ATOM     82  O   UNL A   1      29.634  26.752  24.327  1.00  0.00    -0.246 OA
BRANCH  81  83
ATOM     83  C   UNL A   1      31.912  27.056  23.919  1.00  0.00     0.072 A 
ATOM     84  C   UNL A   1      32.555  26.205  22.993  1.00  0.00     0.016 A 
ATOM     85  C   UNL A   1      32.292  28.387  24.054  1.00  0.00     0.054 A 
ATOM     86  C   UNL A   1      33.476  26.713  22.084  1.00  0.00     0.001 A 
ATOM     87  C   UNL A   1      33.217  28.887  23.112  1.00  0.00     0.015 A 
ATOM     88  C   UNL A   1      33.787  28.065  22.127  1.00  0.00     0.001 A 
BRANCH  85  89
ATOM     89  C   UNL A   1      31.691  29.361  25.010  1.00  0.00     0.257 C 
ATOM     90  O   UNL A   1      32.186  29.394  26.142  1.00  0.00    -0.269 OA
ATOM     91  N   UNL A   1      30.715  30.283  24.721  1.00  0.00    -0.307 N 
ATOM     92  H   UNL A   1      30.634  30.964  25.428  1.00  0.00     0.171 HD
BRANCH  91  93
ATOM     93  C   UNL A   1      29.808  30.507  23.685  1.00  0.00     0.132 A 
ATOM     94  C   UNL A   1      29.749  29.774  22.507  1.00  0.00     0.049 A 
ATOM     95  N   UNL A   1      29.059  31.614  23.889  1.00  0.00    -0.238 NA
ATOM     96  C   UNL A   1      29.020  30.304  21.429  1.00  0.00     0.026 A 
ATOM     97  C   UNL A   1      28.390  32.121  22.821  1.00  0.00     0.134 A 
ATOM     98  C   UNL A   1      28.376  31.528  21.573  1.00  0.00     0.059 A 
ATOM     99  Cl  UNL A   1      27.677  32.332  20.229  1.00  0.00    -0.083 Cl
ENDBRANCH  91  93
ENDBRANCH  85  89
ENDBRANCH  81  83
ENDBRANCH  80  81
ENDBRANCH  79  80
ENDBRANCH  78  79
ENDBRANCH  77  78
ENDBRANCH  76  77
ENDBRANCH  75  76
ENDBRANCH  74  75
ENDBRANCH   1  74
TORSDOF 25
ENDMDL
MODEL 2
REMARK VINA RESULT:     -10.0      2.959      4.388
REMARK SMILES O=C(OCCOCCOCCOCCOC(=O)c1ccccc1C(=O)Nc1ccc(Cl)cn1)c1ccc(-c2c3nc(c(-c4cc(S(=O)(=O)[O-])ccc4F)c4ccc([nH]4)c(-c4cc(S(=O)(=O)[O-])ccc4F)c4nc(c(-c5cc(S(=O)(=O)[O-])ccc5F)c5ccc2[nH]5)C=C4)C=C3)cc1
REMARK SMILES IDX 8 1 7 2 6 3 5 4 4 5 3 6 2 7 1 8 34 9 35 10 96 11 36 12 95 13
REMARK SMILES IDX 37 14 38 15 39 16 89 17 40 18 94 19 88 20 90 21 41 22 93 23
REMARK SMILES IDX 87 24 86 25 42 27 74 28 54 29 73 30 55 31 58 32 72 33 91 34
REMARK SMILES IDX 56 35 57 36 71 38 92 39 59 40 43 41 44 42 52 43 45 44 51 45
REMARK SMILES IDX 53 46 50 47 46 48 47 49 48 50 49 51 75 52 76 53 84 54 77 55
REMARK SMILES IDX 83 56 85 57 82 58 78 59 79 60 80 61 81 62 60 63 61 64 69 65
REMARK SMILES IDX 62 66 68 67 70 68 67 69 63 70 64 71 65 72 66 73 9 74 10 75
REMARK SMILES IDX 11 76 12 77 13 78 14 79 15 80 16 81 17 82 18 83 19 84 23 85
REMARK SMILES IDX 20 86 22 87 21 88 24 89 25 90 26 91 27 93 28 94 33 95 29 96
REMARK SMILES IDX 32 97 30 98 31 99
REMARK H PARENT 90 26 58 37 26 92
REMARK Flexibility Score: inf
ROOT
ATOM      1  C   UNL A   1      34.676  21.068  25.395  1.00  0.00     0.188 C 
ENDROOT
BRANCH   1   2
ATOM      2  C   UNL A   1      36.057  20.640  24.948  1.00  0.00     0.188 C 
BRANCH   2   3
ATOM      3  O   UNL A   1      37.063  21.482  25.481  1.00  0.00    -0.376 OA
BRANCH   3   4
ATOM      4  C   UNL A   1      38.433  21.110  25.330  1.00  0.00     0.202 C 
BRANCH   4   5
ATOM      5  C   UNL A   1      39.315  21.853  26.322  1.00  0.00     0.261 C 
BRANCH   5   6
ATOM      6  O   UNL A   1      40.683  21.471  26.098  1.00  0.00    -0.460 OA
BRANCH   6   7
ATOM      7  C   UNL A   1      41.560  22.487  25.875  1.00  0.00     0.338 C 
ATOM      8  O   UNL A   1      42.549  22.463  25.161  1.00  0.00    -0.246 OA
BRANCH   7   9
ATOM      9  C   UNL A   1      41.127  23.632  26.705  1.00  0.00     0.060 A 
ATOM     10  C   UNL A   1      40.544  24.743  26.081  1.00  0.00     0.016 A 
ATOM     11  C   UNL A   1      41.379  23.654  28.074  1.00  0.00     0.016 A 
ATOM     12  C   UNL A   1      40.347  25.917  26.752  1.00  0.00     0.010 A 
ATOM     13  C   UNL A   1      41.221  24.861  28.761  1.00  0.00     0.010 A 
ATOM     14  C   UNL A   1      40.790  26.005  28.064  1.00  0.00    -0.014 A 
BRANCH  14  15
ATOM     15  C   UNL A   1      41.166  27.369  28.467  1.00  0.00     0.031 A 
ATOM     16  C   UNL A   1      42.558  27.817  28.112  1.00  0.00     0.074 A 
ATOM     17  C   UNL A   1      40.208  28.237  28.833  1.00  0.00     0.049 A 
ATOM     18  N   UNL A   1      43.165  28.939  28.377  1.00  0.00    -0.248 NA
ATOM     19  C   UNL A   1      43.376  26.870  27.330  1.00  0.00     0.031 C 
ATOM     20  C   UNL A   1      38.778  27.923  28.925  1.00  0.00     0.029 A 
ATOM     21  N   UNL A   1      40.278  29.567  29.128  1.00  0.00    -0.354 N 
ATOM     22  C   UNL A   1      44.450  28.801  27.857  1.00  0.00     0.074 A 
ATOM     23  C   UNL A   1      44.536  27.496  27.253  1.00  0.00     0.031 C 
ATOM     24  C   UNL A   1      38.105  29.042  29.234  1.00  0.00     0.029 A 
ATOM     25  C   UNL A   1      39.064  30.113  29.465  1.00  0.00     0.049 A 
ATOM     26  H   UNL A   1      41.116  30.084  29.101  1.00  0.00     0.167 HD
ATOM     27  C   UNL A   1      45.463  29.696  27.907  1.00  0.00     0.034 A 
ATOM     28  C   UNL A   1      38.790  31.332  29.965  1.00  0.00     0.034 A 
ATOM     29  C   UNL A   1      45.298  30.992  28.512  1.00  0.00     0.049 A 
ATOM     30  C   UNL A   1      39.963  32.260  30.159  1.00  0.00     0.074 A 
ATOM     31  C   UNL A   1      46.239  31.974  28.743  1.00  0.00     0.029 A 
ATOM     32  N   UNL A   1      44.081  31.481  28.984  1.00  0.00    -0.354 N 
ATOM     33  N   UNL A   1      41.225  32.079  29.825  1.00  0.00    -0.248 NA
ATOM     34  C   UNL A   1      39.686  33.544  30.804  1.00  0.00     0.031 C 
ATOM     35  C   UNL A   1      45.607  33.020  29.427  1.00  0.00     0.029 A 
ATOM     36  C   UNL A   1      44.252  32.736  29.534  1.00  0.00     0.049 A 
ATOM     37  H   UNL A   1      43.223  31.000  28.933  1.00  0.00     0.167 HD
ATOM     38  C   UNL A   1      41.887  33.244  30.193  1.00  0.00     0.074 A 
ATOM     39  C   UNL A   1      40.877  34.123  30.754  1.00  0.00     0.031 C 
ATOM     40  C   UNL A   1      43.203  33.568  30.081  1.00  0.00     0.034 A 
BRANCH  27  41
ATOM     41  C   UNL A   1      46.822  29.224  27.442  1.00  0.00     0.023 A 
ATOM     42  C   UNL A   1      47.047  28.696  26.158  1.00  0.00     0.031 A 
ATOM     43  C   UNL A   1      47.888  29.189  28.360  1.00  0.00     0.131 A 
ATOM     44  C   UNL A   1      48.274  28.076  25.861  1.00  0.00     0.055 A 
ATOM     45  C   UNL A   1      49.133  28.652  28.029  1.00  0.00     0.041 A 
ATOM     46  F   UNL A   1      47.725  29.640  29.614  1.00  0.00    -0.206 F 
ATOM     47  C   UNL A   1      49.326  28.074  26.779  1.00  0.00     0.022 A 
BRANCH  44  48
ATOM     48  S   UNL A   1      48.418  27.112  24.328  1.00  0.00     0.124 S 
ATOM     49  O   UNL A   1      48.930  28.114  23.396  1.00  0.00    -0.237 OA
ATOM     50  O   UNL A   1      49.350  26.055  24.705  1.00  0.00    -0.237 OA
ATOM     51  O   UNL A   1      47.049  26.672  24.068  1.00  0.00    -0.744 OA
ENDBRANCH  44  48
ENDBRANCH  27  41
BRANCH  28  52
ATOM     52  C   UNL A   1      37.410  31.694  30.398  1.00  0.00     0.023 A 
ATOM     53  C   UNL A   1      36.535  32.386  29.549  1.00  0.00     0.031 A 
ATOM     54  C   UNL A   1      36.960  31.403  31.703  1.00  0.00     0.131 A 
ATOM     55  C   UNL A   1      35.281  32.806  30.024  1.00  0.00     0.055 A 
ATOM     56  C   UNL A   1      35.689  31.765  32.149  1.00  0.00     0.041 A 
ATOM     57  F   UNL A   1      37.754  30.754  32.570  1.00  0.00    -0.206 F 
ATOM     58  C   UNL A   1      34.846  32.487  31.313  1.00  0.00     0.022 A 
BRANCH  55  59
ATOM     59  S   UNL A   1      34.266  33.876  28.968  1.00  0.00     0.124 S 
ATOM     60  O   UNL A   1      35.261  34.805  28.444  1.00  0.00    -0.237 OA
ATOM     61  O   UNL A   1      33.712  32.922  28.013  1.00  0.00    -0.237 OA
ATOM     62  O   UNL A   1      33.300  34.454  29.899  1.00  0.00    -0.744 OA
ENDBRANCH  55  59
ENDBRANCH  28  52
BRANCH  40  63
ATOM     63  C   UNL A   1      43.586  34.956  30.518  1.00  0.00     0.023 A 
ATOM     64  C   UNL A   1      43.604  36.036  29.621  1.00  0.00     0.031 A 
ATOM     65  C   UNL A   1      43.951  35.192  31.856  1.00  0.00     0.131 A 
ATOM     66  C   UNL A   1      44.056  37.287  30.055  1.00  0.00     0.055 A 
ATOM     67  C   UNL A   1      44.317  36.459  32.300  1.00  0.00     0.041 A 
ATOM     68  F   UNL A   1      43.951  34.191  32.751  1.00  0.00    -0.206 F 
ATOM     69  C   UNL A   1      44.389  37.513  31.394  1.00  0.00     0.022 A 
BRANCH  66  70
ATOM     70  S   UNL A   1      44.327  38.583  28.817  1.00  0.00     0.124 S 
ATOM     71  O   UNL A   1      43.946  37.904  27.582  1.00  0.00    -0.237 OA
ATOM     72  O   UNL A   1      43.426  39.638  29.268  1.00  0.00    -0.237 OA
ATOM     73  O   UNL A   1      45.750  38.885  28.945  1.00  0.00    -0.744 OA
ENDBRANCH  66  70
ENDBRANCH  40  63
ENDBRANCH  14  15
ENDBRANCH   7   9
ENDBRANCH   6   7
ENDBRANCH   5   6
ENDBRANCH   4   5
ENDBRANCH   3   4
ENDBRANCH   2   3
ENDBRANCH   1   2
BRANCH   1  74
ATOM     74  O   UNL A   1      34.752  22.346  25.994  1.00  0.00    -0.377 OA
BRANCH  74  75
ATOM     75  C   UNL A   1      33.837  23.331  25.505  1.00  0.00     0.188 C 
BRANCH  75  76
ATOM     76  C   UNL A   1      32.643  23.054  24.548  1.00  0.00     0.188 C 
BRANCH  76  77
ATOM     77  O   UNL A   1      32.787  23.582  23.234  1.00  0.00    -0.376 OA
BRANCH  77  78
ATOM     78  C   UNL A   1      33.657  24.696  23.085  1.00  0.00     0.202 C 
BRANCH  78  79
ATOM     79  C   UNL A   1      33.254  25.665  21.967  1.00  0.00     0.261 C 
BRANCH  79  80
ATOM     80  O   UNL A   1      32.091  26.513  22.118  1.00  0.00    -0.460 OA
BRANCH  80  81
ATOM     81  C   UNL A   1      32.176  27.779  22.565  1.00  0.00     0.339 C 
ATOM     82  O   UNL A   1      33.168  28.477  22.700  1.00  0.00    -0.246 OA
BRANCH  81  83
ATOM     83  C   UNL A   1      30.838  28.342  22.746  1.00  0.00     0.072 A 
ATOM     84  C   UNL A   1      30.583  29.571  22.100  1.00  0.00     0.016 A 
ATOM     85  C   UNL A   1      29.835  27.673  23.441  1.00  0.00     0.054 A 
ATOM     86  C   UNL A   1      29.288  30.069  22.009  1.00  0.00     0.001 A 
ATOM     87  C   UNL A   1      28.525  28.186  23.322  1.00  0.00     0.015 A 
ATOM     88  C   UNL A   1      28.252  29.358  22.599  1.00  0.00     0.001 A 
BRANCH  85  89
ATOM     89  C   UNL A   1      30.004  26.383  24.168  1.00  0.00     0.257 C 
ATOM     90  O   UNL A   1      29.330  25.431  23.759  1.00  0.00    -0.269 OA
ATOM     91  N   UNL A   1      30.904  26.132  25.175  1.00  0.00    -0.307 N 
ATOM     92  H   UNL A   1      30.999  25.167  25.348  1.00  0.00     0.171 HD
BRANCH  91  93
ATOM     93  C   UNL A   1      31.719  26.889  26.017  1.00  0.00     0.132 A 
ATOM     94  C   UNL A   1      31.267  27.865  26.895  1.00  0.00     0.049 A 
ATOM     95  N   UNL A   1      33.034  26.665  25.797  1.00  0.00    -0.238 NA
ATOM     96  C   UNL A   1      32.204  28.763  27.433  1.00  0.00     0.026 A 
ATOM     97  C   UNL A   1      33.914  27.566  26.303  1.00  0.00     0.134 A 
ATOM     98  C   UNL A   1      33.545  28.644  27.085  1.00  0.00     0.059 A 
ATOM     99  Cl  UNL A   1      34.689  29.846  27.516  1.00  0.00    -0.083 Cl
ENDBRANCH  91  93
ENDBRANCH  85  89
ENDBRANCH  81  83
ENDBRANCH  80  81
ENDBRANCH  79  80
ENDBRANCH  78  79
ENDBRANCH  77  78
ENDBRANCH  76  77
ENDBRANCH  75  76
ENDBRANCH  74  75
ENDBRANCH   1  74
TORSDOF 25
ENDMDL
MODEL 3
REMARK VINA RESULT:     -10.0      2.591      3.706
REMARK SMILES O=C(OCCOCCOCCOCCOC(=O)c1ccccc1C(=O)Nc1ccc(Cl)cn1)c1ccc(-c2c3nc(c(-c4cc(S(=O)(=O)[O-])ccc4F)c4ccc([nH]4)c(-c4cc(S(=O)(=O)[O-])ccc4F)c4nc(c(-c5cc(S(=O)(=O)[O-])ccc5F)c5ccc2[nH]5)C=C4)C=C3)cc1
REMARK SMILES IDX 8 1 7 2 6 3 5 4 4 5 3 6 2 7 1 8 34 9 35 10 96 11 36 12 95 13
REMARK SMILES IDX 37 14 38 15 39 16 89 17 40 18 94 19 88 20 90 21 41 22 93 23
REMARK SMILES IDX 87 24 86 25 42 27 74 28 54 29 73 30 55 31 58 32 72 33 91 34
REMARK SMILES IDX 56 35 57 36 71 38 92 39 59 40 43 41 44 42 52 43 45 44 51 45
REMARK SMILES IDX 53 46 50 47 46 48 47 49 48 50 49 51 75 52 76 53 84 54 77 55
REMARK SMILES IDX 83 56 85 57 82 58 78 59 79 60 80 61 81 62 60 63 61 64 69 65
REMARK SMILES IDX 62 66 68 67 70 68 67 69 63 70 64 71 65 72 66 73 9 74 10 75
REMARK SMILES IDX 11 76 12 77 13 78 14 79 15 80 16 81 17 82 18 83 19 84 23 85
REMARK SMILES IDX 20 86 22 87 21 88 24 89 25 90 26 91 27 93 28 94 33 95 29 96
REMARK SMILES IDX 32 97 30 98 31 99
REMARK H PARENT 90 26 58 37 26 92
REMARK Flexibility Score: inf
ROOT
ATOM      1  C   UNL A   1      34.650  20.990  25.513  1.00  0.00     0.188 C 
ENDROOT
BRANCH   1   2
ATOM      2  C   UNL A   1      35.848  20.243  24.967  1.00  0.00     0.188 C 
BRANCH   2   3
ATOM      3  O   UNL A   1      36.980  21.085  24.849  1.00  0.00    -0.376 OA
BRANCH   3   4
ATOM      4  C   UNL A   1      38.231  20.645  25.377  1.00  0.00     0.202 C 
BRANCH   4   5
ATOM      5  C   UNL A   1      38.935  21.766  26.126  1.00  0.00     0.261 C 
BRANCH   5   6
ATOM      6  O   UNL A   1      40.297  21.376  26.365  1.00  0.00    -0.460 OA
BRANCH   6   7
ATOM      7  C   UNL A   1      41.244  22.325  26.131  1.00  0.00     0.338 C 
ATOM      8  O   UNL A   1      42.197  22.244  25.374  1.00  0.00    -0.246 OA
BRANCH   7   9
ATOM      9  C   UNL A   1      40.938  23.477  27.008  1.00  0.00     0.060 A 
ATOM     10  C   UNL A   1      40.178  24.538  26.498  1.00  0.00     0.016 A 
ATOM     11  C   UNL A   1      41.474  23.556  28.290  1.00  0.00     0.016 A 
ATOM     12  C   UNL A   1      40.068  25.724  27.169  1.00  0.00     0.010 A 
ATOM     13  C   UNL A   1      41.403  24.777  28.968  1.00  0.00     0.010 A 
ATOM     14  C   UNL A   1      40.775  25.875  28.353  1.00  0.00    -0.014 A 
BRANCH  14  15
ATOM     15  C   UNL A   1      41.157  27.268  28.635  1.00  0.00     0.031 A 
ATOM     16  C   UNL A   1      42.510  27.708  28.147  1.00  0.00     0.074 A 
ATOM     17  C   UNL A   1      40.214  28.147  29.014  1.00  0.00     0.049 A 
ATOM     18  N   UNL A   1      43.116  28.853  28.290  1.00  0.00    -0.248 NA
ATOM     19  C   UNL A   1      43.284  26.720  27.370  1.00  0.00     0.031 C 
ATOM     20  C   UNL A   1      38.800  27.823  29.234  1.00  0.00     0.029 A 
ATOM     21  N   UNL A   1      40.282  29.495  29.214  1.00  0.00    -0.354 N 
ATOM     22  C   UNL A   1      44.360  28.696  27.685  1.00  0.00     0.074 A 
ATOM     23  C   UNL A   1      44.424  27.353  27.164  1.00  0.00     0.031 C 
ATOM     24  C   UNL A   1      38.133  28.952  29.518  1.00  0.00     0.029 A 
ATOM     25  C   UNL A   1      39.088  30.048  29.604  1.00  0.00     0.049 A 
ATOM     26  H   UNL A   1      41.107  30.019  29.089  1.00  0.00     0.167 HD
ATOM     27  C   UNL A   1      45.360  29.604  27.599  1.00  0.00     0.034 A 
ATOM     28  C   UNL A   1      38.831  31.294  30.041  1.00  0.00     0.034 A 
ATOM     29  C   UNL A   1      45.218  30.936  28.127  1.00  0.00     0.049 A 
ATOM     30  C   UNL A   1      39.999  32.247  30.084  1.00  0.00     0.074 A 
ATOM     31  C   UNL A   1      46.156  31.942  28.221  1.00  0.00     0.029 A 
ATOM     32  N   UNL A   1      44.031  31.441  28.656  1.00  0.00    -0.354 N 
ATOM     33  N   UNL A   1      41.235  32.060  29.669  1.00  0.00    -0.248 NA
ATOM     34  C   UNL A   1      39.749  33.568  30.661  1.00  0.00     0.031 C 
ATOM     35  C   UNL A   1      45.559  33.024  28.879  1.00  0.00     0.029 A 
ATOM     36  C   UNL A   1      44.220  32.732  29.106  1.00  0.00     0.049 A 
ATOM     37  H   UNL A   1      43.180  30.947  28.702  1.00  0.00     0.167 HD
ATOM     38  C   UNL A   1      41.903  33.255  29.907  1.00  0.00     0.074 A 
ATOM     39  C   UNL A   1      40.923  34.157  30.483  1.00  0.00     0.031 C 
ATOM     40  C   UNL A   1      43.202  33.587  29.674  1.00  0.00     0.034 A 
BRANCH  27  41
ATOM     41  C   UNL A   1      46.687  29.119  27.065  1.00  0.00     0.023 A 
ATOM     42  C   UNL A   1      46.897  28.808  25.708  1.00  0.00     0.031 A 
ATOM     43  C   UNL A   1      47.731  28.841  27.967  1.00  0.00     0.131 A 
ATOM     44  C   UNL A   1      48.079  28.158  25.313  1.00  0.00     0.055 A 
ATOM     45  C   UNL A   1      48.938  28.276  27.554  1.00  0.00     0.041 A 
ATOM     46  F   UNL A   1      47.578  29.075  29.281  1.00  0.00    -0.206 F 
ATOM     47  C   UNL A   1      49.111  27.914  26.222  1.00  0.00     0.022 A 
BRANCH  44  48
ATOM     48  S   UNL A   1      48.179  27.470  23.635  1.00  0.00     0.124 S 
ATOM     49  O   UNL A   1      49.554  27.796  23.264  1.00  0.00    -0.237 OA
ATOM     50  O   UNL A   1      47.895  26.056  23.854  1.00  0.00    -0.237 OA
ATOM     51  O   UNL A   1      47.152  28.205  22.900  1.00  0.00    -0.744 OA
ENDBRANCH  44  48
ENDBRANCH  27  41
BRANCH  28  52
ATOM     52  C   UNL A   1      37.481  31.668  30.553  1.00  0.00     0.023 A 
ATOM     53  C   UNL A   1      36.542  32.313  29.735  1.00  0.00     0.031 A 
ATOM     54  C   UNL A   1      37.126  31.437  31.898  1.00  0.00     0.131 A 
ATOM     55  C   UNL A   1      35.320  32.747  30.277  1.00  0.00     0.055 A 
ATOM     56  C   UNL A   1      35.885  31.812  32.414  1.00  0.00     0.041 A 
ATOM     57  F   UNL A   1      37.985  30.837  32.737  1.00  0.00    -0.206 F 
ATOM     58  C   UNL A   1      34.980  32.488  31.606  1.00  0.00     0.022 A 
BRANCH  55  59
ATOM     59  S   UNL A   1      34.224  33.759  29.244  1.00  0.00     0.124 S 
ATOM     60  O   UNL A   1      35.165  34.698  28.645  1.00  0.00    -0.237 OA
ATOM     61  O   UNL A   1      33.650  32.763  28.346  1.00  0.00    -0.237 OA
ATOM     62  O   UNL A   1      33.290  34.338  30.207  1.00  0.00    -0.744 OA
ENDBRANCH  55  59
ENDBRANCH  28  52
BRANCH  40  63
ATOM     63  C   UNL A   1      43.592  35.006  29.988  1.00  0.00     0.023 A 
ATOM     64  C   UNL A   1      43.442  36.039  29.051  1.00  0.00     0.031 A 
ATOM     65  C   UNL A   1      44.136  35.318  31.247  1.00  0.00     0.131 A 
ATOM     66  C   UNL A   1      43.905  37.323  29.357  1.00  0.00     0.055 A 
ATOM     67  C   UNL A   1      44.516  36.616  31.576  1.00  0.00     0.041 A 
ATOM     68  F   UNL A   1      44.301  34.364  32.177  1.00  0.00    -0.206 F 
ATOM     69  C   UNL A   1      44.418  37.626  30.622  1.00  0.00     0.022 A 
BRANCH  66  70
ATOM     70  S   UNL A   1      43.947  38.563  28.036  1.00  0.00     0.124 S 
ATOM     71  O   UNL A   1      43.524  37.782  26.877  1.00  0.00    -0.237 OA
ATOM     72  O   UNL A   1      42.996  39.561  28.514  1.00  0.00    -0.237 OA
ATOM     73  O   UNL A   1      45.343  38.994  28.017  1.00  0.00    -0.744 OA
ENDBRANCH  66  70
ENDBRANCH  40  63
ENDBRANCH  14  15
ENDBRANCH   7   9
ENDBRANCH   6   7
ENDBRANCH   5   6
ENDBRANCH   4   5
ENDBRANCH   3   4
ENDBRANCH   2   3
ENDBRANCH   1   2
BRANCH   1  74
ATOM     74  O   UNL A   1      35.016  22.328  25.785  1.00  0.00    -0.377 OA
BRANCH  74  75
ATOM     75  C   UNL A   1      34.369  22.949  26.899  1.00  0.00     0.188 C 
BRANCH  75  76
ATOM     76  C   UNL A   1      32.914  22.664  27.368  1.00  0.00     0.188 C 
BRANCH  76  77
ATOM     77  O   UNL A   1      31.987  23.720  27.139  1.00  0.00    -0.376 OA
BRANCH  77  78
ATOM     78  C   UNL A   1      32.511  24.921  26.589  1.00  0.00     0.202 C 
BRANCH  78  79
ATOM     79  C   UNL A   1      31.486  25.756  25.812  1.00  0.00     0.261 C 
BRANCH  79  80
ATOM     80  O   UNL A   1      31.222  27.128  26.192  1.00  0.00    -0.460 OA
BRANCH  80  81
ATOM     81  C   UNL A   1      31.359  28.153  25.332  1.00  0.00     0.339 C 
ATOM     82  O   UNL A   1      31.404  29.349  25.568  1.00  0.00    -0.246 OA
BRANCH  81  83
ATOM     83  C   UNL A   1      31.626  27.649  23.984  1.00  0.00     0.072 A 
ATOM     84  C   UNL A   1      32.981  27.608  23.588  1.00  0.00     0.016 A 
ATOM     85  C   UNL A   1      30.621  27.154  23.160  1.00  0.00     0.054 A 
ATOM     86  C   UNL A   1      33.361  26.931  22.435  1.00  0.00     0.001 A 
ATOM     87  C   UNL A   1      31.029  26.458  22.002  1.00  0.00     0.015 A 
ATOM     88  C   UNL A   1      32.383  26.331  21.654  1.00  0.00     0.001 A 
BRANCH  85  89
ATOM     89  C   UNL A   1      29.164  27.165  23.477  1.00  0.00     0.257 C 
ATOM     90  O   UNL A   1      28.683  26.101  23.881  1.00  0.00    -0.269 OA
ATOM     91  N   UNL A   1      28.338  28.263  23.455  1.00  0.00    -0.307 N 
ATOM     92  H   UNL A   1      27.484  28.087  23.913  1.00  0.00     0.171 HD
BRANCH  91  93
ATOM     93  C   UNL A   1      28.395  29.563  22.953  1.00  0.00     0.132 A 
ATOM     94  C   UNL A   1      27.905  30.688  23.602  1.00  0.00     0.049 A 
ATOM     95  N   UNL A   1      28.868  29.604  21.687  1.00  0.00    -0.238 NA
ATOM     96  C   UNL A   1      27.732  31.866  22.855  1.00  0.00     0.026 A 
ATOM     97  C   UNL A   1      28.658  30.744  20.979  1.00  0.00     0.134 A 
ATOM     98  C   UNL A   1      28.063  31.875  21.504  1.00  0.00     0.059 A 
ATOM     99  Cl  UNL A   1      27.653  33.199  20.494  1.00  0.00    -0.083 Cl
ENDBRANCH  91  93
ENDBRANCH  85  89
ENDBRANCH  81  83
ENDBRANCH  80  81
ENDBRANCH  79  80
ENDBRANCH  78  79
ENDBRANCH  77  78
ENDBRANCH  76  77
ENDBRANCH  75  76
ENDBRANCH  74  75
ENDBRANCH   1  74
TORSDOF 25
ENDMDL
