MODEL 1
REMARK VINA RESULT:      -8.9      0.000      0.000
REMARK SMILES C[C@@H]1CC[N@@H+]1[C@@H](CO)C(=O)OCCOCCOCCOCCOC(=O)c1ccc(-c2c3nc(c(-c4cc(S(=O)(=O)[O-])ccc4F)c4ccc([nH]4)c(-c4cc(S(=O)(=O)[O-])ccc4F)c4nc(c(-c5cc(S(=O)(=O)[O-])ccc5F)c5ccc2[nH]5)C=C4)C=C3)cc1
REMARK SMILES IDX 18 1 17 2 16 3 15 4 14 5 13 6 12 7 11 8 9 9 10 10 6 11 5 12
REMARK SMILES IDX 1 13 2 14 3 15 4 16 7 18 8 19 19 21 20 22 21 23 22 24 23 25
REMARK SMILES IDX 24 26 25 27 26 28 27 29 88 30 28 31 87 32 29 33 30 34 31 35
REMARK SMILES IDX 81 36 32 37 86 38 80 39 82 40 33 41 85 42 79 43 78 44 34 46
REMARK SMILES IDX 66 47 46 48 65 49 47 50 50 51 64 52 83 53 48 54 49 55 63 57
REMARK SMILES IDX 84 58 51 59 35 60 36 61 44 62 37 63 43 64 45 65 42 66 38 67
REMARK SMILES IDX 39 68 40 69 41 70 67 71 68 72 76 73 69 74 75 75 77 76 74 77
REMARK SMILES IDX 70 78 71 79 72 80 73 81 52 82 53 83 61 84 54 85 60 86 62 87
REMARK SMILES IDX 59 88 55 89 56 90 57 91 58 92
REMARK H PARENT 5 17 8 20 82 45 50 56
REMARK Flexibility Score: inf
ROOT
ATOM      1  C   UNL A   1      38.900  21.665  25.879  1.00  0.00     0.188 C 
ENDROOT
BRANCH   1   2
ATOM      2  O   UNL A   1      38.068  20.796  25.121  1.00  0.00    -0.377 OA
BRANCH   2   3
ATOM      3  C   UNL A   1      36.880  21.354  24.600  1.00  0.00     0.188 C 
BRANCH   3   4
ATOM      4  C   UNL A   1      35.720  21.410  25.606  1.00  0.00     0.188 C 
BRANCH   4   5
ATOM      5  O   UNL A   1      34.495  22.059  25.295  1.00  0.00    -0.376 OA
BRANCH   5   6
ATOM      6  C   UNL A   1      34.043  22.205  23.956  1.00  0.00     0.202 C 
BRANCH   6   7
ATOM      7  C   UNL A   1      34.527  23.327  23.023  1.00  0.00     0.261 C 
BRANCH   7   8
ATOM      8  O   UNL A   1      34.310  24.679  23.449  1.00  0.00    -0.459 OA
BRANCH   8   9
ATOM      9  C   UNL A   1      33.498  25.429  22.665  1.00  0.00     0.367 C 
ATOM     10  O   UNL A   1      33.592  25.488  21.440  1.00  0.00    -0.245 OA
BRANCH   9  11
ATOM     11  C   UNL A   1      32.474  26.275  23.441  1.00  0.00     0.321 C 
BRANCH  11  12
ATOM     12  N   UNL A   1      31.106  26.191  22.881  1.00  0.00    -0.319 N 
ATOM     13  C   UNL A   1      30.683  28.663  23.465  1.00  0.00     0.075 C 
ATOM     14  C   UNL A   1      30.142  27.273  23.208  1.00  0.00     0.187 C 
ATOM     15  C   UNL A   1      29.589  26.381  24.342  1.00  0.00     0.126 C 
ATOM     16  C   UNL A   1      30.182  25.221  23.513  1.00  0.00     0.269 C 
ATOM     17  H   UNL A   1      31.432  26.071  21.921  1.00  0.00     0.349 HD
ENDBRANCH  11  12
BRANCH  11  18
ATOM     18  C   UNL A   1      32.789  26.067  24.933  1.00  0.00     0.233 C 
BRANCH  18  19
ATOM     19  O   UNL A   1      33.951  26.735  25.408  1.00  0.00    -0.390 OA
ATOM     20  H   UNL A   1      34.721  26.456  24.889  1.00  0.00     0.210 HD
ENDBRANCH  18  19
ENDBRANCH  11  18
ENDBRANCH   9  11
ENDBRANCH   8   9
ENDBRANCH   7   8
ENDBRANCH   6   7
ENDBRANCH   5   6
ENDBRANCH   4   5
ENDBRANCH   3   4
ENDBRANCH   2   3
ENDBRANCH   1   2
BRANCH   1  21
ATOM     21  C   UNL A   1      40.119  21.062  26.616  1.00  0.00     0.188 C 
BRANCH  21  22
ATOM     22  O   UNL A   1      41.383  21.458  26.097  1.00  0.00    -0.376 OA
BRANCH  22  23
ATOM     23  C   UNL A   1      42.440  20.509  26.087  1.00  0.00     0.202 C 
BRANCH  23  24
ATOM     24  C   UNL A   1      43.821  20.966  25.583  1.00  0.00     0.261 C 
BRANCH  24  25
ATOM     25  O   UNL A   1      44.371  22.148  26.184  1.00  0.00    -0.460 OA
BRANCH  25  26
ATOM     26  C   UNL A   1      44.004  23.345  25.678  1.00  0.00     0.338 C 
ATOM     27  O   UNL A   1      43.737  23.593  24.513  1.00  0.00    -0.246 OA
BRANCH  26  28
ATOM     28  C   UNL A   1      43.787  24.265  26.813  1.00  0.00     0.060 A 
ATOM     29  C   UNL A   1      42.970  23.860  27.879  1.00  0.00     0.016 A 
ATOM     30  C   UNL A   1      44.392  25.523  26.826  1.00  0.00     0.016 A 
ATOM     31  C   UNL A   1      42.721  24.731  28.941  1.00  0.00     0.010 A 
ATOM     32  C   UNL A   1      44.123  26.402  27.877  1.00  0.00     0.010 A 
ATOM     33  C   UNL A   1      43.257  26.025  28.920  1.00  0.00    -0.014 A 
BRANCH  33  34
ATOM     34  C   UNL A   1      42.741  27.069  29.842  1.00  0.00     0.031 A 
ATOM     35  C   UNL A   1      43.428  27.230  31.170  1.00  0.00     0.074 A 
ATOM     36  C   UNL A   1      41.686  27.840  29.524  1.00  0.00     0.049 A 
ATOM     37  N   UNL A   1      43.084  27.947  32.207  1.00  0.00    -0.248 NA
ATOM     38  C   UNL A   1      44.670  26.462  31.353  1.00  0.00     0.031 C 
ATOM     39  C   UNL A   1      40.983  27.828  28.244  1.00  0.00     0.029 A 
ATOM     40  N   UNL A   1      41.011  28.775  30.272  1.00  0.00    -0.354 N 
ATOM     41  C   UNL A   1      44.056  27.704  33.172  1.00  0.00     0.074 A 
ATOM     42  C   UNL A   1      44.983  26.748  32.606  1.00  0.00     0.031 C 
ATOM     43  C   UNL A   1      39.959  28.698  28.303  1.00  0.00     0.029 A 
ATOM     44  C   UNL A   1      39.901  29.287  29.641  1.00  0.00     0.049 A 
ATOM     45  H   UNL A   1      41.295  29.051  31.173  1.00  0.00     0.167 HD
ATOM     46  C   UNL A   1      44.162  28.230  34.416  1.00  0.00     0.034 A 
ATOM     47  C   UNL A   1      38.930  30.101  30.106  1.00  0.00     0.034 A 
ATOM     48  C   UNL A   1      43.218  29.169  34.967  1.00  0.00     0.049 A 
ATOM     49  C   UNL A   1      39.007  30.592  31.536  1.00  0.00     0.074 A 
ATOM     50  C   UNL A   1      43.229  29.771  36.214  1.00  0.00     0.029 A 
ATOM     51  N   UNL A   1      42.085  29.635  34.312  1.00  0.00    -0.354 N 
ATOM     52  N   UNL A   1      39.918  30.345  32.450  1.00  0.00    -0.248 NA
ATOM     53  C   UNL A   1      37.926  31.476  31.996  1.00  0.00     0.031 C 
ATOM     54  C   UNL A   1      42.061  30.527  36.344  1.00  0.00     0.029 A 
ATOM     55  C   UNL A   1      41.372  30.486  35.143  1.00  0.00     0.049 A 
ATOM     56  H   UNL A   1      41.825  29.395  33.393  1.00  0.00     0.167 HD
ATOM     57  C   UNL A   1      39.544  31.081  33.573  1.00  0.00     0.074 A 
ATOM     58  C   UNL A   1      38.325  31.778  33.223  1.00  0.00     0.031 C 
ATOM     59  C   UNL A   1      40.158  31.182  34.780  1.00  0.00     0.034 A 
BRANCH  46  60
ATOM     60  C   UNL A   1      45.303  27.749  35.280  1.00  0.00     0.023 A 
ATOM     61  C   UNL A   1      45.112  26.810  36.309  1.00  0.00     0.031 A 
ATOM     62  C   UNL A   1      46.598  28.263  35.092  1.00  0.00     0.131 A 
ATOM     63  C   UNL A   1      46.179  26.471  37.154  1.00  0.00     0.055 A 
ATOM     64  C   UNL A   1      47.676  27.854  35.879  1.00  0.00     0.041 A 
ATOM     65  F   UNL A   1      46.837  29.185  34.145  1.00  0.00    -0.206 F 
ATOM     66  C   UNL A   1      47.467  26.965  36.928  1.00  0.00     0.022 A 
BRANCH  63  67
ATOM     67  S   UNL A   1      45.829  25.500  38.645  1.00  0.00     0.124 S 
ATOM     68  O   UNL A   1      47.057  24.720  38.785  1.00  0.00    -0.237 OA
ATOM     69  O   UNL A   1      45.612  26.534  39.650  1.00  0.00    -0.237 OA
ATOM     70  O   UNL A   1      44.646  24.724  38.281  1.00  0.00    -0.744 OA
ENDBRANCH  63  67
ENDBRANCH  46  60
BRANCH  47  71
ATOM     71  C   UNL A   1      37.769  30.469  29.243  1.00  0.00     0.023 A 
ATOM     72  C   UNL A   1      37.295  31.790  29.189  1.00  0.00     0.031 A 
ATOM     73  C   UNL A   1      37.075  29.492  28.507  1.00  0.00     0.131 A 
ATOM     74  C   UNL A   1      36.131  32.087  28.460  1.00  0.00     0.055 A 
ATOM     75  C   UNL A   1      35.955  29.804  27.733  1.00  0.00     0.041 A 
ATOM     76  F   UNL A   1      37.477  28.211  28.529  1.00  0.00    -0.206 F 
ATOM     77  C   UNL A   1      35.470  31.107  27.718  1.00  0.00     0.022 A 
BRANCH  74  78
ATOM     78  S   UNL A   1      35.435  33.758  28.582  1.00  0.00     0.124 S 
ATOM     79  O   UNL A   1      36.593  34.528  29.022  1.00  0.00    -0.237 OA
ATOM     80  O   UNL A   1      34.985  33.999  27.215  1.00  0.00    -0.237 OA
ATOM     81  O   UNL A   1      34.369  33.610  29.571  1.00  0.00    -0.744 OA
ENDBRANCH  74  78
ENDBRANCH  47  71
BRANCH  59  82
ATOM     82  C   UNL A   1      39.575  32.145  35.788  1.00  0.00     0.023 A 
ATOM     83  C   UNL A   1      39.957  33.496  35.848  1.00  0.00     0.031 A 
ATOM     84  C   UNL A   1      38.594  31.696  36.691  1.00  0.00     0.131 A 
ATOM     85  C   UNL A   1      39.394  34.338  36.819  1.00  0.00     0.055 A 
ATOM     86  C   UNL A   1      37.990  32.553  37.611  1.00  0.00     0.041 A 
ATOM     87  F   UNL A   1      38.192  30.414  36.683  1.00  0.00    -0.206 F 
ATOM     88  C   UNL A   1      38.397  33.881  37.687  1.00  0.00     0.022 A 
BRANCH  85  89
ATOM     89  S   UNL A   1      40.039  36.024  36.997  1.00  0.00     0.124 S 
ATOM     90  O   UNL A   1      39.670  36.626  35.719  1.00  0.00    -0.237 OA
ATOM     91  O   UNL A   1      39.315  36.515  38.165  1.00  0.00    -0.237 OA
ATOM     92  O   UNL A   1      41.473  35.825  37.197  1.00  0.00    -0.744 OA
ENDBRANCH  85  89
ENDBRANCH  59  82
ENDBRANCH  33  34
ENDBRANCH  26  28
ENDBRANCH  25  26
ENDBRANCH  24  25
ENDBRANCH  23  24
ENDBRANCH  22  23
ENDBRANCH  21  22
ENDBRANCH   1  21
TORSDOF 26
ENDMDL
MODEL 2
REMARK VINA RESULT:      -8.9      3.363      9.548
REMARK SMILES C[C@@H]1CC[N@@H+]1[C@@H](CO)C(=O)OCCOCCOCCOCCOC(=O)c1ccc(-c2c3nc(c(-c4cc(S(=O)(=O)[O-])ccc4F)c4ccc([nH]4)c(-c4cc(S(=O)(=O)[O-])ccc4F)c4nc(c(-c5cc(S(=O)(=O)[O-])ccc5F)c5ccc2[nH]5)C=C4)C=C3)cc1
REMARK SMILES IDX 18 1 17 2 16 3 15 4 14 5 13 6 12 7 11 8 9 9 10 10 6 11 5 12
REMARK SMILES IDX 1 13 2 14 3 15 4 16 7 18 8 19 19 21 20 22 21 23 22 24 23 25
REMARK SMILES IDX 24 26 25 27 26 28 27 29 88 30 28 31 87 32 29 33 30 34 31 35
REMARK SMILES IDX 81 36 32 37 86 38 80 39 82 40 33 41 85 42 79 43 78 44 34 46
REMARK SMILES IDX 66 47 46 48 65 49 47 50 50 51 64 52 83 53 48 54 49 55 63 57
REMARK SMILES IDX 84 58 51 59 35 60 36 61 44 62 37 63 43 64 45 65 42 66 38 67
REMARK SMILES IDX 39 68 40 69 41 70 67 71 68 72 76 73 69 74 75 75 77 76 74 77
REMARK SMILES IDX 70 78 71 79 72 80 73 81 52 82 53 83 61 84 54 85 60 86 62 87
REMARK SMILES IDX 59 88 55 89 56 90 57 91 58 92
REMARK H PARENT 5 17 8 20 82 45 50 56
REMARK Flexibility Score: inf
ROOT
ATOM      1  C   UNL A   1      31.125  28.947  24.213  1.00  0.00     0.188 C 
ENDROOT
BRANCH   1   2
ATOM      2  O   UNL A   1      30.926  27.780  23.426  1.00  0.00    -0.377 OA
BRANCH   2   3
ATOM      3  C   UNL A   1      29.624  27.234  23.424  1.00  0.00     0.188 C 
BRANCH   3   4
ATOM      4  C   UNL A   1      29.448  26.031  24.364  1.00  0.00     0.188 C 
BRANCH   4   5
ATOM      5  O   UNL A   1      30.126  25.954  25.610  1.00  0.00    -0.376 OA
BRANCH   5   6
ATOM      6  C   UNL A   1      31.007  24.883  25.918  1.00  0.00     0.202 C 
BRANCH   6   7
ATOM      7  C   UNL A   1      30.913  23.500  25.254  1.00  0.00     0.261 C 
BRANCH   7   8
ATOM      8  O   UNL A   1      31.375  22.372  26.009  1.00  0.00    -0.459 OA
BRANCH   8   9
ATOM      9  C   UNL A   1      32.666  22.418  26.420  1.00  0.00     0.367 C 
ATOM     10  O   UNL A   1      33.013  22.745  27.554  1.00  0.00    -0.245 OA
BRANCH   9  11
ATOM     11  C   UNL A   1      33.692  22.095  25.320  1.00  0.00     0.321 C 
BRANCH  11  12
ATOM     12  N   UNL A   1      34.684  23.176  25.115  1.00  0.00    -0.319 N 
ATOM     13  C   UNL A   1      33.730  23.648  22.771  1.00  0.00     0.075 C 
ATOM     14  C   UNL A   1      34.894  23.688  23.736  1.00  0.00     0.187 C 
ATOM     15  C   UNL A   1      36.103  22.735  23.610  1.00  0.00     0.126 C 
ATOM     16  C   UNL A   1      36.113  22.788  25.153  1.00  0.00     0.269 C 
ATOM     17  H   UNL A   1      34.275  23.780  25.828  1.00  0.00     0.349 HD
ENDBRANCH  11  12
BRANCH  11  18
ATOM     18  C   UNL A   1      34.080  20.620  25.516  1.00  0.00     0.233 C 
BRANCH  18  19
ATOM     19  O   UNL A   1      33.283  19.899  26.448  1.00  0.00    -0.390 OA
ATOM     20  H   UNL A   1      33.845  19.288  26.951  1.00  0.00     0.210 HD
ENDBRANCH  18  19
ENDBRANCH  11  18
ENDBRANCH   9  11
ENDBRANCH   8   9
ENDBRANCH   7   8
ENDBRANCH   6   7
ENDBRANCH   5   6
ENDBRANCH   4   5
ENDBRANCH   3   4
ENDBRANCH   2   3
ENDBRANCH   1   2
BRANCH   1  21
ATOM     21  C   UNL A   1      32.560  29.510  24.348  1.00  0.00     0.188 C 
BRANCH  21  22
ATOM     22  O   UNL A   1      33.555  28.537  24.644  1.00  0.00    -0.376 OA
BRANCH  22  23
ATOM     23  C   UNL A   1      33.437  27.787  25.843  1.00  0.00     0.202 C 
BRANCH  23  24
ATOM     24  C   UNL A   1      32.988  28.524  27.118  1.00  0.00     0.261 C 
BRANCH  24  25
ATOM     25  O   UNL A   1      34.018  28.908  28.041  1.00  0.00    -0.460 OA
BRANCH  25  26
ATOM     26  C   UNL A   1      34.691  30.053  27.796  1.00  0.00     0.338 C 
ATOM     27  O   UNL A   1      34.254  31.053  27.248  1.00  0.00    -0.246 OA
BRANCH  26  28
ATOM     28  C   UNL A   1      35.995  29.963  28.484  1.00  0.00     0.060 A 
ATOM     29  C   UNL A   1      37.099  30.648  27.956  1.00  0.00     0.016 A 
ATOM     30  C   UNL A   1      36.126  29.206  29.650  1.00  0.00     0.016 A 
ATOM     31  C   UNL A   1      38.348  30.543  28.571  1.00  0.00     0.010 A 
ATOM     32  C   UNL A   1      37.381  29.081  30.249  1.00  0.00     0.010 A 
ATOM     33  C   UNL A   1      38.506  29.718  29.692  1.00  0.00    -0.014 A 
BRANCH  33  34
ATOM     34  C   UNL A   1      39.860  29.320  30.150  1.00  0.00     0.031 A 
ATOM     35  C   UNL A   1      40.540  28.192  29.425  1.00  0.00     0.074 A 
ATOM     36  C   UNL A   1      40.466  29.923  31.188  1.00  0.00     0.049 A 
ATOM     37  N   UNL A   1      41.642  27.553  29.719  1.00  0.00    -0.248 NA
ATOM     38  C   UNL A   1      39.873  27.713  28.203  1.00  0.00     0.031 C 
ATOM     39  C   UNL A   1      39.942  31.071  31.924  1.00  0.00     0.029 A 
ATOM     40  N   UNL A   1      41.655  29.635  31.814  1.00  0.00    -0.354 N 
ATOM     41  C   UNL A   1      41.790  26.584  28.731  1.00  0.00     0.074 A 
ATOM     42  C   UNL A   1      40.649  26.703  27.849  1.00  0.00     0.031 C 
ATOM     43  C   UNL A   1      40.795  31.376  32.918  1.00  0.00     0.029 A 
ATOM     44  C   UNL A   1      41.896  30.413  32.923  1.00  0.00     0.049 A 
ATOM     45  H   UNL A   1      42.275  28.938  31.499  1.00  0.00     0.167 HD
ATOM     46  C   UNL A   1      42.789  25.681  28.576  1.00  0.00     0.034 A 
ATOM     47  C   UNL A   1      42.868  30.326  33.855  1.00  0.00     0.034 A 
ATOM     48  C   UNL A   1      43.909  25.570  29.476  1.00  0.00     0.049 A 
ATOM     49  C   UNL A   1      43.914  29.239  33.727  1.00  0.00     0.074 A 
ATOM     50  C   UNL A   1      44.980  24.695  29.414  1.00  0.00     0.029 A 
ATOM     51  N   UNL A   1      44.099  26.349  30.610  1.00  0.00    -0.354 N 
ATOM     52  N   UNL A   1      44.040  28.315  32.801  1.00  0.00    -0.248 NA
ATOM     53  C   UNL A   1      44.951  29.185  34.767  1.00  0.00     0.031 C 
ATOM     54  C   UNL A   1      45.766  24.886  30.554  1.00  0.00     0.029 A 
ATOM     55  C   UNL A   1      45.248  25.950  31.274  1.00  0.00     0.049 A 
ATOM     56  H   UNL A   1      43.504  27.078  30.900  1.00  0.00     0.167 HD
ATOM     57  C   UNL A   1      45.196  27.605  33.122  1.00  0.00     0.074 A 
ATOM     58  C   UNL A   1      45.727  28.205  34.327  1.00  0.00     0.031 C 
ATOM     59  C   UNL A   1      45.773  26.561  32.474  1.00  0.00     0.034 A 
BRANCH  46  60
ATOM     60  C   UNL A   1      42.672  24.706  27.429  1.00  0.00     0.023 A 
ATOM     61  C   UNL A   1      41.779  23.621  27.463  1.00  0.00     0.031 A 
ATOM     62  C   UNL A   1      43.495  24.845  26.297  1.00  0.00     0.131 A 
ATOM     63  C   UNL A   1      41.779  22.682  26.421  1.00  0.00     0.055 A 
ATOM     64  C   UNL A   1      43.428  23.956  25.223  1.00  0.00     0.041 A 
ATOM     65  F   UNL A   1      44.390  25.843  26.220  1.00  0.00    -0.206 F 
ATOM     66  C   UNL A   1      42.578  22.857  25.288  1.00  0.00     0.022 A 
BRANCH  63  67
ATOM     67  S   UNL A   1      40.841  21.145  26.640  1.00  0.00     0.124 S 
ATOM     68  O   UNL A   1      40.699  21.090  28.093  1.00  0.00    -0.237 OA
ATOM     69  O   UNL A   1      39.620  21.413  25.889  1.00  0.00    -0.237 OA
ATOM     70  O   UNL A   1      41.715  20.124  26.068  1.00  0.00    -0.744 OA
ENDBRANCH  63  67
ENDBRANCH  46  60
BRANCH  47  71
ATOM     71  C   UNL A   1      42.882  31.252  35.026  1.00  0.00     0.023 A 
ATOM     72  C   UNL A   1      43.548  32.488  34.966  1.00  0.00     0.031 A 
ATOM     73  C   UNL A   1      42.285  30.887  36.246  1.00  0.00     0.131 A 
ATOM     74  C   UNL A   1      43.645  33.288  36.116  1.00  0.00     0.055 A 
ATOM     75  C   UNL A   1      42.330  31.716  37.369  1.00  0.00     0.041 A 
ATOM     76  F   UNL A   1      41.643  29.714  36.365  1.00  0.00    -0.206 F 
ATOM     77  C   UNL A   1      43.025  32.919  37.311  1.00  0.00     0.022 A 
BRANCH  74  78
ATOM     78  S   UNL A   1      44.685  34.773  36.053  1.00  0.00     0.124 S 
ATOM     79  O   UNL A   1      45.027  34.953  37.460  1.00  0.00    -0.237 OA
ATOM     80  O   UNL A   1      45.771  34.345  35.178  1.00  0.00    -0.237 OA
ATOM     81  O   UNL A   1      43.795  35.787  35.491  1.00  0.00    -0.744 OA
ENDBRANCH  74  78
ENDBRANCH  47  71
BRANCH  59  82
ATOM     82  C   UNL A   1      47.094  26.050  33.001  1.00  0.00     0.023 A 
ATOM     83  C   UNL A   1      48.328  26.567  32.571  1.00  0.00     0.031 A 
ATOM     84  C   UNL A   1      47.108  25.035  33.976  1.00  0.00     0.131 A 
ATOM     85  C   UNL A   1      49.523  26.038  33.082  1.00  0.00     0.055 A 
ATOM     86  C   UNL A   1      48.297  24.560  34.529  1.00  0.00     0.041 A 
ATOM     87  F   UNL A   1      45.959  24.500  34.422  1.00  0.00    -0.206 F 
ATOM     88  C   UNL A   1      49.515  25.052  34.074  1.00  0.00     0.022 A 
BRANCH  85  89
ATOM     89  S   UNL A   1      51.099  26.591  32.375  1.00  0.00     0.124 S 
ATOM     90  O   UNL A   1      51.505  25.428  31.593  1.00  0.00    -0.237 OA
ATOM     91  O   UNL A   1      50.702  27.768  31.608  1.00  0.00    -0.237 OA
ATOM     92  O   UNL A   1      51.925  26.869  33.548  1.00  0.00    -0.744 OA
ENDBRANCH  85  89
ENDBRANCH  59  82
ENDBRANCH  33  34
ENDBRANCH  26  28
ENDBRANCH  25  26
ENDBRANCH  24  25
ENDBRANCH  23  24
ENDBRANCH  22  23
ENDBRANCH  21  22
ENDBRANCH   1  21
TORSDOF 26
ENDMDL
MODEL 3
REMARK VINA RESULT:      -8.8      5.285      8.557
REMARK SMILES C[C@@H]1CC[N@@H+]1[C@@H](CO)C(=O)OCCOCCOCCOCCOC(=O)c1ccc(-c2c3nc(c(-c4cc(S(=O)(=O)[O-])ccc4F)c4ccc([nH]4)c(-c4cc(S(=O)(=O)[O-])ccc4F)c4nc(c(-c5cc(S(=O)(=O)[O-])ccc5F)c5ccc2[nH]5)C=C4)C=C3)cc1
REMARK SMILES IDX 18 1 17 2 16 3 15 4 14 5 13 6 12 7 11 8 9 9 10 10 6 11 5 12
REMARK SMILES IDX 1 13 2 14 3 15 4 16 7 18 8 19 19 21 20 22 21 23 22 24 23 25
REMARK SMILES IDX 24 26 25 27 26 28 27 29 88 30 28 31 87 32 29 33 30 34 31 35
REMARK SMILES IDX 81 36 32 37 86 38 80 39 82 40 33 41 85 42 79 43 78 44 34 46
REMARK SMILES IDX 66 47 46 48 65 49 47 50 50 51 64 52 83 53 48 54 49 55 63 57
REMARK SMILES IDX 84 58 51 59 35 60 36 61 44 62 37 63 43 64 45 65 42 66 38 67
REMARK SMILES IDX 39 68 40 69 41 70 67 71 68 72 76 73 69 74 75 75 77 76 74 77
REMARK SMILES IDX 70 78 71 79 72 80 73 81 52 82 53 83 61 84 54 85 60 86 62 87
REMARK SMILES IDX 59 88 55 89 56 90 57 91 58 92
REMARK H PARENT 5 17 8 20 82 45 50 56
REMARK Flexibility Score: inf
ROOT
ATOM      1  C   UNL A   1      41.697  19.845  26.350  1.00  0.00     0.188 C 
ENDROOT
BRANCH   1   2
ATOM      2  O   UNL A   1      42.193  20.855  27.219  1.00  0.00    -0.377 OA
BRANCH   2   3
ATOM      3  C   UNL A   1      41.233  21.680  27.844  1.00  0.00     0.188 C 
BRANCH   3   4
ATOM      4  C   UNL A   1      39.975  21.927  26.999  1.00  0.00     0.188 C 
BRANCH   4   5
ATOM      5  O   UNL A   1      39.382  23.216  26.904  1.00  0.00    -0.376 OA
BRANCH   5   6
ATOM      6  C   UNL A   1      38.209  23.446  26.136  1.00  0.00     0.202 C 
BRANCH   6   7
ATOM      7  C   UNL A   1      37.423  22.320  25.444  1.00  0.00     0.261 C 
BRANCH   7   8
ATOM      8  O   UNL A   1      36.010  22.502  25.287  1.00  0.00    -0.459 OA
BRANCH   8   9
ATOM      9  C   UNL A   1      35.289  21.383  25.028  1.00  0.00     0.367 C 
ATOM     10  O   UNL A   1      35.784  20.265  24.897  1.00  0.00    -0.245 OA
BRANCH   9  11
ATOM     11  C   UNL A   1      33.784  21.632  24.832  1.00  0.00     0.321 C 
BRANCH  11  12
ATOM     12  N   UNL A   1      33.455  22.195  23.503  1.00  0.00    -0.319 N 
ATOM     13  C   UNL A   1      33.388  24.571  24.491  1.00  0.00     0.075 C 
ATOM     14  C   UNL A   1      32.940  23.586  23.433  1.00  0.00     0.187 C 
ATOM     15  C   UNL A   1      31.507  23.011  23.396  1.00  0.00     0.126 C 
ATOM     16  C   UNL A   1      32.196  21.732  22.873  1.00  0.00     0.269 C 
ATOM     17  H   UNL A   1      34.367  21.967  23.105  1.00  0.00     0.349 HD
ENDBRANCH  11  12
BRANCH  11  18
ATOM     18  C   UNL A   1      33.066  20.411  25.432  1.00  0.00     0.233 C 
BRANCH  18  19
ATOM     19  O   UNL A   1      33.470  20.053  26.748  1.00  0.00    -0.390 OA
ATOM     20  H   UNL A   1      34.312  20.488  26.958  1.00  0.00     0.210 HD
ENDBRANCH  18  19
ENDBRANCH  11  18
ENDBRANCH   9  11
ENDBRANCH   8   9
ENDBRANCH   7   8
ENDBRANCH   6   7
ENDBRANCH   5   6
ENDBRANCH   4   5
ENDBRANCH   3   4
ENDBRANCH   2   3
ENDBRANCH   1   2
BRANCH   1  21
ATOM     21  C   UNL A   1      42.711  18.996  25.549  1.00  0.00     0.188 C 
BRANCH  21  22
ATOM     22  O   UNL A   1      44.068  19.403  25.686  1.00  0.00    -0.376 OA
BRANCH  22  23
ATOM     23  C   UNL A   1      44.708  20.016  24.577  1.00  0.00     0.202 C 
BRANCH  23  24
ATOM     24  C   UNL A   1      45.320  21.415  24.775  1.00  0.00     0.261 C 
BRANCH  24  25
ATOM     25  O   UNL A   1      44.702  22.260  25.757  1.00  0.00    -0.460 OA
BRANCH  25  26
ATOM     26  C   UNL A   1      43.797  23.167  25.330  1.00  0.00     0.338 C 
ATOM     27  O   UNL A   1      42.774  22.938  24.704  1.00  0.00    -0.246 OA
BRANCH  26  28
ATOM     28  C   UNL A   1      44.156  24.472  25.924  1.00  0.00     0.060 A 
ATOM     29  C   UNL A   1      44.648  24.517  27.236  1.00  0.00     0.016 A 
ATOM     30  C   UNL A   1      44.008  25.647  25.183  1.00  0.00     0.016 A 
ATOM     31  C   UNL A   1      44.954  25.745  27.827  1.00  0.00     0.010 A 
ATOM     32  C   UNL A   1      44.291  26.875  25.784  1.00  0.00     0.010 A 
ATOM     33  C   UNL A   1      44.729  26.933  27.121  1.00  0.00    -0.014 A 
BRANCH  33  34
ATOM     34  C   UNL A   1      44.717  28.238  27.827  1.00  0.00     0.031 A 
ATOM     35  C   UNL A   1      43.406  28.719  28.385  1.00  0.00     0.074 A 
ATOM     36  C   UNL A   1      45.826  28.988  27.958  1.00  0.00     0.049 A 
ATOM     37  N   UNL A   1      43.091  29.878  28.900  1.00  0.00    -0.248 NA
ATOM     38  C   UNL A   1      42.292  27.757  28.342  1.00  0.00     0.031 C 
ATOM     39  C   UNL A   1      47.166  28.600  27.523  1.00  0.00     0.029 A 
ATOM     40  N   UNL A   1      45.992  30.248  28.480  1.00  0.00    -0.354 N 
ATOM     41  C   UNL A   1      41.741  29.792  29.225  1.00  0.00     0.074 A 
ATOM     42  C   UNL A   1      41.293  28.478  28.819  1.00  0.00     0.031 C 
ATOM     43  C   UNL A   1      48.015  29.612  27.777  1.00  0.00     0.029 A 
ATOM     44  C   UNL A   1      47.270  30.738  28.340  1.00  0.00     0.049 A 
ATOM     45  H   UNL A   1      45.265  30.751  28.914  1.00  0.00     0.167 HD
ATOM     46  C   UNL A   1      40.951  30.726  29.809  1.00  0.00     0.034 A 
ATOM     47  C   UNL A   1      47.766  31.967  28.596  1.00  0.00     0.034 A 
ATOM     48  C   UNL A   1      41.415  32.036  30.191  1.00  0.00     0.049 A 
ATOM     49  C   UNL A   1      46.841  33.033  29.145  1.00  0.00     0.074 A 
ATOM     50  C   UNL A   1      40.704  33.059  30.793  1.00  0.00     0.029 A 
ATOM     51  N   UNL A   1      42.706  32.510  29.997  1.00  0.00    -0.354 N 
ATOM     52  N   UNL A   1      45.562  32.951  29.434  1.00  0.00    -0.248 NA
ATOM     53  C   UNL A   1      47.428  34.354  29.406  1.00  0.00     0.031 C 
ATOM     54  C   UNL A   1      41.538  34.178  30.881  1.00  0.00     0.029 A 
ATOM     55  C   UNL A   1      42.801  33.823  30.434  1.00  0.00     0.049 A 
ATOM     56  H   UNL A   1      43.446  31.991  29.607  1.00  0.00     0.167 HD
ATOM     57  C   UNL A   1      45.207  34.195  29.955  1.00  0.00     0.074 A 
ATOM     58  C   UNL A   1      46.405  35.007  29.938  1.00  0.00     0.031 C 
ATOM     59  C   UNL A   1      44.004  34.622  30.418  1.00  0.00     0.034 A 
BRANCH  46  60
ATOM     60  C   UNL A   1      39.495  30.380  30.005  1.00  0.00     0.023 A 
ATOM     61  C   UNL A   1      38.487  30.911  29.181  1.00  0.00     0.031 A 
ATOM     62  C   UNL A   1      39.105  29.531  31.056  1.00  0.00     0.131 A 
ATOM     63  C   UNL A   1      37.139  30.645  29.465  1.00  0.00     0.055 A 
ATOM     64  C   UNL A   1      37.767  29.199  31.279  1.00  0.00     0.041 A 
ATOM     65  F   UNL A   1      40.019  29.017  31.895  1.00  0.00    -0.206 F 
ATOM     66  C   UNL A   1      36.774  29.770  30.491  1.00  0.00     0.022 A 
BRANCH  63  67
ATOM     67  S   UNL A   1      35.865  31.583  28.577  1.00  0.00     0.124 S 
ATOM     68  O   UNL A   1      34.906  31.860  29.644  1.00  0.00    -0.237 OA
ATOM     69  O   UNL A   1      36.611  32.731  28.076  1.00  0.00    -0.237 OA
ATOM     70  O   UNL A   1      35.398  30.647  27.557  1.00  0.00    -0.744 OA
ENDBRANCH  63  67
ENDBRANCH  46  60
BRANCH  47  71
ATOM     71  C   UNL A   1      49.191  32.289  28.291  1.00  0.00     0.023 A 
ATOM     72  C   UNL A   1      49.558  32.877  27.069  1.00  0.00     0.031 A 
ATOM     73  C   UNL A   1      50.219  31.953  29.192  1.00  0.00     0.131 A 
ATOM     74  C   UNL A   1      50.915  33.062  26.760  1.00  0.00     0.055 A 
ATOM     75  C   UNL A   1      51.563  32.198  28.905  1.00  0.00     0.041 A 
ATOM     76  F   UNL A   1      49.928  31.380  30.371  1.00  0.00    -0.206 F 
ATOM     77  C   UNL A   1      51.918  32.744  27.677  1.00  0.00     0.022 A 
BRANCH  74  78
ATOM     78  S   UNL A   1      51.355  33.631  25.095  1.00  0.00     0.124 S 
ATOM     79  O   UNL A   1      52.566  34.401  25.356  1.00  0.00    -0.237 OA
ATOM     80  O   UNL A   1      51.536  32.371  24.382  1.00  0.00    -0.237 OA
ATOM     81  O   UNL A   1      50.191  34.415  24.686  1.00  0.00    -0.744 OA
ENDBRANCH  74  78
ENDBRANCH  47  71
BRANCH  59  82
ATOM     82  C   UNL A   1      43.936  36.004  31.026  1.00  0.00     0.023 A 
ATOM     83  C   UNL A   1      43.880  36.214  32.415  1.00  0.00     0.031 A 
ATOM     84  C   UNL A   1      43.952  37.134  30.188  1.00  0.00     0.131 A 
ATOM     85  C   UNL A   1      43.797  37.521  32.920  1.00  0.00     0.055 A 
ATOM     86  C   UNL A   1      43.937  38.432  30.699  1.00  0.00     0.041 A 
ATOM     87  F   UNL A   1      44.001  36.995  28.853  1.00  0.00    -0.206 F 
ATOM     88  C   UNL A   1      43.847  38.632  32.072  1.00  0.00     0.022 A 
BRANCH  85  89
ATOM     89  S   UNL A   1      43.538  37.757  34.700  1.00  0.00     0.124 S 
ATOM     90  O   UNL A   1      44.405  36.731  35.271  1.00  0.00    -0.237 OA
ATOM     91  O   UNL A   1      43.967  39.138  34.899  1.00  0.00    -0.237 OA
ATOM     92  O   UNL A   1      42.105  37.525  34.873  1.00  0.00    -0.744 OA
ENDBRANCH  85  89
ENDBRANCH  59  82
ENDBRANCH  33  34
ENDBRANCH  26  28
ENDBRANCH  25  26
ENDBRANCH  24  25
ENDBRANCH  23  24
ENDBRANCH  22  23
ENDBRANCH  21  22
ENDBRANCH   1  21
TORSDOF 26
ENDMDL
