MODEL 1
REMARK VINA RESULT:     -10.4      0.000      0.000
REMARK SMILES CCc1cccc2c3c([nH]c12)[C@](CC)(CC(=O)OCCOCCOCCOCCOC(=O)c1ccc(-c2c4nc(c(-c5cc(S(=O)(=O)[O-])ccc5F)c5ccc([nH]5)c(-c5cc(S(=O)(=O)[O-])ccc5F)c5nc(c(-c6cc(S(=O)(=O)[O-])ccc6F)c6ccc2[nH]6)C=C5)C=C4)cc1)OCC3
REMARK SMILES IDX 25 1 24 2 23 3 22 4 21 5 20 6 19 7 18 8 16 9 17 10 15 11
REMARK SMILES IDX 12 12 3 13 4 14 11 15 5 16 7 17 10 18 6 19 8 20 9 21 98 23
REMARK SMILES IDX 97 24 96 25 2 26 1 27 13 28 14 29 26 30 27 31 28 32 29 33
REMARK SMILES IDX 30 34 31 35 32 36 33 37 34 38 95 39 35 40 94 41 36 42 37 43
REMARK SMILES IDX 38 44 88 45 39 46 93 47 87 48 89 49 40 50 92 51 86 52 85 53
REMARK SMILES IDX 41 55 73 56 53 57 72 58 54 59 57 60 71 61 90 62 55 63 56 64
REMARK SMILES IDX 70 66 91 67 58 68 42 69 43 70 51 71 44 72 50 73 52 74 49 75
REMARK SMILES IDX 45 76 46 77 47 78 48 79 74 80 75 81 83 82 76 83 82 84 84 85
REMARK SMILES IDX 81 86 77 87 78 88 79 89 80 90 59 91 60 92 68 93 61 94 67 95
REMARK SMILES IDX 69 96 66 97 62 98 63 99 64 100 65 101
REMARK H PARENT 10 22 89 54 57 65
REMARK Flexibility Score: inf
ROOT
ATOM      1  C   UNL A   1      44.275  19.091  24.821  1.00  0.00     0.188 C 
ENDROOT
BRANCH   1   2
ATOM      2  O   UNL A   1      42.909  19.340  24.984  1.00  0.00    -0.377 OA
BRANCH   2   3
ATOM      3  C   UNL A   1      42.203  18.930  26.112  1.00  0.00     0.188 C 
BRANCH   3   4
ATOM      4  C   UNL A   1      41.264  19.989  26.695  1.00  0.00     0.188 C 
BRANCH   4   5
ATOM      5  O   UNL A   1      40.124  20.485  26.003  1.00  0.00    -0.376 OA
BRANCH   5   6
ATOM      6  C   UNL A   1      39.482  21.680  26.428  1.00  0.00     0.202 C 
BRANCH   6   7
ATOM      7  C   UNL A   1      38.194  22.116  25.679  1.00  0.00     0.261 C 
BRANCH   7   8
ATOM      8  O   UNL A   1      37.580  21.181  24.743  1.00  0.00    -0.463 OA
BRANCH   8   9
ATOM      9  C   UNL A   1      36.335  20.772  25.047  1.00  0.00     0.309 C 
ATOM     10  O   UNL A   1      35.920  19.639  24.790  1.00  0.00    -0.252 OA
BRANCH   9  11
ATOM     11  C   UNL A   1      35.350  21.803  25.585  1.00  0.00     0.164 C 
BRANCH  11  12
ATOM     12  C   UNL A   1      33.818  22.052  25.473  1.00  0.00     0.118 C 
ATOM     13  C   UNL A   1      32.768  27.050  25.312  1.00  0.00    -0.024 A 
ATOM     14  C   UNL A   1      32.246  27.868  24.289  1.00  0.00     0.006 A 
ATOM     15  C   UNL A   1      32.838  25.660  25.038  1.00  0.00     0.049 A 
ATOM     16  C   UNL A   1      31.582  27.329  23.202  1.00  0.00     0.001 A 
ATOM     17  C   UNL A   1      32.194  25.090  23.934  1.00  0.00     0.003 A 
ATOM     18  N   UNL A   1      33.425  24.613  25.730  1.00  0.00    -0.356 N 
ATOM     19  C   UNL A   1      31.439  25.945  23.102  1.00  0.00     0.010 A 
ATOM     20  C   UNL A   1      32.478  23.686  23.957  1.00  0.00    -0.014 A 
ATOM     21  C   UNL A   1      33.299  23.426  25.042  1.00  0.00     0.052 A 
ATOM     22  H   UNL A   1      33.874  24.703  26.601  1.00  0.00     0.166 HD
ATOM     23  C   UNL A   1      32.072  22.577  23.051  1.00  0.00     0.066 C 
ATOM     24  C   UNL A   1      32.934  21.325  23.307  1.00  0.00     0.166 C 
ATOM     25  O   UNL A   1      33.123  21.050  24.699  1.00  0.00    -0.368 OA
BRANCH  13  26
ATOM     26  C   UNL A   1      33.033  27.707  26.646  1.00  0.00     0.034 C 
ATOM     27  C   UNL A   1      31.817  28.060  27.471  1.00  0.00     0.009 C 
ENDBRANCH  13  26
BRANCH  12  28
ATOM     28  C   UNL A   1      33.243  21.848  26.929  1.00  0.00     0.039 C 
ATOM     29  C   UNL A   1      34.099  22.408  28.062  1.00  0.00     0.007 C 
ENDBRANCH  12  28
ENDBRANCH  11  12
ENDBRANCH   9  11
ENDBRANCH   8   9
ENDBRANCH   7   8
ENDBRANCH   6   7
ENDBRANCH   5   6
ENDBRANCH   4   5
ENDBRANCH   3   4
ENDBRANCH   2   3
ENDBRANCH   1   2
BRANCH   1  30
ATOM     30  C   UNL A   1      45.204  20.279  24.614  1.00  0.00     0.188 C 
BRANCH  30  31
ATOM     31  O   UNL A   1      45.196  21.218  25.667  1.00  0.00    -0.376 OA
BRANCH  31  32
ATOM     32  C   UNL A   1      45.794  22.495  25.531  1.00  0.00     0.202 C 
BRANCH  32  33
ATOM     33  C   UNL A   1      45.111  23.778  25.020  1.00  0.00     0.261 C 
BRANCH  33  34
ATOM     34  O   UNL A   1      44.028  24.253  25.785  1.00  0.00    -0.460 OA
BRANCH  34  35
ATOM     35  C   UNL A   1      42.777  23.760  25.668  1.00  0.00     0.338 C 
ATOM     36  O   UNL A   1      42.399  22.783  25.088  1.00  0.00    -0.246 OA
BRANCH  35  37
ATOM     37  C   UNL A   1      42.103  24.585  26.696  1.00  0.00     0.060 A 
ATOM     38  C   UNL A   1      41.127  25.504  26.288  1.00  0.00     0.016 A 
ATOM     39  C   UNL A   1      42.835  24.766  27.877  1.00  0.00     0.016 A 
ATOM     40  C   UNL A   1      41.010  26.688  26.997  1.00  0.00     0.010 A 
ATOM     41  C   UNL A   1      42.726  25.964  28.571  1.00  0.00     0.010 A 
ATOM     42  C   UNL A   1      41.861  26.950  28.099  1.00  0.00    -0.014 A 
BRANCH  42  43
ATOM     43  C   UNL A   1      41.563  28.151  28.890  1.00  0.00     0.031 A 
ATOM     44  C   UNL A   1      42.468  29.224  28.417  1.00  0.00     0.074 A 
ATOM     45  C   UNL A   1      40.605  28.368  29.816  1.00  0.00     0.049 A 
ATOM     46  N   UNL A   1      43.523  29.665  29.017  1.00  0.00    -0.248 NA
ATOM     47  C   UNL A   1      42.387  29.573  26.984  1.00  0.00     0.031 C 
ATOM     48  C   UNL A   1      39.466  27.517  30.158  1.00  0.00     0.029 A 
ATOM     49  N   UNL A   1      40.397  29.464  30.614  1.00  0.00    -0.354 N 
ATOM     50  C   UNL A   1      44.104  30.529  28.102  1.00  0.00     0.074 A 
ATOM     51  C   UNL A   1      43.549  30.198  26.817  1.00  0.00     0.031 C 
ATOM     52  C   UNL A   1      38.581  28.221  30.904  1.00  0.00     0.029 A 
ATOM     53  C   UNL A   1      39.128  29.539  31.186  1.00  0.00     0.049 A 
ATOM     54  H   UNL A   1      41.091  30.144  30.771  1.00  0.00     0.167 HD
ATOM     55  C   UNL A   1      44.738  31.660  28.509  1.00  0.00     0.034 A 
ATOM     56  C   UNL A   1      38.531  30.624  31.760  1.00  0.00     0.034 A 
ATOM     57  C   UNL A   1      45.068  31.594  29.906  1.00  0.00     0.049 A 
ATOM     58  C   UNL A   1      39.576  31.634  32.054  1.00  0.00     0.074 A 
ATOM     59  C   UNL A   1      45.878  30.775  30.665  1.00  0.00     0.029 A 
ATOM     60  N   UNL A   1      44.194  32.197  30.778  1.00  0.00    -0.354 N 
ATOM     61  N   UNL A   1      40.479  31.499  32.980  1.00  0.00    -0.248 NA
ATOM     62  C   UNL A   1      39.901  32.568  30.987  1.00  0.00     0.031 C 
ATOM     63  C   UNL A   1      45.188  30.603  31.895  1.00  0.00     0.029 A 
ATOM     64  C   UNL A   1      44.034  31.389  31.875  1.00  0.00     0.049 A 
ATOM     65  H   UNL A   1      43.754  33.067  30.638  1.00  0.00     0.167 HD
ATOM     66  C   UNL A   1      41.650  31.916  32.368  1.00  0.00     0.074 A 
ATOM     67  C   UNL A   1      41.220  32.638  31.171  1.00  0.00     0.031 C 
ATOM     68  C   UNL A   1      42.854  31.381  32.721  1.00  0.00     0.034 A 
BRANCH  55  69
ATOM     69  C   UNL A   1      44.667  32.936  27.716  1.00  0.00     0.023 A 
ATOM     70  C   UNL A   1      43.838  34.017  28.084  1.00  0.00     0.031 A 
ATOM     71  C   UNL A   1      45.577  33.189  26.680  1.00  0.00     0.131 A 
ATOM     72  C   UNL A   1      43.862  35.238  27.409  1.00  0.00     0.055 A 
ATOM     73  C   UNL A   1      45.666  34.441  26.057  1.00  0.00     0.041 A 
ATOM     74  F   UNL A   1      46.437  32.241  26.276  1.00  0.00    -0.206 F 
ATOM     75  C   UNL A   1      44.799  35.471  26.414  1.00  0.00     0.022 A 
BRANCH  72  76
ATOM     76  S   UNL A   1      42.658  36.530  27.827  1.00  0.00     0.124 S 
ATOM     77  O   UNL A   1      42.326  37.071  26.514  1.00  0.00    -0.237 OA
ATOM     78  O   UNL A   1      41.609  35.751  28.477  1.00  0.00    -0.237 OA
ATOM     79  O   UNL A   1      43.402  37.422  28.712  1.00  0.00    -0.744 OA
ENDBRANCH  72  76
ENDBRANCH  55  69
BRANCH  56  80
ATOM     80  C   UNL A   1      37.112  31.052  31.596  1.00  0.00     0.023 A 
ATOM     81  C   UNL A   1      36.596  31.216  30.300  1.00  0.00     0.031 A 
ATOM     82  C   UNL A   1      36.375  31.631  32.651  1.00  0.00     0.131 A 
ATOM     83  C   UNL A   1      35.445  31.981  30.073  1.00  0.00     0.055 A 
ATOM     84  C   UNL A   1      35.203  32.371  32.425  1.00  0.00     0.041 A 
ATOM     85  F   UNL A   1      36.821  31.561  33.915  1.00  0.00    -0.206 F 
ATOM     86  C   UNL A   1      34.742  32.564  31.127  1.00  0.00     0.022 A 
BRANCH  83  87
ATOM     87  S   UNL A   1      34.920  32.329  28.371  1.00  0.00     0.124 S 
ATOM     88  O   UNL A   1      36.136  32.878  27.777  1.00  0.00    -0.237 OA
ATOM     89  O   UNL A   1      34.533  31.002  27.906  1.00  0.00    -0.237 OA
ATOM     90  O   UNL A   1      33.829  33.285  28.542  1.00  0.00    -0.744 OA
ENDBRANCH  83  87
ENDBRANCH  56  80
BRANCH  68  91
ATOM     91  C   UNL A   1      42.946  30.554  33.987  1.00  0.00     0.023 A 
ATOM     92  C   UNL A   1      42.548  29.209  33.879  1.00  0.00     0.031 A 
ATOM     93  C   UNL A   1      43.190  31.053  35.282  1.00  0.00     0.131 A 
ATOM     94  C   UNL A   1      42.329  28.433  35.020  1.00  0.00     0.055 A 
ATOM     95  C   UNL A   1      43.058  30.242  36.418  1.00  0.00     0.041 A 
ATOM     96  F   UNL A   1      43.476  32.345  35.500  1.00  0.00    -0.206 F 
ATOM     97  C   UNL A   1      42.595  28.936  36.294  1.00  0.00     0.022 A 
BRANCH  94  98
ATOM     98  S   UNL A   1      41.550  26.807  34.874  1.00  0.00     0.124 S 
ATOM     99  O   UNL A   1      41.082  26.566  36.235  1.00  0.00    -0.237 OA
ATOM    100  O   UNL A   1      40.502  27.053  33.884  1.00  0.00    -0.237 OA
ATOM    101  O   UNL A   1      42.631  25.935  34.422  1.00  0.00    -0.744 OA
ENDBRANCH  94  98
ENDBRANCH  68  91
ENDBRANCH  42  43
ENDBRANCH  35  37
ENDBRANCH  34  35
ENDBRANCH  33  34
ENDBRANCH  32  33
ENDBRANCH  31  32
ENDBRANCH  30  31
ENDBRANCH   1  30
TORSDOF 26
ENDMDL
MODEL 2
REMARK VINA RESULT:      -9.4      2.137      6.705
REMARK SMILES CCc1cccc2c3c([nH]c12)[C@](CC)(CC(=O)OCCOCCOCCOCCOC(=O)c1ccc(-c2c4nc(c(-c5cc(S(=O)(=O)[O-])ccc5F)c5ccc([nH]5)c(-c5cc(S(=O)(=O)[O-])ccc5F)c5nc(c(-c6cc(S(=O)(=O)[O-])ccc6F)c6ccc2[nH]6)C=C5)C=C4)cc1)OCC3
REMARK SMILES IDX 25 1 24 2 23 3 22 4 21 5 20 6 19 7 18 8 16 9 17 10 15 11
REMARK SMILES IDX 12 12 3 13 4 14 11 15 5 16 7 17 10 18 6 19 8 20 9 21 98 23
REMARK SMILES IDX 97 24 96 25 2 26 1 27 13 28 14 29 26 30 27 31 28 32 29 33
REMARK SMILES IDX 30 34 31 35 32 36 33 37 34 38 95 39 35 40 94 41 36 42 37 43
REMARK SMILES IDX 38 44 88 45 39 46 93 47 87 48 89 49 40 50 92 51 86 52 85 53
REMARK SMILES IDX 41 55 73 56 53 57 72 58 54 59 57 60 71 61 90 62 55 63 56 64
REMARK SMILES IDX 70 66 91 67 58 68 42 69 43 70 51 71 44 72 50 73 52 74 49 75
REMARK SMILES IDX 45 76 46 77 47 78 48 79 74 80 75 81 83 82 76 83 82 84 84 85
REMARK SMILES IDX 81 86 77 87 78 88 79 89 80 90 59 91 60 92 68 93 61 94 67 95
REMARK SMILES IDX 69 96 66 97 62 98 63 99 64 100 65 101
REMARK H PARENT 10 22 89 54 57 65
REMARK Flexibility Score: inf
ROOT
ATOM      1  C   UNL A   1      44.499  18.707  24.903  1.00  0.00     0.188 C 
ENDROOT
BRANCH   1   2
ATOM      2  O   UNL A   1      43.214  19.086  25.301  1.00  0.00    -0.377 OA
BRANCH   2   3
ATOM      3  C   UNL A   1      42.769  18.958  26.615  1.00  0.00     0.188 C 
BRANCH   3   4
ATOM      4  C   UNL A   1      41.593  19.868  26.979  1.00  0.00     0.188 C 
BRANCH   4   5
ATOM      5  O   UNL A   1      40.618  20.297  26.035  1.00  0.00    -0.376 OA
BRANCH   5   6
ATOM      6  C   UNL A   1      39.637  21.260  26.394  1.00  0.00     0.202 C 
BRANCH   6   7
ATOM      7  C   UNL A   1      38.410  21.427  25.460  1.00  0.00     0.261 C 
BRANCH   7   8
ATOM      8  O   UNL A   1      37.280  22.224  25.925  1.00  0.00    -0.463 OA
BRANCH   8   9
ATOM      9  C   UNL A   1      36.058  21.718  25.680  1.00  0.00     0.309 C 
ATOM     10  O   UNL A   1      35.878  20.671  25.054  1.00  0.00    -0.252 OA
BRANCH   9  11
ATOM     11  C   UNL A   1      34.843  22.561  26.053  1.00  0.00     0.164 C 
BRANCH  11  12
ATOM     12  C   UNL A   1      33.601  23.125  25.306  1.00  0.00     0.118 C 
ATOM     13  C   UNL A   1      33.310  28.204  25.786  1.00  0.00    -0.024 A 
ATOM     14  C   UNL A   1      33.450  29.246  24.847  1.00  0.00     0.006 A 
ATOM     15  C   UNL A   1      33.356  26.881  25.276  1.00  0.00     0.049 A 
ATOM     16  C   UNL A   1      33.351  29.010  23.487  1.00  0.00     0.001 A 
ATOM     17  C   UNL A   1      33.280  26.614  23.905  1.00  0.00     0.003 A 
ATOM     18  N   UNL A   1      33.411  25.650  25.911  1.00  0.00    -0.356 N 
ATOM     19  C   UNL A   1      33.128  27.712  23.030  1.00  0.00     0.010 A 
ATOM     20  C   UNL A   1      33.363  25.192  23.746  1.00  0.00    -0.014 A 
ATOM     21  C   UNL A   1      33.512  24.622  24.999  1.00  0.00     0.052 A 
ATOM     22  H   UNL A   1      33.381  25.525  26.886  1.00  0.00     0.166 HD
ATOM     23  C   UNL A   1      33.338  24.327  22.535  1.00  0.00     0.066 C 
ATOM     24  C   UNL A   1      33.823  22.903  22.876  1.00  0.00     0.166 C 
ATOM     25  O   UNL A   1      33.273  22.403  24.099  1.00  0.00    -0.368 OA
BRANCH  13  26
ATOM     26  C   UNL A   1      32.955  28.600  27.200  1.00  0.00     0.034 C 
ATOM     27  C   UNL A   1      31.535  28.321  27.636  1.00  0.00     0.009 C 
ENDBRANCH  13  26
BRANCH  12  28
ATOM     28  C   UNL A   1      32.368  22.837  26.247  1.00  0.00     0.039 C 
ATOM     29  C   UNL A   1      32.701  22.583  27.715  1.00  0.00     0.007 C 
ENDBRANCH  12  28
ENDBRANCH  11  12
ENDBRANCH   9  11
ENDBRANCH   8   9
ENDBRANCH   7   8
ENDBRANCH   6   7
ENDBRANCH   5   6
ENDBRANCH   4   5
ENDBRANCH   3   4
ENDBRANCH   2   3
ENDBRANCH   1   2
BRANCH   1  30
ATOM     30  C   UNL A   1      45.460  19.794  24.440  1.00  0.00     0.188 C 
BRANCH  30  31
ATOM     31  O   UNL A   1      45.764  20.761  25.421  1.00  0.00    -0.376 OA
BRANCH  31  32
ATOM     32  C   UNL A   1      46.199  22.064  25.073  1.00  0.00     0.202 C 
BRANCH  32  33
ATOM     33  C   UNL A   1      45.421  23.096  24.233  1.00  0.00     0.261 C 
BRANCH  33  34
ATOM     34  O   UNL A   1      44.656  24.034  24.953  1.00  0.00    -0.460 OA
BRANCH  34  35
ATOM     35  C   UNL A   1      43.513  23.711  25.593  1.00  0.00     0.338 C 
ATOM     36  O   UNL A   1      42.756  22.808  25.380  1.00  0.00    -0.246 OA
BRANCH  35  37
ATOM     37  C   UNL A   1      43.653  24.586  26.779  1.00  0.00     0.060 A 
ATOM     38  C   UNL A   1      42.518  24.855  27.555  1.00  0.00     0.016 A 
ATOM     39  C   UNL A   1      44.737  25.473  26.729  1.00  0.00     0.016 A 
ATOM     40  C   UNL A   1      42.417  26.101  28.151  1.00  0.00     0.010 A 
ATOM     41  C   UNL A   1      44.620  26.727  27.316  1.00  0.00     0.010 A 
ATOM     42  C   UNL A   1      43.438  27.066  27.973  1.00  0.00    -0.014 A 
BRANCH  42  43
ATOM     43  C   UNL A   1      43.329  28.295  28.768  1.00  0.00     0.031 A 
ATOM     44  C   UNL A   1      43.459  27.910  30.193  1.00  0.00     0.074 A 
ATOM     45  C   UNL A   1      43.232  29.582  28.372  1.00  0.00     0.049 A 
ATOM     46  N   UNL A   1      42.505  27.826  31.060  1.00  0.00    -0.248 NA
ATOM     47  C   UNL A   1      44.701  27.210  30.577  1.00  0.00     0.031 C 
ATOM     48  C   UNL A   1      43.398  30.131  27.028  1.00  0.00     0.029 A 
ATOM     49  N   UNL A   1      43.036  30.712  29.125  1.00  0.00    -0.354 N 
ATOM     50  C   UNL A   1      43.106  27.270  32.179  1.00  0.00     0.074 A 
ATOM     51  C   UNL A   1      44.326  26.656  31.727  1.00  0.00     0.031 C 
ATOM     52  C   UNL A   1      43.529  31.478  27.100  1.00  0.00     0.029 A 
ATOM     53  C   UNL A   1      43.353  31.907  28.479  1.00  0.00     0.049 A 
ATOM     54  H   UNL A   1      42.698  30.682  30.048  1.00  0.00     0.167 HD
ATOM     55  C   UNL A   1      42.733  27.639  33.432  1.00  0.00     0.034 A 
ATOM     56  C   UNL A   1      43.552  33.135  29.040  1.00  0.00     0.034 A 
ATOM     57  C   UNL A   1      41.451  28.287  33.421  1.00  0.00     0.049 A 
ATOM     58  C   UNL A   1      42.994  33.119  30.414  1.00  0.00     0.074 A 
ATOM     59  C   UNL A   1      40.176  27.889  33.075  1.00  0.00     0.029 A 
ATOM     60  N   UNL A   1      41.451  29.660  33.401  1.00  0.00    -0.354 N 
ATOM     61  N   UNL A   1      41.723  33.077  30.683  1.00  0.00    -0.248 NA
ATOM     62  C   UNL A   1      43.879  32.660  31.473  1.00  0.00     0.031 C 
ATOM     63  C   UNL A   1      39.584  29.025  32.459  1.00  0.00     0.029 A 
ATOM     64  C   UNL A   1      40.481  30.092  32.532  1.00  0.00     0.049 A 
ATOM     65  H   UNL A   1      42.049  30.241  33.926  1.00  0.00     0.167 HD
ATOM     66  C   UNL A   1      41.627  32.140  31.700  1.00  0.00     0.074 A 
ATOM     67  C   UNL A   1      42.992  31.978  32.200  1.00  0.00     0.031 C 
ATOM     68  C   UNL A   1      40.513  31.366  31.837  1.00  0.00     0.034 A 
BRANCH  55  69
ATOM     69  C   UNL A   1      43.730  27.757  34.553  1.00  0.00     0.023 A 
ATOM     70  C   UNL A   1      43.775  26.849  35.632  1.00  0.00     0.031 A 
ATOM     71  C   UNL A   1      44.796  28.664  34.473  1.00  0.00     0.131 A 
ATOM     72  C   UNL A   1      44.772  26.898  36.606  1.00  0.00     0.055 A 
ATOM     73  C   UNL A   1      45.847  28.660  35.399  1.00  0.00     0.041 A 
ATOM     74  F   UNL A   1      44.870  29.548  33.465  1.00  0.00    -0.206 F 
ATOM     75  C   UNL A   1      45.834  27.780  36.479  1.00  0.00     0.022 A 
BRANCH  72  76
ATOM     76  S   UNL A   1      44.682  25.807  38.054  1.00  0.00     0.124 S 
ATOM     77  O   UNL A   1      44.086  26.683  39.056  1.00  0.00    -0.237 OA
ATOM     78  O   UNL A   1      43.826  24.734  37.557  1.00  0.00    -0.237 OA
ATOM     79  O   UNL A   1      46.072  25.428  38.288  1.00  0.00    -0.744 OA
ENDBRANCH  72  76
ENDBRANCH  55  69
BRANCH  56  80
ATOM     80  C   UNL A   1      44.617  34.116  28.684  1.00  0.00     0.023 A 
ATOM     81  C   UNL A   1      44.261  35.458  28.468  1.00  0.00     0.031 A 
ATOM     82  C   UNL A   1      45.885  33.712  28.216  1.00  0.00     0.131 A 
ATOM     83  C   UNL A   1      45.103  36.322  27.757  1.00  0.00     0.055 A 
ATOM     84  C   UNL A   1      46.742  34.588  27.531  1.00  0.00     0.041 A 
ATOM     85  F   UNL A   1      46.284  32.436  28.340  1.00  0.00    -0.206 F 
ATOM     86  C   UNL A   1      46.345  35.898  27.282  1.00  0.00     0.022 A 
BRANCH  83  87
ATOM     87  S   UNL A   1      44.527  37.989  27.332  1.00  0.00     0.124 S 
ATOM     88  O   UNL A   1      45.612  38.488  26.490  1.00  0.00    -0.237 OA
ATOM     89  O   UNL A   1      43.274  37.700  26.644  1.00  0.00    -0.237 OA
ATOM     90  O   UNL A   1      44.401  38.646  28.631  1.00  0.00    -0.744 OA
ENDBRANCH  83  87
ENDBRANCH  56  80
BRANCH  68  91
ATOM     91  C   UNL A   1      39.262  31.738  31.067  1.00  0.00     0.023 A 
ATOM     92  C   UNL A   1      38.263  32.411  31.793  1.00  0.00     0.031 A 
ATOM     93  C   UNL A   1      38.930  31.294  29.771  1.00  0.00     0.131 A 
ATOM     94  C   UNL A   1      36.975  32.558  31.273  1.00  0.00     0.055 A 
ATOM     95  C   UNL A   1      37.662  31.526  29.219  1.00  0.00     0.041 A 
ATOM     96  F   UNL A   1      39.776  30.557  29.037  1.00  0.00    -0.206 F 
ATOM     97  C   UNL A   1      36.669  32.131  29.980  1.00  0.00     0.022 A 
BRANCH  94  98
ATOM     98  S   UNL A   1      35.637  33.167  32.326  1.00  0.00     0.124 S 
ATOM     99  O   UNL A   1      35.715  34.610  32.120  1.00  0.00    -0.237 OA
ATOM    100  O   UNL A   1      34.464  32.513  31.749  1.00  0.00    -0.237 OA
ATOM    101  O   UNL A   1      36.002  32.708  33.664  1.00  0.00    -0.744 OA
ENDBRANCH  94  98
ENDBRANCH  68  91
ENDBRANCH  42  43
ENDBRANCH  35  37
ENDBRANCH  34  35
ENDBRANCH  33  34
ENDBRANCH  32  33
ENDBRANCH  31  32
ENDBRANCH  30  31
ENDBRANCH   1  30
TORSDOF 26
ENDMDL
MODEL 3
REMARK VINA RESULT:      -9.4      2.332      2.727
REMARK SMILES CCc1cccc2c3c([nH]c12)[C@](CC)(CC(=O)OCCOCCOCCOCCOC(=O)c1ccc(-c2c4nc(c(-c5cc(S(=O)(=O)[O-])ccc5F)c5ccc([nH]5)c(-c5cc(S(=O)(=O)[O-])ccc5F)c5nc(c(-c6cc(S(=O)(=O)[O-])ccc6F)c6ccc2[nH]6)C=C5)C=C4)cc1)OCC3
REMARK SMILES IDX 25 1 24 2 23 3 22 4 21 5 20 6 19 7 18 8 16 9 17 10 15 11
REMARK SMILES IDX 12 12 3 13 4 14 11 15 5 16 7 17 10 18 6 19 8 20 9 21 98 23
REMARK SMILES IDX 97 24 96 25 2 26 1 27 13 28 14 29 26 30 27 31 28 32 29 33
REMARK SMILES IDX 30 34 31 35 32 36 33 37 34 38 95 39 35 40 94 41 36 42 37 43
REMARK SMILES IDX 38 44 88 45 39 46 93 47 87 48 89 49 40 50 92 51 86 52 85 53
REMARK SMILES IDX 41 55 73 56 53 57 72 58 54 59 57 60 71 61 90 62 55 63 56 64
REMARK SMILES IDX 70 66 91 67 58 68 42 69 43 70 51 71 44 72 50 73 52 74 49 75
REMARK SMILES IDX 45 76 46 77 47 78 48 79 74 80 75 81 83 82 76 83 82 84 84 85
REMARK SMILES IDX 81 86 77 87 78 88 79 89 80 90 59 91 60 92 68 93 61 94 67 95
REMARK SMILES IDX 69 96 66 97 62 98 63 99 64 100 65 101
REMARK H PARENT 10 22 89 54 57 65
REMARK Flexibility Score: inf
ROOT
ATOM      1  C   UNL A   1      44.167  19.210  25.010  1.00  0.00     0.188 C 
ENDROOT
BRANCH   1   2
ATOM      2  O   UNL A   1      42.773  19.302  24.975  1.00  0.00    -0.377 OA
BRANCH   2   3
ATOM      3  C   UNL A   1      41.960  18.722  25.947  1.00  0.00     0.188 C 
BRANCH   3   4
ATOM      4  C   UNL A   1      40.913  19.664  26.545  1.00  0.00     0.188 C 
BRANCH   4   5
ATOM      5  O   UNL A   1      39.685  19.977  25.898  1.00  0.00    -0.376 OA
BRANCH   5   6
ATOM      6  C   UNL A   1      39.273  21.327  25.739  1.00  0.00     0.202 C 
BRANCH   6   7
ATOM      7  C   UNL A   1      37.750  21.623  25.724  1.00  0.00     0.261 C 
BRANCH   7   8
ATOM      8  O   UNL A   1      37.281  22.843  25.077  1.00  0.00    -0.463 OA
BRANCH   8   9
ATOM      9  C   UNL A   1      36.505  22.676  23.991  1.00  0.00     0.309 C 
ATOM     10  O   UNL A   1      36.896  22.909  22.844  1.00  0.00    -0.252 OA
BRANCH   9  11
ATOM     11  C   UNL A   1      35.033  22.341  24.204  1.00  0.00     0.164 C 
BRANCH  11  12
ATOM     12  C   UNL A   1      33.672  23.026  23.889  1.00  0.00     0.118 C 
ATOM     13  C   UNL A   1      33.698  27.927  25.335  1.00  0.00    -0.024 A 
ATOM     14  C   UNL A   1      33.652  29.126  24.594  1.00  0.00     0.006 A 
ATOM     15  C   UNL A   1      33.571  26.721  24.599  1.00  0.00     0.049 A 
ATOM     16  C   UNL A   1      33.227  29.144  23.278  1.00  0.00     0.001 A 
ATOM     17  C   UNL A   1      33.164  26.711  23.260  1.00  0.00     0.003 A 
ATOM     18  N   UNL A   1      33.727  25.395  24.968  1.00  0.00    -0.356 N 
ATOM     19  C   UNL A   1      32.853  27.951  22.660  1.00  0.00     0.010 A 
ATOM     20  C   UNL A   1      33.152  25.344  22.831  1.00  0.00    -0.014 A 
ATOM     21  C   UNL A   1      33.571  24.554  23.888  1.00  0.00     0.052 A 
ATOM     22  H   UNL A   1      33.923  25.091  25.883  1.00  0.00     0.166 HD
ATOM     23  C   UNL A   1      32.810  24.717  21.525  1.00  0.00     0.066 C 
ATOM     24  C   UNL A   1      33.307  23.258  21.478  1.00  0.00     0.166 C 
ATOM     25  O   UNL A   1      33.041  22.537  22.685  1.00  0.00    -0.368 OA
BRANCH  13  26
ATOM     26  C   UNL A   1      33.701  28.053  26.840  1.00  0.00     0.034 C 
ATOM     27  C   UNL A   1      34.526  29.180  27.416  1.00  0.00     0.009 C 
ENDBRANCH  13  26
BRANCH  12  28
ATOM     28  C   UNL A   1      32.685  22.562  25.029  1.00  0.00     0.039 C 
ATOM     29  C   UNL A   1      31.217  22.925  24.821  1.00  0.00     0.007 C 
ENDBRANCH  12  28
ENDBRANCH  11  12
ENDBRANCH   9  11
ENDBRANCH   8   9
ENDBRANCH   7   8
ENDBRANCH   6   7
ENDBRANCH   5   6
ENDBRANCH   4   5
ENDBRANCH   3   4
ENDBRANCH   2   3
ENDBRANCH   1   2
BRANCH   1  30
ATOM     30  C   UNL A   1      44.978  20.292  24.310  1.00  0.00     0.188 C 
BRANCH  30  31
ATOM     31  O   UNL A   1      45.431  21.323  25.159  1.00  0.00    -0.376 OA
BRANCH  31  32
ATOM     32  C   UNL A   1      44.776  22.578  25.224  1.00  0.00     0.202 C 
BRANCH  32  33
ATOM     33  C   UNL A   1      43.311  22.867  24.843  1.00  0.00     0.261 C 
BRANCH  33  34
ATOM     34  O   UNL A   1      42.453  23.226  25.901  1.00  0.00    -0.460 OA
BRANCH  34  35
ATOM     35  C   UNL A   1      42.557  22.700  27.139  1.00  0.00     0.338 C 
ATOM     36  O   UNL A   1      43.157  21.728  27.500  1.00  0.00    -0.246 OA
BRANCH  35  37
ATOM     37  C   UNL A   1      41.991  23.823  27.920  1.00  0.00     0.060 A 
ATOM     38  C   UNL A   1      41.156  24.741  27.270  1.00  0.00     0.016 A 
ATOM     39  C   UNL A   1      42.728  24.176  29.058  1.00  0.00     0.016 A 
ATOM     40  C   UNL A   1      41.196  26.063  27.682  1.00  0.00     0.010 A 
ATOM     41  C   UNL A   1      42.776  25.507  29.454  1.00  0.00     0.010 A 
ATOM     42  C   UNL A   1      42.061  26.461  28.731  1.00  0.00    -0.014 A 
BRANCH  42  43
ATOM     43  C   UNL A   1      41.923  27.841  29.211  1.00  0.00     0.031 A 
ATOM     44  C   UNL A   1      43.151  28.569  28.816  1.00  0.00     0.074 A 
ATOM     45  C   UNL A   1      40.881  28.453  29.812  1.00  0.00     0.049 A 
ATOM     46  N   UNL A   1      44.134  28.900  29.585  1.00  0.00    -0.248 NA
ATOM     47  C   UNL A   1      43.464  28.603  27.373  1.00  0.00     0.031 C 
ATOM     48  C   UNL A   1      39.517  27.957  29.986  1.00  0.00     0.029 A 
ATOM     49  N   UNL A   1      40.799  29.717  30.340  1.00  0.00    -0.354 N 
ATOM     50  C   UNL A   1      45.096  29.399  28.720  1.00  0.00     0.074 A 
ATOM     51  C   UNL A   1      44.756  28.918  27.408  1.00  0.00     0.031 C 
ATOM     52  C   UNL A   1      38.705  28.978  30.355  1.00  0.00     0.029 A 
ATOM     53  C   UNL A   1      39.500  30.181  30.548  1.00  0.00     0.049 A 
ATOM     54  H   UNL A   1      41.595  30.254  30.556  1.00  0.00     0.167 HD
ATOM     55  C   UNL A   1      45.899  30.433  29.085  1.00  0.00     0.034 A 
ATOM     56  C   UNL A   1      39.096  31.466  30.764  1.00  0.00     0.034 A 
ATOM     57  C   UNL A   1      45.900  30.609  30.511  1.00  0.00     0.049 A 
ATOM     58  C   UNL A   1      40.279  32.274  31.146  1.00  0.00     0.074 A 
ATOM     59  C   UNL A   1      46.296  29.826  31.575  1.00  0.00     0.029 A 
ATOM     60  N   UNL A   1      45.048  31.559  31.019  1.00  0.00    -0.354 N 
ATOM     61  N   UNL A   1      40.903  32.160  32.281  1.00  0.00    -0.248 NA
ATOM     62  C   UNL A   1      41.048  32.860  30.059  1.00  0.00     0.031 C 
ATOM     63  C   UNL A   1      45.343  30.078  32.599  1.00  0.00     0.029 A 
ATOM     64  C   UNL A   1      44.460  31.065  32.156  1.00  0.00     0.049 A 
ATOM     65  H   UNL A   1      44.885  32.449  30.631  1.00  0.00     0.167 HD
ATOM     66  C   UNL A   1      42.243  32.175  31.929  1.00  0.00     0.074 A 
ATOM     67  C   UNL A   1      42.273  32.690  30.560  1.00  0.00     0.031 C 
ATOM     68  C   UNL A   1      43.168  31.491  32.662  1.00  0.00     0.034 A 
BRANCH  55  69
ATOM     69  C   UNL A   1      46.325  31.489  28.102  1.00  0.00     0.023 A 
ATOM     70  C   UNL A   1      45.408  32.188  27.289  1.00  0.00     0.031 A 
ATOM     71  C   UNL A   1      47.641  31.971  28.092  1.00  0.00     0.131 A 
ATOM     72  C   UNL A   1      45.798  33.243  26.463  1.00  0.00     0.055 A 
ATOM     73  C   UNL A   1      48.020  33.085  27.332  1.00  0.00     0.041 A 
ATOM     74  F   UNL A   1      48.586  31.402  28.856  1.00  0.00    -0.206 F 
ATOM     75  C   UNL A   1      47.098  33.722  26.504  1.00  0.00     0.022 A 
BRANCH  72  76
ATOM     76  S   UNL A   1      44.602  33.993  25.323  1.00  0.00     0.124 S 
ATOM     77  O   UNL A   1      43.724  32.868  25.020  1.00  0.00    -0.237 OA
ATOM     78  O   UNL A   1      44.024  35.044  26.156  1.00  0.00    -0.237 OA
ATOM     79  O   UNL A   1      45.429  34.468  24.218  1.00  0.00    -0.744 OA
ENDBRANCH  72  76
ENDBRANCH  55  69
BRANCH  56  80
ATOM     80  C   UNL A   1      37.900  32.136  30.175  1.00  0.00     0.023 A 
ATOM     81  C   UNL A   1      37.013  32.816  31.025  1.00  0.00     0.031 A 
ATOM     82  C   UNL A   1      37.433  31.833  28.878  1.00  0.00     0.131 A 
ATOM     83  C   UNL A   1      35.705  33.107  30.617  1.00  0.00     0.055 A 
ATOM     84  C   UNL A   1      36.131  32.154  28.460  1.00  0.00     0.041 A 
ATOM     85  F   UNL A   1      38.200  31.144  28.019  1.00  0.00    -0.206 F 
ATOM     86  C   UNL A   1      35.252  32.780  29.339  1.00  0.00     0.022 A 
BRANCH  83  87
ATOM     87  S   UNL A   1      34.530  33.811  31.807  1.00  0.00     0.124 S 
ATOM     88  O   UNL A   1      33.568  34.481  30.935  1.00  0.00    -0.237 OA
ATOM     89  O   UNL A   1      34.043  32.614  32.484  1.00  0.00    -0.237 OA
ATOM     90  O   UNL A   1      35.358  34.704  32.614  1.00  0.00    -0.744 OA
ENDBRANCH  83  87
ENDBRANCH  56  80
BRANCH  68  91
ATOM     91  C   UNL A   1      42.778  30.963  34.027  1.00  0.00     0.023 A 
ATOM     92  C   UNL A   1      43.157  31.752  35.128  1.00  0.00     0.031 A 
ATOM     93  C   UNL A   1      42.266  29.679  34.299  1.00  0.00     0.131 A 
ATOM     94  C   UNL A   1      43.098  31.243  36.428  1.00  0.00     0.055 A 
ATOM     95  C   UNL A   1      42.124  29.208  35.612  1.00  0.00     0.041 A 
ATOM     96  F   UNL A   1      41.972  28.813  33.318  1.00  0.00    -0.206 F 
ATOM     97  C   UNL A   1      42.569  29.977  36.681  1.00  0.00     0.022 A 
BRANCH  94  98
ATOM     98  S   UNL A   1      43.850  32.159  37.795  1.00  0.00     0.124 S 
ATOM     99  O   UNL A   1      42.790  32.144  38.797  1.00  0.00    -0.237 OA
ATOM    100  O   UNL A   1      45.022  31.344  38.107  1.00  0.00    -0.237 OA
ATOM    101  O   UNL A   1      44.147  33.470  37.221  1.00  0.00    -0.744 OA
ENDBRANCH  94  98
ENDBRANCH  68  91
ENDBRANCH  42  43
ENDBRANCH  35  37
ENDBRANCH  34  35
ENDBRANCH  33  34
ENDBRANCH  32  33
ENDBRANCH  31  32
ENDBRANCH  30  31
ENDBRANCH   1  30
TORSDOF 26
ENDMDL
