MODEL 1
REMARK VINA RESULT:      -9.7      0.000      0.000
REMARK SMILES Cc1ccc([C@H](C)NC(=O)[C@H]2[C@@H]3CC[C@@H](C3)[C@@H]2C(=O)OCCOCCOCCOCCOC(=O)c2ccc(-c3c4nc(c(-c5cc(S(=O)(=O)[O-])ccc5F)c5ccc([nH]5)c(-c5cc(S(=O)(=O)[O-])ccc5F)c5nc(c(-c6cc(S(=O)(=O)[O-])ccc6F)c6ccc3[nH]6)C=C5)C=C4)cc2)cc1
REMARK SMILES IDX 26 1 25 2 24 3 23 4 22 5 21 6 20 7 18 8 19 9 17 10 11 11
REMARK SMILES IDX 12 12 13 13 16 14 15 15 14 16 9 17 8 18 10 20 6 21 7 22 5 23
REMARK SMILES IDX 1 24 2 25 3 26 99 27 4 28 98 29 27 30 28 31 29 32 30 33
REMARK SMILES IDX 31 34 32 35 33 36 34 37 35 38 36 39 97 40 37 41 96 42 38 43
REMARK SMILES IDX 39 44 40 45 90 46 41 47 95 48 89 49 91 50 42 51 94 52 88 53
REMARK SMILES IDX 87 54 43 56 75 57 55 58 74 59 56 60 59 61 73 62 92 63 57 64
REMARK SMILES IDX 58 65 72 67 93 68 60 69 44 70 45 71 53 72 46 73 52 74 54 75
REMARK SMILES IDX 51 76 47 77 48 78 49 79 50 80 76 81 77 82 85 83 78 84 84 85
REMARK SMILES IDX 86 86 83 87 79 88 80 89 81 90 82 91 61 92 62 93 70 94 63 95
REMARK SMILES IDX 69 96 71 97 68 98 64 99 65 100 66 101 67 102
REMARK H PARENT 8 19 91 55 59 66
REMARK Flexibility Score: inf
ROOT
ATOM      1  O   UNL A   1      35.617  32.749  28.582  1.00  0.00    -0.377 OA
ENDROOT
BRANCH   1   2
ATOM      2  C   UNL A   1      36.374  31.555  28.680  1.00  0.00     0.188 C 
BRANCH   2   3
ATOM      3  C   UNL A   1      35.854  30.097  28.563  1.00  0.00     0.188 C 
BRANCH   3   4
ATOM      4  O   UNL A   1      35.577  29.643  27.235  1.00  0.00    -0.376 OA
BRANCH   4   5
ATOM      5  C   UNL A   1      34.271  29.566  26.653  1.00  0.00     0.202 C 
BRANCH   5   6
ATOM      6  C   UNL A   1      33.358  28.450  27.102  1.00  0.00     0.261 C 
BRANCH   6   7
ATOM      7  O   UNL A   1      32.594  28.009  26.049  1.00  0.00    -0.463 OA
BRANCH   7   8
ATOM      8  C   UNL A   1      31.524  27.341  26.497  1.00  0.00     0.310 C 
ATOM      9  O   UNL A   1      30.966  27.408  27.610  1.00  0.00    -0.252 OA
BRANCH   8  10
ATOM     10  C   UNL A   1      31.161  26.363  25.494  1.00  0.00     0.115 C 
ATOM     11  C   UNL A   1      32.340  25.882  24.654  1.00  0.00     0.096 C 
ATOM     12  C   UNL A   1      31.595  25.639  23.323  1.00  0.00     0.002 C 
ATOM     13  C   UNL A   1      31.396  27.018  22.628  1.00  0.00     0.005 C 
ATOM     14  C   UNL A   1      30.148  25.347  23.778  1.00  0.00     0.009 C 
ATOM     15  C   UNL A   1      30.009  26.654  24.554  1.00  0.00     0.004 C 
ATOM     16  C   UNL A   1      30.233  27.642  23.420  1.00  0.00     0.005 C 
BRANCH  11  17
ATOM     17  C   UNL A   1      33.241  24.764  25.240  1.00  0.00     0.224 C 
ATOM     18  N   UNL A   1      33.081  23.418  24.992  1.00  0.00    -0.349 N 
ATOM     19  H   UNL A   1      33.014  22.847  25.791  1.00  0.00     0.164 HD
ATOM     20  O   UNL A   1      34.067  25.053  26.115  1.00  0.00    -0.275 OA
BRANCH  18  21
ATOM     21  C   UNL A   1      32.998  22.718  23.706  1.00  0.00     0.109 C 
ATOM     22  C   UNL A   1      34.107  23.209  22.781  1.00  0.00     0.036 C 
BRANCH  21  23
ATOM     23  C   UNL A   1      32.880  21.204  23.721  1.00  0.00    -0.026 A 
ATOM     24  C   UNL A   1      33.457  16.925  23.552  1.00  0.00     0.044 C 
ATOM     25  C   UNL A   1      33.106  18.376  23.715  1.00  0.00    -0.051 A 
ATOM     26  C   UNL A   1      33.773  19.126  24.685  1.00  0.00     0.004 A 
ATOM     27  C   UNL A   1      32.276  19.039  22.794  1.00  0.00     0.004 A 
ATOM     28  C   UNL A   1      33.653  20.516  24.691  1.00  0.00     0.006 A 
ATOM     29  C   UNL A   1      32.155  20.442  22.800  1.00  0.00     0.006 A 
ENDBRANCH  21  23
ENDBRANCH  18  21
ENDBRANCH  11  17
ENDBRANCH   8  10
ENDBRANCH   7   8
ENDBRANCH   6   7
ENDBRANCH   5   6
ENDBRANCH   4   5
ENDBRANCH   3   4
ENDBRANCH   2   3
ENDBRANCH   1   2
BRANCH   1  30
ATOM     30  C   UNL A   1      34.220  32.791  28.401  1.00  0.00     0.188 C 
BRANCH  30  31
ATOM     31  C   UNL A   1      33.576  34.127  28.250  1.00  0.00     0.188 C 
BRANCH  31  32
ATOM     32  O   UNL A   1      32.813  34.320  29.437  1.00  0.00    -0.376 OA
BRANCH  32  33
ATOM     33  C   UNL A   1      33.300  35.395  30.215  1.00  0.00     0.202 C 
BRANCH  33  34
ATOM     34  C   UNL A   1      33.913  34.890  31.524  1.00  0.00     0.261 C 
BRANCH  34  35
ATOM     35  O   UNL A   1      35.278  34.467  31.274  1.00  0.00    -0.460 OA
BRANCH  35  36
ATOM     36  C   UNL A   1      35.888  33.783  32.287  1.00  0.00     0.338 C 
ATOM     37  O   UNL A   1      35.301  33.182  33.173  1.00  0.00    -0.246 OA
BRANCH  36  38
ATOM     38  C   UNL A   1      37.370  34.018  32.283  1.00  0.00     0.060 A 
ATOM     39  C   UNL A   1      37.974  34.708  31.220  1.00  0.00     0.016 A 
ATOM     40  C   UNL A   1      38.174  33.271  33.130  1.00  0.00     0.016 A 
ATOM     41  C   UNL A   1      39.332  34.495  30.903  1.00  0.00     0.010 A 
ATOM     42  C   UNL A   1      39.475  32.973  32.727  1.00  0.00     0.010 A 
ATOM     43  C   UNL A   1      40.093  33.550  31.598  1.00  0.00    -0.014 A 
BRANCH  43  44
ATOM     44  C   UNL A   1      41.402  33.035  31.045  1.00  0.00     0.031 A 
ATOM     45  C   UNL A   1      41.545  31.514  30.534  1.00  0.00     0.074 A 
ATOM     46  C   UNL A   1      42.273  33.976  30.542  1.00  0.00     0.049 A 
ATOM     47  N   UNL A   1      42.614  30.893  30.065  1.00  0.00    -0.248 NA
ATOM     48  C   UNL A   1      40.397  30.589  30.534  1.00  0.00     0.031 C 
ATOM     49  C   UNL A   1      42.089  34.270  29.146  1.00  0.00     0.029 A 
ATOM     50  N   UNL A   1      42.850  35.236  30.872  1.00  0.00    -0.354 N 
ATOM     51  C   UNL A   1      42.209  29.664  29.460  1.00  0.00     0.074 A 
ATOM     52  C   UNL A   1      40.829  29.527  29.851  1.00  0.00     0.031 C 
ATOM     53  C   UNL A   1      42.810  35.274  28.686  1.00  0.00     0.029 A 
ATOM     54  C   UNL A   1      43.647  35.650  29.786  1.00  0.00     0.049 A 
ATOM     55  H   UNL A   1      42.715  35.730  31.712  1.00  0.00     0.167 HD
ATOM     56  C   UNL A   1      42.916  28.932  28.514  1.00  0.00     0.034 A 
ATOM     57  C   UNL A   1      44.447  36.622  29.314  1.00  0.00     0.034 A 
ATOM     58  C   UNL A   1      44.087  29.678  27.946  1.00  0.00     0.049 A 
ATOM     59  C   UNL A   1      45.532  35.709  28.616  1.00  0.00     0.074 A 
ATOM     60  C   UNL A   1      44.425  29.902  26.620  1.00  0.00     0.029 A 
ATOM     61  N   UNL A   1      44.924  30.559  28.678  1.00  0.00    -0.354 N 
ATOM     62  N   UNL A   1      45.380  34.433  28.242  1.00  0.00    -0.248 NA
ATOM     63  C   UNL A   1      46.939  36.054  28.694  1.00  0.00     0.031 C 
ATOM     64  C   UNL A   1      45.435  30.886  26.573  1.00  0.00     0.029 A 
ATOM     65  C   UNL A   1      45.690  31.393  27.836  1.00  0.00     0.049 A 
ATOM     66  H   UNL A   1      44.965  30.586  29.660  1.00  0.00     0.167 HD
ATOM     67  C   UNL A   1      46.592  33.737  28.277  1.00  0.00     0.074 A 
ATOM     68  C   UNL A   1      47.524  34.857  28.502  1.00  0.00     0.031 C 
ATOM     69  C   UNL A   1      46.768  32.336  28.257  1.00  0.00     0.034 A 
BRANCH  56  70
ATOM     70  C   UNL A   1      42.369  27.598  27.757  1.00  0.00     0.023 A 
ATOM     71  C   UNL A   1      42.857  26.292  28.078  1.00  0.00     0.031 A 
ATOM     72  C   UNL A   1      41.353  27.542  26.766  1.00  0.00     0.131 A 
ATOM     73  C   UNL A   1      42.471  25.100  27.393  1.00  0.00     0.055 A 
ATOM     74  C   UNL A   1      40.972  26.361  26.069  1.00  0.00     0.041 A 
ATOM     75  F   UNL A   1      40.595  28.605  26.469  1.00  0.00    -0.206 F 
ATOM     76  C   UNL A   1      41.537  25.133  26.370  1.00  0.00     0.022 A 
BRANCH  73  77
ATOM     77  S   UNL A   1      43.156  23.478  27.897  1.00  0.00     0.124 S 
ATOM     78  O   UNL A   1      44.326  23.861  28.679  1.00  0.00    -0.237 OA
ATOM     79  O   UNL A   1      42.051  22.882  28.639  1.00  0.00    -0.237 OA
ATOM     80  O   UNL A   1      43.458  22.821  26.623  1.00  0.00    -0.744 OA
ENDBRANCH  73  77
ENDBRANCH  56  70
BRANCH  57  81
ATOM     81  C   UNL A   1      43.752  37.988  29.228  1.00  0.00     0.023 A 
ATOM     82  C   UNL A   1      43.522  38.924  30.299  1.00  0.00     0.031 A 
ATOM     83  C   UNL A   1      43.955  38.576  27.956  1.00  0.00     0.131 A 
ATOM     84  C   UNL A   1      43.657  40.338  30.076  1.00  0.00     0.055 A 
ATOM     85  C   UNL A   1      44.156  39.950  27.763  1.00  0.00     0.041 A 
ATOM     86  F   UNL A   1      44.178  37.786  26.893  1.00  0.00    -0.206 F 
ATOM     87  C   UNL A   1      44.034  40.832  28.823  1.00  0.00     0.022 A 
BRANCH  84  88
ATOM     88  S   UNL A   1      43.682  41.610  31.427  1.00  0.00     0.124 S 
ATOM     89  O   UNL A   1      42.588  42.496  31.039  1.00  0.00    -0.237 OA
ATOM     90  O   UNL A   1      43.480  40.841  32.645  1.00  0.00    -0.237 OA
ATOM     91  O   UNL A   1      45.016  42.202  31.284  1.00  0.00    -0.744 OA
ENDBRANCH  84  88
ENDBRANCH  57  81
BRANCH  69  92
ATOM     92  C   UNL A   1      48.103  31.600  28.554  1.00  0.00     0.023 A 
ATOM     93  C   UNL A   1      48.806  30.872  27.600  1.00  0.00     0.031 A 
ATOM     94  C   UNL A   1      48.753  31.633  29.822  1.00  0.00     0.131 A 
ATOM     95  C   UNL A   1      50.082  30.334  27.828  1.00  0.00     0.055 A 
ATOM     96  C   UNL A   1      50.003  31.048  30.079  1.00  0.00     0.041 A 
ATOM     97  F   UNL A   1      48.223  32.237  30.896  1.00  0.00    -0.206 F 
ATOM     98  C   UNL A   1      50.696  30.411  29.066  1.00  0.00     0.022 A 
BRANCH  95  99
ATOM     99  S   UNL A   1      50.904  29.583  26.404  1.00  0.00     0.124 S 
ATOM    100  O   UNL A   1      51.351  30.755  25.656  1.00  0.00    -0.237 OA
ATOM    101  O   UNL A   1      51.962  28.807  27.046  1.00  0.00    -0.237 OA
ATOM    102  O   UNL A   1      49.850  28.798  25.771  1.00  0.00    -0.744 OA
ENDBRANCH  95  99
ENDBRANCH  69  92
ENDBRANCH  43  44
ENDBRANCH  36  38
ENDBRANCH  35  36
ENDBRANCH  34  35
ENDBRANCH  33  34
ENDBRANCH  32  33
ENDBRANCH  31  32
ENDBRANCH  30  31
ENDBRANCH   1  30
TORSDOF 26
ENDMDL
MODEL 2
REMARK VINA RESULT:      -9.6      2.065      2.506
REMARK SMILES Cc1ccc([C@H](C)NC(=O)[C@H]2[C@@H]3CC[C@@H](C3)[C@@H]2C(=O)OCCOCCOCCOCCOC(=O)c2ccc(-c3c4nc(c(-c5cc(S(=O)(=O)[O-])ccc5F)c5ccc([nH]5)c(-c5cc(S(=O)(=O)[O-])ccc5F)c5nc(c(-c6cc(S(=O)(=O)[O-])ccc6F)c6ccc3[nH]6)C=C5)C=C4)cc2)cc1
REMARK SMILES IDX 26 1 25 2 24 3 23 4 22 5 21 6 20 7 18 8 19 9 17 10 11 11
REMARK SMILES IDX 12 12 13 13 16 14 15 15 14 16 9 17 8 18 10 20 6 21 7 22 5 23
REMARK SMILES IDX 1 24 2 25 3 26 99 27 4 28 98 29 27 30 28 31 29 32 30 33
REMARK SMILES IDX 31 34 32 35 33 36 34 37 35 38 36 39 97 40 37 41 96 42 38 43
REMARK SMILES IDX 39 44 40 45 90 46 41 47 95 48 89 49 91 50 42 51 94 52 88 53
REMARK SMILES IDX 87 54 43 56 75 57 55 58 74 59 56 60 59 61 73 62 92 63 57 64
REMARK SMILES IDX 58 65 72 67 93 68 60 69 44 70 45 71 53 72 46 73 52 74 54 75
REMARK SMILES IDX 51 76 47 77 48 78 49 79 50 80 76 81 77 82 85 83 78 84 84 85
REMARK SMILES IDX 86 86 83 87 79 88 80 89 81 90 82 91 61 92 62 93 70 94 63 95
REMARK SMILES IDX 69 96 71 97 68 98 64 99 65 100 66 101 67 102
REMARK H PARENT 8 19 91 55 59 66
REMARK Flexibility Score: inf
ROOT
ATOM      1  O   UNL A   1      35.467  32.522  28.652  1.00  0.00    -0.377 OA
ENDROOT
BRANCH   1   2
ATOM      2  C   UNL A   1      36.252  31.346  28.742  1.00  0.00     0.188 C 
BRANCH   2   3
ATOM      3  C   UNL A   1      35.771  29.877  28.592  1.00  0.00     0.188 C 
BRANCH   3   4
ATOM      4  O   UNL A   1      35.468  29.459  27.259  1.00  0.00    -0.376 OA
BRANCH   4   5
ATOM      5  C   UNL A   1      34.159  29.459  26.679  1.00  0.00     0.202 C 
BRANCH   5   6
ATOM      6  C   UNL A   1      33.208  28.353  27.071  1.00  0.00     0.261 C 
BRANCH   6   7
ATOM      7  O   UNL A   1      32.457  27.966  25.987  1.00  0.00    -0.463 OA
BRANCH   7   8
ATOM      8  C   UNL A   1      31.387  27.269  26.388  1.00  0.00     0.310 C 
ATOM      9  O   UNL A   1      30.790  27.303  27.482  1.00  0.00    -0.252 OA
BRANCH   8  10
ATOM     10  C   UNL A   1      31.079  26.302  25.356  1.00  0.00     0.115 C 
ATOM     11  C   UNL A   1      32.289  25.886  24.525  1.00  0.00     0.096 C 
ATOM     12  C   UNL A   1      31.575  25.647  23.177  1.00  0.00     0.002 C 
ATOM     13  C   UNL A   1      31.334  27.033  22.510  1.00  0.00     0.005 C 
ATOM     14  C   UNL A   1      30.134  25.288  23.599  1.00  0.00     0.009 C 
ATOM     15  C   UNL A   1      29.931  26.571  24.403  1.00  0.00     0.004 C 
ATOM     16  C   UNL A   1      30.136  27.593  23.297  1.00  0.00     0.005 C 
BRANCH  11  17
ATOM     17  C   UNL A   1      33.223  24.791  25.100  1.00  0.00     0.224 C 
ATOM     18  N   UNL A   1      33.068  23.438  24.888  1.00  0.00    -0.349 N 
ATOM     19  H   UNL A   1      33.037  22.884  25.701  1.00  0.00     0.164 HD
ATOM     20  O   UNL A   1      34.080  25.107  25.936  1.00  0.00    -0.275 OA
BRANCH  18  21
ATOM     21  C   UNL A   1      32.943  22.709  23.621  1.00  0.00     0.109 C 
ATOM     22  C   UNL A   1      34.000  23.202  22.638  1.00  0.00     0.036 C 
BRANCH  21  23
ATOM     23  C   UNL A   1      32.858  21.193  23.673  1.00  0.00    -0.026 A 
ATOM     24  C   UNL A   1      33.524  16.925  23.588  1.00  0.00     0.044 C 
ATOM     25  C   UNL A   1      33.145  18.371  23.725  1.00  0.00    -0.051 A 
ATOM     26  C   UNL A   1      33.815  19.158  24.665  1.00  0.00     0.004 A 
ATOM     27  C   UNL A   1      32.283  18.996  22.807  1.00  0.00     0.004 A 
ATOM     28  C   UNL A   1      33.665  20.544  24.642  1.00  0.00     0.006 A 
ATOM     29  C   UNL A   1      32.131  20.396  22.785  1.00  0.00     0.006 A 
ENDBRANCH  21  23
ENDBRANCH  18  21
ENDBRANCH  11  17
ENDBRANCH   8  10
ENDBRANCH   7   8
ENDBRANCH   6   7
ENDBRANCH   5   6
ENDBRANCH   4   5
ENDBRANCH   3   4
ENDBRANCH   2   3
ENDBRANCH   1   2
BRANCH   1  30
ATOM     30  C   UNL A   1      34.073  32.533  28.443  1.00  0.00     0.188 C 
BRANCH  30  31
ATOM     31  C   UNL A   1      33.450  33.796  27.956  1.00  0.00     0.188 C 
BRANCH  31  32
ATOM     32  O   UNL A   1      32.568  34.213  28.995  1.00  0.00    -0.376 OA
BRANCH  32  33
ATOM     33  C   UNL A   1      33.069  35.330  29.702  1.00  0.00     0.202 C 
BRANCH  33  34
ATOM     34  C   UNL A   1      33.455  34.944  31.133  1.00  0.00     0.261 C 
BRANCH  34  35
ATOM     35  O   UNL A   1      34.675  34.160  31.097  1.00  0.00    -0.460 OA
BRANCH  35  36
ATOM     36  C   UNL A   1      34.820  33.232  32.089  1.00  0.00     0.338 C 
ATOM     37  O   UNL A   1      33.897  32.709  32.692  1.00  0.00    -0.246 OA
BRANCH  36  38
ATOM     38  C   UNL A   1      36.261  33.074  32.477  1.00  0.00     0.060 A 
ATOM     39  C   UNL A   1      37.265  33.731  31.748  1.00  0.00     0.016 A 
ATOM     40  C   UNL A   1      36.625  32.031  33.313  1.00  0.00     0.016 A 
ATOM     41  C   UNL A   1      38.581  33.224  31.716  1.00  0.00     0.010 A 
ATOM     42  C   UNL A   1      37.892  31.468  33.168  1.00  0.00     0.010 A 
ATOM     43  C   UNL A   1      38.903  32.023  32.357  1.00  0.00    -0.014 A 
BRANCH  43  44
ATOM     44  C   UNL A   1      40.173  31.273  32.027  1.00  0.00     0.031 A 
ATOM     45  C   UNL A   1      40.122  29.789  31.403  1.00  0.00     0.074 A 
ATOM     46  C   UNL A   1      41.300  32.034  31.805  1.00  0.00     0.049 A 
ATOM     47  N   UNL A   1      41.123  28.982  31.096  1.00  0.00    -0.248 NA
ATOM     48  C   UNL A   1      38.842  29.132  31.080  1.00  0.00     0.031 C 
ATOM     49  C   UNL A   1      41.484  32.441  30.437  1.00  0.00     0.029 A 
ATOM     50  N   UNL A   1      42.029  33.120  32.369  1.00  0.00    -0.354 N 
ATOM     51  C   UNL A   1      40.625  27.904  30.302  1.00  0.00     0.074 A 
ATOM     52  C   UNL A   1      39.194  28.043  30.394  1.00  0.00     0.031 C 
ATOM     53  C   UNL A   1      42.470  33.292  30.235  1.00  0.00     0.029 A 
ATOM     54  C   UNL A   1      43.107  33.416  31.511  1.00  0.00     0.049 A 
ATOM     55  H   UNL A   1      41.816  33.583  33.211  1.00  0.00     0.167 HD
ATOM     56  C   UNL A   1      41.361  27.094  29.447  1.00  0.00     0.034 A 
ATOM     57  C   UNL A   1      44.165  34.221  31.309  1.00  0.00     0.034 A 
ATOM     58  C   UNL A   1      42.751  27.604  29.202  1.00  0.00     0.049 A 
ATOM     59  C   UNL A   1      45.174  33.138  30.753  1.00  0.00     0.074 A 
ATOM     60  C   UNL A   1      43.404  27.826  28.000  1.00  0.00     0.029 A 
ATOM     61  N   UNL A   1      43.567  28.243  30.171  1.00  0.00    -0.354 N 
ATOM     62  N   UNL A   1      44.859  31.949  30.229  1.00  0.00    -0.248 NA
ATOM     63  C   UNL A   1      46.571  33.170  31.144  1.00  0.00     0.031 C 
ATOM     64  C   UNL A   1      44.575  28.574  28.254  1.00  0.00     0.029 A 
ATOM     65  C   UNL A   1      44.645  28.941  29.588  1.00  0.00     0.049 A 
ATOM     66  H   UNL A   1      43.399  28.204  31.140  1.00  0.00     0.167 HD
ATOM     67  C   UNL A   1      45.873  31.009  30.434  1.00  0.00     0.074 A 
ATOM     68  C   UNL A   1      46.936  31.889  30.952  1.00  0.00     0.031 C 
ATOM     69  C   UNL A   1      45.770  29.606  30.308  1.00  0.00     0.034 A 
BRANCH  56  70
ATOM     70  C   UNL A   1      40.739  25.953  28.464  1.00  0.00     0.023 A 
ATOM     71  C   UNL A   1      41.293  24.636  28.389  1.00  0.00     0.031 A 
ATOM     72  C   UNL A   1      39.596  26.083  27.633  1.00  0.00     0.131 A 
ATOM     73  C   UNL A   1      40.838  23.624  27.490  1.00  0.00     0.055 A 
ATOM     74  C   UNL A   1      39.144  25.085  26.724  1.00  0.00     0.041 A 
ATOM     75  F   UNL A   1      38.783  27.145  27.707  1.00  0.00    -0.206 F 
ATOM     76  C   UNL A   1      39.770  23.852  26.639  1.00  0.00     0.022 A 
BRANCH  73  77
ATOM     77  S   UNL A   1      41.619  21.968  27.487  1.00  0.00     0.124 S 
ATOM     78  O   UNL A   1      42.858  22.204  28.220  1.00  0.00    -0.237 OA
ATOM     79  O   UNL A   1      40.620  21.144  28.158  1.00  0.00    -0.237 OA
ATOM     80  O   UNL A   1      41.795  21.672  26.063  1.00  0.00    -0.744 OA
ENDBRANCH  73  77
ENDBRANCH  56  70
BRANCH  57  81
ATOM     81  C   UNL A   1      43.788  35.706  31.225  1.00  0.00     0.023 A 
ATOM     82  C   UNL A   1      43.554  36.615  32.319  1.00  0.00     0.031 A 
ATOM     83  C   UNL A   1      44.339  36.300  30.063  1.00  0.00     0.131 A 
ATOM     84  C   UNL A   1      44.010  37.978  32.247  1.00  0.00     0.055 A 
ATOM     85  C   UNL A   1      44.844  37.607  30.030  1.00  0.00     0.041 A 
ATOM     86  F   UNL A   1      44.593  35.534  28.990  1.00  0.00    -0.206 F 
ATOM     87  C   UNL A   1      44.706  38.441  31.126  1.00  0.00     0.022 A 
BRANCH  84  88
ATOM     88  S   UNL A   1      44.038  39.145  33.688  1.00  0.00     0.124 S 
ATOM     89  O   UNL A   1      43.248  40.269  33.192  1.00  0.00    -0.237 OA
ATOM     90  O   UNL A   1      43.449  38.382  34.778  1.00  0.00    -0.237 OA
ATOM     91  O   UNL A   1      45.467  39.434  33.839  1.00  0.00    -0.744 OA
ENDBRANCH  84  88
ENDBRANCH  57  81
BRANCH  69  92
ATOM     92  C   UNL A   1      46.839  28.586  30.790  1.00  0.00     0.023 A 
ATOM     93  C   UNL A   1      47.599  27.808  29.924  1.00  0.00     0.031 A 
ATOM     94  C   UNL A   1      47.165  28.380  32.161  1.00  0.00     0.131 A 
ATOM     95  C   UNL A   1      48.664  26.998  30.351  1.00  0.00     0.055 A 
ATOM     96  C   UNL A   1      48.190  27.528  32.605  1.00  0.00     0.041 A 
ATOM     97  F   UNL A   1      46.519  28.992  33.164  1.00  0.00    -0.206 F 
ATOM     98  C   UNL A   1      48.972  26.845  31.691  1.00  0.00     0.022 A 
BRANCH  95  99
ATOM     99  S   UNL A   1      49.645  26.210  29.054  1.00  0.00     0.124 S 
ATOM    100  O   UNL A   1      50.548  27.288  28.656  1.00  0.00    -0.237 OA
ATOM    101  O   UNL A   1      50.267  25.106  29.780  1.00  0.00    -0.237 OA
ATOM    102  O   UNL A   1      48.653  25.823  28.056  1.00  0.00    -0.744 OA
ENDBRANCH  95  99
ENDBRANCH  69  92
ENDBRANCH  43  44
ENDBRANCH  36  38
ENDBRANCH  35  36
ENDBRANCH  34  35
ENDBRANCH  33  34
ENDBRANCH  32  33
ENDBRANCH  31  32
ENDBRANCH  30  31
ENDBRANCH   1  30
TORSDOF 26
ENDMDL
MODEL 3
REMARK VINA RESULT:      -9.5      5.261      7.521
REMARK SMILES Cc1ccc([C@H](C)NC(=O)[C@H]2[C@@H]3CC[C@@H](C3)[C@@H]2C(=O)OCCOCCOCCOCCOC(=O)c2ccc(-c3c4nc(c(-c5cc(S(=O)(=O)[O-])ccc5F)c5ccc([nH]5)c(-c5cc(S(=O)(=O)[O-])ccc5F)c5nc(c(-c6cc(S(=O)(=O)[O-])ccc6F)c6ccc3[nH]6)C=C5)C=C4)cc2)cc1
REMARK SMILES IDX 26 1 25 2 24 3 23 4 22 5 21 6 20 7 18 8 19 9 17 10 11 11
REMARK SMILES IDX 12 12 13 13 16 14 15 15 14 16 9 17 8 18 10 20 6 21 7 22 5 23
REMARK SMILES IDX 1 24 2 25 3 26 99 27 4 28 98 29 27 30 28 31 29 32 30 33
REMARK SMILES IDX 31 34 32 35 33 36 34 37 35 38 36 39 97 40 37 41 96 42 38 43
REMARK SMILES IDX 39 44 40 45 90 46 41 47 95 48 89 49 91 50 42 51 94 52 88 53
REMARK SMILES IDX 87 54 43 56 75 57 55 58 74 59 56 60 59 61 73 62 92 63 57 64
REMARK SMILES IDX 58 65 72 67 93 68 60 69 44 70 45 71 53 72 46 73 52 74 54 75
REMARK SMILES IDX 51 76 47 77 48 78 49 79 50 80 76 81 77 82 85 83 78 84 84 85
REMARK SMILES IDX 86 86 83 87 79 88 80 89 81 90 82 91 61 92 62 93 70 94 63 95
REMARK SMILES IDX 69 96 71 97 68 98 64 99 65 100 66 101 67 102
REMARK H PARENT 8 19 91 55 59 66
REMARK Flexibility Score: inf
ROOT
ATOM      1  O   UNL A   1      34.019  31.512  28.167  1.00  0.00    -0.377 OA
ENDROOT
BRANCH   1   2
ATOM      2  C   UNL A   1      33.245  31.202  27.021  1.00  0.00     0.188 C 
BRANCH   2   3
ATOM      3  C   UNL A   1      32.935  29.793  26.447  1.00  0.00     0.188 C 
BRANCH   3   4
ATOM      4  O   UNL A   1      31.766  29.156  26.969  1.00  0.00    -0.376 OA
BRANCH   4   5
ATOM      5  C   UNL A   1      31.735  27.836  27.525  1.00  0.00     0.202 C 
BRANCH   5   6
ATOM      6  C   UNL A   1      31.291  26.701  26.634  1.00  0.00     0.261 C 
BRANCH   6   7
ATOM      7  O   UNL A   1      31.749  25.503  27.127  1.00  0.00    -0.463 OA
BRANCH   7   8
ATOM      8  C   UNL A   1      31.758  24.575  26.163  1.00  0.00     0.310 C 
ATOM      9  O   UNL A   1      30.864  23.768  25.840  1.00  0.00    -0.252 OA
BRANCH   8  10
ATOM     10  C   UNL A   1      33.089  24.541  25.595  1.00  0.00     0.115 C 
ATOM     11  C   UNL A   1      33.136  24.936  24.122  1.00  0.00     0.096 C 
ATOM     12  C   UNL A   1      34.308  24.033  23.677  1.00  0.00     0.002 C 
ATOM     13  C   UNL A   1      33.755  22.590  23.486  1.00  0.00     0.005 C 
ATOM     14  C   UNL A   1      35.124  23.848  24.975  1.00  0.00     0.009 C 
ATOM     15  C   UNL A   1      33.942  23.301  25.772  1.00  0.00     0.004 C 
ATOM     16  C   UNL A   1      33.619  22.077  24.930  1.00  0.00     0.005 C 
BRANCH  11  17
ATOM     17  C   UNL A   1      33.161  26.446  23.775  1.00  0.00     0.224 C 
ATOM     18  N   UNL A   1      32.384  27.040  22.803  1.00  0.00    -0.349 N 
ATOM     19  H   UNL A   1      32.875  27.570  22.135  1.00  0.00     0.164 HD
ATOM     20  O   UNL A   1      34.037  27.165  24.273  1.00  0.00    -0.275 OA
BRANCH  18  21
ATOM     21  C   UNL A   1      30.929  26.993  22.626  1.00  0.00     0.109 C 
ATOM     22  C   UNL A   1      30.386  25.679  23.180  1.00  0.00     0.036 C 
BRANCH  21  23
ATOM     23  C   UNL A   1      30.114  28.194  23.073  1.00  0.00    -0.026 A 
ATOM     24  C   UNL A   1      27.661  31.734  23.423  1.00  0.00     0.044 C 
ATOM     25  C   UNL A   1      28.466  30.468  23.478  1.00  0.00    -0.051 A 
ATOM     26  C   UNL A   1      27.922  29.299  22.940  1.00  0.00     0.004 A 
ATOM     27  C   UNL A   1      29.815  30.470  23.873  1.00  0.00     0.004 A 
ATOM     28  C   UNL A   1      28.733  28.180  22.750  1.00  0.00     0.006 A 
ATOM     29  C   UNL A   1      30.634  29.340  23.681  1.00  0.00     0.006 A 
ENDBRANCH  21  23
ENDBRANCH  18  21
ENDBRANCH  11  17
ENDBRANCH   8  10
ENDBRANCH   7   8
ENDBRANCH   6   7
ENDBRANCH   5   6
ENDBRANCH   4   5
ENDBRANCH   3   4
ENDBRANCH   2   3
ENDBRANCH   1   2
BRANCH   1  30
ATOM     30  C   UNL A   1      34.586  32.776  28.424  1.00  0.00     0.188 C 
BRANCH  30  31
ATOM     31  C   UNL A   1      33.666  33.945  28.526  1.00  0.00     0.188 C 
BRANCH  31  32
ATOM     32  O   UNL A   1      34.341  34.892  29.350  1.00  0.00    -0.376 OA
BRANCH  32  33
ATOM     33  C   UNL A   1      33.693  35.076  30.592  1.00  0.00     0.202 C 
BRANCH  33  34
ATOM     34  C   UNL A   1      34.596  34.640  31.750  1.00  0.00     0.261 C 
BRANCH  34  35
ATOM     35  O   UNL A   1      34.612  33.191  31.816  1.00  0.00    -0.460 OA
BRANCH  35  36
ATOM     36  C   UNL A   1      35.476  32.643  32.722  1.00  0.00     0.338 C 
ATOM     37  O   UNL A   1      35.511  32.924  33.909  1.00  0.00    -0.246 OA
BRANCH  36  38
ATOM     38  C   UNL A   1      36.505  31.788  32.040  1.00  0.00     0.060 A 
ATOM     39  C   UNL A   1      36.294  30.409  31.896  1.00  0.00     0.016 A 
ATOM     40  C   UNL A   1      37.787  32.285  31.868  1.00  0.00     0.016 A 
ATOM     41  C   UNL A   1      37.385  29.523  31.770  1.00  0.00     0.010 A 
ATOM     42  C   UNL A   1      38.857  31.390  31.875  1.00  0.00     0.010 A 
ATOM     43  C   UNL A   1      38.702  29.989  31.848  1.00  0.00    -0.014 A 
BRANCH  43  44
ATOM     44  C   UNL A   1      39.855  29.046  32.099  1.00  0.00     0.031 A 
ATOM     45  C   UNL A   1      40.511  28.199  30.897  1.00  0.00     0.074 A 
ATOM     46  C   UNL A   1      40.624  29.294  33.216  1.00  0.00     0.049 A 
ATOM     47  N   UNL A   1      41.487  27.307  30.944  1.00  0.00    -0.248 NA
ATOM     48  C   UNL A   1      40.050  28.351  29.504  1.00  0.00     0.031 C 
ATOM     49  C   UNL A   1      41.730  30.185  32.991  1.00  0.00     0.029 A 
ATOM     50  N   UNL A   1      40.494  29.585  34.604  1.00  0.00    -0.354 N 
ATOM     51  C   UNL A   1      41.936  27.039  29.616  1.00  0.00     0.074 A 
ATOM     52  C   UNL A   1      40.951  27.681  28.783  1.00  0.00     0.031 C 
ATOM     53  C   UNL A   1      42.383  30.551  34.077  1.00  0.00     0.029 A 
ATOM     54  C   UNL A   1      41.786  29.788  35.131  1.00  0.00     0.049 A 
ATOM     55  H   UNL A   1      39.649  29.635  35.107  1.00  0.00     0.167 HD
ATOM     56  C   UNL A   1      43.167  26.511  29.246  1.00  0.00     0.034 A 
ATOM     57  C   UNL A   1      42.489  30.088  36.237  1.00  0.00     0.034 A 
ATOM     58  C   UNL A   1      44.153  26.467  30.376  1.00  0.00     0.049 A 
ATOM     59  C   UNL A   1      43.700  29.096  36.015  1.00  0.00     0.074 A 
ATOM     60  C   UNL A   1      45.453  26.947  30.426  1.00  0.00     0.029 A 
ATOM     61  N   UNL A   1      43.830  26.181  31.728  1.00  0.00    -0.354 N 
ATOM     62  N   UNL A   1      44.072  28.539  34.857  1.00  0.00    -0.248 NA
ATOM     63  C   UNL A   1      44.269  28.374  37.137  1.00  0.00     0.031 C 
ATOM     64  C   UNL A   1      45.885  26.941  31.770  1.00  0.00     0.029 A 
ATOM     65  C   UNL A   1      44.854  26.570  32.618  1.00  0.00     0.049 A 
ATOM     66  H   UNL A   1      42.988  25.760  32.013  1.00  0.00     0.167 HD
ATOM     67  C   UNL A   1      44.682  27.296  35.056  1.00  0.00     0.074 A 
ATOM     68  C   UNL A   1      44.826  27.313  36.523  1.00  0.00     0.031 C 
ATOM     69  C   UNL A   1      44.912  26.298  34.083  1.00  0.00     0.034 A 
BRANCH  56  70
ATOM     70  C   UNL A   1      43.692  26.332  27.715  1.00  0.00     0.023 A 
ATOM     71  C   UNL A   1      44.010  25.048  27.169  1.00  0.00     0.031 A 
ATOM     72  C   UNL A   1      43.850  27.359  26.747  1.00  0.00     0.131 A 
ATOM     73  C   UNL A   1      44.547  24.842  25.862  1.00  0.00     0.055 A 
ATOM     74  C   UNL A   1      44.398  27.164  25.448  1.00  0.00     0.041 A 
ATOM     75  F   UNL A   1      43.401  28.604  26.956  1.00  0.00    -0.206 F 
ATOM     76  C   UNL A   1      44.761  25.905  25.001  1.00  0.00     0.022 A 
BRANCH  73  77
ATOM     77  S   UNL A   1      44.909  23.148  25.266  1.00  0.00     0.124 S 
ATOM     78  O   UNL A   1      43.623  22.478  25.426  1.00  0.00    -0.237 OA
ATOM     79  O   UNL A   1      45.349  23.380  23.895  1.00  0.00    -0.237 OA
ATOM     80  O   UNL A   1      45.961  22.682  26.172  1.00  0.00    -0.744 OA
ENDBRANCH  73  77
ENDBRANCH  56  70
BRANCH  57  81
ATOM     81  C   UNL A   1      42.108  31.444  36.847  1.00  0.00     0.023 A 
ATOM     82  C   UNL A   1      40.821  32.091  36.813  1.00  0.00     0.031 A 
ATOM     83  C   UNL A   1      42.879  31.709  38.005  1.00  0.00     0.131 A 
ATOM     84  C   UNL A   1      40.332  32.807  37.961  1.00  0.00     0.055 A 
ATOM     85  C   UNL A   1      42.367  32.346  39.144  1.00  0.00     0.041 A 
ATOM     86  F   UNL A   1      44.094  31.152  38.129  1.00  0.00    -0.206 F 
ATOM     87  C   UNL A   1      41.087  32.873  39.137  1.00  0.00     0.022 A 
BRANCH  84  88
ATOM     88  S   UNL A   1      38.590  33.416  38.147  1.00  0.00     0.124 S 
ATOM     89  O   UNL A   1      38.186  32.818  39.416  1.00  0.00    -0.237 OA
ATOM     90  O   UNL A   1      38.716  34.865  38.135  1.00  0.00    -0.237 OA
ATOM     91  O   UNL A   1      37.924  32.845  36.973  1.00  0.00    -0.744 OA
ENDBRANCH  84  88
ENDBRANCH  57  81
BRANCH  69  92
ATOM     92  C   UNL A   1      45.355  24.840  34.389  1.00  0.00     0.023 A 
ATOM     93  C   UNL A   1      46.542  24.521  35.039  1.00  0.00     0.031 A 
ATOM     94  C   UNL A   1      44.570  23.697  34.065  1.00  0.00     0.131 A 
ATOM     95  C   UNL A   1      46.871  23.218  35.447  1.00  0.00     0.055 A 
ATOM     96  C   UNL A   1      44.916  22.381  34.416  1.00  0.00     0.041 A 
ATOM     97  F   UNL A   1      43.412  23.775  33.393  1.00  0.00    -0.206 F 
ATOM     98  C   UNL A   1      46.067  22.134  35.140  1.00  0.00     0.022 A 
BRANCH  95  99
ATOM     99  S   UNL A   1      48.370  23.040  36.439  1.00  0.00     0.124 S 
ATOM    100  O   UNL A   1      48.029  23.789  37.646  1.00  0.00    -0.237 OA
ATOM    101  O   UNL A   1      48.449  21.591  36.602  1.00  0.00    -0.237 OA
ATOM    102  O   UNL A   1      49.410  23.634  35.605  1.00  0.00    -0.744 OA
ENDBRANCH  95  99
ENDBRANCH  69  92
ENDBRANCH  43  44
ENDBRANCH  36  38
ENDBRANCH  35  36
ENDBRANCH  34  35
ENDBRANCH  33  34
ENDBRANCH  32  33
ENDBRANCH  31  32
ENDBRANCH  30  31
ENDBRANCH   1  30
TORSDOF 26
ENDMDL
