MODEL 1
REMARK VINA RESULT:     -10.6      0.000      0.000
REMARK SMILES COc1ccc(-c2ccc(/C=C3\SC(=S)N([C@H](Cc4ccccc4)C(=O)OCCOCCOCCOCCOC(=O)c4ccc(-c5c6nc(c(-c7cc(S(=O)(=O)[O-])ccc7F)c7ccc([nH]7)c(-c7cc(S(=O)(=O)[O-])ccc7F)c7nc(c(-c8cc(S(=O)(=O)[O-])ccc8F)c8ccc5[nH]8)C=C7)C=C6)cc4)C3=O)o2)cc1
REMARK SMILES IDX 32 1 31 2 30 3 29 4 28 5 27 6 25 7 26 8 17 9 16 10 11 11
REMARK SMILES IDX 12 12 13 13 105 14 14 15 106 16 15 17 10 18 7 19 8 20 107 21
REMARK SMILES IDX 9 22 6 23 3 24 4 25 109 26 5 27 108 28 2 29 1 30 18 31 19 32
REMARK SMILES IDX 20 33 24 34 21 35 23 36 22 37 33 38 34 39 35 40 36 41 37 42
REMARK SMILES IDX 38 43 39 44 40 45 41 46 42 47 43 48 104 49 44 50 103 51
REMARK SMILES IDX 45 52 46 53 47 54 97 55 48 56 102 57 96 58 98 59 49 60
REMARK SMILES IDX 101 61 95 62 94 63 50 65 82 66 62 67 81 68 63 69 66 70 80 71
REMARK SMILES IDX 99 72 64 73 65 74 79 76 100 77 67 78 51 79 52 80 60 81 53 82
REMARK SMILES IDX 59 83 61 84 58 85 54 86 55 87 56 88 57 89 83 90 84 91 92 92
REMARK SMILES IDX 85 93 91 94 93 95 90 96 86 97 87 98 88 99 89 100 68 101
REMARK SMILES IDX 69 102 77 103 70 104 76 105 78 106 75 107 71 108 72 109
REMARK SMILES IDX 73 110 74 111
REMARK H PARENT 98 64 66 75
REMARK Flexibility Score: inf
ROOT
ATOM      1  C   UNL A   1      31.746  27.174  26.624  1.00  0.00     0.188 C 
ENDROOT
BRANCH   1   2
ATOM      2  C   UNL A   1      31.889  25.667  26.362  1.00  0.00     0.188 C 
BRANCH   2   3
ATOM      3  O   UNL A   1      30.748  24.855  26.142  1.00  0.00    -0.376 OA
BRANCH   3   4
ATOM      4  C   UNL A   1      30.638  23.551  26.703  1.00  0.00     0.202 C 
BRANCH   4   5
ATOM      5  C   UNL A   1      31.842  22.780  27.261  1.00  0.00     0.261 C 
BRANCH   5   6
ATOM      6  O   UNL A   1      32.097  21.514  26.627  1.00  0.00    -0.462 OA
BRANCH   6   7
ATOM      7  C   UNL A   1      33.396  21.202  26.481  1.00  0.00     0.329 C 
ATOM      8  O   UNL A   1      34.169  21.050  27.431  1.00  0.00    -0.250 OA
BRANCH   7   9
ATOM      9  C   UNL A   1      33.862  20.928  25.043  1.00  0.00     0.206 C 
BRANCH   9  10
ATOM     10  N   UNL A   1      33.871  22.276  24.469  1.00  0.00    -0.278 N 
ATOM     11  C   UNL A   1      31.846  24.724  22.921  1.00  0.00     0.068 C 
ATOM     12  C   UNL A   1      32.928  24.047  23.311  1.00  0.00     0.084 C 
ATOM     13  S   UNL A   1      34.509  24.622  23.655  1.00  0.00    -0.054 SA
ATOM     14  C   UNL A   1      32.802  22.633  23.675  1.00  0.00     0.267 C 
ATOM     15  C   UNL A   1      34.926  23.168  24.543  1.00  0.00     0.149 C 
ATOM     16  O   UNL A   1      31.848  21.934  23.362  1.00  0.00    -0.268 OA
ATOM     17  S   UNL A   1      36.402  22.991  25.297  1.00  0.00    -0.052 S 
BRANCH  11  18
ATOM     18  C   UNL A   1      31.925  26.093  22.609  1.00  0.00     0.128 A 
ATOM     19  C   UNL A   1      31.357  28.213  22.498  1.00  0.00     0.134 A 
ATOM     20  C   UNL A   1      32.608  28.130  21.935  1.00  0.00     0.051 A 
ATOM     21  O   UNL A   1      30.930  26.990  22.901  1.00  0.00    -0.457 OA
ATOM     22  C   UNL A   1      32.969  26.775  21.998  1.00  0.00     0.051 A 
BRANCH  19  23
ATOM     23  C   UNL A   1      30.429  29.306  22.655  1.00  0.00     0.017 A 
ATOM     24  C   UNL A   1      28.754  31.539  22.822  1.00  0.00     0.118 A 
ATOM     25  C   UNL A   1      29.414  31.066  23.960  1.00  0.00     0.047 A 
ATOM     26  C   UNL A   1      28.931  30.890  21.601  1.00  0.00     0.047 A 
ATOM     27  C   UNL A   1      30.239  29.940  23.884  1.00  0.00     0.016 A 
ATOM     28  C   UNL A   1      29.765  29.778  21.519  1.00  0.00     0.016 A 
BRANCH  24  29
ATOM     29  O   UNL A   1      28.001  32.666  23.000  1.00  0.00    -0.497 OA
ATOM     30  C   UNL A   1      28.743  33.850  23.276  1.00  0.00     0.278 C 
ENDBRANCH  24  29
ENDBRANCH  19  23
ENDBRANCH  11  18
ENDBRANCH   9  10
BRANCH   9  31
ATOM     31  C   UNL A   1      33.316  19.873  24.048  1.00  0.00     0.073 C 
BRANCH  31  32
ATOM     32  C   UNL A   1      33.513  18.426  24.544  1.00  0.00    -0.045 A 
ATOM     33  C   UNL A   1      32.496  17.713  25.202  1.00  0.00     0.004 A 
ATOM     34  C   UNL A   1      34.740  17.768  24.366  1.00  0.00     0.004 A 
ATOM     35  C   UNL A   1      32.649  16.372  25.568  1.00  0.00     0.000 A 
ATOM     36  C   UNL A   1      34.909  16.433  24.767  1.00  0.00     0.000 A 
ATOM     37  C   UNL A   1      33.856  15.728  25.347  1.00  0.00     0.000 A 
ENDBRANCH  31  32
ENDBRANCH   9  31
ENDBRANCH   7   9
ENDBRANCH   6   7
ENDBRANCH   5   6
ENDBRANCH   4   5
ENDBRANCH   3   4
ENDBRANCH   2   3
ENDBRANCH   1   2
BRANCH   1  38
ATOM     38  O   UNL A   1      32.574  28.009  25.845  1.00  0.00    -0.377 OA
BRANCH  38  39
ATOM     39  C   UNL A   1      33.828  28.430  26.367  1.00  0.00     0.188 C 
BRANCH  39  40
ATOM     40  C   UNL A   1      34.003  29.882  26.849  1.00  0.00     0.188 C 
BRANCH  40  41
ATOM     41  O   UNL A   1      32.860  30.423  27.499  1.00  0.00    -0.376 OA
BRANCH  41  42
ATOM     42  C   UNL A   1      32.007  31.278  26.751  1.00  0.00     0.202 C 
BRANCH  42  43
ATOM     43  C   UNL A   1      31.979  32.765  27.145  1.00  0.00     0.261 C 
BRANCH  43  44
ATOM     44  O   UNL A   1      33.247  33.410  27.362  1.00  0.00    -0.460 OA
BRANCH  44  45
ATOM     45  C   UNL A   1      33.393  34.228  28.426  1.00  0.00     0.338 C 
ATOM     46  O   UNL A   1      32.670  35.156  28.741  1.00  0.00    -0.246 OA
BRANCH  45  47
ATOM     47  C   UNL A   1      34.473  33.676  29.274  1.00  0.00     0.060 A 
ATOM     48  C   UNL A   1      35.794  34.088  29.047  1.00  0.00     0.016 A 
ATOM     49  C   UNL A   1      34.184  32.762  30.288  1.00  0.00     0.016 A 
ATOM     50  C   UNL A   1      36.834  33.558  29.815  1.00  0.00     0.010 A 
ATOM     51  C   UNL A   1      35.228  32.217  31.040  1.00  0.00     0.010 A 
ATOM     52  C   UNL A   1      36.561  32.587  30.787  1.00  0.00    -0.014 A 
BRANCH  52  53
ATOM     53  C   UNL A   1      37.670  31.809  31.399  1.00  0.00     0.031 A 
ATOM     54  C   UNL A   1      38.102  32.169  32.795  1.00  0.00     0.074 A 
ATOM     55  C   UNL A   1      38.282  30.810  30.739  1.00  0.00     0.049 A 
ATOM     56  N   UNL A   1      39.099  31.709  33.504  1.00  0.00    -0.248 NA
ATOM     57  C   UNL A   1      37.297  33.193  33.479  1.00  0.00     0.031 C 
ATOM     58  C   UNL A   1      37.918  30.330  29.407  1.00  0.00     0.029 A 
ATOM     59  N   UNL A   1      39.351  30.026  31.099  1.00  0.00    -0.354 N 
ATOM     60  C   UNL A   1      39.048  32.390  34.715  1.00  0.00     0.074 A 
ATOM     61  C   UNL A   1      37.942  33.321  34.627  1.00  0.00     0.031 C 
ATOM     62  C   UNL A   1      38.762  29.343  29.056  1.00  0.00     0.029 A 
ATOM     63  C   UNL A   1      39.752  29.152  30.116  1.00  0.00     0.049 A 
ATOM     64  H   UNL A   1      39.789  30.085  31.979  1.00  0.00     0.167 HD
ATOM     65  C   UNL A   1      39.844  32.250  35.803  1.00  0.00     0.034 A 
ATOM     66  C   UNL A   1      40.814  28.322  30.065  1.00  0.00     0.034 A 
ATOM     67  C   UNL A   1      40.955  31.333  35.869  1.00  0.00     0.049 A 
ATOM     68  C   UNL A   1      41.760  28.263  31.245  1.00  0.00     0.074 A 
ATOM     69  C   UNL A   1      41.823  31.105  36.924  1.00  0.00     0.029 A 
ATOM     70  N   UNL A   1      41.365  30.503  34.833  1.00  0.00    -0.354 N 
ATOM     71  N   UNL A   1      41.702  28.911  32.387  1.00  0.00    -0.248 NA
ATOM     72  C   UNL A   1      42.914  27.359  31.130  1.00  0.00     0.031 C 
ATOM     73  C   UNL A   1      42.801  30.200  36.499  1.00  0.00     0.029 A 
ATOM     74  C   UNL A   1      42.494  29.793  35.210  1.00  0.00     0.049 A 
ATOM     75  H   UNL A   1      40.918  30.430  33.959  1.00  0.00     0.167 HD
ATOM     76  C   UNL A   1      42.789  28.465  33.135  1.00  0.00     0.074 A 
ATOM     77  C   UNL A   1      43.479  27.487  32.321  1.00  0.00     0.031 C 
ATOM     78  C   UNL A   1      43.179  28.824  34.386  1.00  0.00     0.034 A 
BRANCH  65  79
ATOM     79  C   UNL A   1      39.573  33.153  36.981  1.00  0.00     0.023 A 
ATOM     80  C   UNL A   1      40.351  34.297  37.233  1.00  0.00     0.031 A 
ATOM     81  C   UNL A   1      38.542  32.847  37.887  1.00  0.00     0.131 A 
ATOM     82  C   UNL A   1      40.133  35.049  38.397  1.00  0.00     0.055 A 
ATOM     83  C   UNL A   1      38.276  33.647  38.999  1.00  0.00     0.041 A 
ATOM     84  F   UNL A   1      37.782  31.754  37.713  1.00  0.00    -0.206 F 
ATOM     85  C   UNL A   1      39.084  34.748  39.268  1.00  0.00     0.022 A 
BRANCH  82  86
ATOM     86  S   UNL A   1      41.336  36.335  38.835  1.00  0.00     0.124 S 
ATOM     87  O   UNL A   1      42.277  36.250  37.720  1.00  0.00    -0.237 OA
ATOM     88  O   UNL A   1      40.511  37.535  38.885  1.00  0.00    -0.237 OA
ATOM     89  O   UNL A   1      41.864  35.885  40.122  1.00  0.00    -0.744 OA
ENDBRANCH  82  86
ENDBRANCH  65  79
BRANCH  66  90
ATOM     90  C   UNL A   1      41.088  27.510  28.842  1.00  0.00     0.023 A 
ATOM     91  C   UNL A   1      42.117  27.860  27.952  1.00  0.00     0.031 A 
ATOM     92  C   UNL A   1      40.277  26.409  28.509  1.00  0.00     0.131 A 
ATOM     93  C   UNL A   1      42.276  27.150  26.751  1.00  0.00     0.055 A 
ATOM     94  C   UNL A   1      40.478  25.670  27.342  1.00  0.00     0.041 A 
ATOM     95  F   UNL A   1      39.274  26.035  29.318  1.00  0.00    -0.206 F 
ATOM     96  C   UNL A   1      41.474  26.048  26.448  1.00  0.00     0.022 A 
BRANCH  93  97
ATOM     97  S   UNL A   1      43.488  27.749  25.542  1.00  0.00     0.124 S 
ATOM     98  O   UNL A   1      42.779  27.543  24.285  1.00  0.00    -0.237 OA
ATOM     99  O   UNL A   1      43.669  29.136  25.957  1.00  0.00    -0.237 OA
ATOM    100  O   UNL A   1      44.644  26.880  25.757  1.00  0.00    -0.744 OA
ENDBRANCH  93  97
ENDBRANCH  66  90
BRANCH  78 101
ATOM    101  C   UNL A   1      44.378  28.116  34.972  1.00  0.00     0.023 A 
ATOM    102  C   UNL A   1      44.285  26.829  35.531  1.00  0.00     0.031 A 
ATOM    103  C   UNL A   1      45.639  28.740  34.961  1.00  0.00     0.131 A 
ATOM    104  C   UNL A   1      45.421  26.228  36.098  1.00  0.00     0.055 A 
ATOM    105  C   UNL A   1      46.777  28.113  35.471  1.00  0.00     0.041 A 
ATOM    106  F   UNL A   1      45.789  29.970  34.444  1.00  0.00    -0.206 F 
ATOM    107  C   UNL A   1      46.669  26.854  36.053  1.00  0.00     0.022 A 
BRANCH 104 108
ATOM    108  S   UNL A   1      45.230  24.649  36.971  1.00  0.00     0.124 S 
ATOM    109  O   UNL A   1      44.423  23.878  36.030  1.00  0.00    -0.237 OA
ATOM    110  O   UNL A   1      46.613  24.212  37.132  1.00  0.00    -0.237 OA
ATOM    111  O   UNL A   1      44.550  25.023  38.210  1.00  0.00    -0.744 OA
ENDBRANCH 104 108
ENDBRANCH  78 101
ENDBRANCH  52  53
ENDBRANCH  45  47
ENDBRANCH  44  45
ENDBRANCH  43  44
ENDBRANCH  42  43
ENDBRANCH  41  42
ENDBRANCH  40  41
ENDBRANCH  39  40
ENDBRANCH  38  39
ENDBRANCH   1  38
TORSDOF 29
ENDMDL
MODEL 2
REMARK VINA RESULT:     -10.5      1.785      2.057
REMARK SMILES COc1ccc(-c2ccc(/C=C3\SC(=S)N([C@H](Cc4ccccc4)C(=O)OCCOCCOCCOCCOC(=O)c4ccc(-c5c6nc(c(-c7cc(S(=O)(=O)[O-])ccc7F)c7ccc([nH]7)c(-c7cc(S(=O)(=O)[O-])ccc7F)c7nc(c(-c8cc(S(=O)(=O)[O-])ccc8F)c8ccc5[nH]8)C=C7)C=C6)cc4)C3=O)o2)cc1
REMARK SMILES IDX 32 1 31 2 30 3 29 4 28 5 27 6 25 7 26 8 17 9 16 10 11 11
REMARK SMILES IDX 12 12 13 13 105 14 14 15 106 16 15 17 10 18 7 19 8 20 107 21
REMARK SMILES IDX 9 22 6 23 3 24 4 25 109 26 5 27 108 28 2 29 1 30 18 31 19 32
REMARK SMILES IDX 20 33 24 34 21 35 23 36 22 37 33 38 34 39 35 40 36 41 37 42
REMARK SMILES IDX 38 43 39 44 40 45 41 46 42 47 43 48 104 49 44 50 103 51
REMARK SMILES IDX 45 52 46 53 47 54 97 55 48 56 102 57 96 58 98 59 49 60
REMARK SMILES IDX 101 61 95 62 94 63 50 65 82 66 62 67 81 68 63 69 66 70 80 71
REMARK SMILES IDX 99 72 64 73 65 74 79 76 100 77 67 78 51 79 52 80 60 81 53 82
REMARK SMILES IDX 59 83 61 84 58 85 54 86 55 87 56 88 57 89 83 90 84 91 92 92
REMARK SMILES IDX 85 93 91 94 93 95 90 96 86 97 87 98 88 99 89 100 68 101
REMARK SMILES IDX 69 102 77 103 70 104 76 105 78 106 75 107 71 108 72 109
REMARK SMILES IDX 73 110 74 111
REMARK H PARENT 98 64 66 75
REMARK Flexibility Score: inf
ROOT
ATOM      1  C   UNL A   1      31.438  27.039  26.917  1.00  0.00     0.188 C 
ENDROOT
BRANCH   1   2
ATOM      2  C   UNL A   1      31.973  25.606  26.779  1.00  0.00     0.188 C 
BRANCH   2   3
ATOM      3  O   UNL A   1      31.086  24.503  26.696  1.00  0.00    -0.376 OA
BRANCH   3   4
ATOM      4  C   UNL A   1      31.401  23.244  27.282  1.00  0.00     0.202 C 
BRANCH   4   5
ATOM      5  C   UNL A   1      32.831  22.688  27.343  1.00  0.00     0.261 C 
BRANCH   5   6
ATOM      6  O   UNL A   1      33.005  21.397  26.734  1.00  0.00    -0.462 OA
BRANCH   6   7
ATOM      7  C   UNL A   1      34.112  21.266  25.982  1.00  0.00     0.329 C 
ATOM      8  O   UNL A   1      35.253  21.257  26.451  1.00  0.00    -0.250 OA
BRANCH   7   9
ATOM      9  C   UNL A   1      33.879  21.012  24.485  1.00  0.00     0.206 C 
BRANCH   9  10
ATOM     10  N   UNL A   1      33.806  22.377  23.957  1.00  0.00    -0.278 N 
ATOM     11  C   UNL A   1      31.648  25.136  23.489  1.00  0.00     0.068 C 
ATOM     12  C   UNL A   1      32.686  24.310  23.344  1.00  0.00     0.084 C 
ATOM     13  S   UNL A   1      34.311  24.666  22.917  1.00  0.00    -0.054 SA
ATOM     14  C   UNL A   1      32.551  22.905  23.741  1.00  0.00     0.267 C 
ATOM     15  C   UNL A   1      34.887  23.126  23.529  1.00  0.00     0.149 C 
ATOM     16  O   UNL A   1      31.475  22.349  23.908  1.00  0.00    -0.268 OA
ATOM     17  S   UNL A   1      36.507  22.728  23.522  1.00  0.00    -0.052 S 
BRANCH  11  18
ATOM     18  C   UNL A   1      31.759  26.499  23.161  1.00  0.00     0.128 A 
ATOM     19  C   UNL A   1      31.162  28.584  22.809  1.00  0.00     0.134 A 
ATOM     20  C   UNL A   1      32.525  28.551  22.639  1.00  0.00     0.051 A 
ATOM     21  O   UNL A   1      30.686  27.352  23.116  1.00  0.00    -0.457 OA
ATOM     22  C   UNL A   1      32.907  27.218  22.855  1.00  0.00     0.051 A 
BRANCH  19  23
ATOM     23  C   UNL A   1      30.184  29.633  22.647  1.00  0.00     0.017 A 
ATOM     24  C   UNL A   1      28.428  31.762  22.196  1.00  0.00     0.118 A 
ATOM     25  C   UNL A   1      28.936  31.526  23.477  1.00  0.00     0.047 A 
ATOM     26  C   UNL A   1      28.797  30.927  21.142  1.00  0.00     0.047 A 
ATOM     27  C   UNL A   1      29.801  30.453  23.709  1.00  0.00     0.016 A 
ATOM     28  C   UNL A   1      29.672  29.867  21.368  1.00  0.00     0.016 A 
BRANCH  24  29
ATOM     29  O   UNL A   1      27.620  32.858  22.072  1.00  0.00    -0.497 OA
ATOM     30  C   UNL A   1      27.453  33.336  20.741  1.00  0.00     0.278 C 
ENDBRANCH  24  29
ENDBRANCH  19  23
ENDBRANCH  11  18
ENDBRANCH   9  10
BRANCH   9  31
ATOM     31  C   UNL A   1      32.835  20.076  23.827  1.00  0.00     0.073 C 
BRANCH  31  32
ATOM     32  C   UNL A   1      33.072  18.589  24.162  1.00  0.00    -0.045 A 
ATOM     33  C   UNL A   1      33.663  17.698  23.250  1.00  0.00     0.004 A 
ATOM     34  C   UNL A   1      32.684  18.063  25.404  1.00  0.00     0.004 A 
ATOM     35  C   UNL A   1      33.959  16.374  23.591  1.00  0.00     0.000 A 
ATOM     36  C   UNL A   1      32.944  16.724  25.736  1.00  0.00     0.000 A 
ATOM     37  C   UNL A   1      33.603  15.886  24.839  1.00  0.00     0.000 A 
ENDBRANCH  31  32
ENDBRANCH   9  31
ENDBRANCH   7   9
ENDBRANCH   6   7
ENDBRANCH   5   6
ENDBRANCH   4   5
ENDBRANCH   3   4
ENDBRANCH   2   3
ENDBRANCH   1   2
BRANCH   1  38
ATOM     38  O   UNL A   1      32.098  28.014  26.140  1.00  0.00    -0.377 OA
BRANCH  38  39
ATOM     39  C   UNL A   1      33.431  28.383  26.469  1.00  0.00     0.188 C 
BRANCH  39  40
ATOM     40  C   UNL A   1      33.754  29.853  26.796  1.00  0.00     0.188 C 
BRANCH  40  41
ATOM     41  O   UNL A   1      32.705  30.549  27.457  1.00  0.00    -0.376 OA
BRANCH  41  42
ATOM     42  C   UNL A   1      31.861  31.385  26.678  1.00  0.00     0.202 C 
BRANCH  42  43
ATOM     43  C   UNL A   1      31.877  32.890  26.991  1.00  0.00     0.261 C 
BRANCH  43  44
ATOM     44  O   UNL A   1      33.160  33.496  27.237  1.00  0.00    -0.460 OA
BRANCH  44  45
ATOM     45  C   UNL A   1      33.329  34.242  28.350  1.00  0.00     0.338 C 
ATOM     46  O   UNL A   1      32.602  35.134  28.751  1.00  0.00    -0.246 OA
BRANCH  45  47
ATOM     47  C   UNL A   1      34.447  33.656  29.120  1.00  0.00     0.060 A 
ATOM     48  C   UNL A   1      35.762  34.028  28.804  1.00  0.00     0.016 A 
ATOM     49  C   UNL A   1      34.201  32.747  30.151  1.00  0.00     0.016 A 
ATOM     50  C   UNL A   1      36.835  33.463  29.498  1.00  0.00     0.010 A 
ATOM     51  C   UNL A   1      35.276  32.167  30.829  1.00  0.00     0.010 A 
ATOM     52  C   UNL A   1      36.600  32.498  30.485  1.00  0.00    -0.014 A 
BRANCH  52  53
ATOM     53  C   UNL A   1      37.724  31.685  31.018  1.00  0.00     0.031 A 
ATOM     54  C   UNL A   1      38.223  31.988  32.405  1.00  0.00     0.074 A 
ATOM     55  C   UNL A   1      38.291  30.703  30.296  1.00  0.00     0.049 A 
ATOM     56  N   UNL A   1      39.245  31.490  33.052  1.00  0.00    -0.248 NA
ATOM     57  C   UNL A   1      37.464  32.997  33.161  1.00  0.00     0.031 C 
ATOM     58  C   UNL A   1      37.862  30.275  28.966  1.00  0.00     0.029 A 
ATOM     59  N   UNL A   1      39.364  29.893  30.579  1.00  0.00    -0.354 N 
ATOM     60  C   UNL A   1      39.257  32.128  34.287  1.00  0.00     0.074 A 
ATOM     61  C   UNL A   1      38.161  33.075  34.283  1.00  0.00     0.031 C 
ATOM     62  C   UNL A   1      38.675  29.291  28.542  1.00  0.00     0.029 A 
ATOM     63  C   UNL A   1      39.708  29.049  29.549  1.00  0.00     0.049 A 
ATOM     64  H   UNL A   1      39.842  29.914  31.440  1.00  0.00     0.167 HD
ATOM     65  C   UNL A   1      40.099  31.939  35.332  1.00  0.00     0.034 A 
ATOM     66  C   UNL A   1      40.756  28.208  29.421  1.00  0.00     0.034 A 
ATOM     67  C   UNL A   1      41.199  31.006  35.315  1.00  0.00     0.049 A 
ATOM     68  C   UNL A   1      41.752  28.095  30.554  1.00  0.00     0.074 A 
ATOM     69  C   UNL A   1      42.109  30.729  36.321  1.00  0.00     0.029 A 
ATOM     70  N   UNL A   1      41.550  30.209  34.233  1.00  0.00    -0.354 N 
ATOM     71  N   UNL A   1      41.754  28.702  31.720  1.00  0.00    -0.248 NA
ATOM     72  C   UNL A   1      42.887  27.182  30.354  1.00  0.00     0.031 C 
ATOM     73  C   UNL A   1      43.054  29.828  35.820  1.00  0.00     0.029 A 
ATOM     74  C   UNL A   1      42.685  29.471  34.533  1.00  0.00     0.049 A 
ATOM     75  H   UNL A   1      41.063  30.173  33.378  1.00  0.00     0.167 HD
ATOM     76  C   UNL A   1      42.868  28.215  32.402  1.00  0.00     0.074 A 
ATOM     77  C   UNL A   1      43.507  27.259  31.523  1.00  0.00     0.031 C 
ATOM     78  C   UNL A   1      43.318  28.525  33.645  1.00  0.00     0.034 A 
BRANCH  65  79
ATOM     79  C   UNL A   1      39.894  32.802  36.553  1.00  0.00     0.023 A 
ATOM     80  C   UNL A   1      40.710  33.916  36.819  1.00  0.00     0.031 A 
ATOM     81  C   UNL A   1      38.887  32.487  37.483  1.00  0.00     0.131 A 
ATOM     82  C   UNL A   1      40.553  34.627  38.019  1.00  0.00     0.055 A 
ATOM     83  C   UNL A   1      38.682  33.250  38.633  1.00  0.00     0.041 A 
ATOM     84  F   UNL A   1      38.094  31.421  37.296  1.00  0.00    -0.206 F 
ATOM     85  C   UNL A   1      39.528  34.319  38.915  1.00  0.00     0.022 A 
BRANCH  82  86
ATOM     86  S   UNL A   1      41.805  35.864  38.461  1.00  0.00     0.124 S 
ATOM     87  O   UNL A   1      42.823  35.632  37.438  1.00  0.00    -0.237 OA
ATOM     88  O   UNL A   1      41.064  37.115  38.353  1.00  0.00    -0.237 OA
ATOM     89  O   UNL A   1      42.196  35.485  39.817  1.00  0.00    -0.744 OA
ENDBRANCH  82  86
ENDBRANCH  65  79
BRANCH  66  90
ATOM     90  C   UNL A   1      40.963  27.438  28.159  1.00  0.00     0.023 A 
ATOM     91  C   UNL A   1      40.721  26.055  28.102  1.00  0.00     0.031 A 
ATOM     92  C   UNL A   1      41.474  28.062  27.006  1.00  0.00     0.131 A 
ATOM     93  C   UNL A   1      41.035  25.335  26.939  1.00  0.00     0.055 A 
ATOM     94  C   UNL A   1      41.729  27.352  25.832  1.00  0.00     0.041 A 
ATOM     95  F   UNL A   1      41.734  29.379  27.006  1.00  0.00    -0.206 F 
ATOM     96  C   UNL A   1      41.523  25.976  25.798  1.00  0.00     0.022 A 
BRANCH  93  97
ATOM     97  S   UNL A   1      40.888  23.527  26.969  1.00  0.00     0.124 S 
ATOM     98  O   UNL A   1      41.430  23.208  28.285  1.00  0.00    -0.237 OA
ATOM     99  O   UNL A   1      39.451  23.338  26.803  1.00  0.00    -0.237 OA
ATOM    100  O   UNL A   1      41.706  23.099  25.836  1.00  0.00    -0.744 OA
ENDBRANCH  93  97
ENDBRANCH  66  90
BRANCH  78 101
ATOM    101  C   UNL A   1      44.533  27.781  34.151  1.00  0.00     0.023 A 
ATOM    102  C   UNL A   1      45.835  28.284  33.994  1.00  0.00     0.031 A 
ATOM    103  C   UNL A   1      44.378  26.549  34.812  1.00  0.00     0.131 A 
ATOM    104  C   UNL A   1      46.935  27.537  34.447  1.00  0.00     0.055 A 
ATOM    105  C   UNL A   1      45.469  25.840  35.316  1.00  0.00     0.041 A 
ATOM    106  F   UNL A   1      43.158  26.016  34.990  1.00  0.00    -0.206 F 
ATOM    107  C   UNL A   1      46.758  26.328  35.124  1.00  0.00     0.022 A 
BRANCH 104 108
ATOM    108  S   UNL A   1      48.608  28.126  34.068  1.00  0.00     0.124 S 
ATOM    109  O   UNL A   1      49.439  27.107  34.702  1.00  0.00    -0.237 OA
ATOM    110  O   UNL A   1      48.613  28.135  32.609  1.00  0.00    -0.237 OA
ATOM    111  O   UNL A   1      48.658  29.445  34.695  1.00  0.00    -0.744 OA
ENDBRANCH 104 108
ENDBRANCH  78 101
ENDBRANCH  52  53
ENDBRANCH  45  47
ENDBRANCH  44  45
ENDBRANCH  43  44
ENDBRANCH  42  43
ENDBRANCH  41  42
ENDBRANCH  40  41
ENDBRANCH  39  40
ENDBRANCH  38  39
ENDBRANCH   1  38
TORSDOF 29
ENDMDL
MODEL 3
REMARK VINA RESULT:     -10.3      1.774      2.112
REMARK SMILES COc1ccc(-c2ccc(/C=C3\SC(=S)N([C@H](Cc4ccccc4)C(=O)OCCOCCOCCOCCOC(=O)c4ccc(-c5c6nc(c(-c7cc(S(=O)(=O)[O-])ccc7F)c7ccc([nH]7)c(-c7cc(S(=O)(=O)[O-])ccc7F)c7nc(c(-c8cc(S(=O)(=O)[O-])ccc8F)c8ccc5[nH]8)C=C7)C=C6)cc4)C3=O)o2)cc1
REMARK SMILES IDX 32 1 31 2 30 3 29 4 28 5 27 6 25 7 26 8 17 9 16 10 11 11
REMARK SMILES IDX 12 12 13 13 105 14 14 15 106 16 15 17 10 18 7 19 8 20 107 21
REMARK SMILES IDX 9 22 6 23 3 24 4 25 109 26 5 27 108 28 2 29 1 30 18 31 19 32
REMARK SMILES IDX 20 33 24 34 21 35 23 36 22 37 33 38 34 39 35 40 36 41 37 42
REMARK SMILES IDX 38 43 39 44 40 45 41 46 42 47 43 48 104 49 44 50 103 51
REMARK SMILES IDX 45 52 46 53 47 54 97 55 48 56 102 57 96 58 98 59 49 60
REMARK SMILES IDX 101 61 95 62 94 63 50 65 82 66 62 67 81 68 63 69 66 70 80 71
REMARK SMILES IDX 99 72 64 73 65 74 79 76 100 77 67 78 51 79 52 80 60 81 53 82
REMARK SMILES IDX 59 83 61 84 58 85 54 86 55 87 56 88 57 89 83 90 84 91 92 92
REMARK SMILES IDX 85 93 91 94 93 95 90 96 86 97 87 98 88 99 89 100 68 101
REMARK SMILES IDX 69 102 77 103 70 104 76 105 78 106 75 107 71 108 72 109
REMARK SMILES IDX 73 110 74 111
REMARK H PARENT 98 64 66 75
REMARK Flexibility Score: inf
ROOT
ATOM      1  C   UNL A   1      31.826  26.925  26.756  1.00  0.00     0.188 C 
ENDROOT
BRANCH   1   2
ATOM      2  C   UNL A   1      32.411  25.526  26.516  1.00  0.00     0.188 C 
BRANCH   2   3
ATOM      3  O   UNL A   1      31.564  24.404  26.335  1.00  0.00    -0.376 OA
BRANCH   3   4
ATOM      4  C   UNL A   1      31.532  23.330  27.271  1.00  0.00     0.202 C 
BRANCH   4   5
ATOM      5  C   UNL A   1      32.760  22.466  27.588  1.00  0.00     0.261 C 
BRANCH   5   6
ATOM      6  O   UNL A   1      32.873  21.264  26.806  1.00  0.00    -0.462 OA
BRANCH   6   7
ATOM      7  C   UNL A   1      34.018  21.141  26.114  1.00  0.00     0.329 C 
ATOM      8  O   UNL A   1      35.134  21.150  26.641  1.00  0.00    -0.250 OA
BRANCH   7   9
ATOM      9  C   UNL A   1      33.866  20.871  24.609  1.00  0.00     0.206 C 
BRANCH   9  10
ATOM     10  N   UNL A   1      33.873  22.229  24.058  1.00  0.00    -0.278 N 
ATOM     11  C   UNL A   1      31.811  24.977  23.234  1.00  0.00     0.068 C 
ATOM     12  C   UNL A   1      32.859  24.152  23.259  1.00  0.00     0.084 C 
ATOM     13  S   UNL A   1      34.530  24.505  23.076  1.00  0.00    -0.054 SA
ATOM     14  C   UNL A   1      32.666  22.752  23.648  1.00  0.00     0.267 C 
ATOM     15  C   UNL A   1      35.007  22.974  23.788  1.00  0.00     0.149 C 
ATOM     16  O   UNL A   1      31.577  22.195  23.659  1.00  0.00    -0.268 OA
ATOM     17  S   UNL A   1      36.609  22.579  24.030  1.00  0.00    -0.052 S 
BRANCH  11  18
ATOM     18  C   UNL A   1      31.970  26.336  22.909  1.00  0.00     0.128 A 
ATOM     19  C   UNL A   1      31.459  28.452  22.611  1.00  0.00     0.134 A 
ATOM     20  C   UNL A   1      32.805  28.352  22.352  1.00  0.00     0.051 A 
ATOM     21  O   UNL A   1      30.942  27.243  22.939  1.00  0.00    -0.457 OA
ATOM     22  C   UNL A   1      33.131  26.999  22.534  1.00  0.00     0.051 A 
BRANCH  19  23
ATOM     23  C   UNL A   1      30.528  29.550  22.519  1.00  0.00     0.017 A 
ATOM     24  C   UNL A   1      28.566  31.540  22.405  1.00  0.00     0.118 A 
ATOM     25  C   UNL A   1      29.256  31.163  21.249  1.00  0.00     0.047 A 
ATOM     26  C   UNL A   1      28.861  30.921  23.619  1.00  0.00     0.047 A 
ATOM     27  C   UNL A   1      30.249  30.181  21.306  1.00  0.00     0.016 A 
ATOM     28  C   UNL A   1      29.839  29.931  23.674  1.00  0.00     0.016 A 
BRANCH  24  29
ATOM     29  O   UNL A   1      27.591  32.483  22.232  1.00  0.00    -0.497 OA
ATOM     30  C   UNL A   1      27.501  33.023  20.917  1.00  0.00     0.278 C 
ENDBRANCH  24  29
ENDBRANCH  19  23
ENDBRANCH  11  18
ENDBRANCH   9  10
BRANCH   9  31
ATOM     31  C   UNL A   1      32.830  19.961  23.902  1.00  0.00     0.073 C 
BRANCH  31  32
ATOM     32  C   UNL A   1      33.034  18.465  24.221  1.00  0.00    -0.045 A 
ATOM     33  C   UNL A   1      33.701  17.594  23.343  1.00  0.00     0.004 A 
ATOM     34  C   UNL A   1      32.539  17.912  25.412  1.00  0.00     0.004 A 
ATOM     35  C   UNL A   1      33.963  16.261  23.676  1.00  0.00     0.000 A 
ATOM     36  C   UNL A   1      32.767  16.565  25.733  1.00  0.00     0.000 A 
ATOM     37  C   UNL A   1      33.499  15.745  24.876  1.00  0.00     0.000 A 
ENDBRANCH  31  32
ENDBRANCH   9  31
ENDBRANCH   7   9
ENDBRANCH   6   7
ENDBRANCH   5   6
ENDBRANCH   4   5
ENDBRANCH   3   4
ENDBRANCH   2   3
ENDBRANCH   1   2
BRANCH   1  38
ATOM     38  O   UNL A   1      32.339  27.949  25.932  1.00  0.00    -0.377 OA
BRANCH  38  39
ATOM     39  C   UNL A   1      33.648  28.447  26.172  1.00  0.00     0.188 C 
BRANCH  39  40
ATOM     40  C   UNL A   1      33.838  29.916  26.595  1.00  0.00     0.188 C 
BRANCH  40  41
ATOM     41  O   UNL A   1      32.776  30.439  27.381  1.00  0.00    -0.376 OA
BRANCH  41  42
ATOM     42  C   UNL A   1      31.810  31.262  26.741  1.00  0.00     0.202 C 
BRANCH  42  43
ATOM     43  C   UNL A   1      31.792  32.752  27.120  1.00  0.00     0.261 C 
BRANCH  43  44
ATOM     44  O   UNL A   1      33.062  33.425  27.200  1.00  0.00    -0.460 OA
BRANCH  44  45
ATOM     45  C   UNL A   1      33.306  34.241  28.248  1.00  0.00     0.338 C 
ATOM     46  O   UNL A   1      32.640  35.198  28.601  1.00  0.00    -0.246 OA
BRANCH  45  47
ATOM     47  C   UNL A   1      34.416  33.652  29.029  1.00  0.00     0.060 A 
ATOM     48  C   UNL A   1      35.732  34.041  28.742  1.00  0.00     0.016 A 
ATOM     49  C   UNL A   1      34.160  32.725  30.040  1.00  0.00     0.016 A 
ATOM     50  C   UNL A   1      36.798  33.475  29.446  1.00  0.00     0.010 A 
ATOM     51  C   UNL A   1      35.228  32.144  30.728  1.00  0.00     0.010 A 
ATOM     52  C   UNL A   1      36.554  32.492  30.414  1.00  0.00    -0.014 A 
BRANCH  52  53
ATOM     53  C   UNL A   1      37.676  31.680  30.954  1.00  0.00     0.031 A 
ATOM     54  C   UNL A   1      38.158  31.976  32.348  1.00  0.00     0.074 A 
ATOM     55  C   UNL A   1      38.257  30.706  30.231  1.00  0.00     0.049 A 
ATOM     56  N   UNL A   1      39.175  31.478  33.003  1.00  0.00    -0.248 NA
ATOM     57  C   UNL A   1      37.386  32.976  33.102  1.00  0.00     0.031 C 
ATOM     58  C   UNL A   1      37.845  30.287  28.893  1.00  0.00     0.029 A 
ATOM     59  N   UNL A   1      39.330  29.900  30.521  1.00  0.00    -0.354 N 
ATOM     60  C   UNL A   1      39.169  32.108  34.243  1.00  0.00     0.074 A 
ATOM     61  C   UNL A   1      38.069  33.049  34.233  1.00  0.00     0.031 C 
ATOM     62  C   UNL A   1      38.668  29.309  28.471  1.00  0.00     0.029 A 
ATOM     63  C   UNL A   1      39.691  29.065  29.488  1.00  0.00     0.049 A 
ATOM     64  H   UNL A   1      39.798  29.917  31.387  1.00  0.00     0.167 HD
ATOM     65  C   UNL A   1      40.001  31.915  35.296  1.00  0.00     0.034 A 
ATOM     66  C   UNL A   1      40.744  28.230  29.366  1.00  0.00     0.034 A 
ATOM     67  C   UNL A   1      41.105  30.988  35.286  1.00  0.00     0.049 A 
ATOM     68  C   UNL A   1      41.727  28.114  30.510  1.00  0.00     0.074 A 
ATOM     69  C   UNL A   1      42.005  30.707  36.299  1.00  0.00     0.029 A 
ATOM     70  N   UNL A   1      41.472  30.200  34.202  1.00  0.00    -0.354 N 
ATOM     71  N   UNL A   1      41.713  28.712  31.680  1.00  0.00    -0.248 NA
ATOM     72  C   UNL A   1      42.869  27.207  30.317  1.00  0.00     0.031 C 
ATOM     73  C   UNL A   1      42.960  29.815  35.803  1.00  0.00     0.029 A 
ATOM     74  C   UNL A   1      42.608  29.466  34.510  1.00  0.00     0.049 A 
ATOM     75  H   UNL A   1      40.996  30.167  33.340  1.00  0.00     0.167 HD
ATOM     76  C   UNL A   1      42.821  28.226  32.371  1.00  0.00     0.074 A 
ATOM     77  C   UNL A   1      43.475  27.280  31.493  1.00  0.00     0.031 C 
ATOM     78  C   UNL A   1      43.256  28.529  33.622  1.00  0.00     0.034 A 
BRANCH  65  79
ATOM     79  C   UNL A   1      39.777  32.768  36.520  1.00  0.00     0.023 A 
ATOM     80  C   UNL A   1      39.012  32.315  37.610  1.00  0.00     0.031 A 
ATOM     81  C   UNL A   1      40.307  34.069  36.586  1.00  0.00     0.131 A 
ATOM     82  C   UNL A   1      38.740  33.179  38.682  1.00  0.00     0.055 A 
ATOM     83  C   UNL A   1      40.102  34.894  37.692  1.00  0.00     0.041 A 
ATOM     84  F   UNL A   1      41.023  34.566  35.565  1.00  0.00    -0.206 F 
ATOM     85  C   UNL A   1      39.301  34.456  38.743  1.00  0.00     0.022 A 
BRANCH  82  86
ATOM     86  S   UNL A   1      37.517  32.664  39.920  1.00  0.00     0.124 S 
ATOM     87  O   UNL A   1      38.184  31.517  40.533  1.00  0.00    -0.237 OA
ATOM     88  O   UNL A   1      37.393  33.853  40.754  1.00  0.00    -0.237 OA
ATOM     89  O   UNL A   1      36.339  32.336  39.120  1.00  0.00    -0.744 OA
ENDBRANCH  82  86
ENDBRANCH  65  79
BRANCH  66  90
ATOM     90  C   UNL A   1      40.969  27.470  28.101  1.00  0.00     0.023 A 
ATOM     91  C   UNL A   1      40.729  26.087  28.030  1.00  0.00     0.031 A 
ATOM     92  C   UNL A   1      41.496  28.104  26.961  1.00  0.00     0.131 A 
ATOM     93  C   UNL A   1      41.060  25.377  26.866  1.00  0.00     0.055 A 
ATOM     94  C   UNL A   1      41.768  27.403  25.785  1.00  0.00     0.041 A 
ATOM     95  F   UNL A   1      41.754  29.421  26.975  1.00  0.00    -0.206 F 
ATOM     96  C   UNL A   1      41.564  26.028  25.737  1.00  0.00     0.022 A 
BRANCH  93  97
ATOM     97  S   UNL A   1      40.915  23.569  26.880  1.00  0.00     0.124 S 
ATOM     98  O   UNL A   1      39.501  23.383  26.572  1.00  0.00    -0.237 OA
ATOM     99  O   UNL A   1      41.856  23.182  25.834  1.00  0.00    -0.237 OA
ATOM    100  O   UNL A   1      41.312  23.205  28.239  1.00  0.00    -0.744 OA
ENDBRANCH  93  97
ENDBRANCH  66  90
BRANCH  78 101
ATOM    101  C   UNL A   1      44.468  27.787  34.137  1.00  0.00     0.023 A 
ATOM    102  C   UNL A   1      44.399  26.448  34.558  1.00  0.00     0.031 A 
ATOM    103  C   UNL A   1      45.716  28.433  34.196  1.00  0.00     0.131 A 
ATOM    104  C   UNL A   1      45.545  25.813  35.064  1.00  0.00     0.055 A 
ATOM    105  C   UNL A   1      46.865  27.779  34.642  1.00  0.00     0.041 A 
ATOM    106  F   UNL A   1      45.842  29.713  33.810  1.00  0.00    -0.206 F 
ATOM    107  C   UNL A   1      46.781  26.465  35.090  1.00  0.00     0.022 A 
BRANCH 104 108
ATOM    108  S   UNL A   1      45.385  24.149  35.768  1.00  0.00     0.124 S 
ATOM    109  O   UNL A   1      45.972  24.321  37.093  1.00  0.00    -0.237 OA
ATOM    110  O   UNL A   1      43.942  23.933  35.733  1.00  0.00    -0.237 OA
ATOM    111  O   UNL A   1      46.158  23.313  34.852  1.00  0.00    -0.744 OA
ENDBRANCH 104 108
ENDBRANCH  78 101
ENDBRANCH  52  53
ENDBRANCH  45  47
ENDBRANCH  44  45
ENDBRANCH  43  44
ENDBRANCH  42  43
ENDBRANCH  41  42
ENDBRANCH  40  41
ENDBRANCH  39  40
ENDBRANCH  38  39
ENDBRANCH   1  38
TORSDOF 29
ENDMDL
