MODEL 1
REMARK VINA RESULT:     -10.8      0.000      0.000
REMARK SMILES Cc1ccc(NC(=O)CN2C(=O)S/C(=C\c3cc(Cl)c(OCC(=O)OCCOCCOCCOCCOC(=O)c4ccc(-c5c6nc(c(-c7cc(S(=O)(=O)[O-])ccc7F)c7ccc([nH]7)c(-c7cc(S(=O)(=O)[O-])ccc7F)c7nc(c(-c8cc(S(=O)(=O)[O-])ccc8F)c8ccc5[nH]8)C=C7)C=C6)cc4)c(Cl)c3)C2=O)cc1
REMARK SMILES IDX 29 1 28 2 27 3 26 4 25 5 23 6 24 7 22 8 21 9 20 10 16 11
REMARK SMILES IDX 17 12 105 13 18 14 103 15 19 16 104 17 15 18 10 19 11 20
REMARK SMILES IDX 106 21 12 22 13 23 14 24 107 25 9 26 7 27 6 28 8 30 5 31
REMARK SMILES IDX 1 32 2 33 3 34 109 35 4 36 108 37 30 38 31 39 32 40 33 41
REMARK SMILES IDX 34 42 35 43 36 44 37 45 38 46 39 47 40 48 41 49 102 50 42 51
REMARK SMILES IDX 101 52 43 53 44 54 45 55 95 56 46 57 100 58 94 59 96 60
REMARK SMILES IDX 47 61 99 62 93 63 92 64 48 66 80 67 60 68 79 69 61 70 64 71
REMARK SMILES IDX 78 72 97 73 62 74 63 75 77 77 98 78 65 79 49 80 50 81 58 82
REMARK SMILES IDX 51 83 57 84 59 85 56 86 52 87 53 88 54 89 55 90 81 91 82 92
REMARK SMILES IDX 90 93 83 94 89 95 91 96 88 97 84 98 85 99 86 100 87 101
REMARK SMILES IDX 66 102 67 103 75 104 68 105 74 106 76 107 73 108 69 109
REMARK SMILES IDX 70 110 71 111 72 112
REMARK H PARENT 6 29 96 65 64 76
REMARK Flexibility Score: inf
ROOT
ATOM      1  C   UNL A   1      37.809  23.122  25.433  1.00  0.00     0.188 C 
ENDROOT
BRANCH   1   2
ATOM      2  O   UNL A   1      36.514  23.212  24.879  1.00  0.00    -0.376 OA
BRANCH   2   3
ATOM      3  C   UNL A   1      35.523  22.401  25.461  1.00  0.00     0.202 C 
BRANCH   3   4
ATOM      4  C   UNL A   1      34.447  21.786  24.573  1.00  0.00     0.261 C 
BRANCH   4   5
ATOM      5  O   UNL A   1      33.423  22.738  24.255  1.00  0.00    -0.461 OA
BRANCH   5   6
ATOM      6  C   UNL A   1      32.144  22.311  24.385  1.00  0.00     0.344 C 
ATOM      7  O   UNL A   1      31.810  21.297  24.981  1.00  0.00    -0.248 OA
BRANCH   6   8
ATOM      8  C   UNL A   1      31.154  23.252  23.641  1.00  0.00     0.352 C 
BRANCH   8   9
ATOM      9  O   UNL A   1      31.255  24.545  23.060  1.00  0.00    -0.479 OA
BRANCH   9  10
ATOM     10  C   UNL A   1      31.264  25.769  23.657  1.00  0.00     0.157 A 
ATOM     11  C   UNL A   1      31.686  28.414  24.752  1.00  0.00    -0.021 A 
ATOM     12  C   UNL A   1      32.068  28.120  23.442  1.00  0.00     0.032 A 
ATOM     13  C   UNL A   1      30.989  27.411  25.438  1.00  0.00     0.032 A 
ATOM     14  C   UNL A   1      31.860  26.819  22.912  1.00  0.00     0.085 A 
ATOM     15  C   UNL A   1      30.740  26.133  24.892  1.00  0.00     0.085 A 
ATOM     16  Cl  UNL A   1      32.404  26.538  21.285  1.00  0.00    -0.080 Cl
ATOM     17  Cl  UNL A   1      29.687  25.136  25.813  1.00  0.00    -0.080 Cl
BRANCH  11  18
ATOM     18  C   UNL A   1      31.842  29.745  25.409  1.00  0.00     0.029 C 
ATOM     19  N   UNL A   1      33.935  31.246  28.020  1.00  0.00    -0.259 N 
ATOM     20  C   UNL A   1      34.878  30.321  27.714  1.00  0.00     0.294 C 
ATOM     21  C   UNL A   1      32.800  31.263  27.227  1.00  0.00     0.268 C 
ATOM     22  O   UNL A   1      36.068  30.344  28.029  1.00  0.00    -0.261 OA
ATOM     23  S   UNL A   1      34.177  29.098  26.707  1.00  0.00    -0.022 SA
ATOM     24  C   UNL A   1      32.792  30.060  26.320  1.00  0.00     0.083 C 
ATOM     25  O   UNL A   1      31.906  32.094  27.263  1.00  0.00    -0.268 OA
BRANCH  19  26
ATOM     26  C   UNL A   1      34.209  32.193  29.087  1.00  0.00     0.230 C 
BRANCH  26  27
ATOM     27  C   UNL A   1      34.724  33.509  28.490  1.00  0.00     0.244 C 
ATOM     28  N   UNL A   1      35.256  34.503  29.260  1.00  0.00    -0.325 N 
ATOM     29  H   UNL A   1      35.647  35.253  28.756  1.00  0.00     0.169 HD
ATOM     30  O   UNL A   1      34.812  33.646  27.263  1.00  0.00    -0.273 OA
BRANCH  28  31
ATOM     31  C   UNL A   1      35.336  34.627  30.651  1.00  0.00     0.041 A 
ATOM     32  C   UNL A   1      35.472  34.375  34.938  1.00  0.00     0.044 C 
ATOM     33  C   UNL A   1      35.478  34.529  33.448  1.00  0.00    -0.051 A 
ATOM     34  C   UNL A   1      34.383  35.119  32.817  1.00  0.00     0.005 A 
ATOM     35  C   UNL A   1      36.542  34.060  32.671  1.00  0.00     0.005 A 
ATOM     36  C   UNL A   1      34.339  35.210  31.428  1.00  0.00     0.026 A 
ATOM     37  C   UNL A   1      36.477  34.120  31.277  1.00  0.00     0.026 A 
ENDBRANCH  28  31
ENDBRANCH  26  27
ENDBRANCH  19  26
ENDBRANCH  11  18
ENDBRANCH   9  10
ENDBRANCH   8   9
ENDBRANCH   6   8
ENDBRANCH   5   6
ENDBRANCH   4   5
ENDBRANCH   3   4
ENDBRANCH   2   3
ENDBRANCH   1   2
BRANCH   1  38
ATOM     38  C   UNL A   1      38.597  21.834  25.787  1.00  0.00     0.188 C 
BRANCH  38  39
ATOM     39  O   UNL A   1      39.595  21.880  26.784  1.00  0.00    -0.377 OA
BRANCH  39  40
ATOM     40  C   UNL A   1      40.845  21.327  26.322  1.00  0.00     0.188 C 
BRANCH  40  41
ATOM     41  C   UNL A   1      40.871  19.888  26.758  1.00  0.00     0.188 C 
BRANCH  41  42
ATOM     42  O   UNL A   1      41.501  19.141  25.734  1.00  0.00    -0.376 OA
BRANCH  42  43
ATOM     43  C   UNL A   1      42.709  18.526  26.079  1.00  0.00     0.202 C 
BRANCH  43  44
ATOM     44  C   UNL A   1      43.779  18.818  25.039  1.00  0.00     0.261 C 
BRANCH  44  45
ATOM     45  O   UNL A   1      43.803  20.243  24.780  1.00  0.00    -0.460 OA
BRANCH  45  46
ATOM     46  C   UNL A   1      45.034  20.735  24.446  1.00  0.00     0.338 C 
ATOM     47  O   UNL A   1      46.049  20.059  24.408  1.00  0.00    -0.246 OA
BRANCH  46  48
ATOM     48  C   UNL A   1      45.018  22.232  24.318  1.00  0.00     0.060 A 
ATOM     49  C   UNL A   1      46.240  22.925  24.203  1.00  0.00     0.016 A 
ATOM     50  C   UNL A   1      43.873  22.931  24.686  1.00  0.00     0.016 A 
ATOM     51  C   UNL A   1      46.360  24.252  24.666  1.00  0.00     0.010 A 
ATOM     52  C   UNL A   1      44.026  24.195  25.239  1.00  0.00     0.010 A 
ATOM     53  C   UNL A   1      45.266  24.867  25.271  1.00  0.00    -0.014 A 
BRANCH  53  54
ATOM     54  C   UNL A   1      45.276  26.153  26.020  1.00  0.00     0.031 A 
ATOM     55  C   UNL A   1      43.971  26.821  26.257  1.00  0.00     0.074 A 
ATOM     56  C   UNL A   1      46.334  26.493  26.803  1.00  0.00     0.049 A 
ATOM     57  N   UNL A   1      43.787  27.817  27.047  1.00  0.00    -0.248 NA
ATOM     58  C   UNL A   1      42.721  26.363  25.667  1.00  0.00     0.031 C 
ATOM     59  C   UNL A   1      46.357  27.262  28.064  1.00  0.00     0.029 A 
ATOM     60  N   UNL A   1      47.642  26.033  26.727  1.00  0.00    -0.354 N 
ATOM     61  C   UNL A   1      42.440  27.960  27.307  1.00  0.00     0.074 A 
ATOM     62  C   UNL A   1      41.820  27.041  26.386  1.00  0.00     0.031 C 
ATOM     63  C   UNL A   1      47.597  27.321  28.576  1.00  0.00     0.029 A 
ATOM     64  C   UNL A   1      48.473  26.848  27.535  1.00  0.00     0.049 A 
ATOM     65  H   UNL A   1      47.946  25.262  26.195  1.00  0.00     0.167 HD
ATOM     66  C   UNL A   1      42.071  28.766  28.352  1.00  0.00     0.034 A 
ATOM     67  C   UNL A   1      49.410  27.636  26.933  1.00  0.00     0.034 A 
ATOM     68  C   UNL A   1      43.247  29.511  28.883  1.00  0.00     0.049 A 
ATOM     69  C   UNL A   1      48.879  29.079  26.901  1.00  0.00     0.074 A 
ATOM     70  C   UNL A   1      43.837  29.727  30.118  1.00  0.00     0.029 A 
ATOM     71  N   UNL A   1      44.138  30.078  27.960  1.00  0.00    -0.354 N 
ATOM     72  N   UNL A   1      47.606  29.385  27.050  1.00  0.00    -0.248 NA
ATOM     73  C   UNL A   1      49.714  30.277  26.943  1.00  0.00     0.031 C 
ATOM     74  C   UNL A   1      45.138  30.293  29.903  1.00  0.00     0.029 A 
ATOM     75  C   UNL A   1      45.309  30.508  28.542  1.00  0.00     0.049 A 
ATOM     76  H   UNL A   1      43.946  30.161  26.999  1.00  0.00     0.167 HD
ATOM     77  C   UNL A   1      47.451  30.708  27.356  1.00  0.00     0.074 A 
ATOM     78  C   UNL A   1      48.804  31.233  27.225  1.00  0.00     0.031 C 
ATOM     79  C   UNL A   1      46.268  31.283  27.757  1.00  0.00     0.034 A 
BRANCH  66  80
ATOM     80  C   UNL A   1      40.683  28.808  29.012  1.00  0.00     0.023 A 
ATOM     81  C   UNL A   1      40.560  28.580  30.403  1.00  0.00     0.031 A 
ATOM     82  C   UNL A   1      39.446  29.034  28.364  1.00  0.00     0.131 A 
ATOM     83  C   UNL A   1      39.306  28.537  31.057  1.00  0.00     0.055 A 
ATOM     84  C   UNL A   1      38.198  28.989  29.011  1.00  0.00     0.041 A 
ATOM     85  F   UNL A   1      39.351  29.349  27.074  1.00  0.00    -0.206 F 
ATOM     86  C   UNL A   1      38.120  28.735  30.365  1.00  0.00     0.022 A 
BRANCH  83  87
ATOM     87  S   UNL A   1      39.243  28.233  32.847  1.00  0.00     0.124 S 
ATOM     88  O   UNL A   1      40.636  27.926  33.155  1.00  0.00    -0.237 OA
ATOM     89  O   UNL A   1      38.733  29.499  33.361  1.00  0.00    -0.237 OA
ATOM     90  O   UNL A   1      38.320  27.104  32.969  1.00  0.00    -0.744 OA
ENDBRANCH  83  87
ENDBRANCH  66  80
BRANCH  67  91
ATOM     91  C   UNL A   1      50.200  26.767  25.982  1.00  0.00     0.023 A 
ATOM     92  C   UNL A   1      50.133  27.174  24.611  1.00  0.00     0.031 A 
ATOM     93  C   UNL A   1      51.398  26.166  26.403  1.00  0.00     0.131 A 
ATOM     94  C   UNL A   1      51.290  27.199  23.801  1.00  0.00     0.055 A 
ATOM     95  C   UNL A   1      52.544  26.177  25.583  1.00  0.00     0.041 A 
ATOM     96  F   UNL A   1      51.545  25.760  27.673  1.00  0.00    -0.206 F 
ATOM     97  C   UNL A   1      52.509  26.747  24.308  1.00  0.00     0.022 A 
BRANCH  94  98
ATOM     98  S   UNL A   1      51.291  28.176  22.240  1.00  0.00     0.124 S 
ATOM     99  O   UNL A   1      51.391  29.546  22.721  1.00  0.00    -0.237 OA
ATOM    100  O   UNL A   1      52.457  27.663  21.527  1.00  0.00    -0.237 OA
ATOM    101  O   UNL A   1      50.013  27.820  21.622  1.00  0.00    -0.744 OA
ENDBRANCH  94  98
ENDBRANCH  67  91
BRANCH  79 102
ATOM    102  C   UNL A   1      45.877  32.709  27.421  1.00  0.00     0.023 A 
ATOM    103  C   UNL A   1      46.548  33.803  27.959  1.00  0.00     0.031 A 
ATOM    104  C   UNL A   1      44.914  33.021  26.420  1.00  0.00     0.131 A 
ATOM    105  C   UNL A   1      46.232  35.114  27.583  1.00  0.00     0.055 A 
ATOM    106  C   UNL A   1      44.661  34.322  25.982  1.00  0.00     0.041 A 
ATOM    107  F   UNL A   1      44.195  32.086  25.785  1.00  0.00    -0.206 F 
ATOM    108  C   UNL A   1      45.312  35.387  26.577  1.00  0.00     0.022 A 
BRANCH 105 109
ATOM    109  S   UNL A   1      47.037  36.435  28.507  1.00  0.00     0.124 S 
ATOM    110  O   UNL A   1      45.893  37.119  29.104  1.00  0.00    -0.237 OA
ATOM    111  O   UNL A   1      47.883  35.693  29.437  1.00  0.00    -0.237 OA
ATOM    112  O   UNL A   1      47.749  37.188  27.478  1.00  0.00    -0.744 OA
ENDBRANCH 105 109
ENDBRANCH  79 102
ENDBRANCH  53  54
ENDBRANCH  46  48
ENDBRANCH  45  46
ENDBRANCH  44  45
ENDBRANCH  43  44
ENDBRANCH  42  43
ENDBRANCH  41  42
ENDBRANCH  40  41
ENDBRANCH  39  40
ENDBRANCH  38  39
ENDBRANCH   1  38
TORSDOF 29
ENDMDL
MODEL 2
REMARK VINA RESULT:     -10.0      3.246     10.432
REMARK SMILES Cc1ccc(NC(=O)CN2C(=O)S/C(=C\c3cc(Cl)c(OCC(=O)OCCOCCOCCOCCOC(=O)c4ccc(-c5c6nc(c(-c7cc(S(=O)(=O)[O-])ccc7F)c7ccc([nH]7)c(-c7cc(S(=O)(=O)[O-])ccc7F)c7nc(c(-c8cc(S(=O)(=O)[O-])ccc8F)c8ccc5[nH]8)C=C7)C=C6)cc4)c(Cl)c3)C2=O)cc1
REMARK SMILES IDX 29 1 28 2 27 3 26 4 25 5 23 6 24 7 22 8 21 9 20 10 16 11
REMARK SMILES IDX 17 12 105 13 18 14 103 15 19 16 104 17 15 18 10 19 11 20
REMARK SMILES IDX 106 21 12 22 13 23 14 24 107 25 9 26 7 27 6 28 8 30 5 31
REMARK SMILES IDX 1 32 2 33 3 34 109 35 4 36 108 37 30 38 31 39 32 40 33 41
REMARK SMILES IDX 34 42 35 43 36 44 37 45 38 46 39 47 40 48 41 49 102 50 42 51
REMARK SMILES IDX 101 52 43 53 44 54 45 55 95 56 46 57 100 58 94 59 96 60
REMARK SMILES IDX 47 61 99 62 93 63 92 64 48 66 80 67 60 68 79 69 61 70 64 71
REMARK SMILES IDX 78 72 97 73 62 74 63 75 77 77 98 78 65 79 49 80 50 81 58 82
REMARK SMILES IDX 51 83 57 84 59 85 56 86 52 87 53 88 54 89 55 90 81 91 82 92
REMARK SMILES IDX 90 93 83 94 89 95 91 96 88 97 84 98 85 99 86 100 87 101
REMARK SMILES IDX 66 102 67 103 75 104 68 105 74 106 76 107 73 108 69 109
REMARK SMILES IDX 70 110 71 111 72 112
REMARK H PARENT 6 29 96 65 64 76
REMARK Flexibility Score: inf
ROOT
ATOM      1  C   UNL A   1      36.307  30.951  29.448  1.00  0.00     0.188 C 
ENDROOT
BRANCH   1   2
ATOM      2  O   UNL A   1      35.669  30.068  28.550  1.00  0.00    -0.376 OA
BRANCH   2   3
ATOM      3  C   UNL A   1      35.008  30.652  27.455  1.00  0.00     0.202 C 
BRANCH   3   4
ATOM      4  C   UNL A   1      33.974  31.744  27.705  1.00  0.00     0.261 C 
BRANCH   4   5
ATOM      5  O   UNL A   1      32.671  31.343  27.261  1.00  0.00    -0.461 OA
BRANCH   5   6
ATOM      6  C   UNL A   1      31.865  32.327  26.794  1.00  0.00     0.344 C 
ATOM      7  O   UNL A   1      31.781  33.443  27.286  1.00  0.00    -0.248 OA
BRANCH   6   8
ATOM      8  C   UNL A   1      31.023  31.842  25.580  1.00  0.00     0.352 C 
BRANCH   8   9
ATOM      9  O   UNL A   1      30.315  30.650  25.271  1.00  0.00    -0.479 OA
BRANCH   9  10
ATOM     10  C   UNL A   1      30.763  29.490  24.713  1.00  0.00     0.157 A 
ATOM     11  C   UNL A   1      31.335  27.027  23.307  1.00  0.00    -0.021 A 
ATOM     12  C   UNL A   1      30.754  28.107  22.639  1.00  0.00     0.032 A 
ATOM     13  C   UNL A   1      31.728  27.253  24.633  1.00  0.00     0.032 A 
ATOM     14  C   UNL A   1      30.475  29.312  23.335  1.00  0.00     0.085 A 
ATOM     15  C   UNL A   1      31.492  28.469  25.310  1.00  0.00     0.085 A 
ATOM     16  Cl  UNL A   1      29.717  30.585  22.428  1.00  0.00    -0.080 Cl
ATOM     17  Cl  UNL A   1      32.245  28.607  26.849  1.00  0.00    -0.080 Cl
BRANCH  11  18
ATOM     18  C   UNL A   1      31.684  25.720  22.676  1.00  0.00     0.029 C 
ATOM     19  N   UNL A   1      32.307  22.272  23.758  1.00  0.00    -0.259 N 
ATOM     20  C   UNL A   1      31.512  22.526  24.827  1.00  0.00     0.294 C 
ATOM     21  C   UNL A   1      32.415  23.276  22.810  1.00  0.00     0.268 C 
ATOM     22  O   UNL A   1      30.999  21.699  25.581  1.00  0.00    -0.261 OA
ATOM     23  S   UNL A   1      31.233  24.231  24.942  1.00  0.00    -0.022 SA
ATOM     24  C   UNL A   1      31.772  24.537  23.326  1.00  0.00     0.083 C 
ATOM     25  O   UNL A   1      32.974  23.191  21.728  1.00  0.00    -0.268 OA
BRANCH  19  26
ATOM     26  C   UNL A   1      32.916  20.958  23.640  1.00  0.00     0.230 C 
BRANCH  26  27
ATOM     27  C   UNL A   1      34.215  20.917  24.454  1.00  0.00     0.244 C 
ATOM     28  N   UNL A   1      34.747  19.751  24.926  1.00  0.00    -0.325 N 
ATOM     29  H   UNL A   1      35.635  19.840  25.342  1.00  0.00     0.169 HD
ATOM     30  O   UNL A   1      34.908  21.935  24.577  1.00  0.00    -0.273 OA
BRANCH  28  31
ATOM     31  C   UNL A   1      34.232  18.451  24.913  1.00  0.00     0.041 A 
ATOM     32  C   UNL A   1      32.663  14.497  25.515  1.00  0.00     0.044 C 
ATOM     33  C   UNL A   1      33.168  15.878  25.232  1.00  0.00    -0.051 A 
ATOM     34  C   UNL A   1      34.478  16.050  24.786  1.00  0.00     0.005 A 
ATOM     35  C   UNL A   1      32.365  17.004  25.441  1.00  0.00     0.005 A 
ATOM     36  C   UNL A   1      34.987  17.329  24.581  1.00  0.00     0.026 A 
ATOM     37  C   UNL A   1      32.892  18.287  25.270  1.00  0.00     0.026 A 
ENDBRANCH  28  31
ENDBRANCH  26  27
ENDBRANCH  19  26
ENDBRANCH  11  18
ENDBRANCH   9  10
ENDBRANCH   8   9
ENDBRANCH   6   8
ENDBRANCH   5   6
ENDBRANCH   4   5
ENDBRANCH   3   4
ENDBRANCH   2   3
ENDBRANCH   1   2
BRANCH   1  38
ATOM     38  C   UNL A   1      35.852  31.335  30.879  1.00  0.00     0.188 C 
BRANCH  38  39
ATOM     39  O   UNL A   1      35.360  32.634  31.128  1.00  0.00    -0.377 OA
BRANCH  39  40
ATOM     40  C   UNL A   1      34.564  32.688  32.330  1.00  0.00     0.188 C 
BRANCH  40  41
ATOM     41  C   UNL A   1      35.225  33.683  33.244  1.00  0.00     0.188 C 
BRANCH  41  42
ATOM     42  O   UNL A   1      35.738  32.970  34.354  1.00  0.00    -0.376 OA
BRANCH  42  43
ATOM     43  C   UNL A   1      37.106  33.124  34.602  1.00  0.00     0.202 C 
BRANCH  43  44
ATOM     44  C   UNL A   1      37.897  31.978  33.995  1.00  0.00     0.261 C 
BRANCH  44  45
ATOM     45  O   UNL A   1      39.156  32.492  33.494  1.00  0.00    -0.460 OA
BRANCH  45  46
ATOM     46  C   UNL A   1      39.299  32.408  32.137  1.00  0.00     0.338 C 
ATOM     47  O   UNL A   1      38.670  33.089  31.344  1.00  0.00    -0.246 OA
BRANCH  46  48
ATOM     48  C   UNL A   1      40.180  31.257  31.741  1.00  0.00     0.060 A 
ATOM     49  C   UNL A   1      41.422  31.088  32.386  1.00  0.00     0.016 A 
ATOM     50  C   UNL A   1      39.953  30.617  30.528  1.00  0.00     0.016 A 
ATOM     51  C   UNL A   1      42.500  30.470  31.719  1.00  0.00     0.010 A 
ATOM     52  C   UNL A   1      41.046  30.110  29.839  1.00  0.00     0.010 A 
ATOM     53  C   UNL A   1      42.340  30.053  30.399  1.00  0.00    -0.014 A 
BRANCH  53  54
ATOM     54  C   UNL A   1      43.417  29.607  29.475  1.00  0.00     0.031 A 
ATOM     55  C   UNL A   1      43.625  28.144  29.316  1.00  0.00     0.074 A 
ATOM     56  C   UNL A   1      43.902  30.441  28.518  1.00  0.00     0.049 A 
ATOM     57  N   UNL A   1      44.366  27.600  28.420  1.00  0.00    -0.248 NA
ATOM     58  C   UNL A   1      42.938  27.148  30.127  1.00  0.00     0.031 C 
ATOM     59  C   UNL A   1      44.405  30.124  27.167  1.00  0.00     0.029 A 
ATOM     60  N   UNL A   1      43.862  31.829  28.489  1.00  0.00    -0.354 N 
ATOM     61  C   UNL A   1      44.063  26.257  28.322  1.00  0.00     0.074 A 
ATOM     62  C   UNL A   1      43.185  26.027  29.441  1.00  0.00     0.031 C 
ATOM     63  C   UNL A   1      44.728  31.240  26.493  1.00  0.00     0.029 A 
ATOM     64  C   UNL A   1      44.724  32.300  27.467  1.00  0.00     0.049 A 
ATOM     65  H   UNL A   1      43.321  32.397  29.083  1.00  0.00     0.167 HD
ATOM     66  C   UNL A   1      44.526  25.574  27.227  1.00  0.00     0.034 A 
ATOM     67  C   UNL A   1      45.844  32.995  27.818  1.00  0.00     0.034 A 
ATOM     68  C   UNL A   1      45.472  26.417  26.443  1.00  0.00     0.049 A 
ATOM     69  C   UNL A   1      47.053  32.051  27.708  1.00  0.00     0.074 A 
ATOM     70  C   UNL A   1      45.624  26.810  25.122  1.00  0.00     0.029 A 
ATOM     71  N   UNL A   1      46.429  27.163  27.146  1.00  0.00    -0.354 N 
ATOM     72  N   UNL A   1      46.945  30.737  27.684  1.00  0.00    -0.248 NA
ATOM     73  C   UNL A   1      48.413  32.470  27.380  1.00  0.00     0.031 C 
ATOM     74  C   UNL A   1      46.571  27.887  25.079  1.00  0.00     0.029 A 
ATOM     75  C   UNL A   1      47.067  28.093  26.359  1.00  0.00     0.049 A 
ATOM     76  H   UNL A   1      46.624  27.033  28.102  1.00  0.00     0.167 HD
ATOM     77  C   UNL A   1      48.089  30.159  27.210  1.00  0.00     0.074 A 
ATOM     78  C   UNL A   1      48.997  31.291  27.084  1.00  0.00     0.031 C 
ATOM     79  C   UNL A   1      48.215  28.828  26.889  1.00  0.00     0.034 A 
BRANCH  66  80
ATOM     80  C   UNL A   1      44.045  24.192  26.757  1.00  0.00     0.023 A 
ATOM     81  C   UNL A   1      42.720  23.779  27.032  1.00  0.00     0.031 A 
ATOM     82  C   UNL A   1      44.808  23.221  26.070  1.00  0.00     0.131 A 
ATOM     83  C   UNL A   1      42.237  22.494  26.687  1.00  0.00     0.055 A 
ATOM     84  C   UNL A   1      44.334  21.942  25.728  1.00  0.00     0.041 A 
ATOM     85  F   UNL A   1      46.050  23.443  25.646  1.00  0.00    -0.206 F 
ATOM     86  C   UNL A   1      43.042  21.568  26.040  1.00  0.00     0.022 A 
BRANCH  83  87
ATOM     87  S   UNL A   1      40.522  22.049  27.084  1.00  0.00     0.124 S 
ATOM     88  O   UNL A   1      39.860  22.195  25.791  1.00  0.00    -0.237 OA
ATOM     89  O   UNL A   1      40.661  20.688  27.588  1.00  0.00    -0.237 OA
ATOM     90  O   UNL A   1      40.136  23.040  28.090  1.00  0.00    -0.744 OA
ENDBRANCH  83  87
ENDBRANCH  66  80
BRANCH  67  91
ATOM     91  C   UNL A   1      45.427  34.089  28.774  1.00  0.00     0.023 A 
ATOM     92  C   UNL A   1      44.578  35.089  28.199  1.00  0.00     0.031 A 
ATOM     93  C   UNL A   1      45.228  33.800  30.134  1.00  0.00     0.131 A 
ATOM     94  C   UNL A   1      43.446  35.570  28.893  1.00  0.00     0.055 A 
ATOM     95  C   UNL A   1      44.107  34.299  30.827  1.00  0.00     0.041 A 
ATOM     96  F   UNL A   1      45.978  32.873  30.749  1.00  0.00    -0.206 F 
ATOM     97  C   UNL A   1      43.183  35.133  30.192  1.00  0.00     0.022 A 
BRANCH  94  98
ATOM     98  S   UNL A   1      42.117  36.451  27.972  1.00  0.00     0.124 S 
ATOM     99  O   UNL A   1      42.302  37.833  28.390  1.00  0.00    -0.237 OA
ATOM    100  O   UNL A   1      42.430  36.159  26.576  1.00  0.00    -0.237 OA
ATOM    101  O   UNL A   1      40.894  35.808  28.453  1.00  0.00    -0.744 OA
ENDBRANCH  94  98
ENDBRANCH  67  91
BRANCH  79 102
ATOM    102  C   UNL A   1      49.502  28.046  27.060  1.00  0.00     0.023 A 
ATOM    103  C   UNL A   1      50.539  28.121  26.135  1.00  0.00     0.031 A 
ATOM    104  C   UNL A   1      49.801  27.315  28.245  1.00  0.00     0.131 A 
ATOM    105  C   UNL A   1      51.755  27.458  26.340  1.00  0.00     0.055 A 
ATOM    106  C   UNL A   1      51.043  26.728  28.489  1.00  0.00     0.041 A 
ATOM    107  F   UNL A   1      48.923  27.163  29.246  1.00  0.00    -0.206 F 
ATOM    108  C   UNL A   1      52.031  26.782  27.523  1.00  0.00     0.022 A 
BRANCH 105 109
ATOM    109  S   UNL A   1      52.926  27.478  24.971  1.00  0.00     0.124 S 
ATOM    110  O   UNL A   1      52.199  28.257  23.971  1.00  0.00    -0.237 OA
ATOM    111  O   UNL A   1      54.085  28.137  25.562  1.00  0.00    -0.237 OA
ATOM    112  O   UNL A   1      53.104  26.064  24.651  1.00  0.00    -0.744 OA
ENDBRANCH 105 109
ENDBRANCH  79 102
ENDBRANCH  53  54
ENDBRANCH  46  48
ENDBRANCH  45  46
ENDBRANCH  44  45
ENDBRANCH  43  44
ENDBRANCH  42  43
ENDBRANCH  41  42
ENDBRANCH  40  41
ENDBRANCH  39  40
ENDBRANCH  38  39
ENDBRANCH   1  38
TORSDOF 29
ENDMDL
MODEL 3
REMARK VINA RESULT:      -9.7      5.020      9.290
REMARK SMILES Cc1ccc(NC(=O)CN2C(=O)S/C(=C\c3cc(Cl)c(OCC(=O)OCCOCCOCCOCCOC(=O)c4ccc(-c5c6nc(c(-c7cc(S(=O)(=O)[O-])ccc7F)c7ccc([nH]7)c(-c7cc(S(=O)(=O)[O-])ccc7F)c7nc(c(-c8cc(S(=O)(=O)[O-])ccc8F)c8ccc5[nH]8)C=C7)C=C6)cc4)c(Cl)c3)C2=O)cc1
REMARK SMILES IDX 29 1 28 2 27 3 26 4 25 5 23 6 24 7 22 8 21 9 20 10 16 11
REMARK SMILES IDX 17 12 105 13 18 14 103 15 19 16 104 17 15 18 10 19 11 20
REMARK SMILES IDX 106 21 12 22 13 23 14 24 107 25 9 26 7 27 6 28 8 30 5 31
REMARK SMILES IDX 1 32 2 33 3 34 109 35 4 36 108 37 30 38 31 39 32 40 33 41
REMARK SMILES IDX 34 42 35 43 36 44 37 45 38 46 39 47 40 48 41 49 102 50 42 51
REMARK SMILES IDX 101 52 43 53 44 54 45 55 95 56 46 57 100 58 94 59 96 60
REMARK SMILES IDX 47 61 99 62 93 63 92 64 48 66 80 67 60 68 79 69 61 70 64 71
REMARK SMILES IDX 78 72 97 73 62 74 63 75 77 77 98 78 65 79 49 80 50 81 58 82
REMARK SMILES IDX 51 83 57 84 59 85 56 86 52 87 53 88 54 89 55 90 81 91 82 92
REMARK SMILES IDX 90 93 83 94 89 95 91 96 88 97 84 98 85 99 86 100 87 101
REMARK SMILES IDX 66 102 67 103 75 104 68 105 74 106 76 107 73 108 69 109
REMARK SMILES IDX 70 110 71 111 72 112
REMARK H PARENT 6 29 96 65 64 76
REMARK Flexibility Score: inf
ROOT
ATOM      1  C   UNL A   1      40.944  27.338  29.327  1.00  0.00     0.188 C 
ENDROOT
BRANCH   1   2
ATOM      2  O   UNL A   1      40.454  28.624  29.014  1.00  0.00    -0.376 OA
BRANCH   2   3
ATOM      3  C   UNL A   1      40.943  29.690  29.790  1.00  0.00     0.202 C 
BRANCH   3   4
ATOM      4  C   UNL A   1      39.965  30.525  30.609  1.00  0.00     0.261 C 
BRANCH   4   5
ATOM      5  O   UNL A   1      39.123  29.698  31.423  1.00  0.00    -0.461 OA
BRANCH   5   6
ATOM      6  C   UNL A   1      37.787  29.874  31.281  1.00  0.00     0.344 C 
ATOM      7  O   UNL A   1      36.941  29.068  31.641  1.00  0.00    -0.248 OA
BRANCH   6   8
ATOM      8  C   UNL A   1      37.466  31.212  30.558  1.00  0.00     0.352 C 
BRANCH   8   9
ATOM      9  O   UNL A   1      37.011  31.558  29.257  1.00  0.00    -0.479 OA
BRANCH   9  10
ATOM     10  C   UNL A   1      35.893  31.158  28.591  1.00  0.00     0.157 A 
ATOM     11  C   UNL A   1      33.791  30.180  26.858  1.00  0.00    -0.021 A 
ATOM     12  C   UNL A   1      34.970  29.451  27.025  1.00  0.00     0.032 A 
ATOM     13  C   UNL A   1      33.644  31.319  27.661  1.00  0.00     0.032 A 
ATOM     14  C   UNL A   1      35.998  29.938  27.875  1.00  0.00     0.085 A 
ATOM     15  C   UNL A   1      34.648  31.777  28.542  1.00  0.00     0.085 A 
ATOM     16  Cl  UNL A   1      37.443  28.980  27.988  1.00  0.00    -0.080 Cl
ATOM     17  Cl  UNL A   1      34.179  33.059  29.584  1.00  0.00    -0.080 Cl
BRANCH  11  18
ATOM     18  C   UNL A   1      32.642  29.761  26.004  1.00  0.00     0.029 C 
ATOM     19  N   UNL A   1      31.327  26.652  24.570  1.00  0.00    -0.259 N 
ATOM     20  C   UNL A   1      31.920  25.997  25.599  1.00  0.00     0.294 C 
ATOM     21  C   UNL A   1      31.393  28.035  24.594  1.00  0.00     0.268 C 
ATOM     22  O   UNL A   1      31.696  24.844  25.968  1.00  0.00    -0.261 OA
ATOM     23  S   UNL A   1      33.012  27.068  26.410  1.00  0.00    -0.022 SA
ATOM     24  C   UNL A   1      32.331  28.484  25.685  1.00  0.00     0.083 C 
ATOM     25  O   UNL A   1      30.819  28.799  23.834  1.00  0.00    -0.268 OA
BRANCH  19  26
ATOM     26  C   UNL A   1      30.608  25.878  23.574  1.00  0.00     0.230 C 
BRANCH  26  27
ATOM     27  C   UNL A   1      31.443  25.786  22.290  1.00  0.00     0.244 C 
ATOM     28  N   UNL A   1      32.285  24.740  22.039  1.00  0.00    -0.325 N 
ATOM     29  H   UNL A   1      32.686  24.738  21.140  1.00  0.00     0.169 HD
ATOM     30  O   UNL A   1      31.261  26.588  21.366  1.00  0.00    -0.273 OA
BRANCH  28  31
ATOM     31  C   UNL A   1      32.670  23.671  22.855  1.00  0.00     0.041 A 
ATOM     32  C   UNL A   1      34.249  20.226  24.879  1.00  0.00     0.044 C 
ATOM     33  C   UNL A   1      33.685  21.462  24.250  1.00  0.00    -0.051 A 
ATOM     34  C   UNL A   1      32.388  21.437  23.734  1.00  0.00     0.005 A 
ATOM     35  C   UNL A   1      34.443  22.631  24.132  1.00  0.00     0.005 A 
ATOM     36  C   UNL A   1      31.870  22.555  23.086  1.00  0.00     0.026 A 
ATOM     37  C   UNL A   1      33.933  23.737  23.448  1.00  0.00     0.026 A 
ENDBRANCH  28  31
ENDBRANCH  26  27
ENDBRANCH  19  26
ENDBRANCH  11  18
ENDBRANCH   9  10
ENDBRANCH   8   9
ENDBRANCH   6   8
ENDBRANCH   5   6
ENDBRANCH   4   5
ENDBRANCH   3   4
ENDBRANCH   2   3
ENDBRANCH   1   2
BRANCH   1  38
ATOM     38  C   UNL A   1      42.248  26.674  28.816  1.00  0.00     0.188 C 
BRANCH  38  39
ATOM     39  O   UNL A   1      42.346  25.266  28.782  1.00  0.00    -0.377 OA
BRANCH  39  40
ATOM     40  C   UNL A   1      42.589  24.774  27.448  1.00  0.00     0.188 C 
BRANCH  40  41
ATOM     41  C   UNL A   1      43.952  25.266  27.045  1.00  0.00     0.188 C 
BRANCH  41  42
ATOM     42  O   UNL A   1      43.923  25.512  25.651  1.00  0.00    -0.376 OA
BRANCH  42  43
ATOM     43  C   UNL A   1      44.789  26.508  25.187  1.00  0.00     0.202 C 
BRANCH  43  44
ATOM     44  C   UNL A   1      45.263  27.387  26.333  1.00  0.00     0.261 C 
BRANCH  44  45
ATOM     45  O   UNL A   1      44.817  28.745  26.096  1.00  0.00    -0.460 OA
BRANCH  45  46
ATOM     46  C   UNL A   1      45.590  29.705  26.689  1.00  0.00     0.338 C 
ATOM     47  O   UNL A   1      46.807  29.747  26.602  1.00  0.00    -0.246 OA
BRANCH  46  48
ATOM     48  C   UNL A   1      44.783  30.581  27.605  1.00  0.00     0.060 A 
ATOM     49  C   UNL A   1      44.379  31.855  27.157  1.00  0.00     0.016 A 
ATOM     50  C   UNL A   1      44.767  30.303  28.967  1.00  0.00     0.016 A 
ATOM     51  C   UNL A   1      44.177  32.908  28.074  1.00  0.00     0.010 A 
ATOM     52  C   UNL A   1      44.674  31.369  29.852  1.00  0.00     0.010 A 
ATOM     53  C   UNL A   1      44.411  32.689  29.429  1.00  0.00    -0.014 A 
BRANCH  53  54
ATOM     54  C   UNL A   1      44.479  33.725  30.494  1.00  0.00     0.031 A 
ATOM     55  C   UNL A   1      43.227  34.038  31.232  1.00  0.00     0.074 A 
ATOM     56  C   UNL A   1      45.668  34.069  31.056  1.00  0.00     0.049 A 
ATOM     57  N   UNL A   1      43.160  34.751  32.298  1.00  0.00    -0.248 NA
ATOM     58  C   UNL A   1      41.927  33.496  30.862  1.00  0.00     0.031 C 
ATOM     59  C   UNL A   1      45.963  34.492  32.439  1.00  0.00     0.029 A 
ATOM     60  N   UNL A   1      46.943  33.915  30.527  1.00  0.00    -0.354 N 
ATOM     61  C   UNL A   1      41.942  34.550  32.913  1.00  0.00     0.074 A 
ATOM     62  C   UNL A   1      41.199  33.780  31.947  1.00  0.00     0.031 C 
ATOM     63  C   UNL A   1      47.281  34.672  32.623  1.00  0.00     0.029 A 
ATOM     64  C   UNL A   1      47.865  34.656  31.306  1.00  0.00     0.049 A 
ATOM     65  H   UNL A   1      47.172  33.376  29.735  1.00  0.00     0.167 HD
ATOM     66  C   UNL A   1      41.797  34.982  34.206  1.00  0.00     0.034 A 
ATOM     67  C   UNL A   1      48.478  35.740  30.749  1.00  0.00     0.034 A 
ATOM     68  C   UNL A   1      42.974  35.795  34.623  1.00  0.00     0.049 A 
ATOM     69  C   UNL A   1      47.784  37.009  31.273  1.00  0.00     0.074 A 
ATOM     70  C   UNL A   1      43.869  35.815  35.681  1.00  0.00     0.029 A 
ATOM     71  N   UNL A   1      43.477  36.740  33.716  1.00  0.00    -0.354 N 
ATOM     72  N   UNL A   1      46.583  37.006  31.815  1.00  0.00    -0.248 NA
ATOM     73  C   UNL A   1      48.438  38.303  31.456  1.00  0.00     0.031 C 
ATOM     74  C   UNL A   1      44.968  36.667  35.326  1.00  0.00     0.029 A 
ATOM     75  C   UNL A   1      44.704  37.240  34.090  1.00  0.00     0.049 A 
ATOM     76  H   UNL A   1      43.003  37.016  32.900  1.00  0.00     0.167 HD
ATOM     77  C   UNL A   1      46.361  38.153  32.523  1.00  0.00     0.074 A 
ATOM     78  C   UNL A   1      47.539  38.956  32.221  1.00  0.00     0.031 C 
ATOM     79  C   UNL A   1      45.285  38.361  33.354  1.00  0.00     0.034 A 
BRANCH  66  80
ATOM     80  C   UNL A   1      40.670  34.580  35.170  1.00  0.00     0.023 A 
ATOM     81  C   UNL A   1      40.196  33.247  35.179  1.00  0.00     0.031 A 
ATOM     82  C   UNL A   1      39.996  35.425  36.082  1.00  0.00     0.131 A 
ATOM     83  C   UNL A   1      39.116  32.830  35.993  1.00  0.00     0.055 A 
ATOM     84  C   UNL A   1      38.921  35.015  36.890  1.00  0.00     0.041 A 
ATOM     85  F   UNL A   1      40.345  36.693  36.286  1.00  0.00    -0.206 F 
ATOM     86  C   UNL A   1      38.470  33.711  36.847  1.00  0.00     0.022 A 
BRANCH  83  87
ATOM     87  S   UNL A   1      38.571  31.098  35.934  1.00  0.00     0.124 S 
ATOM     88  O   UNL A   1      39.802  30.378  36.243  1.00  0.00    -0.237 OA
ATOM     89  O   UNL A   1      37.530  31.064  36.955  1.00  0.00    -0.237 OA
ATOM     90  O   UNL A   1      38.090  30.938  34.561  1.00  0.00    -0.744 OA
ENDBRANCH  83  87
ENDBRANCH  66  80
BRANCH  67  91
ATOM     91  C   UNL A   1      49.057  35.310  29.421  1.00  0.00     0.023 A 
ATOM     92  C   UNL A   1      48.304  35.735  28.280  1.00  0.00     0.031 A 
ATOM     93  C   UNL A   1      50.448  35.207  29.256  1.00  0.00     0.131 A 
ATOM     94  C   UNL A   1      48.948  36.262  27.138  1.00  0.00     0.055 A 
ATOM     95  C   UNL A   1      51.083  35.717  28.107  1.00  0.00     0.041 A 
ATOM     96  F   UNL A   1      51.227  34.820  30.277  1.00  0.00    -0.206 F 
ATOM     97  C   UNL A   1      50.342  36.299  27.075  1.00  0.00     0.022 A 
BRANCH  94  98
ATOM     98  S   UNL A   1      47.982  37.247  25.919  1.00  0.00     0.124 S 
ATOM     99  O   UNL A   1      48.939  37.444  24.839  1.00  0.00    -0.237 OA
ATOM    100  O   UNL A   1      46.847  36.381  25.615  1.00  0.00    -0.237 OA
ATOM    101  O   UNL A   1      47.626  38.452  26.668  1.00  0.00    -0.744 OA
ENDBRANCH  94  98
ENDBRANCH  67  91
BRANCH  79 102
ATOM    102  C   UNL A   1      44.637  39.717  33.557  1.00  0.00     0.023 A 
ATOM    103  C   UNL A   1      43.848  40.311  32.575  1.00  0.00     0.031 A 
ATOM    104  C   UNL A   1      44.656  40.393  34.809  1.00  0.00     0.131 A 
ATOM    105  C   UNL A   1      43.189  41.526  32.800  1.00  0.00     0.055 A 
ATOM    106  C   UNL A   1      43.928  41.558  35.061  1.00  0.00     0.041 A 
ATOM    107  F   UNL A   1      45.346  39.946  35.867  1.00  0.00    -0.206 F 
ATOM    108  C   UNL A   1      43.197  42.144  34.044  1.00  0.00     0.022 A 
BRANCH 105 109
ATOM    109  S   UNL A   1      42.374  42.276  31.379  1.00  0.00     0.124 S 
ATOM    110  O   UNL A   1      43.365  42.069  30.326  1.00  0.00    -0.237 OA
ATOM    111  O   UNL A   1      41.157  41.479  31.263  1.00  0.00    -0.237 OA
ATOM    112  O   UNL A   1      42.178  43.664  31.790  1.00  0.00    -0.744 OA
ENDBRANCH 105 109
ENDBRANCH  79 102
ENDBRANCH  53  54
ENDBRANCH  46  48
ENDBRANCH  45  46
ENDBRANCH  44  45
ENDBRANCH  43  44
ENDBRANCH  42  43
ENDBRANCH  41  42
ENDBRANCH  40  41
ENDBRANCH  39  40
ENDBRANCH  38  39
ENDBRANCH   1  38
TORSDOF 29
ENDMDL
