MODEL 1
REMARK VINA RESULT:      -8.8      0.000      0.000
REMARK SMILES Cc1ccccc1OC1(C(=O)OCCOCCOCCOCCOC(=O)c2ccc(-c3c4nc(c(-c5cc(S(=O)(=O)[O-])ccc5F)c5ccc([nH]5)c(-c5cc(S(=O)(=O)[O-])ccc5F)c5nc(c(-c6cc(S(=O)(=O)[O-])ccc6F)c6ccc3[nH]6)C=C5)C=C4)cc2)CCN(C(=O)[C@H]2CCCCO2)CC1
REMARK SMILES IDX 19 1 18 2 17 3 16 4 15 5 14 6 13 7 12 8 10 9 11 10 9 11
REMARK SMILES IDX 90 12 102 13 91 14 101 15 92 16 93 17 94 18 8 19 7 20 1 21
REMARK SMILES IDX 2 22 3 23 4 24 6 25 5 26 95 27 96 28 100 29 97 30 99 31
REMARK SMILES IDX 98 32 20 33 21 34 22 35 23 36 24 37 25 38 26 39 27 40 28 41
REMARK SMILES IDX 89 42 29 43 88 44 30 45 31 46 32 47 82 48 33 49 87 50 81 51
REMARK SMILES IDX 83 52 34 53 86 54 80 55 79 56 35 58 67 59 47 60 66 61 48 62
REMARK SMILES IDX 51 63 65 64 84 65 49 66 50 67 64 69 85 70 52 71 36 72 37 73
REMARK SMILES IDX 45 74 38 75 44 76 46 77 43 78 39 79 40 80 41 81 42 82 68 83
REMARK SMILES IDX 69 84 77 85 70 86 76 87 78 88 75 89 71 90 72 91 73 92 74 93
REMARK SMILES IDX 53 94 54 95 62 96 55 97 61 98 63 99 60 100 56 101 57 102
REMARK SMILES IDX 58 103 59 104
REMARK H PARENT 83 57 51 68
REMARK Flexibility Score: inf
ROOT
ATOM      1  C   UNL A   1      35.580  33.757  29.704  1.00  0.00     0.188 C 
ENDROOT
BRANCH   1   2
ATOM      2  O   UNL A   1      35.282  33.569  28.322  1.00  0.00    -0.377 OA
BRANCH   2   3
ATOM      3  C   UNL A   1      35.853  32.381  27.792  1.00  0.00     0.188 C 
BRANCH   3   4
ATOM      4  C   UNL A   1      35.433  31.103  28.529  1.00  0.00     0.188 C 
BRANCH   4   5
ATOM      5  O   UNL A   1      34.513  30.244  27.859  1.00  0.00    -0.376 OA
BRANCH   5   6
ATOM      6  C   UNL A   1      33.330  30.884  27.375  1.00  0.00     0.202 C 
BRANCH   6   7
ATOM      7  C   UNL A   1      32.631  30.161  26.226  1.00  0.00     0.261 C 
BRANCH   7   8
ATOM      8  O   UNL A   1      33.517  29.181  25.677  1.00  0.00    -0.460 OA
BRANCH   8   9
ATOM      9  C   UNL A   1      33.449  28.943  24.343  1.00  0.00     0.350 C 
ATOM     10  O   UNL A   1      33.660  29.782  23.501  1.00  0.00    -0.247 OA
BRANCH   9  11
ATOM     11  C   UNL A   1      33.149  27.433  24.099  1.00  0.00     0.209 C 
ATOM     12  C   UNL A   1      33.316  27.075  22.612  1.00  0.00     0.082 C 
ATOM     13  C   UNL A   1      34.200  26.628  24.881  1.00  0.00     0.082 C 
ATOM     14  C   UNL A   1      33.838  25.698  22.224  1.00  0.00     0.124 C 
ATOM     15  C   UNL A   1      34.064  25.122  24.651  1.00  0.00     0.124 C 
ATOM     16  N   UNL A   1      33.806  24.699  23.274  1.00  0.00    -0.340 N 
ATOM     17  C   UNL A   1      33.584  23.375  22.869  1.00  0.00     0.251 C 
ATOM     18  O   UNL A   1      33.433  23.074  21.681  1.00  0.00    -0.272 OA
BRANCH  11  19
ATOM     19  O   UNL A   1      31.884  27.029  24.651  1.00  0.00    -0.475 OA
BRANCH  19  20
ATOM     20  C   UNL A   1      30.698  27.108  23.965  1.00  0.00     0.123 A 
ATOM     21  C   UNL A   1      30.281  24.668  24.508  1.00  0.00     0.048 C 
ATOM     22  C   UNL A   1      29.815  26.030  24.118  1.00  0.00    -0.009 A 
ATOM     23  C   UNL A   1      28.436  26.214  23.948  1.00  0.00     0.007 A 
ATOM     24  C   UNL A   1      27.934  27.446  23.554  1.00  0.00     0.001 A 
ATOM     25  C   UNL A   1      30.190  28.319  23.488  1.00  0.00     0.047 A 
ATOM     26  C   UNL A   1      28.815  28.481  23.268  1.00  0.00     0.004 A 
ENDBRANCH  19  20
ENDBRANCH  11  19
BRANCH  17  27
ATOM     27  C   UNL A   1      33.414  22.303  23.965  1.00  0.00     0.207 C 
ATOM     28  C   UNL A   1      32.426  21.252  23.444  1.00  0.00     0.042 C 
ATOM     29  O   UNL A   1      34.668  21.665  24.247  1.00  0.00    -0.368 OA
ATOM     30  C   UNL A   1      32.284  20.077  24.396  1.00  0.00     0.006 C 
ATOM     31  C   UNL A   1      34.567  20.640  25.227  1.00  0.00     0.161 C 
ATOM     32  C   UNL A   1      33.655  19.521  24.743  1.00  0.00     0.029 C 
ENDBRANCH  17  27
ENDBRANCH   9  11
ENDBRANCH   8   9
ENDBRANCH   7   8
ENDBRANCH   6   7
ENDBRANCH   5   6
ENDBRANCH   4   5
ENDBRANCH   3   4
ENDBRANCH   2   3
ENDBRANCH   1   2
BRANCH   1  33
ATOM     33  C   UNL A   1      34.296  33.974  30.487  1.00  0.00     0.188 C 
BRANCH  33  34
ATOM     34  O   UNL A   1      34.076  33.089  31.583  1.00  0.00    -0.376 OA
BRANCH  34  35
ATOM     35  C   UNL A   1      34.956  33.116  32.694  1.00  0.00     0.202 C 
BRANCH  35  36
ATOM     36  C   UNL A   1      35.991  31.990  32.735  1.00  0.00     0.261 C 
BRANCH  36  37
ATOM     37  O   UNL A   1      36.975  32.276  33.751  1.00  0.00    -0.460 OA
BRANCH  37  38
ATOM     38  C   UNL A   1      38.208  31.740  33.530  1.00  0.00     0.338 C 
ATOM     39  O   UNL A   1      38.738  30.908  34.246  1.00  0.00    -0.246 OA
BRANCH  38  40
ATOM     40  C   UNL A   1      38.872  32.420  32.375  1.00  0.00     0.060 A 
ATOM     41  C   UNL A   1      39.578  31.661  31.425  1.00  0.00     0.016 A 
ATOM     42  C   UNL A   1      39.056  33.797  32.419  1.00  0.00     0.016 A 
ATOM     43  C   UNL A   1      40.605  32.254  30.666  1.00  0.00     0.010 A 
ATOM     44  C   UNL A   1      40.137  34.345  31.749  1.00  0.00     0.010 A 
ATOM     45  C   UNL A   1      40.965  33.581  30.908  1.00  0.00    -0.014 A 
BRANCH  45  46
ATOM     46  C   UNL A   1      42.281  34.191  30.577  1.00  0.00     0.031 A 
ATOM     47  C   UNL A   1      42.415  35.052  29.342  1.00  0.00     0.074 A 
ATOM     48  C   UNL A   1      43.216  34.268  31.566  1.00  0.00     0.049 A 
ATOM     49  N   UNL A   1      43.464  35.721  28.997  1.00  0.00    -0.248 NA
ATOM     50  C   UNL A   1      41.335  35.249  28.369  1.00  0.00     0.031 C 
ATOM     51  C   UNL A   1      44.246  35.296  31.717  1.00  0.00     0.029 A 
ATOM     52  N   UNL A   1      43.433  33.462  32.689  1.00  0.00    -0.354 N 
ATOM     53  C   UNL A   1      43.117  36.653  28.027  1.00  0.00     0.074 A 
ATOM     54  C   UNL A   1      41.800  36.250  27.612  1.00  0.00     0.031 C 
ATOM     55  C   UNL A   1      44.990  35.071  32.808  1.00  0.00     0.029 A 
ATOM     56  C   UNL A   1      44.723  33.721  33.200  1.00  0.00     0.049 A 
ATOM     57  H   UNL A   1      42.789  32.818  33.062  1.00  0.00     0.167 HD
ATOM     58  C   UNL A   1      43.940  37.726  27.791  1.00  0.00     0.034 A 
ATOM     59  C   UNL A   1      45.708  32.772  33.147  1.00  0.00     0.034 A 
ATOM     60  C   UNL A   1      45.225  37.579  28.496  1.00  0.00     0.049 A 
ATOM     61  C   UNL A   1      46.758  33.104  32.075  1.00  0.00     0.074 A 
ATOM     62  C   UNL A   1      45.978  38.374  29.344  1.00  0.00     0.029 A 
ATOM     63  N   UNL A   1      45.866  36.343  28.469  1.00  0.00    -0.354 N 
ATOM     64  N   UNL A   1      46.548  33.984  31.117  1.00  0.00    -0.248 NA
ATOM     65  C   UNL A   1      48.137  32.621  32.045  1.00  0.00     0.031 C 
ATOM     66  C   UNL A   1      46.989  37.552  29.927  1.00  0.00     0.029 A 
ATOM     67  C   UNL A   1      46.895  36.282  29.377  1.00  0.00     0.049 A 
ATOM     68  H   UNL A   1      45.612  35.603  27.871  1.00  0.00     0.167 HD
ATOM     69  C   UNL A   1      47.689  34.224  30.408  1.00  0.00     0.074 A 
ATOM     70  C   UNL A   1      48.656  33.326  31.018  1.00  0.00     0.031 C 
ATOM     71  C   UNL A   1      47.773  35.124  29.378  1.00  0.00     0.034 A 
BRANCH  58  72
ATOM     72  C   UNL A   1      43.580  39.033  27.068  1.00  0.00     0.023 A 
ATOM     73  C   UNL A   1      44.536  39.635  26.208  1.00  0.00     0.031 A 
ATOM     74  C   UNL A   1      42.411  39.799  27.266  1.00  0.00     0.131 A 
ATOM     75  C   UNL A   1      44.336  40.910  25.631  1.00  0.00     0.055 A 
ATOM     76  C   UNL A   1      42.184  41.040  26.640  1.00  0.00     0.041 A 
ATOM     77  F   UNL A   1      41.447  39.423  28.114  1.00  0.00    -0.206 F 
ATOM     78  C   UNL A   1      43.151  41.608  25.827  1.00  0.00     0.022 A 
BRANCH  75  79
ATOM     79  S   UNL A   1      45.664  41.677  24.650  1.00  0.00     0.124 S 
ATOM     80  O   UNL A   1      46.173  42.695  25.563  1.00  0.00    -0.237 OA
ATOM     81  O   UNL A   1      46.548  40.550  24.380  1.00  0.00    -0.237 OA
ATOM     82  O   UNL A   1      44.962  42.200  23.477  1.00  0.00    -0.744 OA
ENDBRANCH  75  79
ENDBRANCH  58  72
BRANCH  59  83
ATOM     83  C   UNL A   1      45.187  31.492  33.736  1.00  0.00     0.023 A 
ATOM     84  C   UNL A   1      44.661  31.665  35.049  1.00  0.00     0.031 A 
ATOM     85  C   UNL A   1      44.529  30.576  32.898  1.00  0.00     0.131 A 
ATOM     86  C   UNL A   1      43.357  31.228  35.345  1.00  0.00     0.055 A 
ATOM     87  C   UNL A   1      43.259  30.076  33.236  1.00  0.00     0.041 A 
ATOM     88  F   UNL A   1      44.984  30.341  31.659  1.00  0.00    -0.206 F 
ATOM     89  C   UNL A   1      42.636  30.468  34.422  1.00  0.00     0.022 A 
BRANCH  86  90
ATOM     90  S   UNL A   1      42.479  31.963  36.770  1.00  0.00     0.124 S 
ATOM     91  O   UNL A   1      41.311  32.559  36.132  1.00  0.00    -0.237 OA
ATOM     92  O   UNL A   1      42.228  30.809  37.625  1.00  0.00    -0.237 OA
ATOM     93  O   UNL A   1      43.457  32.904  37.315  1.00  0.00    -0.744 OA
ENDBRANCH  86  90
ENDBRANCH  59  83
BRANCH  71  94
ATOM     94  C   UNL A   1      48.729  34.986  28.215  1.00  0.00     0.023 A 
ATOM     95  C   UNL A   1      50.071  35.337  28.337  1.00  0.00     0.031 A 
ATOM     96  C   UNL A   1      48.371  34.340  27.001  1.00  0.00     0.131 A 
ATOM     97  C   UNL A   1      50.966  35.169  27.276  1.00  0.00     0.055 A 
ATOM     98  C   UNL A   1      49.292  34.068  25.986  1.00  0.00     0.041 A 
ATOM     99  F   UNL A   1      47.124  33.914  26.755  1.00  0.00    -0.206 F 
ATOM    100  C   UNL A   1      50.599  34.507  26.109  1.00  0.00     0.022 A 
BRANCH  97 101
ATOM    101  S   UNL A   1      52.580  35.954  27.447  1.00  0.00     0.124 S 
ATOM    102  O   UNL A   1      53.304  35.380  26.315  1.00  0.00    -0.237 OA
ATOM    103  O   UNL A   1      52.253  37.372  27.332  1.00  0.00    -0.237 OA
ATOM    104  O   UNL A   1      53.035  35.520  28.764  1.00  0.00    -0.744 OA
ENDBRANCH  97 101
ENDBRANCH  71  94
ENDBRANCH  45  46
ENDBRANCH  38  40
ENDBRANCH  37  38
ENDBRANCH  36  37
ENDBRANCH  35  36
ENDBRANCH  34  35
ENDBRANCH  33  34
ENDBRANCH   1  33
TORSDOF 26
ENDMDL
MODEL 2
REMARK VINA RESULT:      -8.7     10.019     15.895
REMARK SMILES Cc1ccccc1OC1(C(=O)OCCOCCOCCOCCOC(=O)c2ccc(-c3c4nc(c(-c5cc(S(=O)(=O)[O-])ccc5F)c5ccc([nH]5)c(-c5cc(S(=O)(=O)[O-])ccc5F)c5nc(c(-c6cc(S(=O)(=O)[O-])ccc6F)c6ccc3[nH]6)C=C5)C=C4)cc2)CCN(C(=O)[C@H]2CCCCO2)CC1
REMARK SMILES IDX 19 1 18 2 17 3 16 4 15 5 14 6 13 7 12 8 10 9 11 10 9 11
REMARK SMILES IDX 90 12 102 13 91 14 101 15 92 16 93 17 94 18 8 19 7 20 1 21
REMARK SMILES IDX 2 22 3 23 4 24 6 25 5 26 95 27 96 28 100 29 97 30 99 31
REMARK SMILES IDX 98 32 20 33 21 34 22 35 23 36 24 37 25 38 26 39 27 40 28 41
REMARK SMILES IDX 89 42 29 43 88 44 30 45 31 46 32 47 82 48 33 49 87 50 81 51
REMARK SMILES IDX 83 52 34 53 86 54 80 55 79 56 35 58 67 59 47 60 66 61 48 62
REMARK SMILES IDX 51 63 65 64 84 65 49 66 50 67 64 69 85 70 52 71 36 72 37 73
REMARK SMILES IDX 45 74 38 75 44 76 46 77 43 78 39 79 40 80 41 81 42 82 68 83
REMARK SMILES IDX 69 84 77 85 70 86 76 87 78 88 75 89 71 90 72 91 73 92 74 93
REMARK SMILES IDX 53 94 54 95 62 96 55 97 61 98 63 99 60 100 56 101 57 102
REMARK SMILES IDX 58 103 59 104
REMARK H PARENT 83 57 51 68
REMARK Flexibility Score: inf
ROOT
ATOM      1  C   UNL A   1      50.231  25.092  35.951  1.00  0.00     0.188 C 
ENDROOT
BRANCH   1   2
ATOM      2  O   UNL A   1      50.311  23.668  36.006  1.00  0.00    -0.377 OA
BRANCH   2   3
ATOM      3  C   UNL A   1      49.835  23.136  37.234  1.00  0.00     0.188 C 
BRANCH   3   4
ATOM      4  C   UNL A   1      48.538  22.328  37.104  1.00  0.00     0.188 C 
BRANCH   4   5
ATOM      5  O   UNL A   1      48.652  20.909  37.171  1.00  0.00    -0.376 OA
BRANCH   5   6
ATOM      6  C   UNL A   1      48.065  20.308  38.327  1.00  0.00     0.202 C 
BRANCH   6   7
ATOM      7  C   UNL A   1      48.930  19.254  39.014  1.00  0.00     0.261 C 
BRANCH   7   8
ATOM      8  O   UNL A   1      48.095  18.396  39.796  1.00  0.00    -0.460 OA
BRANCH   8   9
ATOM      9  C   UNL A   1      47.856  18.747  41.085  1.00  0.00     0.350 C 
ATOM     10  O   UNL A   1      48.352  19.709  41.620  1.00  0.00    -0.247 OA
BRANCH   9  11
ATOM     11  C   UNL A   1      46.801  17.779  41.700  1.00  0.00     0.209 C 
ATOM     12  C   UNL A   1      45.696  18.565  42.430  1.00  0.00     0.082 C 
ATOM     13  C   UNL A   1      46.131  17.034  40.533  1.00  0.00     0.082 C 
ATOM     14  C   UNL A   1      44.269  18.036  42.425  1.00  0.00     0.124 C 
ATOM     15  C   UNL A   1      45.008  16.110  41.005  1.00  0.00     0.124 C 
ATOM     16  N   UNL A   1      44.118  16.648  42.035  1.00  0.00    -0.340 N 
ATOM     17  C   UNL A   1      43.074  15.938  42.645  1.00  0.00     0.251 C 
ATOM     18  O   UNL A   1      42.316  16.468  43.463  1.00  0.00    -0.272 OA
BRANCH  11  19
ATOM     19  O   UNL A   1      47.402  16.750  42.504  1.00  0.00    -0.475 OA
BRANCH  19  20
ATOM     20  C   UNL A   1      47.472  16.802  43.874  1.00  0.00     0.123 A 
ATOM     21  C   UNL A   1      46.413  14.501  43.961  1.00  0.00     0.048 C 
ATOM     22  C   UNL A   1      47.222  15.603  44.557  1.00  0.00    -0.009 A 
ATOM     23  C   UNL A   1      47.772  15.384  45.827  1.00  0.00     0.007 A 
ATOM     24  C   UNL A   1      48.508  16.377  46.456  1.00  0.00     0.001 A 
ATOM     25  C   UNL A   1      48.143  17.823  44.550  1.00  0.00     0.047 A 
ATOM     26  C   UNL A   1      48.644  17.616  45.842  1.00  0.00     0.004 A 
ENDBRANCH  19  20
ENDBRANCH  11  19
BRANCH  17  27
ATOM     27  C   UNL A   1      42.961  14.427  42.353  1.00  0.00     0.207 C 
ATOM     28  C   UNL A   1      42.874  13.696  43.699  1.00  0.00     0.042 C 
ATOM     29  O   UNL A   1      41.778  14.146  41.592  1.00  0.00    -0.368 OA
ATOM     30  C   UNL A   1      42.629  12.207  43.526  1.00  0.00     0.006 C 
ATOM     31  C   UNL A   1      41.600  12.761  41.324  1.00  0.00     0.161 C 
ATOM     32  C   UNL A   1      41.432  11.979  42.619  1.00  0.00     0.029 C 
ENDBRANCH  17  27
ENDBRANCH   9  11
ENDBRANCH   8   9
ENDBRANCH   7   8
ENDBRANCH   6   7
ENDBRANCH   5   6
ENDBRANCH   4   5
ENDBRANCH   3   4
ENDBRANCH   2   3
ENDBRANCH   1   2
BRANCH   1  33
ATOM     33  C   UNL A   1      49.012  25.513  35.147  1.00  0.00     0.188 C 
BRANCH  33  34
ATOM     34  O   UNL A   1      48.196  26.524  35.734  1.00  0.00    -0.376 OA
BRANCH  34  35
ATOM     35  C   UNL A   1      48.140  26.647  37.145  1.00  0.00     0.202 C 
BRANCH  35  36
ATOM     36  C   UNL A   1      47.101  25.762  37.837  1.00  0.00     0.261 C 
BRANCH  36  37
ATOM     37  O   UNL A   1      45.862  25.806  37.098  1.00  0.00    -0.460 OA
BRANCH  37  38
ATOM     38  C   UNL A   1      44.750  25.473  37.812  1.00  0.00     0.338 C 
ATOM     39  O   UNL A   1      44.632  24.455  38.472  1.00  0.00    -0.246 OA
BRANCH  38  40
ATOM     40  C   UNL A   1      43.653  26.456  37.554  1.00  0.00     0.060 A 
ATOM     41  C   UNL A   1      42.388  26.003  37.138  1.00  0.00     0.016 A 
ATOM     42  C   UNL A   1      43.972  27.802  37.419  1.00  0.00     0.016 A 
ATOM     43  C   UNL A   1      41.535  26.855  36.411  1.00  0.00     0.010 A 
ATOM     44  C   UNL A   1      43.175  28.597  36.613  1.00  0.00     0.010 A 
ATOM     45  C   UNL A   1      41.976  28.129  36.047  1.00  0.00    -0.014 A 
BRANCH  45  46
ATOM     46  C   UNL A   1      41.442  28.936  34.917  1.00  0.00     0.031 A 
ATOM     47  C   UNL A   1      41.921  28.658  33.510  1.00  0.00     0.074 A 
ATOM     48  C   UNL A   1      40.288  29.632  35.118  1.00  0.00     0.049 A 
ATOM     49  N   UNL A   1      41.468  29.208  32.434  1.00  0.00    -0.248 NA
ATOM     50  C   UNL A   1      42.978  27.692  33.190  1.00  0.00     0.031 C 
ATOM     51  C   UNL A   1      39.272  29.949  34.115  1.00  0.00     0.029 A 
ATOM     52  N   UNL A   1      39.740  30.184  36.281  1.00  0.00    -0.354 N 
ATOM     53  C   UNL A   1      41.880  28.471  31.331  1.00  0.00     0.074 A 
ATOM     54  C   UNL A   1      42.892  27.594  31.857  1.00  0.00     0.031 C 
ATOM     55  C   UNL A   1      38.261  30.639  34.658  1.00  0.00     0.029 A 
ATOM     56  C   UNL A   1      38.736  31.109  35.923  1.00  0.00     0.049 A 
ATOM     57  H   UNL A   1      40.011  29.962  37.201  1.00  0.00     0.167 HD
ATOM     58  C   UNL A   1      41.219  28.610  30.137  1.00  0.00     0.034 A 
ATOM     59  C   UNL A   1      38.895  32.449  36.154  1.00  0.00     0.034 A 
ATOM     60  C   UNL A   1      40.271  29.737  30.177  1.00  0.00     0.049 A 
ATOM     61  C   UNL A   1      39.179  33.218  34.854  1.00  0.00     0.074 A 
ATOM     62  C   UNL A   1      38.931  29.905  29.873  1.00  0.00     0.029 A 
ATOM     63  N   UNL A   1      40.682  30.936  30.752  1.00  0.00    -0.354 N 
ATOM     64  N   UNL A   1      39.558  32.625  33.740  1.00  0.00    -0.248 NA
ATOM     65  C   UNL A   1      38.940  34.642  34.629  1.00  0.00     0.031 C 
ATOM     66  C   UNL A   1      38.521  31.166  30.403  1.00  0.00     0.029 A 
ATOM     67  C   UNL A   1      39.626  31.790  30.960  1.00  0.00     0.049 A 
ATOM     68  H   UNL A   1      41.616  31.147  30.981  1.00  0.00     0.167 HD
ATOM     69  C   UNL A   1      39.572  33.500  32.694  1.00  0.00     0.074 A 
ATOM     70  C   UNL A   1      39.194  34.761  33.309  1.00  0.00     0.031 C 
ATOM     71  C   UNL A   1      39.889  33.147  31.408  1.00  0.00     0.034 A 
BRANCH  58  72
ATOM     72  C   UNL A   1      41.255  27.650  28.937  1.00  0.00     0.023 A 
ATOM     73  C   UNL A   1      42.247  27.826  27.938  1.00  0.00     0.031 A 
ATOM     74  C   UNL A   1      40.300  26.653  28.641  1.00  0.00     0.131 A 
ATOM     75  C   UNL A   1      42.249  27.082  26.736  1.00  0.00     0.055 A 
ATOM     76  C   UNL A   1      40.339  25.868  27.472  1.00  0.00     0.041 A 
ATOM     77  F   UNL A   1      39.246  26.417  29.431  1.00  0.00    -0.206 F 
ATOM     78  C   UNL A   1      41.308  26.086  26.506  1.00  0.00     0.022 A 
BRANCH  75  79
ATOM     79  S   UNL A   1      43.472  27.459  25.441  1.00  0.00     0.124 S 
ATOM     80  O   UNL A   1      44.192  26.196  25.320  1.00  0.00    -0.237 OA
ATOM     81  O   UNL A   1      42.631  27.836  24.312  1.00  0.00    -0.237 OA
ATOM     82  O   UNL A   1      44.252  28.556  26.017  1.00  0.00    -0.744 OA
ENDBRANCH  75  79
ENDBRANCH  58  72
BRANCH  59  83
ATOM     83  C   UNL A   1      39.274  32.657  37.593  1.00  0.00     0.023 A 
ATOM     84  C   UNL A   1      40.313  33.618  37.754  1.00  0.00     0.031 A 
ATOM     85  C   UNL A   1      38.266  32.633  38.572  1.00  0.00     0.131 A 
ATOM     86  C   UNL A   1      40.131  34.707  38.627  1.00  0.00     0.055 A 
ATOM     87  C   UNL A   1      38.136  33.683  39.497  1.00  0.00     0.041 A 
ATOM     88  F   UNL A   1      37.272  31.736  38.500  1.00  0.00    -0.206 F 
ATOM     89  C   UNL A   1      39.020  34.763  39.471  1.00  0.00     0.022 A 
BRANCH  86  90
ATOM     90  S   UNL A   1      41.144  36.210  38.391  1.00  0.00     0.124 S 
ATOM     91  O   UNL A   1      40.126  37.231  38.171  1.00  0.00    -0.237 OA
ATOM     92  O   UNL A   1      41.886  36.299  39.643  1.00  0.00    -0.237 OA
ATOM     93  O   UNL A   1      41.972  35.875  37.232  1.00  0.00    -0.744 OA
ENDBRANCH  86  90
ENDBRANCH  59  83
BRANCH  71  94
ATOM     94  C   UNL A   1      40.516  34.092  30.407  1.00  0.00     0.023 A 
ATOM     95  C   UNL A   1      41.899  34.215  30.299  1.00  0.00     0.031 A 
ATOM     96  C   UNL A   1      39.760  34.770  29.414  1.00  0.00     0.131 A 
ATOM     97  C   UNL A   1      42.482  35.056  29.346  1.00  0.00     0.055 A 
ATOM     98  C   UNL A   1      40.348  35.516  28.390  1.00  0.00     0.041 A 
ATOM     99  F   UNL A   1      38.421  34.715  29.370  1.00  0.00    -0.206 F 
ATOM    100  C   UNL A   1      41.722  35.685  28.365  1.00  0.00     0.022 A 
BRANCH  97 101
ATOM    101  S   UNL A   1      44.247  35.375  29.520  1.00  0.00     0.124 S 
ATOM    102  O   UNL A   1      44.522  34.786  30.830  1.00  0.00    -0.237 OA
ATOM    103  O   UNL A   1      44.810  34.661  28.378  1.00  0.00    -0.237 OA
ATOM    104  O   UNL A   1      44.342  36.831  29.458  1.00  0.00    -0.744 OA
ENDBRANCH  97 101
ENDBRANCH  71  94
ENDBRANCH  45  46
ENDBRANCH  38  40
ENDBRANCH  37  38
ENDBRANCH  36  37
ENDBRANCH  35  36
ENDBRANCH  34  35
ENDBRANCH  33  34
ENDBRANCH   1  33
TORSDOF 26
ENDMDL
MODEL 3
REMARK VINA RESULT:      -8.3      9.556     15.685
REMARK SMILES Cc1ccccc1OC1(C(=O)OCCOCCOCCOCCOC(=O)c2ccc(-c3c4nc(c(-c5cc(S(=O)(=O)[O-])ccc5F)c5ccc([nH]5)c(-c5cc(S(=O)(=O)[O-])ccc5F)c5nc(c(-c6cc(S(=O)(=O)[O-])ccc6F)c6ccc3[nH]6)C=C5)C=C4)cc2)CCN(C(=O)[C@H]2CCCCO2)CC1
REMARK SMILES IDX 19 1 18 2 17 3 16 4 15 5 14 6 13 7 12 8 10 9 11 10 9 11
REMARK SMILES IDX 90 12 102 13 91 14 101 15 92 16 93 17 94 18 8 19 7 20 1 21
REMARK SMILES IDX 2 22 3 23 4 24 6 25 5 26 95 27 96 28 100 29 97 30 99 31
REMARK SMILES IDX 98 32 20 33 21 34 22 35 23 36 24 37 25 38 26 39 27 40 28 41
REMARK SMILES IDX 89 42 29 43 88 44 30 45 31 46 32 47 82 48 33 49 87 50 81 51
REMARK SMILES IDX 83 52 34 53 86 54 80 55 79 56 35 58 67 59 47 60 66 61 48 62
REMARK SMILES IDX 51 63 65 64 84 65 49 66 50 67 64 69 85 70 52 71 36 72 37 73
REMARK SMILES IDX 45 74 38 75 44 76 46 77 43 78 39 79 40 80 41 81 42 82 68 83
REMARK SMILES IDX 69 84 77 85 70 86 76 87 78 88 75 89 71 90 72 91 73 92 74 93
REMARK SMILES IDX 53 94 54 95 62 96 55 97 61 98 63 99 60 100 56 101 57 102
REMARK SMILES IDX 58 103 59 104
REMARK H PARENT 83 57 51 68
REMARK Flexibility Score: inf
ROOT
ATOM      1  C   UNL A   1      50.309  25.142  35.898  1.00  0.00     0.188 C 
ENDROOT
BRANCH   1   2
ATOM      2  O   UNL A   1      50.474  23.725  35.905  1.00  0.00    -0.377 OA
BRANCH   2   3
ATOM      3  C   UNL A   1      49.950  23.115  37.075  1.00  0.00     0.188 C 
BRANCH   3   4
ATOM      4  C   UNL A   1      48.734  22.215  36.821  1.00  0.00     0.188 C 
BRANCH   4   5
ATOM      5  O   UNL A   1      48.934  20.809  36.947  1.00  0.00    -0.376 OA
BRANCH   5   6
ATOM      6  C   UNL A   1      48.145  20.174  37.955  1.00  0.00     0.202 C 
BRANCH   6   7
ATOM      7  C   UNL A   1      46.659  20.526  37.926  1.00  0.00     0.261 C 
BRANCH   7   8
ATOM      8  O   UNL A   1      46.023  19.981  39.085  1.00  0.00    -0.460 OA
BRANCH   8   9
ATOM      9  C   UNL A   1      45.656  18.675  39.052  1.00  0.00     0.350 C 
ATOM     10  O   UNL A   1      45.448  18.064  38.032  1.00  0.00    -0.247 OA
BRANCH   9  11
ATOM     11  C   UNL A   1      45.636  18.104  40.502  1.00  0.00     0.209 C 
ATOM     12  C   UNL A   1      46.685  16.989  40.665  1.00  0.00     0.082 C 
ATOM     13  C   UNL A   1      46.039  19.247  41.447  1.00  0.00     0.082 C 
ATOM     14  C   UNL A   1      47.400  16.819  41.998  1.00  0.00     0.124 C 
ATOM     15  C   UNL A   1      46.142  18.786  42.902  1.00  0.00     0.124 C 
ATOM     16  N   UNL A   1      46.789  17.492  43.126  1.00  0.00    -0.340 N 
ATOM     17  C   UNL A   1      46.920  16.865  44.374  1.00  0.00     0.251 C 
ATOM     18  O   UNL A   1      47.532  15.802  44.507  1.00  0.00    -0.272 OA
BRANCH  11  19
ATOM     19  O   UNL A   1      44.317  17.719  40.922  1.00  0.00    -0.475 OA
BRANCH  19  20
ATOM     20  C   UNL A   1      43.815  16.449  40.781  1.00  0.00     0.123 A 
ATOM     21  C   UNL A   1      43.390  16.395  43.279  1.00  0.00     0.048 C 
ATOM     22  C   UNL A   1      43.139  15.918  41.889  1.00  0.00    -0.009 A 
ATOM     23  C   UNL A   1      42.157  14.933  41.714  1.00  0.00     0.007 A 
ATOM     24  C   UNL A   1      41.894  14.418  40.453  1.00  0.00     0.001 A 
ATOM     25  C   UNL A   1      43.601  15.865  39.531  1.00  0.00     0.047 A 
ATOM     26  C   UNL A   1      42.656  14.842  39.371  1.00  0.00     0.004 A 
ENDBRANCH  19  20
ENDBRANCH  11  19
BRANCH  17  27
ATOM     27  C   UNL A   1      46.173  17.483  45.575  1.00  0.00     0.207 C 
ATOM     28  C   UNL A   1      45.157  16.451  46.075  1.00  0.00     0.042 C 
ATOM     29  O   UNL A   1      47.089  17.789  46.635  1.00  0.00    -0.368 OA
ATOM     30  C   UNL A   1      44.453  16.907  47.342  1.00  0.00     0.006 C 
ATOM     31  C   UNL A   1      46.453  18.328  47.787  1.00  0.00     0.161 C 
ATOM     32  C   UNL A   1      45.478  17.323  48.384  1.00  0.00     0.029 C 
ENDBRANCH  17  27
ENDBRANCH   9  11
ENDBRANCH   8   9
ENDBRANCH   7   8
ENDBRANCH   6   7
ENDBRANCH   5   6
ENDBRANCH   4   5
ENDBRANCH   3   4
ENDBRANCH   2   3
ENDBRANCH   1   2
BRANCH   1  33
ATOM     33  C   UNL A   1      49.132  25.524  35.016  1.00  0.00     0.188 C 
BRANCH  33  34
ATOM     34  O   UNL A   1      48.245  26.505  35.549  1.00  0.00    -0.376 OA
BRANCH  34  35
ATOM     35  C   UNL A   1      48.062  26.595  36.951  1.00  0.00     0.202 C 
BRANCH  35  36
ATOM     36  C   UNL A   1      47.006  25.654  37.534  1.00  0.00     0.261 C 
BRANCH  36  37
ATOM     37  O   UNL A   1      45.835  25.663  36.692  1.00  0.00    -0.460 OA
BRANCH  37  38
ATOM     38  C   UNL A   1      44.693  25.209  37.281  1.00  0.00     0.338 C 
ATOM     39  O   UNL A   1      44.597  24.146  37.871  1.00  0.00    -0.246 OA
BRANCH  38  40
ATOM     40  C   UNL A   1      43.550  26.124  36.978  1.00  0.00     0.060 A 
ATOM     41  C   UNL A   1      42.383  25.615  36.383  1.00  0.00     0.016 A 
ATOM     42  C   UNL A   1      43.765  27.497  36.991  1.00  0.00     0.016 A 
ATOM     43  C   UNL A   1      41.544  26.462  35.632  1.00  0.00     0.010 A 
ATOM     44  C   UNL A   1      42.996  28.298  36.164  1.00  0.00     0.010 A 
ATOM     45  C   UNL A   1      41.910  27.793  35.427  1.00  0.00    -0.014 A 
BRANCH  45  46
ATOM     46  C   UNL A   1      41.436  28.655  34.311  1.00  0.00     0.031 A 
ATOM     47  C   UNL A   1      41.970  28.430  32.915  1.00  0.00     0.074 A 
ATOM     48  C   UNL A   1      40.284  29.360  34.494  1.00  0.00     0.049 A 
ATOM     49  N   UNL A   1      41.570  29.032  31.845  1.00  0.00    -0.248 NA
ATOM     50  C   UNL A   1      43.026  27.462  32.597  1.00  0.00     0.031 C 
ATOM     51  C   UNL A   1      39.315  29.735  33.464  1.00  0.00     0.029 A 
ATOM     52  N   UNL A   1      39.695  29.870  35.655  1.00  0.00    -0.354 N 
ATOM     53  C   UNL A   1      42.018  28.336  30.730  1.00  0.00     0.074 A 
ATOM     54  C   UNL A   1      42.994  27.422  31.259  1.00  0.00     0.031 C 
ATOM     55  C   UNL A   1      38.292  30.416  33.994  1.00  0.00     0.029 A 
ATOM     56  C   UNL A   1      38.720  30.825  35.297  1.00  0.00     0.049 A 
ATOM     57  H   UNL A   1      39.924  29.605  36.576  1.00  0.00     0.167 HD
ATOM     58  C   UNL A   1      41.410  28.535  29.516  1.00  0.00     0.034 A 
ATOM     59  C   UNL A   1      38.887  32.152  35.591  1.00  0.00     0.034 A 
ATOM     60  C   UNL A   1      40.477  29.674  29.566  1.00  0.00     0.049 A 
ATOM     61  C   UNL A   1      39.236  32.971  34.338  1.00  0.00     0.074 A 
ATOM     62  C   UNL A   1      39.153  29.876  29.214  1.00  0.00     0.029 A 
ATOM     63  N   UNL A   1      40.879  30.842  30.208  1.00  0.00    -0.354 N 
ATOM     64  N   UNL A   1      39.654  32.419  33.217  1.00  0.00    -0.248 NA
ATOM     65  C   UNL A   1      39.027  34.407  34.165  1.00  0.00     0.031 C 
ATOM     66  C   UNL A   1      38.738  31.119  29.780  1.00  0.00     0.029 A 
ATOM     67  C   UNL A   1      39.828  31.702  30.409  1.00  0.00     0.049 A 
ATOM     68  H   UNL A   1      41.806  31.028  30.485  1.00  0.00     0.167 HD
ATOM     69  C   UNL A   1      39.723  33.337  32.211  1.00  0.00     0.074 A 
ATOM     70  C   UNL A   1      39.338  34.578  32.863  1.00  0.00     0.031 C 
ATOM     71  C   UNL A   1      40.089  33.035  30.925  1.00  0.00     0.034 A 
BRANCH  58  72
ATOM     72  C   UNL A   1      41.483  27.627  28.279  1.00  0.00     0.023 A 
ATOM     73  C   UNL A   1      41.779  26.249  28.448  1.00  0.00     0.031 A 
ATOM     74  C   UNL A   1      41.410  28.046  26.933  1.00  0.00     0.131 A 
ATOM     75  C   UNL A   1      42.011  25.387  27.352  1.00  0.00     0.055 A 
ATOM     76  C   UNL A   1      41.578  27.174  25.841  1.00  0.00     0.041 A 
ATOM     77  F   UNL A   1      41.228  29.328  26.594  1.00  0.00    -0.206 F 
ATOM     78  C   UNL A   1      41.892  25.839  26.044  1.00  0.00     0.022 A 
BRANCH  75  79
ATOM     79  S   UNL A   1      42.521  23.664  27.649  1.00  0.00     0.124 S 
ATOM     80  O   UNL A   1      42.716  23.645  29.094  1.00  0.00    -0.237 OA
ATOM     81  O   UNL A   1      41.385  22.907  27.139  1.00  0.00    -0.237 OA
ATOM     82  O   UNL A   1      43.748  23.531  26.862  1.00  0.00    -0.744 OA
ENDBRANCH  75  79
ENDBRANCH  58  72
BRANCH  59  83
ATOM     83  C   UNL A   1      39.208  32.293  37.052  1.00  0.00     0.023 A 
ATOM     84  C   UNL A   1      40.246  33.237  37.298  1.00  0.00     0.031 A 
ATOM     85  C   UNL A   1      38.160  32.234  37.987  1.00  0.00     0.131 A 
ATOM     86  C   UNL A   1      40.035  34.287  38.211  1.00  0.00     0.055 A 
ATOM     87  C   UNL A   1      38.000  33.243  38.952  1.00  0.00     0.041 A 
ATOM     88  F   UNL A   1      37.164  31.349  37.834  1.00  0.00    -0.206 F 
ATOM     89  C   UNL A   1      38.891  34.316  39.010  1.00  0.00     0.022 A 
BRANCH  86  90
ATOM     90  S   UNL A   1      41.067  35.791  38.083  1.00  0.00     0.124 S 
ATOM     91  O   UNL A   1      41.998  35.431  37.020  1.00  0.00    -0.237 OA
ATOM     92  O   UNL A   1      40.092  36.826  37.762  1.00  0.00    -0.237 OA
ATOM     93  O   UNL A   1      41.644  35.914  39.422  1.00  0.00    -0.744 OA
ENDBRANCH  86  90
ENDBRANCH  59  83
BRANCH  71  94
ATOM     94  C   UNL A   1      40.771  34.011  29.992  1.00  0.00     0.023 A 
ATOM     95  C   UNL A   1      42.154  34.001  29.821  1.00  0.00     0.031 A 
ATOM     96  C   UNL A   1      40.050  34.868  29.118  1.00  0.00     0.131 A 
ATOM     97  C   UNL A   1      42.782  34.874  28.927  1.00  0.00     0.055 A 
ATOM     98  C   UNL A   1      40.671  35.655  28.144  1.00  0.00     0.041 A 
ATOM     99  F   UNL A   1      38.713  34.958  29.143  1.00  0.00    -0.206 F 
ATOM    100  C   UNL A   1      42.052  35.681  28.060  1.00  0.00     0.022 A 
BRANCH  97 101
ATOM    101  S   UNL A   1      44.578  34.986  29.034  1.00  0.00     0.124 S 
ATOM    102  O   UNL A   1      44.863  36.028  28.049  1.00  0.00    -0.237 OA
ATOM    103  O   UNL A   1      44.786  35.365  30.429  1.00  0.00    -0.237 OA
ATOM    104  O   UNL A   1      45.029  33.645  28.674  1.00  0.00    -0.744 OA
ENDBRANCH  97 101
ENDBRANCH  71  94
ENDBRANCH  45  46
ENDBRANCH  38  40
ENDBRANCH  37  38
ENDBRANCH  36  37
ENDBRANCH  35  36
ENDBRANCH  34  35
ENDBRANCH  33  34
ENDBRANCH   1  33
TORSDOF 26
ENDMDL
