MODEL 1
REMARK VINA RESULT:      -9.3      0.000      0.000
REMARK SMILES O=CN1CCC[C@@H](C(=O)OCCOCCOCCOCCOC(=O)c2ccc(-c3c4nc(c(-c5cc(S(=O)(=O)[O-])ccc5F)c5ccc([nH]5)c(-c5cc(S(=O)(=O)[O-])ccc5F)c5nc(c(-c6cc(S(=O)(=O)[O-])ccc6F)c6ccc3[nH]6)C=C5)C=C4)cc2)C1
REMARK SMILES IDX 17 1 16 2 15 3 14 4 13 5 12 6 11 7 10 8 8 9 9 10 7 11 3 12
REMARK SMILES IDX 4 13 88 14 5 15 6 16 2 17 1 18 18 19 19 20 20 21 21 22 22 23
REMARK SMILES IDX 23 24 24 25 25 26 26 27 87 28 27 29 86 30 28 31 29 32 30 33
REMARK SMILES IDX 80 34 31 35 85 36 79 37 81 38 32 39 84 40 78 41 77 42 33 44
REMARK SMILES IDX 65 45 45 46 64 47 46 48 49 49 63 50 82 51 47 52 48 53 62 55
REMARK SMILES IDX 83 56 50 57 34 58 35 59 43 60 36 61 42 62 44 63 41 64 37 65
REMARK SMILES IDX 38 66 39 67 40 68 66 69 67 70 75 71 68 72 74 73 76 74 73 75
REMARK SMILES IDX 69 76 70 77 71 78 72 79 51 80 52 81 60 82 53 83 59 84 61 85
REMARK SMILES IDX 58 86 54 87 55 88 56 89 57 90
REMARK H PARENT 81 43 49 54
REMARK Flexibility Score: inf
ROOT
ATOM      1  C   UNL A   1      33.218  26.707  24.544  1.00  0.00     0.188 C 
ENDROOT
BRANCH   1   2
ATOM      2  O   UNL A   1      32.357  25.971  23.684  1.00  0.00    -0.377 OA
BRANCH   2   3
ATOM      3  C   UNL A   1      31.044  25.746  24.189  1.00  0.00     0.188 C 
BRANCH   3   4
ATOM      4  C   UNL A   1      30.796  26.146  25.654  1.00  0.00     0.188 C 
BRANCH   4   5
ATOM      5  O   UNL A   1      30.495  25.069  26.519  1.00  0.00    -0.376 OA
BRANCH   5   6
ATOM      6  C   UNL A   1      31.406  24.022  26.799  1.00  0.00     0.202 C 
BRANCH   6   7
ATOM      7  C   UNL A   1      31.011  22.579  26.456  1.00  0.00     0.261 C 
BRANCH   7   8
ATOM      8  O   UNL A   1      31.286  22.200  25.096  1.00  0.00    -0.463 OA
BRANCH   8   9
ATOM      9  C   UNL A   1      32.370  21.401  24.952  1.00  0.00     0.310 C 
ATOM     10  O   UNL A   1      32.336  20.179  25.011  1.00  0.00    -0.252 OA
BRANCH   9  11
ATOM     11  C   UNL A   1      33.635  22.194  24.742  1.00  0.00     0.119 C 
ATOM     12  N   UNL A   1      36.041  21.809  24.609  1.00  0.00    -0.344 N 
ATOM     13  C   UNL A   1      36.227  22.602  23.408  1.00  0.00     0.119 C 
ATOM     14  C   UNL A   1      34.758  21.160  24.756  1.00  0.00     0.134 C 
ATOM     15  C   UNL A   1      35.109  23.637  23.261  1.00  0.00     0.022 C 
ATOM     16  C   UNL A   1      33.715  23.013  23.441  1.00  0.00     0.019 C 
BRANCH  12  17
ATOM     17  C   UNL A   1      36.999  21.658  25.583  1.00  0.00     0.339 C 
ATOM     18  O   UNL A   1      38.031  21.008  25.479  1.00  0.00    -0.279 OA
ENDBRANCH  12  17
ENDBRANCH   9  11
ENDBRANCH   8   9
ENDBRANCH   7   8
ENDBRANCH   6   7
ENDBRANCH   5   6
ENDBRANCH   4   5
ENDBRANCH   3   4
ENDBRANCH   2   3
ENDBRANCH   1   2
BRANCH   1  19
ATOM     19  C   UNL A   1      33.633  28.091  23.995  1.00  0.00     0.188 C 
BRANCH  19  20
ATOM     20  O   UNL A   1      33.414  29.266  24.757  1.00  0.00    -0.376 OA
BRANCH  20  21
ATOM     21  C   UNL A   1      32.135  29.566  25.284  1.00  0.00     0.202 C 
BRANCH  21  22
ATOM     22  C   UNL A   1      31.758  30.914  25.935  1.00  0.00     0.261 C 
BRANCH  22  23
ATOM     23  O   UNL A   1      32.246  31.197  27.248  1.00  0.00    -0.460 OA
BRANCH  23  24
ATOM     24  C   UNL A   1      33.014  32.306  27.370  1.00  0.00     0.338 C 
ATOM     25  O   UNL A   1      32.651  33.465  27.250  1.00  0.00    -0.246 OA
BRANCH  24  26
ATOM     26  C   UNL A   1      34.333  31.888  27.895  1.00  0.00     0.060 A 
ATOM     27  C   UNL A   1      34.527  30.545  28.254  1.00  0.00     0.016 A 
ATOM     28  C   UNL A   1      35.383  32.802  27.995  1.00  0.00     0.016 A 
ATOM     29  C   UNL A   1      35.763  30.115  28.731  1.00  0.00     0.010 A 
ATOM     30  C   UNL A   1      36.610  32.381  28.516  1.00  0.00     0.010 A 
ATOM     31  C   UNL A   1      36.793  31.044  28.915  1.00  0.00    -0.014 A 
BRANCH  31  32
ATOM     32  C   UNL A   1      37.951  30.675  29.763  1.00  0.00     0.031 A 
ATOM     33  C   UNL A   1      38.935  29.685  29.203  1.00  0.00     0.074 A 
ATOM     34  C   UNL A   1      38.147  31.223  30.975  1.00  0.00     0.049 A 
ATOM     35  N   UNL A   1      39.984  29.144  29.763  1.00  0.00    -0.248 NA
ATOM     36  C   UNL A   1      38.692  29.242  27.821  1.00  0.00     0.031 C 
ATOM     37  C   UNL A   1      37.300  32.244  31.589  1.00  0.00     0.029 A 
ATOM     38  N   UNL A   1      39.124  30.989  31.910  1.00  0.00    -0.354 N 
ATOM     39  C   UNL A   1      40.522  28.291  28.806  1.00  0.00     0.074 A 
ATOM     40  C   UNL A   1      39.661  28.358  27.646  1.00  0.00     0.031 C 
ATOM     41  C   UNL A   1      37.788  32.537  32.808  1.00  0.00     0.029 A 
ATOM     42  C   UNL A   1      38.953  31.695  33.077  1.00  0.00     0.049 A 
ATOM     43  H   UNL A   1      39.877  30.374  31.757  1.00  0.00     0.167 HD
ATOM     44  C   UNL A   1      41.638  27.526  28.887  1.00  0.00     0.034 A 
ATOM     45  C   UNL A   1      39.640  31.638  34.237  1.00  0.00     0.034 A 
ATOM     46  C   UNL A   1      42.474  27.459  30.059  1.00  0.00     0.049 A 
ATOM     47  C   UNL A   1      40.817  30.694  34.344  1.00  0.00     0.074 A 
ATOM     48  C   UNL A   1      43.629  26.723  30.251  1.00  0.00     0.029 A 
ATOM     49  N   UNL A   1      42.238  28.144  31.244  1.00  0.00    -0.354 N 
ATOM     50  N   UNL A   1      41.318  29.888  33.435  1.00  0.00    -0.248 NA
ATOM     51  C   UNL A   1      41.523  30.656  35.632  1.00  0.00     0.031 C 
ATOM     52  C   UNL A   1      44.041  26.894  31.576  1.00  0.00     0.029 A 
ATOM     53  C   UNL A   1      43.201  27.814  32.184  1.00  0.00     0.049 A 
ATOM     54  H   UNL A   1      41.493  28.771  31.395  1.00  0.00     0.167 HD
ATOM     55  C   UNL A   1      42.420  29.276  34.033  1.00  0.00     0.074 A 
ATOM     56  C   UNL A   1      42.515  29.818  35.373  1.00  0.00     0.031 C 
ATOM     57  C   UNL A   1      43.279  28.357  33.522  1.00  0.00     0.034 A 
BRANCH  44  58
ATOM     58  C   UNL A   1      41.968  26.657  27.698  1.00  0.00     0.023 A 
ATOM     59  C   UNL A   1      41.682  25.280  27.680  1.00  0.00     0.031 A 
ATOM     60  C   UNL A   1      42.614  27.209  26.577  1.00  0.00     0.131 A 
ATOM     61  C   UNL A   1      42.106  24.492  26.599  1.00  0.00     0.055 A 
ATOM     62  C   UNL A   1      42.955  26.435  25.467  1.00  0.00     0.041 A 
ATOM     63  F   UNL A   1      42.940  28.511  26.549  1.00  0.00    -0.206 F 
ATOM     64  C   UNL A   1      42.715  25.064  25.480  1.00  0.00     0.022 A 
BRANCH  61  65
ATOM     65  S   UNL A   1      41.988  22.688  26.744  1.00  0.00     0.124 S 
ATOM     66  O   UNL A   1      42.270  22.262  25.376  1.00  0.00    -0.237 OA
ATOM     67  O   UNL A   1      43.015  22.383  27.734  1.00  0.00    -0.237 OA
ATOM     68  O   UNL A   1      40.612  22.469  27.185  1.00  0.00    -0.744 OA
ENDBRANCH  61  65
ENDBRANCH  44  58
BRANCH  45  69
ATOM     69  C   UNL A   1      39.215  32.454  35.413  1.00  0.00     0.023 A 
ATOM     70  C   UNL A   1      39.683  33.764  35.598  1.00  0.00     0.031 A 
ATOM     71  C   UNL A   1      38.387  31.906  36.411  1.00  0.00     0.131 A 
ATOM     72  C   UNL A   1      39.364  34.463  36.773  1.00  0.00     0.055 A 
ATOM     73  C   UNL A   1      38.021  32.627  37.548  1.00  0.00     0.041 A 
ATOM     74  F   UNL A   1      37.916  30.654  36.291  1.00  0.00    -0.206 F 
ATOM     75  C   UNL A   1      38.523  33.910  37.742  1.00  0.00     0.022 A 
BRANCH  72  76
ATOM     76  S   UNL A   1      40.148  36.072  37.068  1.00  0.00     0.124 S 
ATOM     77  O   UNL A   1      40.022  36.706  35.760  1.00  0.00    -0.237 OA
ATOM     78  O   UNL A   1      39.317  36.623  38.131  1.00  0.00    -0.237 OA
ATOM     79  O   UNL A   1      41.510  35.719  37.463  1.00  0.00    -0.744 OA
ENDBRANCH  72  76
ENDBRANCH  45  69
BRANCH  57  80
ATOM     80  C   UNL A   1      44.429  27.918  34.398  1.00  0.00     0.023 A 
ATOM     81  C   UNL A   1      44.301  26.874  35.330  1.00  0.00     0.031 A 
ATOM     82  C   UNL A   1      45.678  28.562  34.297  1.00  0.00     0.131 A 
ATOM     83  C   UNL A   1      45.381  26.544  36.164  1.00  0.00     0.055 A 
ATOM     84  C   UNL A   1      46.769  28.181  35.080  1.00  0.00     0.041 A 
ATOM     85  F   UNL A   1      45.859  29.568  33.428  1.00  0.00    -0.206 F 
ATOM     86  C   UNL A   1      46.620  27.176  36.030  1.00  0.00     0.022 A 
BRANCH  83  87
ATOM     87  S   UNL A   1      45.115  25.346  37.501  1.00  0.00     0.124 S 
ATOM     88  O   UNL A   1      43.801  25.737  37.999  1.00  0.00    -0.237 OA
ATOM     89  O   UNL A   1      45.175  24.071  36.794  1.00  0.00    -0.237 OA
ATOM     90  O   UNL A   1      46.227  25.601  38.415  1.00  0.00    -0.744 OA
ENDBRANCH  83  87
ENDBRANCH  57  80
ENDBRANCH  31  32
ENDBRANCH  24  26
ENDBRANCH  23  24
ENDBRANCH  22  23
ENDBRANCH  21  22
ENDBRANCH  20  21
ENDBRANCH  19  20
ENDBRANCH   1  19
TORSDOF 24
ENDMDL
MODEL 2
REMARK VINA RESULT:      -9.2      1.675      2.024
REMARK SMILES O=CN1CCC[C@@H](C(=O)OCCOCCOCCOCCOC(=O)c2ccc(-c3c4nc(c(-c5cc(S(=O)(=O)[O-])ccc5F)c5ccc([nH]5)c(-c5cc(S(=O)(=O)[O-])ccc5F)c5nc(c(-c6cc(S(=O)(=O)[O-])ccc6F)c6ccc3[nH]6)C=C5)C=C4)cc2)C1
REMARK SMILES IDX 17 1 16 2 15 3 14 4 13 5 12 6 11 7 10 8 8 9 9 10 7 11 3 12
REMARK SMILES IDX 4 13 88 14 5 15 6 16 2 17 1 18 18 19 19 20 20 21 21 22 22 23
REMARK SMILES IDX 23 24 24 25 25 26 26 27 87 28 27 29 86 30 28 31 29 32 30 33
REMARK SMILES IDX 80 34 31 35 85 36 79 37 81 38 32 39 84 40 78 41 77 42 33 44
REMARK SMILES IDX 65 45 45 46 64 47 46 48 49 49 63 50 82 51 47 52 48 53 62 55
REMARK SMILES IDX 83 56 50 57 34 58 35 59 43 60 36 61 42 62 44 63 41 64 37 65
REMARK SMILES IDX 38 66 39 67 40 68 66 69 67 70 75 71 68 72 74 73 76 74 73 75
REMARK SMILES IDX 69 76 70 77 71 78 72 79 51 80 52 81 60 82 53 83 59 84 61 85
REMARK SMILES IDX 58 86 54 87 55 88 56 89 57 90
REMARK H PARENT 81 43 49 54
REMARK Flexibility Score: inf
ROOT
ATOM      1  C   UNL A   1      33.363  26.625  22.754  1.00  0.00     0.188 C 
ENDROOT
BRANCH   1   2
ATOM      2  O   UNL A   1      32.356  25.623  22.813  1.00  0.00    -0.377 OA
BRANCH   2   3
ATOM      3  C   UNL A   1      31.017  26.108  22.807  1.00  0.00     0.188 C 
BRANCH   3   4
ATOM      4  C   UNL A   1      30.247  26.008  24.136  1.00  0.00     0.188 C 
BRANCH   4   5
ATOM      5  O   UNL A   1      30.259  24.727  24.733  1.00  0.00    -0.376 OA
BRANCH   5   6
ATOM      6  C   UNL A   1      30.685  24.495  26.062  1.00  0.00     0.202 C 
BRANCH   6   7
ATOM      7  C   UNL A   1      31.903  23.594  26.309  1.00  0.00     0.261 C 
BRANCH   7   8
ATOM      8  O   UNL A   1      32.911  23.672  25.286  1.00  0.00    -0.463 OA
BRANCH   8   9
ATOM      9  C   UNL A   1      33.895  24.565  25.545  1.00  0.00     0.310 C 
ATOM     10  O   UNL A   1      33.734  25.605  26.169  1.00  0.00    -0.252 OA
BRANCH   9  11
ATOM     11  C   UNL A   1      35.214  24.145  24.946  1.00  0.00     0.119 C 
ATOM     12  N   UNL A   1      37.396  23.346  25.690  1.00  0.00    -0.344 N 
ATOM     13  C   UNL A   1      37.462  22.255  24.735  1.00  0.00     0.119 C 
ATOM     14  C   UNL A   1      36.076  23.731  26.135  1.00  0.00     0.134 C 
ATOM     15  C   UNL A   1      36.574  22.541  23.522  1.00  0.00     0.022 C 
ATOM     16  C   UNL A   1      35.160  22.988  23.930  1.00  0.00     0.019 C 
BRANCH  12  17
ATOM     17  C   UNL A   1      38.500  24.013  26.169  1.00  0.00     0.339 C 
ATOM     18  O   UNL A   1      38.823  24.109  27.345  1.00  0.00    -0.279 OA
ENDBRANCH  12  17
ENDBRANCH   9  11
ENDBRANCH   8   9
ENDBRANCH   7   8
ENDBRANCH   6   7
ENDBRANCH   5   6
ENDBRANCH   4   5
ENDBRANCH   3   4
ENDBRANCH   2   3
ENDBRANCH   1   2
BRANCH   1  19
ATOM     19  C   UNL A   1      32.819  28.071  22.692  1.00  0.00     0.188 C 
BRANCH  19  20
ATOM     20  O   UNL A   1      33.304  29.063  23.580  1.00  0.00    -0.376 OA
BRANCH  20  21
ATOM     21  C   UNL A   1      32.931  29.066  24.945  1.00  0.00     0.202 C 
BRANCH  21  22
ATOM     22  C   UNL A   1      32.192  30.229  25.641  1.00  0.00     0.261 C 
BRANCH  22  23
ATOM     23  O   UNL A   1      32.475  30.490  27.018  1.00  0.00    -0.460 OA
BRANCH  23  24
ATOM     24  C   UNL A   1      33.124  31.649  27.281  1.00  0.00     0.338 C 
ATOM     25  O   UNL A   1      32.651  32.774  27.264  1.00  0.00    -0.246 OA
BRANCH  24  26
ATOM     26  C   UNL A   1      34.463  31.308  27.813  1.00  0.00     0.060 A 
ATOM     27  C   UNL A   1      34.750  29.969  28.124  1.00  0.00     0.016 A 
ATOM     28  C   UNL A   1      35.441  32.292  27.968  1.00  0.00     0.016 A 
ATOM     29  C   UNL A   1      36.007  29.612  28.605  1.00  0.00     0.010 A 
ATOM     30  C   UNL A   1      36.687  31.940  28.494  1.00  0.00     0.010 A 
ATOM     31  C   UNL A   1      36.962  30.605  28.844  1.00  0.00    -0.014 A 
BRANCH  31  32
ATOM     32  C   UNL A   1      38.132  30.289  29.698  1.00  0.00     0.031 A 
ATOM     33  C   UNL A   1      39.156  29.335  29.148  1.00  0.00     0.074 A 
ATOM     34  C   UNL A   1      38.301  30.852  30.907  1.00  0.00     0.049 A 
ATOM     35  N   UNL A   1      40.224  28.841  29.714  1.00  0.00    -0.248 NA
ATOM     36  C   UNL A   1      38.937  28.875  27.767  1.00  0.00     0.031 C 
ATOM     37  C   UNL A   1      37.411  31.840  31.513  1.00  0.00     0.029 A 
ATOM     38  N   UNL A   1      39.284  30.663  31.846  1.00  0.00    -0.354 N 
ATOM     39  C   UNL A   1      40.800  28.004  28.764  1.00  0.00     0.074 A 
ATOM     40  C   UNL A   1      39.941  28.030  27.601  1.00  0.00     0.031 C 
ATOM     41  C   UNL A   1      37.883  32.160  32.731  1.00  0.00     0.029 A 
ATOM     42  C   UNL A   1      39.080  31.368  33.009  1.00  0.00     0.049 A 
ATOM     43  H   UNL A   1      40.061  30.077  31.700  1.00  0.00     0.167 HD
ATOM     44  C   UNL A   1      41.945  27.286  28.853  1.00  0.00     0.034 A 
ATOM     45  C   UNL A   1      39.765  31.346  34.172  1.00  0.00     0.034 A 
ATOM     46  C   UNL A   1      42.779  27.260  30.027  1.00  0.00     0.049 A 
ATOM     47  C   UNL A   1      40.979  30.450  34.288  1.00  0.00     0.074 A 
ATOM     48  C   UNL A   1      43.963  26.572  30.227  1.00  0.00     0.029 A 
ATOM     49  N   UNL A   1      42.512  27.942  31.208  1.00  0.00    -0.354 N 
ATOM     50  N   UNL A   1      41.515  29.660  33.386  1.00  0.00    -0.248 NA
ATOM     51  C   UNL A   1      41.681  30.449  35.578  1.00  0.00     0.031 C 
ATOM     52  C   UNL A   1      44.363  26.767  31.553  1.00  0.00     0.029 A 
ATOM     53  C   UNL A   1      43.484  27.657  32.153  1.00  0.00     0.049 A 
ATOM     54  H   UNL A   1      41.742  28.539  31.353  1.00  0.00     0.167 HD
ATOM     55  C   UNL A   1      42.638  29.096  33.990  1.00  0.00     0.074 A 
ATOM     56  C   UNL A   1      42.707  29.650  35.327  1.00  0.00     0.031 C 
ATOM     57  C   UNL A   1      43.535  28.209  33.488  1.00  0.00     0.034 A 
BRANCH  44  58
ATOM     58  C   UNL A   1      42.315  26.424  27.670  1.00  0.00     0.023 A 
ATOM     59  C   UNL A   1      42.083  25.037  27.659  1.00  0.00     0.031 A 
ATOM     60  C   UNL A   1      42.942  26.995  26.549  1.00  0.00     0.131 A 
ATOM     61  C   UNL A   1      42.542  24.260  26.584  1.00  0.00     0.055 A 
ATOM     62  C   UNL A   1      43.318  26.228  25.444  1.00  0.00     0.041 A 
ATOM     63  F   UNL A   1      43.217  28.309  26.514  1.00  0.00    -0.206 F 
ATOM     64  C   UNL A   1      43.132  24.850  25.464  1.00  0.00     0.022 A 
BRANCH  61  65
ATOM     65  S   UNL A   1      42.495  22.453  26.739  1.00  0.00     0.124 S 
ATOM     66  O   UNL A   1      43.883  22.097  26.459  1.00  0.00    -0.237 OA
ATOM     67  O   UNL A   1      42.052  22.266  28.116  1.00  0.00    -0.237 OA
ATOM     68  O   UNL A   1      41.536  22.046  25.714  1.00  0.00    -0.744 OA
ENDBRANCH  61  65
ENDBRANCH  44  58
BRANCH  45  69
ATOM     69  C   UNL A   1      39.304  32.150  35.341  1.00  0.00     0.023 A 
ATOM     70  C   UNL A   1      39.716  33.480  35.519  1.00  0.00     0.031 A 
ATOM     71  C   UNL A   1      38.496  31.575  36.340  1.00  0.00     0.131 A 
ATOM     72  C   UNL A   1      39.365  34.173  36.689  1.00  0.00     0.055 A 
ATOM     73  C   UNL A   1      38.098  32.288  37.472  1.00  0.00     0.041 A 
ATOM     74  F   UNL A   1      38.078  30.304  36.227  1.00  0.00    -0.206 F 
ATOM     75  C   UNL A   1      38.546  33.592  37.659  1.00  0.00     0.022 A 
BRANCH  72  76
ATOM     76  S   UNL A   1      40.081  35.815  36.974  1.00  0.00     0.124 S 
ATOM     77  O   UNL A   1      39.438  36.204  38.224  1.00  0.00    -0.237 OA
ATOM     78  O   UNL A   1      41.506  35.513  37.052  1.00  0.00    -0.237 OA
ATOM     79  O   UNL A   1      39.670  36.575  35.796  1.00  0.00    -0.744 OA
ENDBRANCH  72  76
ENDBRANCH  45  69
BRANCH  57  80
ATOM     80  C   UNL A   1      44.700  27.823  34.370  1.00  0.00     0.023 A 
ATOM     81  C   UNL A   1      45.877  28.588  34.427  1.00  0.00     0.031 A 
ATOM     82  C   UNL A   1      44.627  26.665  35.168  1.00  0.00     0.131 A 
ATOM     83  C   UNL A   1      46.955  28.156  35.216  1.00  0.00     0.055 A 
ATOM     84  C   UNL A   1      45.675  26.279  36.004  1.00  0.00     0.041 A 
ATOM     85  F   UNL A   1      43.530  25.892  35.152  1.00  0.00    -0.206 F 
ATOM     86  C   UNL A   1      46.854  27.018  36.021  1.00  0.00     0.022 A 
BRANCH  83  87
ATOM     87  S   UNL A   1      48.534  29.043  35.097  1.00  0.00     0.124 S 
ATOM     88  O   UNL A   1      48.649  29.634  36.425  1.00  0.00    -0.237 OA
ATOM     89  O   UNL A   1      49.473  27.969  34.793  1.00  0.00    -0.237 OA
ATOM     90  O   UNL A   1      48.308  29.996  34.011  1.00  0.00    -0.744 OA
ENDBRANCH  83  87
ENDBRANCH  57  80
ENDBRANCH  31  32
ENDBRANCH  24  26
ENDBRANCH  23  24
ENDBRANCH  22  23
ENDBRANCH  21  22
ENDBRANCH  20  21
ENDBRANCH  19  20
ENDBRANCH   1  19
TORSDOF 24
ENDMDL
MODEL 3
REMARK VINA RESULT:      -9.1      2.108      2.522
REMARK SMILES O=CN1CCC[C@@H](C(=O)OCCOCCOCCOCCOC(=O)c2ccc(-c3c4nc(c(-c5cc(S(=O)(=O)[O-])ccc5F)c5ccc([nH]5)c(-c5cc(S(=O)(=O)[O-])ccc5F)c5nc(c(-c6cc(S(=O)(=O)[O-])ccc6F)c6ccc3[nH]6)C=C5)C=C4)cc2)C1
REMARK SMILES IDX 17 1 16 2 15 3 14 4 13 5 12 6 11 7 10 8 8 9 9 10 7 11 3 12
REMARK SMILES IDX 4 13 88 14 5 15 6 16 2 17 1 18 18 19 19 20 20 21 21 22 22 23
REMARK SMILES IDX 23 24 24 25 25 26 26 27 87 28 27 29 86 30 28 31 29 32 30 33
REMARK SMILES IDX 80 34 31 35 85 36 79 37 81 38 32 39 84 40 78 41 77 42 33 44
REMARK SMILES IDX 65 45 45 46 64 47 46 48 49 49 63 50 82 51 47 52 48 53 62 55
REMARK SMILES IDX 83 56 50 57 34 58 35 59 43 60 36 61 42 62 44 63 41 64 37 65
REMARK SMILES IDX 38 66 39 67 40 68 66 69 67 70 75 71 68 72 74 73 76 74 73 75
REMARK SMILES IDX 69 76 70 77 71 78 72 79 51 80 52 81 60 82 53 83 59 84 61 85
REMARK SMILES IDX 58 86 54 87 55 88 56 89 57 90
REMARK H PARENT 81 43 49 54
REMARK Flexibility Score: inf
ROOT
ATOM      1  C   UNL A   1      33.625  25.898  22.880  1.00  0.00     0.188 C 
ENDROOT
BRANCH   1   2
ATOM      2  O   UNL A   1      32.979  24.751  23.416  1.00  0.00    -0.377 OA
BRANCH   2   3
ATOM      3  C   UNL A   1      31.863  25.022  24.259  1.00  0.00     0.188 C 
BRANCH   3   4
ATOM      4  C   UNL A   1      32.165  25.201  25.758  1.00  0.00     0.188 C 
BRANCH   4   5
ATOM      5  O   UNL A   1      32.769  24.082  26.378  1.00  0.00    -0.376 OA
BRANCH   5   6
ATOM      6  C   UNL A   1      34.124  23.726  26.183  1.00  0.00     0.202 C 
BRANCH   6   7
ATOM      7  C   UNL A   1      34.480  22.254  25.933  1.00  0.00     0.261 C 
BRANCH   7   8
ATOM      8  O   UNL A   1      33.894  21.699  24.743  1.00  0.00    -0.463 OA
BRANCH   8   9
ATOM      9  C   UNL A   1      33.015  20.696  24.974  1.00  0.00     0.310 C 
ATOM     10  O   UNL A   1      32.041  20.790  25.707  1.00  0.00    -0.252 OA
BRANCH   9  11
ATOM     11  C   UNL A   1      33.394  19.432  24.244  1.00  0.00     0.119 C 
ATOM     12  N   UNL A   1      33.684  17.056  24.718  1.00  0.00    -0.344 N 
ATOM     13  C   UNL A   1      32.919  16.605  23.570  1.00  0.00     0.119 C 
ATOM     14  C   UNL A   1      33.296  18.325  25.290  1.00  0.00     0.134 C 
ATOM     15  C   UNL A   1      32.898  17.676  22.477  1.00  0.00     0.022 C 
ATOM     16  C   UNL A   1      32.522  19.061  23.029  1.00  0.00     0.019 C 
BRANCH  12  17
ATOM     17  C   UNL A   1      34.733  16.352  25.263  1.00  0.00     0.339 C 
ATOM     18  O   UNL A   1      34.804  15.135  25.361  1.00  0.00    -0.279 OA
ENDBRANCH  12  17
ENDBRANCH   9  11
ENDBRANCH   8   9
ENDBRANCH   7   8
ENDBRANCH   6   7
ENDBRANCH   5   6
ENDBRANCH   4   5
ENDBRANCH   3   4
ENDBRANCH   2   3
ENDBRANCH   1   2
BRANCH   1  19
ATOM     19  C   UNL A   1      32.817  27.208  23.021  1.00  0.00     0.188 C 
BRANCH  19  20
ATOM     20  O   UNL A   1      33.429  28.383  23.524  1.00  0.00    -0.376 OA
BRANCH  20  21
ATOM     21  C   UNL A   1      33.383  28.698  24.903  1.00  0.00     0.202 C 
BRANCH  21  22
ATOM     22  C   UNL A   1      32.872  30.040  25.471  1.00  0.00     0.261 C 
BRANCH  22  23
ATOM     23  O   UNL A   1      32.878  30.226  26.888  1.00  0.00    -0.460 OA
BRANCH  23  24
ATOM     24  C   UNL A   1      33.473  31.357  27.336  1.00  0.00     0.338 C 
ATOM     25  O   UNL A   1      32.950  32.450  27.485  1.00  0.00    -0.246 OA
BRANCH  24  26
ATOM     26  C   UNL A   1      34.820  30.995  27.830  1.00  0.00     0.060 A 
ATOM     27  C   UNL A   1      35.099  29.650  28.120  1.00  0.00     0.016 A 
ATOM     28  C   UNL A   1      35.813  31.966  27.970  1.00  0.00     0.016 A 
ATOM     29  C   UNL A   1      36.364  29.274  28.565  1.00  0.00     0.010 A 
ATOM     30  C   UNL A   1      37.069  31.595  28.460  1.00  0.00     0.010 A 
ATOM     31  C   UNL A   1      37.337  30.253  28.789  1.00  0.00    -0.014 A 
BRANCH  31  32
ATOM     32  C   UNL A   1      38.524  29.914  29.610  1.00  0.00     0.031 A 
ATOM     33  C   UNL A   1      39.489  28.904  29.052  1.00  0.00     0.074 A 
ATOM     34  C   UNL A   1      38.761  30.505  30.794  1.00  0.00     0.049 A 
ATOM     35  N   UNL A   1      40.557  28.384  29.594  1.00  0.00    -0.248 NA
ATOM     36  C   UNL A   1      39.199  28.413  27.695  1.00  0.00     0.031 C 
ATOM     37  C   UNL A   1      37.935  31.547  31.400  1.00  0.00     0.029 A 
ATOM     38  N   UNL A   1      39.770  30.304  31.702  1.00  0.00    -0.354 N 
ATOM     39  C   UNL A   1      41.063  27.496  28.649  1.00  0.00     0.074 A 
ATOM     40  C   UNL A   1      40.162  27.523  27.518  1.00  0.00     0.031 C 
ATOM     41  C   UNL A   1      38.464  31.882  32.590  1.00  0.00     0.029 A 
ATOM     42  C   UNL A   1      39.638  31.050  32.849  1.00  0.00     0.049 A 
ATOM     43  H   UNL A   1      40.518  29.683  31.546  1.00  0.00     0.167 HD
ATOM     44  C   UNL A   1      42.181  26.735  28.719  1.00  0.00     0.034 A 
ATOM     45  C   UNL A   1      40.365  31.034  33.986  1.00  0.00     0.034 A 
ATOM     46  C   UNL A   1      43.057  26.709  29.862  1.00  0.00     0.049 A 
ATOM     47  C   UNL A   1      41.546  30.094  34.086  1.00  0.00     0.074 A 
ATOM     48  C   UNL A   1      44.219  25.980  30.041  1.00  0.00     0.029 A 
ATOM     49  N   UNL A   1      42.861  27.436  31.031  1.00  0.00    -0.354 N 
ATOM     50  N   UNL A   1      42.016  29.256  33.189  1.00  0.00    -0.248 NA
ATOM     51  C   UNL A   1      42.296  30.102  35.349  1.00  0.00     0.031 C 
ATOM     52  C   UNL A   1      44.676  26.197  31.344  1.00  0.00     0.029 A 
ATOM     53  C   UNL A   1      43.857  27.139  31.948  1.00  0.00     0.049 A 
ATOM     54  H   UNL A   1      42.122  28.068  31.185  1.00  0.00     0.167 HD
ATOM     55  C   UNL A   1      43.138  28.665  33.770  1.00  0.00     0.074 A 
ATOM     56  C   UNL A   1      43.279  29.255  35.085  1.00  0.00     0.031 C 
ATOM     57  C   UNL A   1      43.980  27.728  33.262  1.00  0.00     0.034 A 
BRANCH  44  58
ATOM     58  C   UNL A   1      42.471  25.824  27.551  1.00  0.00     0.023 A 
ATOM     59  C   UNL A   1      41.952  24.519  27.477  1.00  0.00     0.031 A 
ATOM     60  C   UNL A   1      43.312  26.257  26.510  1.00  0.00     0.131 A 
ATOM     61  C   UNL A   1      42.336  23.672  26.427  1.00  0.00     0.055 A 
ATOM     62  C   UNL A   1      43.620  25.438  25.423  1.00  0.00     0.041 A 
ATOM     63  F   UNL A   1      43.862  27.481  26.539  1.00  0.00    -0.206 F 
ATOM     64  C   UNL A   1      43.145  24.131  25.385  1.00  0.00     0.022 A 
BRANCH  61  65
ATOM     65  S   UNL A   1      41.891  21.916  26.524  1.00  0.00     0.124 S 
ATOM     66  O   UNL A   1      40.453  21.961  26.272  1.00  0.00    -0.237 OA
ATOM     67  O   UNL A   1      42.707  21.324  25.471  1.00  0.00    -0.237 OA
ATOM     68  O   UNL A   1      42.265  21.543  27.888  1.00  0.00    -0.744 OA
ENDBRANCH  61  65
ENDBRANCH  44  58
BRANCH  45  69
ATOM     69  C   UNL A   1      39.980  31.891  35.146  1.00  0.00     0.023 A 
ATOM     70  C   UNL A   1      39.114  31.419  36.145  1.00  0.00     0.031 A 
ATOM     71  C   UNL A   1      40.419  33.226  35.235  1.00  0.00     0.131 A 
ATOM     72  C   UNL A   1      38.674  32.286  37.158  1.00  0.00     0.055 A 
ATOM     73  C   UNL A   1      40.027  34.066  36.279  1.00  0.00     0.041 A 
ATOM     74  F   UNL A   1      41.242  33.734  34.303  1.00  0.00    -0.206 F 
ATOM     75  C   UNL A   1      39.137  33.601  37.241  1.00  0.00     0.022 A 
BRANCH  72  76
ATOM     76  S   UNL A   1      37.403  31.700  38.311  1.00  0.00     0.124 S 
ATOM     77  O   UNL A   1      36.366  32.713  38.148  1.00  0.00    -0.237 OA
ATOM     78  O   UNL A   1      37.098  30.377  37.778  1.00  0.00    -0.237 OA
ATOM     79  O   UNL A   1      38.086  31.707  39.603  1.00  0.00    -0.744 OA
ENDBRANCH  72  76
ENDBRANCH  45  69
BRANCH  57  80
ATOM     80  C   UNL A   1      45.160  27.320  34.113  1.00  0.00     0.023 A 
ATOM     81  C   UNL A   1      45.068  26.303  35.078  1.00  0.00     0.031 A 
ATOM     82  C   UNL A   1      46.401  27.967  33.954  1.00  0.00     0.131 A 
ATOM     83  C   UNL A   1      46.176  26.001  35.886  1.00  0.00     0.055 A 
ATOM     84  C   UNL A   1      47.518  27.614  34.712  1.00  0.00     0.041 A 
ATOM     85  F   UNL A   1      46.549  28.949  33.051  1.00  0.00    -0.206 F 
ATOM     86  C   UNL A   1      47.406  26.635  35.695  1.00  0.00     0.022 A 
BRANCH  83  87
ATOM     87  S   UNL A   1      45.959  24.841  37.264  1.00  0.00     0.124 S 
ATOM     88  O   UNL A   1      46.904  25.359  38.247  1.00  0.00    -0.237 OA
ATOM     89  O   UNL A   1      44.546  25.005  37.590  1.00  0.00    -0.237 OA
ATOM     90  O   UNL A   1      46.314  23.548  36.681  1.00  0.00    -0.744 OA
ENDBRANCH  83  87
ENDBRANCH  57  80
ENDBRANCH  31  32
ENDBRANCH  24  26
ENDBRANCH  23  24
ENDBRANCH  22  23
ENDBRANCH  21  22
ENDBRANCH  20  21
ENDBRANCH  19  20
ENDBRANCH   1  19
TORSDOF 24
ENDMDL
