MODEL 1
REMARK VINA RESULT:      -8.7      0.000      0.000
REMARK SMILES O=C(CCCN1C(=O)/C(=C/c2cc(Br)ccc2O)SC1=S)OCCOCCOCCOCCOC(=O)c1ccc(-c2c3nc(c(-c4cc(S(=O)(=O)[O-])ccc4F)c4ccc([nH]4)c(-c4cc(S(=O)(=O)[O-])ccc4F)c4nc(c(-c5cc(S(=O)(=O)[O-])ccc5F)c5ccc2[nH]5)C=C4)C=C3)cc1
REMARK SMILES IDX 27 1 26 2 25 3 24 4 23 5 22 6 2 7 1 8 3 9 4 10 5 11 6 12
REMARK SMILES IDX 7 13 20 14 8 15 9 16 19 17 21 18 10 19 11 20 12 21 17 22
REMARK SMILES IDX 13 23 16 24 14 25 15 26 18 27 28 29 29 30 30 31 31 32 32 33
REMARK SMILES IDX 33 34 34 35 35 36 36 37 37 38 38 39 99 40 39 41 98 42 40 43
REMARK SMILES IDX 41 44 42 45 92 46 43 47 97 48 91 49 93 50 44 51 96 52 90 53
REMARK SMILES IDX 89 54 45 56 77 57 57 58 76 59 58 60 61 61 75 62 94 63 59 64
REMARK SMILES IDX 60 65 74 67 95 68 62 69 46 70 47 71 55 72 48 73 54 74 56 75
REMARK SMILES IDX 53 76 49 77 50 78 51 79 52 80 78 81 79 82 87 83 80 84 86 85
REMARK SMILES IDX 88 86 85 87 81 88 82 89 83 90 84 91 63 92 64 93 72 94 65 95
REMARK SMILES IDX 71 96 73 97 70 98 66 99 67 100 68 101 69 102
REMARK H PARENT 18 28 93 55 61 66
REMARK Flexibility Score: inf
ROOT
ATOM      1  C   UNL A   1      41.054  22.658  27.598  1.00  0.00     0.188 C 
ENDROOT
BRANCH   1   2
ATOM      2  C   UNL A   1      40.146  23.895  27.587  1.00  0.00     0.188 C 
BRANCH   2   3
ATOM      3  O   UNL A   1      39.431  24.206  26.383  1.00  0.00    -0.376 OA
BRANCH   3   4
ATOM      4  C   UNL A   1      38.106  23.704  26.307  1.00  0.00     0.202 C 
BRANCH   4   5
ATOM      5  C   UNL A   1      37.935  22.345  25.633  1.00  0.00     0.261 C 
BRANCH   5   6
ATOM      6  O   UNL A   1      36.737  22.027  24.911  1.00  0.00    -0.463 OA
BRANCH   6   7
ATOM      7  C   UNL A   1      36.251  20.774  24.881  1.00  0.00     0.305 C 
ATOM      8  O   UNL A   1      37.000  19.804  24.967  1.00  0.00    -0.252 OA
BRANCH   7   9
ATOM      9  C   UNL A   1      34.741  20.621  24.882  1.00  0.00     0.124 C 
BRANCH   9  10
ATOM     10  C   UNL A   1      33.898  21.885  25.009  1.00  0.00     0.034 C 
BRANCH  10  11
ATOM     11  C   UNL A   1      32.534  21.949  24.295  1.00  0.00     0.128 C 
BRANCH  11  12
ATOM     12  N   UNL A   1      31.733  23.186  24.316  1.00  0.00    -0.293 N 
ATOM     13  C   UNL A   1      32.056  24.189  23.403  1.00  0.00     0.266 C 
ATOM     14  C   UNL A   1      30.869  23.569  25.323  1.00  0.00     0.148 C 
ATOM     15  O   UNL A   1      32.884  24.105  22.504  1.00  0.00    -0.268 OA
ATOM     16  C   UNL A   1      31.318  25.454  23.703  1.00  0.00     0.081 C 
ATOM     17  S   UNL A   1      30.282  25.209  25.045  1.00  0.00    -0.054 SA
ATOM     18  S   UNL A   1      30.403  22.717  26.681  1.00  0.00    -0.052 S 
ATOM     19  C   UNL A   1      31.522  26.593  23.024  1.00  0.00     0.033 C 
BRANCH  19  20
ATOM     20  C   UNL A   1      30.937  27.916  23.325  1.00  0.00     0.019 A 
ATOM     21  C   UNL A   1      29.911  28.435  22.526  1.00  0.00     0.027 A 
ATOM     22  C   UNL A   1      31.425  28.709  24.373  1.00  0.00     0.122 A 
ATOM     23  C   UNL A   1      29.403  29.715  22.763  1.00  0.00     0.018 A 
ATOM     24  C   UNL A   1      30.907  29.987  24.618  1.00  0.00     0.048 A 
ATOM     25  Br  UNL A   1      28.035  30.418  21.666  1.00  0.00    -0.051 Br
ATOM     26  C   UNL A   1      29.896  30.492  23.805  1.00  0.00     0.019 A 
BRANCH  22  27
ATOM     27  O   UNL A   1      32.435  28.231  25.163  1.00  0.00    -0.507 OA
ATOM     28  H   UNL A   1      33.317  28.234  24.847  1.00  0.00     0.293 HD
ENDBRANCH  22  27
ENDBRANCH  19  20
ENDBRANCH  11  12
ENDBRANCH  10  11
ENDBRANCH   9  10
ENDBRANCH   7   9
ENDBRANCH   6   7
ENDBRANCH   5   6
ENDBRANCH   4   5
ENDBRANCH   3   4
ENDBRANCH   2   3
ENDBRANCH   1   2
BRANCH   1  29
ATOM     29  O   UNL A   1      40.481  21.402  27.900  1.00  0.00    -0.377 OA
BRANCH  29  30
ATOM     30  C   UNL A   1      41.154  20.196  27.593  1.00  0.00     0.188 C 
BRANCH  30  31
ATOM     31  C   UNL A   1      41.045  19.533  26.220  1.00  0.00     0.188 C 
BRANCH  31  32
ATOM     32  O   UNL A   1      42.078  19.869  25.304  1.00  0.00    -0.376 OA
BRANCH  32  33
ATOM     33  C   UNL A   1      43.395  19.556  25.750  1.00  0.00     0.202 C 
BRANCH  33  34
ATOM     34  C   UNL A   1      44.403  20.674  25.456  1.00  0.00     0.261 C 
BRANCH  34  35
ATOM     35  O   UNL A   1      44.052  21.980  25.950  1.00  0.00    -0.460 OA
BRANCH  35  36
ATOM     36  C   UNL A   1      43.804  22.945  25.035  1.00  0.00     0.338 C 
ATOM     37  O   UNL A   1      43.391  22.771  23.901  1.00  0.00    -0.246 OA
BRANCH  36  38
ATOM     38  C   UNL A   1      43.927  24.267  25.690  1.00  0.00     0.060 A 
ATOM     39  C   UNL A   1      44.105  24.324  27.080  1.00  0.00     0.016 A 
ATOM     40  C   UNL A   1      43.909  25.442  24.937  1.00  0.00     0.016 A 
ATOM     41  C   UNL A   1      44.243  25.554  27.728  1.00  0.00     0.010 A 
ATOM     42  C   UNL A   1      44.015  26.673  25.589  1.00  0.00     0.010 A 
ATOM     43  C   UNL A   1      44.153  26.736  26.989  1.00  0.00    -0.014 A 
BRANCH  43  44
ATOM     44  C   UNL A   1      43.927  28.036  27.669  1.00  0.00     0.031 A 
ATOM     45  C   UNL A   1      45.146  28.804  28.097  1.00  0.00     0.074 A 
ATOM     46  C   UNL A   1      42.699  28.515  27.933  1.00  0.00     0.049 A 
ATOM     47  N   UNL A   1      45.255  29.819  28.912  1.00  0.00    -0.248 NA
ATOM     48  C   UNL A   1      46.422  28.339  27.532  1.00  0.00     0.031 C 
ATOM     49  C   UNL A   1      41.443  27.921  27.483  1.00  0.00     0.029 A 
ATOM     50  N   UNL A   1      42.314  29.608  28.670  1.00  0.00    -0.354 N 
ATOM     51  C   UNL A   1      46.616  30.092  28.987  1.00  0.00     0.074 A 
ATOM     52  C   UNL A   1      47.289  29.125  28.146  1.00  0.00     0.031 C 
ATOM     53  C   UNL A   1      40.421  28.640  27.983  1.00  0.00     0.029 A 
ATOM     54  C   UNL A   1      40.951  29.702  28.839  1.00  0.00     0.049 A 
ATOM     55  H   UNL A   1      42.949  30.261  29.041  1.00  0.00     0.167 HD
ATOM     56  C   UNL A   1      47.247  31.055  29.704  1.00  0.00     0.034 A 
ATOM     57  C   UNL A   1      40.225  30.512  29.638  1.00  0.00     0.034 A 
ATOM     58  C   UNL A   1      46.553  31.994  30.549  1.00  0.00     0.049 A 
ATOM     59  C   UNL A   1      40.945  31.511  30.518  1.00  0.00     0.074 A 
ATOM     60  C   UNL A   1      47.081  32.995  31.345  1.00  0.00     0.029 A 
ATOM     61  N   UNL A   1      45.175  32.037  30.719  1.00  0.00    -0.354 N 
ATOM     62  N   UNL A   1      42.236  31.730  30.637  1.00  0.00    -0.248 NA
ATOM     63  C   UNL A   1      40.112  32.364  31.377  1.00  0.00     0.031 C 
ATOM     64  C   UNL A   1      46.030  33.595  32.046  1.00  0.00     0.029 A 
ATOM     65  C   UNL A   1      44.836  33.029  31.624  1.00  0.00     0.049 A 
ATOM     66  H   UNL A   1      44.532  31.449  30.261  1.00  0.00     0.167 HD
ATOM     67  C   UNL A   1      42.364  32.769  31.557  1.00  0.00     0.074 A 
ATOM     68  C   UNL A   1      41.021  33.130  31.963  1.00  0.00     0.031 C 
ATOM     69  C   UNL A   1      43.489  33.377  32.016  1.00  0.00     0.034 A 
BRANCH  56  70
ATOM     70  C   UNL A   1      48.756  31.056  29.662  1.00  0.00     0.023 A 
ATOM     71  C   UNL A   1      49.469  31.577  28.567  1.00  0.00     0.031 A 
ATOM     72  C   UNL A   1      49.491  30.436  30.689  1.00  0.00     0.131 A 
ATOM     73  C   UNL A   1      50.855  31.375  28.475  1.00  0.00     0.055 A 
ATOM     74  C   UNL A   1      50.880  30.325  30.636  1.00  0.00     0.041 A 
ATOM     75  F   UNL A   1      48.864  29.894  31.746  1.00  0.00    -0.206 F 
ATOM     76  C   UNL A   1      51.569  30.775  29.514  1.00  0.00     0.022 A 
BRANCH  73  77
ATOM     77  S   UNL A   1      51.676  31.730  26.896  1.00  0.00     0.124 S 
ATOM     78  O   UNL A   1      50.580  31.548  25.946  1.00  0.00    -0.237 OA
ATOM     79  O   UNL A   1      52.139  33.100  27.083  1.00  0.00    -0.237 OA
ATOM     80  O   UNL A   1      52.727  30.719  26.822  1.00  0.00    -0.744 OA
ENDBRANCH  73  77
ENDBRANCH  56  70
BRANCH  57  81
ATOM     81  C   UNL A   1      38.742  30.364  29.713  1.00  0.00     0.023 A 
ATOM     82  C   UNL A   1      37.882  31.245  29.037  1.00  0.00     0.031 A 
ATOM     83  C   UNL A   1      38.161  29.351  30.498  1.00  0.00     0.131 A 
ATOM     84  C   UNL A   1      36.491  31.113  29.182  1.00  0.00     0.055 A 
ATOM     85  C   UNL A   1      36.777  29.195  30.599  1.00  0.00     0.041 A 
ATOM     86  F   UNL A   1      38.936  28.485  31.171  1.00  0.00    -0.206 F 
ATOM     87  C   UNL A   1      35.933  30.085  29.946  1.00  0.00     0.022 A 
BRANCH  84  88
ATOM     88  S   UNL A   1      35.412  32.346  28.402  1.00  0.00     0.124 S 
ATOM     89  O   UNL A   1      34.867  33.041  29.562  1.00  0.00    -0.237 OA
ATOM     90  O   UNL A   1      36.355  33.102  27.585  1.00  0.00    -0.237 OA
ATOM     91  O   UNL A   1      34.454  31.535  27.653  1.00  0.00    -0.744 OA
ENDBRANCH  84  88
ENDBRANCH  57  81
BRANCH  69  92
ATOM     92  C   UNL A   1      43.317  34.550  32.952  1.00  0.00     0.023 A 
ATOM     93  C   UNL A   1      43.164  34.387  34.339  1.00  0.00     0.031 A 
ATOM     94  C   UNL A   1      43.343  35.859  32.437  1.00  0.00     0.131 A 
ATOM     95  C   UNL A   1      43.009  35.516  35.161  1.00  0.00     0.055 A 
ATOM     96  C   UNL A   1      43.242  36.978  33.264  1.00  0.00     0.041 A 
ATOM     97  F   UNL A   1      43.487  36.071  31.118  1.00  0.00    -0.206 F 
ATOM     98  C   UNL A   1      43.066  36.810  34.633  1.00  0.00     0.022 A 
BRANCH  95  99
ATOM     99  S   UNL A   1      42.669  35.276  36.927  1.00  0.00     0.124 S 
ATOM    100  O   UNL A   1      43.545  34.156  37.255  1.00  0.00    -0.237 OA
ATOM    101  O   UNL A   1      43.042  36.567  37.495  1.00  0.00    -0.237 OA
ATOM    102  O   UNL A   1      41.238  34.975  36.963  1.00  0.00    -0.744 OA
ENDBRANCH  95  99
ENDBRANCH  69  92
ENDBRANCH  43  44
ENDBRANCH  36  38
ENDBRANCH  35  36
ENDBRANCH  34  35
ENDBRANCH  33  34
ENDBRANCH  32  33
ENDBRANCH  31  32
ENDBRANCH  30  31
ENDBRANCH  29  30
ENDBRANCH   1  29
TORSDOF 28
ENDMDL
MODEL 2
REMARK VINA RESULT:      -8.3      1.727      1.926
REMARK SMILES O=C(CCCN1C(=O)/C(=C/c2cc(Br)ccc2O)SC1=S)OCCOCCOCCOCCOC(=O)c1ccc(-c2c3nc(c(-c4cc(S(=O)(=O)[O-])ccc4F)c4ccc([nH]4)c(-c4cc(S(=O)(=O)[O-])ccc4F)c4nc(c(-c5cc(S(=O)(=O)[O-])ccc5F)c5ccc2[nH]5)C=C4)C=C3)cc1
REMARK SMILES IDX 27 1 26 2 25 3 24 4 23 5 22 6 2 7 1 8 3 9 4 10 5 11 6 12
REMARK SMILES IDX 7 13 20 14 8 15 9 16 19 17 21 18 10 19 11 20 12 21 17 22
REMARK SMILES IDX 13 23 16 24 14 25 15 26 18 27 28 29 29 30 30 31 31 32 32 33
REMARK SMILES IDX 33 34 34 35 35 36 36 37 37 38 38 39 99 40 39 41 98 42 40 43
REMARK SMILES IDX 41 44 42 45 92 46 43 47 97 48 91 49 93 50 44 51 96 52 90 53
REMARK SMILES IDX 89 54 45 56 77 57 57 58 76 59 58 60 61 61 75 62 94 63 59 64
REMARK SMILES IDX 60 65 74 67 95 68 62 69 46 70 47 71 55 72 48 73 54 74 56 75
REMARK SMILES IDX 53 76 49 77 50 78 51 79 52 80 78 81 79 82 87 83 80 84 86 85
REMARK SMILES IDX 88 86 85 87 81 88 82 89 83 90 84 91 63 92 64 93 72 94 65 95
REMARK SMILES IDX 71 96 73 97 70 98 66 99 67 100 68 101 69 102
REMARK H PARENT 18 28 93 55 61 66
REMARK Flexibility Score: inf
ROOT
ATOM      1  C   UNL A   1      41.546  23.535  27.672  1.00  0.00     0.188 C 
ENDROOT
BRANCH   1   2
ATOM      2  C   UNL A   1      40.581  24.727  27.620  1.00  0.00     0.188 C 
BRANCH   2   3
ATOM      3  O   UNL A   1      39.710  24.851  26.487  1.00  0.00    -0.376 OA
BRANCH   3   4
ATOM      4  C   UNL A   1      38.432  24.251  26.625  1.00  0.00     0.202 C 
BRANCH   4   5
ATOM      5  C   UNL A   1      38.259  22.873  25.992  1.00  0.00     0.261 C 
BRANCH   5   6
ATOM      6  O   UNL A   1      37.063  22.538  25.274  1.00  0.00    -0.463 OA
BRANCH   6   7
ATOM      7  C   UNL A   1      36.786  21.267  24.934  1.00  0.00     0.305 C 
ATOM      8  O   UNL A   1      37.656  20.400  24.969  1.00  0.00    -0.252 OA
BRANCH   7   9
ATOM      9  C   UNL A   1      35.334  20.932  24.647  1.00  0.00     0.124 C 
BRANCH   9  10
ATOM     10  C   UNL A   1      34.283  21.986  24.977  1.00  0.00     0.034 C 
BRANCH  10  11
ATOM     11  C   UNL A   1      32.970  22.011  24.170  1.00  0.00     0.128 C 
BRANCH  11  12
ATOM     12  N   UNL A   1      32.104  23.204  24.181  1.00  0.00    -0.293 N 
ATOM     13  C   UNL A   1      32.440  24.263  23.339  1.00  0.00     0.266 C 
ATOM     14  C   UNL A   1      31.148  23.495  25.134  1.00  0.00     0.148 C 
ATOM     15  O   UNL A   1      33.336  24.262  22.504  1.00  0.00    -0.268 OA
ATOM     16  C   UNL A   1      31.614  25.473  23.635  1.00  0.00     0.081 C 
ATOM     17  S   UNL A   1      30.495  25.114  24.881  1.00  0.00    -0.054 SA
ATOM     18  S   UNL A   1      30.629  22.559  26.415  1.00  0.00    -0.052 S 
ATOM     19  C   UNL A   1      31.806  26.652  23.023  1.00  0.00     0.033 C 
BRANCH  19  20
ATOM     20  C   UNL A   1      31.130  27.928  23.333  1.00  0.00     0.019 A 
ATOM     21  C   UNL A   1      30.080  28.387  22.529  1.00  0.00     0.027 A 
ATOM     22  C   UNL A   1      31.551  28.738  24.397  1.00  0.00     0.122 A 
ATOM     23  C   UNL A   1      29.484  29.627  22.776  1.00  0.00     0.018 A 
ATOM     24  C   UNL A   1      30.946  29.975  24.652  1.00  0.00     0.048 A 
ATOM     25  Br  UNL A   1      28.085  30.251  21.671  1.00  0.00    -0.051 Br
ATOM     26  C   UNL A   1      29.913  30.422  23.833  1.00  0.00     0.019 A 
BRANCH  22  27
ATOM     27  O   UNL A   1      32.583  28.318  25.193  1.00  0.00    -0.507 OA
ATOM     28  H   UNL A   1      33.295  28.898  25.381  1.00  0.00     0.293 HD
ENDBRANCH  22  27
ENDBRANCH  19  20
ENDBRANCH  11  12
ENDBRANCH  10  11
ENDBRANCH   9  10
ENDBRANCH   7   9
ENDBRANCH   6   7
ENDBRANCH   5   6
ENDBRANCH   4   5
ENDBRANCH   3   4
ENDBRANCH   2   3
ENDBRANCH   1   2
BRANCH   1  29
ATOM     29  O   UNL A   1      41.047  22.279  28.085  1.00  0.00    -0.377 OA
BRANCH  29  30
ATOM     30  C   UNL A   1      41.674  21.075  27.691  1.00  0.00     0.188 C 
BRANCH  30  31
ATOM     31  C   UNL A   1      41.628  20.571  26.248  1.00  0.00     0.188 C 
BRANCH  31  32
ATOM     32  O   UNL A   1      42.638  21.090  25.395  1.00  0.00    -0.376 OA
BRANCH  32  33
ATOM     33  C   UNL A   1      43.901  20.436  25.501  1.00  0.00     0.202 C 
BRANCH  33  34
ATOM     34  C   UNL A   1      45.057  21.414  25.745  1.00  0.00     0.261 C 
BRANCH  34  35
ATOM     35  O   UNL A   1      44.679  22.752  26.115  1.00  0.00    -0.460 OA
BRANCH  35  36
ATOM     36  C   UNL A   1      44.722  23.700  25.151  1.00  0.00     0.338 C 
ATOM     37  O   UNL A   1      44.574  23.515  23.956  1.00  0.00    -0.246 OA
BRANCH  36  38
ATOM     38  C   UNL A   1      44.784  25.033  25.794  1.00  0.00     0.060 A 
ATOM     39  C   UNL A   1      44.843  25.111  27.193  1.00  0.00     0.016 A 
ATOM     40  C   UNL A   1      44.826  26.195  25.025  1.00  0.00     0.016 A 
ATOM     41  C   UNL A   1      44.921  26.351  27.832  1.00  0.00     0.010 A 
ATOM     42  C   UNL A   1      44.872  27.437  25.664  1.00  0.00     0.010 A 
ATOM     43  C   UNL A   1      44.890  27.522  27.069  1.00  0.00    -0.014 A 
BRANCH  43  44
ATOM     44  C   UNL A   1      44.603  28.830  27.708  1.00  0.00     0.031 A 
ATOM     45  C   UNL A   1      45.770  29.748  27.940  1.00  0.00     0.074 A 
ATOM     46  C   UNL A   1      43.369  29.192  28.101  1.00  0.00     0.049 A 
ATOM     47  N   UNL A   1      45.861  30.818  28.683  1.00  0.00    -0.248 NA
ATOM     48  C   UNL A   1      47.013  29.387  27.241  1.00  0.00     0.031 C 
ATOM     49  C   UNL A   1      42.144  28.442  27.844  1.00  0.00     0.029 A 
ATOM     50  N   UNL A   1      42.955  30.282  28.827  1.00  0.00    -0.354 N 
ATOM     51  C   UNL A   1      47.182  31.238  28.572  1.00  0.00     0.074 A 
ATOM     52  C   UNL A   1      47.853  30.298  27.701  1.00  0.00     0.031 C 
ATOM     53  C   UNL A   1      41.114  29.078  28.433  1.00  0.00     0.029 A 
ATOM     54  C   UNL A   1      41.620  30.242  29.162  1.00  0.00     0.049 A 
ATOM     55  H   UNL A   1      43.553  31.021  29.082  1.00  0.00     0.167 HD
ATOM     56  C   UNL A   1      47.781  32.306  29.155  1.00  0.00     0.034 A 
ATOM     57  C   UNL A   1      40.910  31.019  30.006  1.00  0.00     0.034 A 
ATOM     58  C   UNL A   1      47.093  33.217  30.034  1.00  0.00     0.049 A 
ATOM     59  C   UNL A   1      41.613  32.142  30.737  1.00  0.00     0.074 A 
ATOM     60  C   UNL A   1      47.597  34.316  30.706  1.00  0.00     0.029 A 
ATOM     61  N   UNL A   1      45.749  33.124  30.375  1.00  0.00    -0.354 N 
ATOM     62  N   UNL A   1      42.875  32.504  30.681  1.00  0.00    -0.248 NA
ATOM     63  C   UNL A   1      40.798  32.954  31.652  1.00  0.00     0.031 C 
ATOM     64  C   UNL A   1      46.577  34.845  31.505  1.00  0.00     0.029 A 
ATOM     65  C   UNL A   1      45.413  34.130  31.266  1.00  0.00     0.049 A 
ATOM     66  H   UNL A   1      45.126  32.444  30.031  1.00  0.00     0.167 HD
ATOM     67  C   UNL A   1      42.996  33.606  31.525  1.00  0.00     0.074 A 
ATOM     68  C   UNL A   1      41.679  33.848  32.080  1.00  0.00     0.031 C 
ATOM     69  C   UNL A   1      44.091  34.357  31.807  1.00  0.00     0.034 A 
BRANCH  56  70
ATOM     70  C   UNL A   1      49.265  32.464  28.922  1.00  0.00     0.023 A 
ATOM     71  C   UNL A   1      49.773  33.121  27.787  1.00  0.00     0.031 A 
ATOM     72  C   UNL A   1      50.184  31.861  29.799  1.00  0.00     0.131 A 
ATOM     73  C   UNL A   1      51.147  33.068  27.506  1.00  0.00     0.055 A 
ATOM     74  C   UNL A   1      51.559  31.896  29.563  1.00  0.00     0.041 A 
ATOM     75  F   UNL A   1      49.759  31.194  30.884  1.00  0.00    -0.206 F 
ATOM     76  C   UNL A   1      52.047  32.483  28.398  1.00  0.00     0.022 A 
BRANCH  73  77
ATOM     77  S   UNL A   1      51.713  33.602  25.866  1.00  0.00     0.124 S 
ATOM     78  O   UNL A   1      51.238  34.983  25.825  1.00  0.00    -0.237 OA
ATOM     79  O   UNL A   1      53.158  33.425  25.959  1.00  0.00    -0.237 OA
ATOM     80  O   UNL A   1      51.028  32.689  24.954  1.00  0.00    -0.744 OA
ENDBRANCH  73  77
ENDBRANCH  56  70
BRANCH  57  81
ATOM     81  C   UNL A   1      39.472  30.720  30.275  1.00  0.00     0.023 A 
ATOM     82  C   UNL A   1      38.443  31.429  29.635  1.00  0.00     0.031 A 
ATOM     83  C   UNL A   1      39.108  29.735  31.212  1.00  0.00     0.131 A 
ATOM     84  C   UNL A   1      37.102  31.163  29.961  1.00  0.00     0.055 A 
ATOM     85  C   UNL A   1      37.773  29.441  31.496  1.00  0.00     0.041 A 
ATOM     86  F   UNL A   1      40.051  29.031  31.859  1.00  0.00    -0.206 F 
ATOM     87  C   UNL A   1      36.761  30.164  30.875  1.00  0.00     0.022 A 
BRANCH  84  88
ATOM     88  S   UNL A   1      35.803  32.186  29.213  1.00  0.00     0.124 S 
ATOM     89  O   UNL A   1      35.319  32.939  30.364  1.00  0.00    -0.237 OA
ATOM     90  O   UNL A   1      36.550  32.945  28.216  1.00  0.00    -0.237 OA
ATOM     91  O   UNL A   1      34.867  31.203  28.671  1.00  0.00    -0.744 OA
ENDBRANCH  84  88
ENDBRANCH  57  81
BRANCH  69  92
ATOM     92  C   UNL A   1      43.902  35.561  32.699  1.00  0.00     0.023 A 
ATOM     93  C   UNL A   1      43.793  36.865  32.186  1.00  0.00     0.031 A 
ATOM     94  C   UNL A   1      43.792  35.386  34.090  1.00  0.00     0.131 A 
ATOM     95  C   UNL A   1      43.616  37.947  33.064  1.00  0.00     0.055 A 
ATOM     96  C   UNL A   1      43.563  36.457  34.953  1.00  0.00     0.041 A 
ATOM     97  F   UNL A   1      43.889  34.160  34.633  1.00  0.00    -0.206 F 
ATOM     98  C   UNL A   1      43.482  37.748  34.443  1.00  0.00     0.022 A 
BRANCH  95  99
ATOM     99  S   UNL A   1      43.624  39.633  32.393  1.00  0.00     0.124 S 
ATOM    100  O   UNL A   1      44.940  40.115  32.800  1.00  0.00    -0.237 OA
ATOM    101  O   UNL A   1      43.443  39.401  30.964  1.00  0.00    -0.237 OA
ATOM    102  O   UNL A   1      42.495  40.275  33.064  1.00  0.00    -0.744 OA
ENDBRANCH  95  99
ENDBRANCH  69  92
ENDBRANCH  43  44
ENDBRANCH  36  38
ENDBRANCH  35  36
ENDBRANCH  34  35
ENDBRANCH  33  34
ENDBRANCH  32  33
ENDBRANCH  31  32
ENDBRANCH  30  31
ENDBRANCH  29  30
ENDBRANCH   1  29
TORSDOF 28
ENDMDL
MODEL 3
REMARK VINA RESULT:      -7.9      4.110      9.279
REMARK SMILES O=C(CCCN1C(=O)/C(=C/c2cc(Br)ccc2O)SC1=S)OCCOCCOCCOCCOC(=O)c1ccc(-c2c3nc(c(-c4cc(S(=O)(=O)[O-])ccc4F)c4ccc([nH]4)c(-c4cc(S(=O)(=O)[O-])ccc4F)c4nc(c(-c5cc(S(=O)(=O)[O-])ccc5F)c5ccc2[nH]5)C=C4)C=C3)cc1
REMARK SMILES IDX 27 1 26 2 25 3 24 4 23 5 22 6 2 7 1 8 3 9 4 10 5 11 6 12
REMARK SMILES IDX 7 13 20 14 8 15 9 16 19 17 21 18 10 19 11 20 12 21 17 22
REMARK SMILES IDX 13 23 16 24 14 25 15 26 18 27 28 29 29 30 30 31 31 32 32 33
REMARK SMILES IDX 33 34 34 35 35 36 36 37 37 38 38 39 99 40 39 41 98 42 40 43
REMARK SMILES IDX 41 44 42 45 92 46 43 47 97 48 91 49 93 50 44 51 96 52 90 53
REMARK SMILES IDX 89 54 45 56 77 57 57 58 76 59 58 60 61 61 75 62 94 63 59 64
REMARK SMILES IDX 60 65 74 67 95 68 62 69 46 70 47 71 55 72 48 73 54 74 56 75
REMARK SMILES IDX 53 76 49 77 50 78 51 79 52 80 78 81 79 82 87 83 80 84 86 85
REMARK SMILES IDX 88 86 85 87 81 88 82 89 83 90 84 91 63 92 64 93 72 94 65 95
REMARK SMILES IDX 71 96 73 97 70 98 66 99 67 100 68 101 69 102
REMARK H PARENT 18 28 93 55 61 66
REMARK Flexibility Score: inf
ROOT
ATOM      1  C   UNL A   1      33.422  27.985  26.657  1.00  0.00     0.188 C 
ENDROOT
BRANCH   1   2
ATOM      2  C   UNL A   1      32.507  28.403  25.498  1.00  0.00     0.188 C 
BRANCH   2   3
ATOM      3  O   UNL A   1      33.065  28.466  24.178  1.00  0.00    -0.376 OA
BRANCH   3   4
ATOM      4  C   UNL A   1      33.165  27.228  23.492  1.00  0.00     0.202 C 
BRANCH   4   5
ATOM      5  C   UNL A   1      31.916  26.352  23.491  1.00  0.00     0.261 C 
BRANCH   5   6
ATOM      6  O   UNL A   1      31.971  24.993  23.036  1.00  0.00    -0.463 OA
BRANCH   6   7
ATOM      7  C   UNL A   1      33.145  24.382  22.800  1.00  0.00     0.305 C 
ATOM      8  O   UNL A   1      33.560  24.230  21.654  1.00  0.00    -0.252 OA
BRANCH   7   9
ATOM      9  C   UNL A   1      33.990  24.025  24.010  1.00  0.00     0.124 C 
BRANCH   9  10
ATOM     10  C   UNL A   1      35.244  23.189  23.780  1.00  0.00     0.034 C 
BRANCH  10  11
ATOM     11  C   UNL A   1      35.671  22.169  24.853  1.00  0.00     0.128 C 
BRANCH  11  12
ATOM     12  N   UNL A   1      36.983  22.280  25.515  1.00  0.00    -0.293 N 
ATOM     13  C   UNL A   1      37.371  23.532  25.990  1.00  0.00     0.266 C 
ATOM     14  C   UNL A   1      37.987  21.333  25.476  1.00  0.00     0.148 C 
ATOM     15  O   UNL A   1      36.679  24.543  26.004  1.00  0.00    -0.268 OA
ATOM     16  C   UNL A   1      38.804  23.530  26.416  1.00  0.00     0.081 C 
ATOM     17  S   UNL A   1      39.458  21.959  26.221  1.00  0.00    -0.054 SA
ATOM     18  S   UNL A   1      37.955  19.803  24.810  1.00  0.00    -0.052 S 
ATOM     19  C   UNL A   1      39.442  24.637  26.826  1.00  0.00     0.033 C 
BRANCH  19  20
ATOM     20  C   UNL A   1      40.878  24.759  27.147  1.00  0.00     0.019 A 
ATOM     21  C   UNL A   1      41.435  24.022  28.199  1.00  0.00     0.027 A 
ATOM     22  C   UNL A   1      41.709  25.650  26.451  1.00  0.00     0.122 A 
ATOM     23  C   UNL A   1      42.778  24.187  28.551  1.00  0.00     0.018 A 
ATOM     24  C   UNL A   1      43.057  25.806  26.796  1.00  0.00     0.048 A 
ATOM     25  Br  UNL A   1      43.515  23.208  29.989  1.00  0.00    -0.051 Br
ATOM     26  C   UNL A   1      43.590  25.075  27.855  1.00  0.00     0.019 A 
BRANCH  22  27
ATOM     27  O   UNL A   1      41.188  26.391  25.425  1.00  0.00    -0.507 OA
ATOM     28  H   UNL A   1      41.166  26.039  24.557  1.00  0.00     0.293 HD
ENDBRANCH  22  27
ENDBRANCH  19  20
ENDBRANCH  11  12
ENDBRANCH  10  11
ENDBRANCH   9  10
ENDBRANCH   7   9
ENDBRANCH   6   7
ENDBRANCH   5   6
ENDBRANCH   4   5
ENDBRANCH   3   4
ENDBRANCH   2   3
ENDBRANCH   1   2
BRANCH   1  29
ATOM     29  O   UNL A   1      34.355  28.924  27.153  1.00  0.00    -0.377 OA
BRANCH  29  30
ATOM     30  C   UNL A   1      34.179  30.312  26.948  1.00  0.00     0.188 C 
BRANCH  30  31
ATOM     31  C   UNL A   1      34.187  31.310  28.105  1.00  0.00     0.188 C 
BRANCH  31  32
ATOM     32  O   UNL A   1      35.281  31.186  29.003  1.00  0.00    -0.376 OA
BRANCH  32  33
ATOM     33  C   UNL A   1      35.162  31.954  30.198  1.00  0.00     0.202 C 
BRANCH  33  34
ATOM     34  C   UNL A   1      36.480  32.052  30.975  1.00  0.00     0.261 C 
BRANCH  34  35
ATOM     35  O   UNL A   1      36.548  31.289  32.194  1.00  0.00    -0.460 OA
BRANCH  35  36
ATOM     36  C   UNL A   1      37.312  30.173  32.187  1.00  0.00     0.338 C 
ATOM     37  O   UNL A   1      36.951  29.054  32.507  1.00  0.00    -0.246 OA
BRANCH  36  38
ATOM     38  C   UNL A   1      38.608  30.485  31.541  1.00  0.00     0.060 A 
ATOM     39  C   UNL A   1      39.625  31.074  32.306  1.00  0.00     0.016 A 
ATOM     40  C   UNL A   1      38.835  30.162  30.203  1.00  0.00     0.016 A 
ATOM     41  C   UNL A   1      40.866  31.364  31.734  1.00  0.00     0.010 A 
ATOM     42  C   UNL A   1      40.065  30.481  29.622  1.00  0.00     0.010 A 
ATOM     43  C   UNL A   1      41.075  31.109  30.375  1.00  0.00    -0.014 A 
BRANCH  43  44
ATOM     44  C   UNL A   1      42.218  31.728  29.660  1.00  0.00     0.031 A 
ATOM     45  C   UNL A   1      43.320  30.811  29.211  1.00  0.00     0.074 A 
ATOM     46  C   UNL A   1      42.306  33.051  29.436  1.00  0.00     0.049 A 
ATOM     47  N   UNL A   1      44.527  31.090  28.796  1.00  0.00    -0.248 NA
ATOM     48  C   UNL A   1      43.011  29.374  29.257  1.00  0.00     0.031 C 
ATOM     49  C   UNL A   1      41.263  34.031  29.728  1.00  0.00     0.029 A 
ATOM     50  N   UNL A   1      43.342  33.797  28.930  1.00  0.00    -0.354 N 
ATOM     51  C   UNL A   1      45.136  29.861  28.568  1.00  0.00     0.074 A 
ATOM     52  C   UNL A   1      44.167  28.840  28.904  1.00  0.00     0.031 C 
ATOM     53  C   UNL A   1      41.726  35.258  29.426  1.00  0.00     0.029 A 
ATOM     54  C   UNL A   1      43.116  35.154  28.982  1.00  0.00     0.049 A 
ATOM     55  H   UNL A   1      44.165  33.401  28.563  1.00  0.00     0.167 HD
ATOM     56  C   UNL A   1      46.394  29.610  28.129  1.00  0.00     0.034 A 
ATOM     57  C   UNL A   1      43.956  36.186  28.757  1.00  0.00     0.034 A 
ATOM     58  C   UNL A   1      47.346  30.646  27.819  1.00  0.00     0.049 A 
ATOM     59  C   UNL A   1      45.391  35.895  28.373  1.00  0.00     0.074 A 
ATOM     60  C   UNL A   1      48.656  30.518  27.394  1.00  0.00     0.029 A 
ATOM     61  N   UNL A   1      47.091  32.008  27.915  1.00  0.00    -0.354 N 
ATOM     62  N   UNL A   1      45.986  34.734  28.215  1.00  0.00    -0.248 NA
ATOM     63  C   UNL A   1      46.267  37.053  28.147  1.00  0.00     0.031 C 
ATOM     64  C   UNL A   1      49.212  31.799  27.301  1.00  0.00     0.029 A 
ATOM     65  C   UNL A   1      48.225  32.731  27.583  1.00  0.00     0.049 A 
ATOM     66  H   UNL A   1      46.228  32.403  28.180  1.00  0.00     0.167 HD
ATOM     67  C   UNL A   1      47.296  35.023  27.838  1.00  0.00     0.074 A 
ATOM     68  C   UNL A   1      47.404  36.467  27.794  1.00  0.00     0.031 C 
ATOM     69  C   UNL A   1      48.313  34.173  27.543  1.00  0.00     0.034 A 
BRANCH  56  70
ATOM     70  C   UNL A   1      46.814  28.160  28.061  1.00  0.00     0.023 A 
ATOM     71  C   UNL A   1      46.842  27.452  26.846  1.00  0.00     0.031 A 
ATOM     72  C   UNL A   1      47.095  27.451  29.243  1.00  0.00     0.131 A 
ATOM     73  C   UNL A   1      47.039  26.062  26.853  1.00  0.00     0.055 A 
ATOM     74  C   UNL A   1      47.385  26.087  29.231  1.00  0.00     0.041 A 
ATOM     75  F   UNL A   1      47.055  28.067  30.435  1.00  0.00    -0.206 F 
ATOM     76  C   UNL A   1      47.336  25.378  28.034  1.00  0.00     0.022 A 
BRANCH  73  77
ATOM     77  S   UNL A   1      46.707  25.135  25.328  1.00  0.00     0.124 S 
ATOM     78  O   UNL A   1      48.006  25.188  24.662  1.00  0.00    -0.237 OA
ATOM     79  O   UNL A   1      46.302  23.829  25.835  1.00  0.00    -0.237 OA
ATOM     80  O   UNL A   1      45.651  25.910  24.680  1.00  0.00    -0.744 OA
ENDBRANCH  73  77
ENDBRANCH  56  70
BRANCH  57  81
ATOM     81  C   UNL A   1      43.495  37.591  28.965  1.00  0.00     0.023 A 
ATOM     82  C   UNL A   1      43.762  38.281  30.159  1.00  0.00     0.031 A 
ATOM     83  C   UNL A   1      42.744  38.253  27.976  1.00  0.00     0.131 A 
ATOM     84  C   UNL A   1      43.258  39.580  30.343  1.00  0.00     0.055 A 
ATOM     85  C   UNL A   1      42.287  39.561  28.145  1.00  0.00     0.041 A 
ATOM     86  F   UNL A   1      42.454  37.638  26.819  1.00  0.00    -0.206 F 
ATOM     87  C   UNL A   1      42.536  40.229  29.339  1.00  0.00     0.022 A 
BRANCH  84  88
ATOM     88  S   UNL A   1      43.509  40.394  31.946  1.00  0.00     0.124 S 
ATOM     89  O   UNL A   1      43.083  39.355  32.876  1.00  0.00    -0.237 OA
ATOM     90  O   UNL A   1      44.938  40.684  31.918  1.00  0.00    -0.237 OA
ATOM     91  O   UNL A   1      42.637  41.564  31.873  1.00  0.00    -0.744 OA
ENDBRANCH  84  88
ENDBRANCH  57  81
BRANCH  69  92
ATOM     92  C   UNL A   1      49.614  34.779  27.070  1.00  0.00     0.023 A 
ATOM     93  C   UNL A   1      50.694  35.010  27.939  1.00  0.00     0.031 A 
ATOM     94  C   UNL A   1      49.779  35.095  25.709  1.00  0.00     0.131 A 
ATOM     95  C   UNL A   1      51.880  35.574  27.441  1.00  0.00     0.055 A 
ATOM     96  C   UNL A   1      50.977  35.605  25.211  1.00  0.00     0.041 A 
ATOM     97  F   UNL A   1      48.778  34.895  24.836  1.00  0.00    -0.206 F 
ATOM     98  C   UNL A   1      52.034  35.856  26.080  1.00  0.00     0.022 A 
BRANCH  95  99
ATOM     99  S   UNL A   1      53.206  35.996  28.605  1.00  0.00     0.124 S 
ATOM    100  O   UNL A   1      53.129  34.899  29.565  1.00  0.00    -0.237 OA
ATOM    101  O   UNL A   1      54.385  36.010  27.745  1.00  0.00    -0.237 OA
ATOM    102  O   UNL A   1      52.805  37.303  29.125  1.00  0.00    -0.744 OA
ENDBRANCH  95  99
ENDBRANCH  69  92
ENDBRANCH  43  44
ENDBRANCH  36  38
ENDBRANCH  35  36
ENDBRANCH  34  35
ENDBRANCH  33  34
ENDBRANCH  32  33
ENDBRANCH  31  32
ENDBRANCH  30  31
ENDBRANCH  29  30
ENDBRANCH   1  29
TORSDOF 28
ENDMDL
