MODEL 1
REMARK VINA RESULT:     -10.1      0.000      0.000
REMARK SMILES C[C@@H]1[C@@H](C(=O)OCCOCCOCCOCCOC(=O)c2ccc(-c3c4nc(c(-c5cc(S(=O)(=O)[O-])ccc5F)c5ccc([nH]5)c(-c5cc(S(=O)(=O)[O-])ccc5F)c5nc(c(-c6cc(S(=O)(=O)[O-])ccc6F)c6ccc3[nH]6)C=C5)C=C4)cc2)CCN1C(=O)[C@]1([NH3+])CCOC1
REMARK SMILES IDX 12 1 11 2 10 3 9 4 8 5 7 6 6 7 4 8 5 9 3 10 1 11 2 12 86 13
REMARK SMILES IDX 84 14 85 15 87 16 88 17 89 18 91 19 94 20 92 21 93 22 90 23
REMARK SMILES IDX 13 27 14 28 15 29 16 30 17 31 18 32 19 33 20 34 21 35 22 36
REMARK SMILES IDX 83 37 23 38 82 39 24 40 25 41 26 42 76 43 27 44 81 45 75 46
REMARK SMILES IDX 77 47 28 48 80 49 74 50 73 51 29 53 61 54 41 55 60 56 42 57
REMARK SMILES IDX 45 58 59 59 78 60 43 61 44 62 58 64 79 65 46 66 30 67 31 68
REMARK SMILES IDX 39 69 32 70 38 71 40 72 37 73 33 74 34 75 35 76 36 77 62 78
REMARK SMILES IDX 63 79 71 80 64 81 70 82 72 83 69 84 65 85 66 86 67 87 68 88
REMARK SMILES IDX 47 89 48 90 56 91 49 92 55 93 57 94 54 95 50 96 51 97 52 98
REMARK SMILES IDX 53 99
REMARK H PARENT 90 24 90 25 90 26 77 52 45 63
REMARK Flexibility Score: inf
ROOT
ATOM      1  O   UNL A   1      42.100  19.704  27.125  1.00  0.00    -0.377 OA
ENDROOT
BRANCH   1   2
ATOM      2  C   UNL A   1      42.080  21.085  27.409  1.00  0.00     0.188 C 
BRANCH   2   3
ATOM      3  C   UNL A   1      40.668  21.697  27.406  1.00  0.00     0.188 C 
BRANCH   3   4
ATOM      4  O   UNL A   1      39.814  21.640  26.272  1.00  0.00    -0.376 OA
BRANCH   4   5
ATOM      5  C   UNL A   1      38.507  22.190  26.216  1.00  0.00     0.202 C 
BRANCH   5   6
ATOM      6  C   UNL A   1      37.603  22.200  24.974  1.00  0.00     0.261 C 
BRANCH   6   7
ATOM      7  O   UNL A   1      36.345  21.549  25.110  1.00  0.00    -0.463 OA
BRANCH   7   8
ATOM      8  C   UNL A   1      35.411  22.281  25.753  1.00  0.00     0.311 C 
ATOM      9  O   UNL A   1      35.599  23.394  26.225  1.00  0.00    -0.252 OA
BRANCH   8  10
ATOM     10  C   UNL A   1      34.081  21.550  25.751  1.00  0.00     0.123 C 
ATOM     11  C   UNL A   1      32.530  20.321  24.177  1.00  0.00     0.032 C 
ATOM     12  C   UNL A   1      33.557  21.450  24.313  1.00  0.00     0.096 C 
ATOM     13  N   UNL A   1      32.962  22.771  24.108  1.00  0.00    -0.334 N 
ATOM     14  C   UNL A   1      33.021  22.368  26.464  1.00  0.00     0.039 C 
ATOM     15  C   UNL A   1      32.629  23.382  25.402  1.00  0.00     0.121 C 
BRANCH  13  16
ATOM     16  C   UNL A   1      33.047  23.608  23.015  1.00  0.00     0.286 C 
ATOM     17  O   UNL A   1      33.931  23.385  22.169  1.00  0.00    -0.267 OA
BRANCH  16  18
ATOM     18  C   UNL A   1      32.121  24.864  22.783  1.00  0.00     0.199 C 
ATOM     19  C   UNL A   1      32.583  26.103  23.524  1.00  0.00     0.110 C 
ATOM     20  C   UNL A   1      30.651  24.706  23.174  1.00  0.00     0.239 C 
ATOM     21  C   UNL A   1      31.503  26.401  24.539  1.00  0.00     0.167 C 
ATOM     22  O   UNL A   1      30.342  25.643  24.220  1.00  0.00    -0.374 OA
BRANCH  18  23
ATOM     23  N   UNL A   1      32.201  25.166  21.310  1.00  0.00    -0.343 N 
ATOM     24  H   UNL A   1      33.156  25.430  21.069  1.00  0.00     0.345 HD
ATOM     25  H   UNL A   1      31.569  25.935  21.086  1.00  0.00     0.345 HD
ATOM     26  H   UNL A   1      31.932  24.338  20.778  1.00  0.00     0.345 HD
ENDBRANCH  18  23
ENDBRANCH  16  18
ENDBRANCH  13  16
ENDBRANCH   8  10
ENDBRANCH   7   8
ENDBRANCH   6   7
ENDBRANCH   5   6
ENDBRANCH   4   5
ENDBRANCH   3   4
ENDBRANCH   2   3
ENDBRANCH   1   2
BRANCH   1  27
ATOM     27  C   UNL A   1      42.390  19.339  25.780  1.00  0.00     0.188 C 
BRANCH  27  28
ATOM     28  C   UNL A   1      43.866  19.126  25.364  1.00  0.00     0.188 C 
BRANCH  28  29
ATOM     29  O   UNL A   1      44.330  20.022  24.362  1.00  0.00    -0.376 OA
BRANCH  29  30
ATOM     30  C   UNL A   1      44.784  21.304  24.768  1.00  0.00     0.202 C 
BRANCH  30  31
ATOM     31  C   UNL A   1      44.247  22.514  23.986  1.00  0.00     0.261 C 
BRANCH  31  32
ATOM     32  O   UNL A   1      43.575  23.520  24.759  1.00  0.00    -0.460 OA
BRANCH  32  33
ATOM     33  C   UNL A   1      44.281  24.625  25.081  1.00  0.00     0.338 C 
ATOM     34  O   UNL A   1      45.292  25.027  24.527  1.00  0.00    -0.246 OA
BRANCH  33  35
ATOM     35  C   UNL A   1      43.504  25.389  26.081  1.00  0.00     0.060 A 
ATOM     36  C   UNL A   1      43.777  26.753  26.253  1.00  0.00     0.016 A 
ATOM     37  C   UNL A   1      42.508  24.768  26.837  1.00  0.00     0.016 A 
ATOM     38  C   UNL A   1      43.082  27.490  27.213  1.00  0.00     0.010 A 
ATOM     39  C   UNL A   1      41.829  25.502  27.814  1.00  0.00     0.010 A 
ATOM     40  C   UNL A   1      42.139  26.857  28.032  1.00  0.00    -0.014 A 
BRANCH  40  41
ATOM     41  C   UNL A   1      41.643  27.547  29.249  1.00  0.00     0.031 A 
ATOM     42  C   UNL A   1      40.340  28.297  29.156  1.00  0.00     0.074 A 
ATOM     43  C   UNL A   1      42.309  27.489  30.416  1.00  0.00     0.049 A 
ATOM     44  N   UNL A   1      39.732  29.026  30.054  1.00  0.00    -0.248 NA
ATOM     45  C   UNL A   1      39.634  28.211  27.868  1.00  0.00     0.031 C 
ATOM     46  C   UNL A   1      43.547  26.746  30.646  1.00  0.00     0.029 A 
ATOM     47  N   UNL A   1      42.037  28.073  31.629  1.00  0.00    -0.354 N 
ATOM     48  C   UNL A   1      38.575  29.493  29.439  1.00  0.00     0.074 A 
ATOM     49  C   UNL A   1      38.590  28.996  28.080  1.00  0.00     0.031 C 
ATOM     50  C   UNL A   1      43.933  26.928  31.922  1.00  0.00     0.029 A 
ATOM     51  C   UNL A   1      42.996  27.835  32.587  1.00  0.00     0.049 A 
ATOM     52  H   UNL A   1      41.230  28.612  31.798  1.00  0.00     0.167 HD
ATOM     53  C   UNL A   1      37.586  30.259  29.963  1.00  0.00     0.034 A 
ATOM     54  C   UNL A   1      43.117  28.318  33.840  1.00  0.00     0.034 A 
ATOM     55  C   UNL A   1      37.592  30.756  31.316  1.00  0.00     0.049 A 
ATOM     56  C   UNL A   1      42.056  29.258  34.370  1.00  0.00     0.074 A 
ATOM     57  C   UNL A   1      36.641  31.534  31.952  1.00  0.00     0.029 A 
ATOM     58  N   UNL A   1      38.608  30.541  32.238  1.00  0.00    -0.354 N 
ATOM     59  N   UNL A   1      40.965  29.692  33.780  1.00  0.00    -0.248 NA
ATOM     60  C   UNL A   1      42.240  29.765  35.736  1.00  0.00     0.031 C 
ATOM     61  C   UNL A   1      37.119  31.859  33.225  1.00  0.00     0.029 A 
ATOM     62  C   UNL A   1      38.324  31.204  33.423  1.00  0.00     0.049 A 
ATOM     63  H   UNL A   1      39.413  29.998  32.075  1.00  0.00     0.167 HD
ATOM     64  C   UNL A   1      40.316  30.493  34.720  1.00  0.00     0.074 A 
ATOM     65  C   UNL A   1      41.132  30.469  35.916  1.00  0.00     0.031 C 
ATOM     66  C   UNL A   1      39.149  31.178  34.609  1.00  0.00     0.034 A 
BRANCH  53  67
ATOM     67  C   UNL A   1      36.450  30.648  29.047  1.00  0.00     0.023 A 
ATOM     68  C   UNL A   1      35.490  29.716  28.616  1.00  0.00     0.031 A 
ATOM     69  C   UNL A   1      36.342  31.968  28.575  1.00  0.00     0.131 A 
ATOM     70  C   UNL A   1      34.511  30.098  27.686  1.00  0.00     0.055 A 
ATOM     71  C   UNL A   1      35.314  32.363  27.718  1.00  0.00     0.041 A 
ATOM     72  F   UNL A   1      37.245  32.896  28.928  1.00  0.00    -0.206 F 
ATOM     73  C   UNL A   1      34.399  31.422  27.256  1.00  0.00     0.022 A 
BRANCH  70  74
ATOM     74  S   UNL A   1      33.484  28.808  26.929  1.00  0.00     0.124 S 
ATOM     75  O   UNL A   1      32.840  29.544  25.844  1.00  0.00    -0.237 OA
ATOM     76  O   UNL A   1      34.471  27.813  26.529  1.00  0.00    -0.237 OA
ATOM     77  O   UNL A   1      32.590  28.403  28.012  1.00  0.00    -0.744 OA
ENDBRANCH  70  74
ENDBRANCH  53  67
BRANCH  54  78
ATOM     78  C   UNL A   1      44.304  27.971  34.678  1.00  0.00     0.023 A 
ATOM     79  C   UNL A   1      44.230  26.981  35.672  1.00  0.00     0.031 A 
ATOM     80  C   UNL A   1      45.513  28.678  34.545  1.00  0.00     0.131 A 
ATOM     81  C   UNL A   1      45.323  26.763  36.526  1.00  0.00     0.055 A 
ATOM     82  C   UNL A   1      46.619  28.414  35.356  1.00  0.00     0.041 A 
ATOM     83  F   UNL A   1      45.639  29.641  33.618  1.00  0.00    -0.206 F 
ATOM     84  C   UNL A   1      46.522  27.460  36.364  1.00  0.00     0.022 A 
BRANCH  81  85
ATOM     85  S   UNL A   1      45.118  25.626  37.925  1.00  0.00     0.124 S 
ATOM     86  O   UNL A   1      43.933  24.876  37.524  1.00  0.00    -0.237 OA
ATOM     87  O   UNL A   1      46.379  24.893  37.905  1.00  0.00    -0.237 OA
ATOM     88  O   UNL A   1      44.936  26.521  39.066  1.00  0.00    -0.744 OA
ENDBRANCH  81  85
ENDBRANCH  54  78
BRANCH  66  89
ATOM     89  C   UNL A   1      38.656  31.914  35.834  1.00  0.00     0.023 A 
ATOM     90  C   UNL A   1      38.058  31.247  36.917  1.00  0.00     0.031 A 
ATOM     91  C   UNL A   1      38.789  33.314  35.915  1.00  0.00     0.131 A 
ATOM     92  C   UNL A   1      37.560  31.982  38.004  1.00  0.00     0.055 A 
ATOM     93  C   UNL A   1      38.357  34.032  37.031  1.00  0.00     0.041 A 
ATOM     94  F   UNL A   1      39.348  34.007  34.911  1.00  0.00    -0.206 F 
ATOM     95  C   UNL A   1      37.724  33.367  38.078  1.00  0.00     0.022 A 
BRANCH  92  96
ATOM     96  S   UNL A   1      36.599  31.116  39.274  1.00  0.00     0.124 S 
ATOM     97  O   UNL A   1      37.491  31.183  40.427  1.00  0.00    -0.237 OA
ATOM     98  O   UNL A   1      35.388  31.927  39.358  1.00  0.00    -0.237 OA
ATOM     99  O   UNL A   1      36.411  29.779  38.712  1.00  0.00    -0.744 OA
ENDBRANCH  92  96
ENDBRANCH  66  89
ENDBRANCH  40  41
ENDBRANCH  33  35
ENDBRANCH  32  33
ENDBRANCH  31  32
ENDBRANCH  30  31
ENDBRANCH  29  30
ENDBRANCH  28  29
ENDBRANCH  27  28
ENDBRANCH   1  27
TORSDOF 26
ENDMDL
MODEL 2
REMARK VINA RESULT:      -9.5      1.735      2.642
REMARK SMILES C[C@@H]1[C@@H](C(=O)OCCOCCOCCOCCOC(=O)c2ccc(-c3c4nc(c(-c5cc(S(=O)(=O)[O-])ccc5F)c5ccc([nH]5)c(-c5cc(S(=O)(=O)[O-])ccc5F)c5nc(c(-c6cc(S(=O)(=O)[O-])ccc6F)c6ccc3[nH]6)C=C5)C=C4)cc2)CCN1C(=O)[C@]1([NH3+])CCOC1
REMARK SMILES IDX 12 1 11 2 10 3 9 4 8 5 7 6 6 7 4 8 5 9 3 10 1 11 2 12 86 13
REMARK SMILES IDX 84 14 85 15 87 16 88 17 89 18 91 19 94 20 92 21 93 22 90 23
REMARK SMILES IDX 13 27 14 28 15 29 16 30 17 31 18 32 19 33 20 34 21 35 22 36
REMARK SMILES IDX 83 37 23 38 82 39 24 40 25 41 26 42 76 43 27 44 81 45 75 46
REMARK SMILES IDX 77 47 28 48 80 49 74 50 73 51 29 53 61 54 41 55 60 56 42 57
REMARK SMILES IDX 45 58 59 59 78 60 43 61 44 62 58 64 79 65 46 66 30 67 31 68
REMARK SMILES IDX 39 69 32 70 38 71 40 72 37 73 33 74 34 75 35 76 36 77 62 78
REMARK SMILES IDX 63 79 71 80 64 81 70 82 72 83 69 84 65 85 66 86 67 87 68 88
REMARK SMILES IDX 47 89 48 90 56 91 49 92 55 93 57 94 54 95 50 96 51 97 52 98
REMARK SMILES IDX 53 99
REMARK H PARENT 90 24 90 25 90 26 77 52 45 63
REMARK Flexibility Score: inf
ROOT
ATOM      1  O   UNL A   1      41.897  19.849  27.124  1.00  0.00    -0.377 OA
ENDROOT
BRANCH   1   2
ATOM      2  C   UNL A   1      41.911  21.201  27.521  1.00  0.00     0.188 C 
BRANCH   2   3
ATOM      3  C   UNL A   1      40.927  22.087  26.736  1.00  0.00     0.188 C 
BRANCH   3   4
ATOM      4  O   UNL A   1      39.654  21.622  26.310  1.00  0.00    -0.376 OA
BRANCH   4   5
ATOM      5  C   UNL A   1      38.626  22.448  25.785  1.00  0.00     0.202 C 
BRANCH   5   6
ATOM      6  C   UNL A   1      37.251  21.955  25.310  1.00  0.00     0.261 C 
BRANCH   6   7
ATOM      7  O   UNL A   1      36.134  22.365  26.091  1.00  0.00    -0.463 OA
BRANCH   7   8
ATOM      8  C   UNL A   1      35.581  23.531  25.694  1.00  0.00     0.311 C 
ATOM      9  O   UNL A   1      36.078  24.299  24.882  1.00  0.00    -0.252 OA
BRANCH   8  10
ATOM     10  C   UNL A   1      34.228  23.719  26.355  1.00  0.00     0.123 C 
ATOM     11  C   UNL A   1      32.428  22.390  27.533  1.00  0.00     0.032 C 
ATOM     12  C   UNL A   1      33.517  22.364  26.457  1.00  0.00     0.096 C 
ATOM     13  N   UNL A   1      32.966  22.202  25.111  1.00  0.00    -0.334 N 
ATOM     14  C   UNL A   1      33.311  24.541  25.470  1.00  0.00     0.039 C 
ATOM     15  C   UNL A   1      32.834  23.511  24.459  1.00  0.00     0.121 C 
BRANCH  13  16
ATOM     16  C   UNL A   1      32.949  21.086  24.302  1.00  0.00     0.286 C 
ATOM     17  O   UNL A   1      32.471  21.196  23.157  1.00  0.00    -0.267 OA
BRANCH  16  18
ATOM     18  C   UNL A   1      33.456  19.659  24.742  1.00  0.00     0.199 C 
ATOM     19  C   UNL A   1      33.254  18.590  23.686  1.00  0.00     0.110 C 
ATOM     20  C   UNL A   1      32.827  19.076  26.008  1.00  0.00     0.239 C 
ATOM     21  C   UNL A   1      32.255  17.619  24.272  1.00  0.00     0.167 C 
ATOM     22  O   UNL A   1      32.128  17.866  25.667  1.00  0.00    -0.374 OA
BRANCH  18  23
ATOM     23  N   UNL A   1      34.940  19.800  24.959  1.00  0.00    -0.343 N 
ATOM     24  H   UNL A   1      35.111  20.254  25.856  1.00  0.00     0.345 HD
ATOM     25  H   UNL A   1      35.340  20.365  24.210  1.00  0.00     0.345 HD
ATOM     26  H   UNL A   1      35.373  18.876  24.956  1.00  0.00     0.345 HD
ENDBRANCH  18  23
ENDBRANCH  16  18
ENDBRANCH  13  16
ENDBRANCH   8  10
ENDBRANCH   7   8
ENDBRANCH   6   7
ENDBRANCH   5   6
ENDBRANCH   4   5
ENDBRANCH   3   4
ENDBRANCH   2   3
ENDBRANCH   1   2
BRANCH   1  27
ATOM     27  C   UNL A   1      42.287  19.579  25.781  1.00  0.00     0.188 C 
BRANCH  27  28
ATOM     28  C   UNL A   1      43.792  19.424  25.456  1.00  0.00     0.188 C 
BRANCH  28  29
ATOM     29  O   UNL A   1      44.283  20.345  24.488  1.00  0.00    -0.376 OA
BRANCH  29  30
ATOM     30  C   UNL A   1      44.651  21.644  24.925  1.00  0.00     0.202 C 
BRANCH  30  31
ATOM     31  C   UNL A   1      43.912  22.830  24.284  1.00  0.00     0.261 C 
BRANCH  31  32
ATOM     32  O   UNL A   1      43.332  23.780  25.192  1.00  0.00    -0.460 OA
BRANCH  32  33
ATOM     33  C   UNL A   1      44.000  24.938  25.383  1.00  0.00     0.338 C 
ATOM     34  O   UNL A   1      44.939  25.351  24.722  1.00  0.00    -0.246 OA
BRANCH  33  35
ATOM     35  C   UNL A   1      43.266  25.727  26.395  1.00  0.00     0.060 A 
ATOM     36  C   UNL A   1      43.537  27.098  26.512  1.00  0.00     0.016 A 
ATOM     37  C   UNL A   1      42.312  25.123  27.217  1.00  0.00     0.016 A 
ATOM     38  C   UNL A   1      42.883  27.859  27.481  1.00  0.00     0.010 A 
ATOM     39  C   UNL A   1      41.675  25.883  28.203  1.00  0.00     0.010 A 
ATOM     40  C   UNL A   1      41.985  27.246  28.364  1.00  0.00    -0.014 A 
BRANCH  40  41
ATOM     41  C   UNL A   1      41.543  27.971  29.582  1.00  0.00     0.031 A 
ATOM     42  C   UNL A   1      40.237  28.718  29.525  1.00  0.00     0.074 A 
ATOM     43  C   UNL A   1      42.259  27.945  30.720  1.00  0.00     0.049 A 
ATOM     44  N   UNL A   1      39.668  29.473  30.428  1.00  0.00    -0.248 NA
ATOM     45  C   UNL A   1      39.475  28.597  28.272  1.00  0.00     0.031 C 
ATOM     46  C   UNL A   1      43.506  27.208  30.916  1.00  0.00     0.029 A 
ATOM     47  N   UNL A   1      42.040  28.563  31.926  1.00  0.00    -0.354 N 
ATOM     48  C   UNL A   1      38.485  29.924  29.851  1.00  0.00     0.074 A 
ATOM     49  C   UNL A   1      38.441  29.389  28.507  1.00  0.00     0.031 C 
ATOM     50  C   UNL A   1      43.947  27.425  32.169  1.00  0.00     0.029 A 
ATOM     51  C   UNL A   1      43.040  28.351  32.848  1.00  0.00     0.049 A 
ATOM     52  H   UNL A   1      41.241  29.107  32.116  1.00  0.00     0.167 HD
ATOM     53  C   UNL A   1      37.519  30.704  30.397  1.00  0.00     0.034 A 
ATOM     54  C   UNL A   1      43.216  28.869  34.080  1.00  0.00     0.034 A 
ATOM     55  C   UNL A   1      37.585  31.240  31.733  1.00  0.00     0.049 A 
ATOM     56  C   UNL A   1      42.178  29.824  34.630  1.00  0.00     0.074 A 
ATOM     57  C   UNL A   1      36.661  32.035  32.388  1.00  0.00     0.029 A 
ATOM     58  N   UNL A   1      38.640  31.050  32.616  1.00  0.00    -0.354 N 
ATOM     59  N   UNL A   1      41.063  30.242  34.076  1.00  0.00    -0.248 NA
ATOM     60  C   UNL A   1      42.422  30.369  35.971  1.00  0.00     0.031 C 
ATOM     61  C   UNL A   1      37.195  32.396  33.629  1.00  0.00     0.029 A 
ATOM     62  C   UNL A   1      38.408  31.745  33.793  1.00  0.00     0.049 A 
ATOM     63  H   UNL A   1      39.437  30.502  32.433  1.00  0.00     0.167 HD
ATOM     64  C   UNL A   1      40.455  31.070  35.021  1.00  0.00     0.074 A 
ATOM     65  C   UNL A   1      41.323  31.079  36.180  1.00  0.00     0.031 C 
ATOM     66  C   UNL A   1      39.284  31.753  34.941  1.00  0.00     0.034 A 
BRANCH  53  67
ATOM     67  C   UNL A   1      36.344  31.069  29.521  1.00  0.00     0.023 A 
ATOM     68  C   UNL A   1      35.855  32.384  29.442  1.00  0.00     0.031 A 
ATOM     69  C   UNL A   1      35.683  30.076  28.775  1.00  0.00     0.131 A 
ATOM     70  C   UNL A   1      34.700  32.658  28.695  1.00  0.00     0.055 A 
ATOM     71  C   UNL A   1      34.586  30.372  27.963  1.00  0.00     0.041 A 
ATOM     72  F   UNL A   1      36.085  28.797  28.832  1.00  0.00    -0.206 F 
ATOM     73  C   UNL A   1      34.079  31.667  27.932  1.00  0.00     0.022 A 
BRANCH  70  74
ATOM     74  S   UNL A   1      33.930  34.293  28.856  1.00  0.00     0.124 S 
ATOM     75  O   UNL A   1      32.785  34.170  27.958  1.00  0.00    -0.237 OA
ATOM     76  O   UNL A   1      33.622  34.357  30.279  1.00  0.00    -0.237 OA
ATOM     77  O   UNL A   1      34.974  35.210  28.400  1.00  0.00    -0.744 OA
ENDBRANCH  70  74
ENDBRANCH  53  67
BRANCH  54  78
ATOM     78  C   UNL A   1      44.438  28.545  34.875  1.00  0.00     0.023 A 
ATOM     79  C   UNL A   1      44.499  27.397  35.682  1.00  0.00     0.031 A 
ATOM     80  C   UNL A   1      45.540  29.420  34.895  1.00  0.00     0.131 A 
ATOM     81  C   UNL A   1      45.611  27.183  36.513  1.00  0.00     0.055 A 
ATOM     82  C   UNL A   1      46.670  29.170  35.675  1.00  0.00     0.041 A 
ATOM     83  F   UNL A   1      45.533  30.537  34.150  1.00  0.00    -0.206 F 
ATOM     84  C   UNL A   1      46.704  28.053  36.502  1.00  0.00     0.022 A 
BRANCH  81  85
ATOM     85  S   UNL A   1      45.563  25.804  37.691  1.00  0.00     0.124 S 
ATOM     86  O   UNL A   1      46.279  26.365  38.831  1.00  0.00    -0.237 OA
ATOM     87  O   UNL A   1      44.128  25.608  37.866  1.00  0.00    -0.237 OA
ATOM     88  O   UNL A   1      46.255  24.729  36.983  1.00  0.00    -0.744 OA
ENDBRANCH  81  85
ENDBRANCH  54  78
BRANCH  66  89
ATOM     89  C   UNL A   1      38.844  32.523  36.167  1.00  0.00     0.023 A 
ATOM     90  C   UNL A   1      38.173  31.906  37.236  1.00  0.00     0.031 A 
ATOM     91  C   UNL A   1      39.104  33.904  36.260  1.00  0.00     0.131 A 
ATOM     92  C   UNL A   1      37.731  32.678  38.323  1.00  0.00     0.055 A 
ATOM     93  C   UNL A   1      38.725  34.651  37.375  1.00  0.00     0.041 A 
ATOM     94  F   UNL A   1      39.737  34.549  35.268  1.00  0.00    -0.206 F 
ATOM     95  C   UNL A   1      38.021  34.041  38.409  1.00  0.00     0.022 A 
BRANCH  92  96
ATOM     96  S   UNL A   1      36.678  31.895  39.575  1.00  0.00     0.124 S 
ATOM     97  O   UNL A   1      37.165  30.520  39.563  1.00  0.00    -0.237 OA
ATOM     98  O   UNL A   1      36.986  32.671  40.773  1.00  0.00    -0.237 OA
ATOM     99  O   UNL A   1      35.325  32.078  39.049  1.00  0.00    -0.744 OA
ENDBRANCH  92  96
ENDBRANCH  66  89
ENDBRANCH  40  41
ENDBRANCH  33  35
ENDBRANCH  32  33
ENDBRANCH  31  32
ENDBRANCH  30  31
ENDBRANCH  29  30
ENDBRANCH  28  29
ENDBRANCH  27  28
ENDBRANCH   1  27
TORSDOF 26
ENDMDL
MODEL 3
REMARK VINA RESULT:      -9.4      1.936      7.591
REMARK SMILES C[C@@H]1[C@@H](C(=O)OCCOCCOCCOCCOC(=O)c2ccc(-c3c4nc(c(-c5cc(S(=O)(=O)[O-])ccc5F)c5ccc([nH]5)c(-c5cc(S(=O)(=O)[O-])ccc5F)c5nc(c(-c6cc(S(=O)(=O)[O-])ccc6F)c6ccc3[nH]6)C=C5)C=C4)cc2)CCN1C(=O)[C@]1([NH3+])CCOC1
REMARK SMILES IDX 12 1 11 2 10 3 9 4 8 5 7 6 6 7 4 8 5 9 3 10 1 11 2 12 86 13
REMARK SMILES IDX 84 14 85 15 87 16 88 17 89 18 91 19 94 20 92 21 93 22 90 23
REMARK SMILES IDX 13 27 14 28 15 29 16 30 17 31 18 32 19 33 20 34 21 35 22 36
REMARK SMILES IDX 83 37 23 38 82 39 24 40 25 41 26 42 76 43 27 44 81 45 75 46
REMARK SMILES IDX 77 47 28 48 80 49 74 50 73 51 29 53 61 54 41 55 60 56 42 57
REMARK SMILES IDX 45 58 59 59 78 60 43 61 44 62 58 64 79 65 46 66 30 67 31 68
REMARK SMILES IDX 39 69 32 70 38 71 40 72 37 73 33 74 34 75 35 76 36 77 62 78
REMARK SMILES IDX 63 79 71 80 64 81 70 82 72 83 69 84 65 85 66 86 67 87 68 88
REMARK SMILES IDX 47 89 48 90 56 91 49 92 55 93 57 94 54 95 50 96 51 97 52 98
REMARK SMILES IDX 53 99
REMARK H PARENT 90 24 90 25 90 26 77 52 45 63
REMARK Flexibility Score: inf
ROOT
ATOM      1  O   UNL A   1      41.494  20.169  26.602  1.00  0.00    -0.377 OA
ENDROOT
BRANCH   1   2
ATOM      2  C   UNL A   1      40.327  20.555  25.911  1.00  0.00     0.188 C 
BRANCH   2   3
ATOM      3  C   UNL A   1      39.779  21.927  26.341  1.00  0.00     0.188 C 
BRANCH   3   4
ATOM      4  O   UNL A   1      38.402  22.261  26.253  1.00  0.00    -0.376 OA
BRANCH   4   5
ATOM      5  C   UNL A   1      37.579  22.007  25.125  1.00  0.00     0.202 C 
BRANCH   5   6
ATOM      6  C   UNL A   1      36.288  21.174  25.140  1.00  0.00     0.261 C 
BRANCH   6   7
ATOM      7  O   UNL A   1      35.194  21.728  25.863  1.00  0.00    -0.463 OA
BRANCH   7   8
ATOM      8  C   UNL A   1      34.100  21.969  25.110  1.00  0.00     0.311 C 
ATOM      9  O   UNL A   1      33.815  21.371  24.081  1.00  0.00    -0.252 OA
BRANCH   8  10
ATOM     10  C   UNL A   1      33.246  23.044  25.757  1.00  0.00     0.123 C 
ATOM     11  C   UNL A   1      31.097  24.322  25.380  1.00  0.00     0.032 C 
ATOM     12  C   UNL A   1      32.292  23.635  24.712  1.00  0.00     0.096 C 
ATOM     13  N   UNL A   1      33.155  24.583  24.005  1.00  0.00    -0.334 N 
ATOM     14  C   UNL A   1      34.101  24.225  26.173  1.00  0.00     0.039 C 
ATOM     15  C   UNL A   1      34.289  24.964  24.858  1.00  0.00     0.121 C 
BRANCH  13  16
ATOM     16  C   UNL A   1      33.272  24.818  22.652  1.00  0.00     0.286 C 
ATOM     17  O   UNL A   1      33.943  24.021  21.971  1.00  0.00    -0.267 OA
BRANCH  16  18
ATOM     18  C   UNL A   1      32.647  26.060  21.908  1.00  0.00     0.199 C 
ATOM     19  C   UNL A   1      33.527  27.294  21.941  1.00  0.00     0.110 C 
ATOM     20  C   UNL A   1      31.288  26.543  22.416  1.00  0.00     0.239 C 
ATOM     21  C   UNL A   1      32.771  28.317  22.756  1.00  0.00     0.167 C 
ATOM     22  O   UNL A   1      31.423  27.887  22.907  1.00  0.00    -0.374 OA
BRANCH  18  23
ATOM     23  N   UNL A   1      32.507  25.647  20.467  1.00  0.00    -0.343 N 
ATOM     24  H   UNL A   1      33.335  25.938  19.948  1.00  0.00     0.345 HD
ATOM     25  H   UNL A   1      31.680  26.091  20.065  1.00  0.00     0.345 HD
ATOM     26  H   UNL A   1      32.409  24.633  20.412  1.00  0.00     0.345 HD
ENDBRANCH  18  23
ENDBRANCH  16  18
ENDBRANCH  13  16
ENDBRANCH   8  10
ENDBRANCH   7   8
ENDBRANCH   6   7
ENDBRANCH   5   6
ENDBRANCH   4   5
ENDBRANCH   3   4
ENDBRANCH   2   3
ENDBRANCH   1   2
BRANCH   1  27
ATOM     27  C   UNL A   1      42.044  18.902  26.258  1.00  0.00     0.188 C 
BRANCH  27  28
ATOM     28  C   UNL A   1      43.499  18.836  25.730  1.00  0.00     0.188 C 
BRANCH  28  29
ATOM     29  O   UNL A   1      43.766  19.699  24.632  1.00  0.00    -0.376 OA
BRANCH  29  30
ATOM     30  C   UNL A   1      45.068  20.250  24.513  1.00  0.00     0.202 C 
BRANCH  30  31
ATOM     31  C   UNL A   1      45.420  21.416  25.451  1.00  0.00     0.261 C 
BRANCH  31  32
ATOM     32  O   UNL A   1      45.211  22.736  24.926  1.00  0.00    -0.460 OA
BRANCH  32  33
ATOM     33  C   UNL A   1      43.944  23.203  24.916  1.00  0.00     0.338 C 
ATOM     34  O   UNL A   1      43.048  22.853  24.164  1.00  0.00    -0.246 OA
BRANCH  33  35
ATOM     35  C   UNL A   1      43.761  24.055  26.110  1.00  0.00     0.060 A 
ATOM     36  C   UNL A   1      42.899  23.620  27.127  1.00  0.00     0.016 A 
ATOM     37  C   UNL A   1      44.441  25.269  26.232  1.00  0.00     0.016 A 
ATOM     38  C   UNL A   1      42.683  24.420  28.249  1.00  0.00     0.010 A 
ATOM     39  C   UNL A   1      44.204  26.080  27.346  1.00  0.00     0.010 A 
ATOM     40  C   UNL A   1      43.296  25.676  28.342  1.00  0.00    -0.014 A 
BRANCH  40  41
ATOM     41  C   UNL A   1      42.822  26.651  29.357  1.00  0.00     0.031 A 
ATOM     42  C   UNL A   1      43.589  26.755  30.649  1.00  0.00     0.074 A 
ATOM     43  C   UNL A   1      41.762  27.447  29.132  1.00  0.00     0.049 A 
ATOM     44  N   UNL A   1      43.342  27.479  31.708  1.00  0.00    -0.248 NA
ATOM     45  C   UNL A   1      44.796  25.921  30.755  1.00  0.00     0.031 C 
ATOM     46  C   UNL A   1      40.977  27.481  27.899  1.00  0.00     0.029 A 
ATOM     47  N   UNL A   1      41.159  28.378  29.941  1.00  0.00    -0.354 N 
ATOM     48  C   UNL A   1      44.359  27.184  32.611  1.00  0.00     0.074 A 
ATOM     49  C   UNL A   1      45.199  26.185  31.988  1.00  0.00     0.031 C 
ATOM     50  C   UNL A   1      39.988  28.382  28.038  1.00  0.00     0.029 A 
ATOM     51  C   UNL A   1      40.041  28.956  29.383  1.00  0.00     0.049 A 
ATOM     52  H   UNL A   1      41.494  28.612  30.836  1.00  0.00     0.167 HD
ATOM     53  C   UNL A   1      44.575  27.706  33.844  1.00  0.00     0.034 A 
ATOM     54  C   UNL A   1      39.150  29.821  29.909  1.00  0.00     0.034 A 
ATOM     55  C   UNL A   1      43.720  28.692  34.456  1.00  0.00     0.049 A 
ATOM     56  C   UNL A   1      39.351  30.310  31.327  1.00  0.00     0.074 A 
ATOM     57  C   UNL A   1      43.850  29.293  35.696  1.00  0.00     0.029 A 
ATOM     58  N   UNL A   1      42.566  29.211  33.883  1.00  0.00    -0.354 N 
ATOM     59  N   UNL A   1      40.317  30.025  32.172  1.00  0.00    -0.248 NA
ATOM     60  C   UNL A   1      38.348  31.241  31.857  1.00  0.00     0.031 C 
ATOM     61  C   UNL A   1      42.733  30.107  35.907  1.00  0.00     0.029 A 
ATOM     62  C   UNL A   1      41.955  30.094  34.760  1.00  0.00     0.049 A 
ATOM     63  H   UNL A   1      42.231  28.985  32.986  1.00  0.00     0.167 HD
ATOM     64  C   UNL A   1      40.053  30.774  33.319  1.00  0.00     0.074 A 
ATOM     65  C   UNL A   1      38.848  31.530  33.050  1.00  0.00     0.031 C 
ATOM     66  C   UNL A   1      40.748  30.838  34.484  1.00  0.00     0.034 A 
BRANCH  53  67
ATOM     67  C   UNL A   1      45.751  27.172  34.627  1.00  0.00     0.023 A 
ATOM     68  C   UNL A   1      45.667  25.987  35.380  1.00  0.00     0.031 A 
ATOM     69  C   UNL A   1      46.969  27.876  34.644  1.00  0.00     0.131 A 
ATOM     70  C   UNL A   1      46.752  25.583  36.172  1.00  0.00     0.055 A 
ATOM     71  C   UNL A   1      48.074  27.420  35.365  1.00  0.00     0.041 A 
ATOM     72  F   UNL A   1      47.101  29.028  33.968  1.00  0.00    -0.206 F 
ATOM     73  C   UNL A   1      47.964  26.275  36.147  1.00  0.00     0.022 A 
BRANCH  70  74
ATOM     74  S   UNL A   1      46.505  24.228  37.353  1.00  0.00     0.124 S 
ATOM     75  O   UNL A   1      46.315  23.089  36.458  1.00  0.00    -0.237 OA
ATOM     76  O   UNL A   1      47.748  24.242  38.113  1.00  0.00    -0.237 OA
ATOM     77  O   UNL A   1      45.312  24.633  38.095  1.00  0.00    -0.744 OA
ENDBRANCH  70  74
ENDBRANCH  53  67
BRANCH  54  78
ATOM     78  C   UNL A   1      37.956  30.255  29.125  1.00  0.00     0.023 A 
ATOM     79  C   UNL A   1      37.535  31.595  29.120  1.00  0.00     0.031 A 
ATOM     80  C   UNL A   1      37.174  29.320  28.422  1.00  0.00     0.131 A 
ATOM     81  C   UNL A   1      36.339  31.951  28.475  1.00  0.00     0.055 A 
ATOM     82  C   UNL A   1      36.020  29.690  27.730  1.00  0.00     0.041 A 
ATOM     83  F   UNL A   1      37.523  28.023  28.399  1.00  0.00    -0.206 F 
ATOM     84  C   UNL A   1      35.588  31.011  27.766  1.00  0.00     0.022 A 
BRANCH  81  85
ATOM     85  S   UNL A   1      35.722  33.647  28.666  1.00  0.00     0.124 S 
ATOM     86  O   UNL A   1      36.937  34.364  29.035  1.00  0.00    -0.237 OA
ATOM     87  O   UNL A   1      35.190  33.926  27.336  1.00  0.00    -0.237 OA
ATOM     88  O   UNL A   1      34.720  33.526  29.723  1.00  0.00    -0.744 OA
ENDBRANCH  81  85
ENDBRANCH  54  78
BRANCH  66  89
ATOM     89  C   UNL A   1      40.250  31.803  35.537  1.00  0.00     0.023 A 
ATOM     90  C   UNL A   1      39.285  31.436  36.490  1.00  0.00     0.031 A 
ATOM     91  C   UNL A   1      40.756  33.116  35.583  1.00  0.00     0.131 A 
ATOM     92  C   UNL A   1      38.811  32.388  37.408  1.00  0.00     0.055 A 
ATOM     93  C   UNL A   1      40.332  34.036  36.542  1.00  0.00     0.041 A 
ATOM     94  F   UNL A   1      41.676  33.527  34.696  1.00  0.00    -0.206 F 
ATOM     95  C   UNL A   1      39.343  33.678  37.453  1.00  0.00     0.022 A 
BRANCH  92  96
ATOM     96  S   UNL A   1      37.411  31.947  38.473  1.00  0.00     0.124 S 
ATOM     97  O   UNL A   1      36.404  32.922  38.067  1.00  0.00    -0.237 OA
ATOM     98  O   UNL A   1      37.149  30.563  38.090  1.00  0.00    -0.237 OA
ATOM     99  O   UNL A   1      37.938  32.127  39.825  1.00  0.00    -0.744 OA
ENDBRANCH  92  96
ENDBRANCH  66  89
ENDBRANCH  40  41
ENDBRANCH  33  35
ENDBRANCH  32  33
ENDBRANCH  31  32
ENDBRANCH  30  31
ENDBRANCH  29  30
ENDBRANCH  28  29
ENDBRANCH  27  28
ENDBRANCH   1  27
TORSDOF 26
ENDMDL
