MODEL 1
REMARK VINA RESULT:      -8.4      0.000      0.000
REMARK SMILES CSCc1ccc(C(=O)N[C@H]2C=C[C@@H](C(=O)OCCOCCOCCOCCOC(=O)c3ccc(-c4c5nc(c(-c6cc(S(=O)(=O)[O-])ccc6F)c6ccc([nH]6)c(-c6cc(S(=O)(=O)[O-])ccc6F)c6nc(c(-c7cc(S(=O)(=O)[O-])ccc7F)c7ccc4[nH]7)C=C6)C=C5)cc3)C2)o1
REMARK SMILES IDX 22 1 21 2 20 3 19 4 18 5 17 6 15 7 16 8 14 9 11 10 12 11
REMARK SMILES IDX 95 12 13 13 10 14 8 15 9 16 7 18 4 19 5 20 96 21 6 22 3 23
REMARK SMILES IDX 2 24 1 25 23 26 24 27 25 28 26 29 27 30 28 31 29 32 30 33
REMARK SMILES IDX 31 34 32 35 33 36 94 37 34 38 93 39 35 40 36 41 37 42 87 43
REMARK SMILES IDX 38 44 92 45 86 46 88 47 39 48 91 49 85 50 84 51 40 53 72 54
REMARK SMILES IDX 52 55 71 56 53 57 56 58 70 59 89 60 54 61 55 62 69 64 90 65
REMARK SMILES IDX 57 66 41 67 42 68 50 69 43 70 49 71 51 72 48 73 44 74 45 75
REMARK SMILES IDX 46 76 47 77 73 78 74 79 82 80 75 81 81 82 83 83 80 84 76 85
REMARK SMILES IDX 77 86 78 87 79 88 58 89 59 90 67 91 60 92 66 93 68 94 65 95
REMARK SMILES IDX 61 96 62 97 63 98 64 99
REMARK H PARENT 10 17 88 52 56 63
REMARK Flexibility Score: inf
ROOT
ATOM      1  C   UNL A   1      39.978  26.981  27.641  1.00  0.00     0.188 C 
ENDROOT
BRANCH   1   2
ATOM      2  C   UNL A   1      40.040  25.558  28.236  1.00  0.00     0.188 C 
BRANCH   2   3
ATOM      3  O   UNL A   1      39.003  24.613  27.997  1.00  0.00    -0.376 OA
BRANCH   3   4
ATOM      4  C   UNL A   1      38.933  23.925  26.753  1.00  0.00     0.202 C 
BRANCH   4   5
ATOM      5  C   UNL A   1      37.580  23.754  26.051  1.00  0.00     0.261 C 
BRANCH   5   6
ATOM      6  O   UNL A   1      37.451  22.510  25.339  1.00  0.00    -0.463 OA
BRANCH   6   7
ATOM      7  C   UNL A   1      36.321  22.263  24.641  1.00  0.00     0.312 C 
ATOM      8  O   UNL A   1      36.057  22.776  23.559  1.00  0.00    -0.252 OA
BRANCH   7   9
ATOM      9  C   UNL A   1      35.419  21.208  25.319  1.00  0.00     0.124 C 
ATOM     10  C   UNL A   1      33.218  21.248  26.479  1.00  0.00     0.106 C 
ATOM     11  C   UNL A   1      33.071  20.980  25.028  1.00  0.00    -0.006 C 
ATOM     12  C   UNL A   1      34.715  21.509  26.671  1.00  0.00     0.048 C 
ATOM     13  C   UNL A   1      34.256  20.917  24.409  1.00  0.00    -0.014 C 
BRANCH  10  14
ATOM     14  N   UNL A   1      32.286  22.235  26.997  1.00  0.00    -0.343 N 
ATOM     15  C   UNL A   1      31.995  23.557  26.728  1.00  0.00     0.287 C 
ATOM     16  O   UNL A   1      31.000  24.012  27.298  1.00  0.00    -0.266 OA
ATOM     17  H   UNL A   1      31.724  21.871  27.718  1.00  0.00     0.164 HD
BRANCH  15  18
ATOM     18  C   UNL A   1      32.818  24.331  25.832  1.00  0.00     0.191 A 
ATOM     19  C   UNL A   1      33.308  25.539  24.052  1.00  0.00     0.114 A 
ATOM     20  C   UNL A   1      34.465  25.468  24.790  1.00  0.00     0.047 A 
ATOM     21  O   UNL A   1      32.313  24.802  24.640  1.00  0.00    -0.455 OA
ATOM     22  C   UNL A   1      34.077  24.854  25.984  1.00  0.00     0.056 A 
BRANCH  19  23
ATOM     23  C   UNL A   1      32.966  26.358  22.868  1.00  0.00     0.144 C 
BRANCH  23  24
ATOM     24  S   UNL A   1      31.270  25.972  22.300  1.00  0.00    -0.157 SA
ATOM     25  C   UNL A   1      30.380  27.355  23.069  1.00  0.00     0.085 C 
ENDBRANCH  23  24
ENDBRANCH  19  23
ENDBRANCH  15  18
ENDBRANCH  10  14
ENDBRANCH   7   9
ENDBRANCH   6   7
ENDBRANCH   5   6
ENDBRANCH   4   5
ENDBRANCH   3   4
ENDBRANCH   2   3
ENDBRANCH   1   2
BRANCH   1  26
ATOM     26  O   UNL A   1      39.729  28.019  28.570  1.00  0.00    -0.377 OA
BRANCH  26  27
ATOM     27  C   UNL A   1      39.394  29.294  28.027  1.00  0.00     0.188 C 
BRANCH  27  28
ATOM     28  C   UNL A   1      39.162  30.452  29.019  1.00  0.00     0.188 C 
BRANCH  28  29
ATOM     29  O   UNL A   1      37.852  31.005  28.969  1.00  0.00    -0.376 OA
BRANCH  29  30
ATOM     30  C   UNL A   1      36.731  30.137  29.058  1.00  0.00     0.202 C 
BRANCH  30  31
ATOM     31  C   UNL A   1      35.842  30.209  30.314  1.00  0.00     0.261 C 
BRANCH  31  32
ATOM     32  O   UNL A   1      36.374  29.631  31.515  1.00  0.00    -0.460 OA
BRANCH  32  33
ATOM     33  C   UNL A   1      37.091  30.435  32.328  1.00  0.00     0.338 C 
ATOM     34  O   UNL A   1      36.707  31.470  32.850  1.00  0.00    -0.246 OA
BRANCH  33  35
ATOM     35  C   UNL A   1      38.354  29.744  32.659  1.00  0.00     0.060 A 
ATOM     36  C   UNL A   1      39.406  30.491  33.203  1.00  0.00     0.016 A 
ATOM     37  C   UNL A   1      38.508  28.375  32.423  1.00  0.00     0.016 A 
ATOM     38  C   UNL A   1      40.634  29.885  33.462  1.00  0.00     0.010 A 
ATOM     39  C   UNL A   1      39.746  27.773  32.662  1.00  0.00     0.010 A 
ATOM     40  C   UNL A   1      40.827  28.535  33.142  1.00  0.00    -0.014 A 
BRANCH  40  41
ATOM     41  C   UNL A   1      42.209  27.994  33.092  1.00  0.00     0.031 A 
ATOM     42  C   UNL A   1      42.922  27.751  34.397  1.00  0.00     0.074 A 
ATOM     43  C   UNL A   1      42.799  27.676  31.926  1.00  0.00     0.049 A 
ATOM     44  N   UNL A   1      44.135  27.315  34.616  1.00  0.00    -0.248 NA
ATOM     45  C   UNL A   1      42.158  28.045  35.620  1.00  0.00     0.031 C 
ATOM     46  C   UNL A   1      42.187  27.810  30.606  1.00  0.00     0.029 A 
ATOM     47  N   UNL A   1      44.050  27.173  31.669  1.00  0.00    -0.354 N 
ATOM     48  C   UNL A   1      44.283  27.287  35.999  1.00  0.00     0.074 A 
ATOM     49  C   UNL A   1      43.049  27.791  36.564  1.00  0.00     0.031 C 
ATOM     50  C   UNL A   1      43.068  27.405  29.675  1.00  0.00     0.029 A 
ATOM     51  C   UNL A   1      44.320  27.024  30.328  1.00  0.00     0.049 A 
ATOM     52  H   UNL A   1      44.693  26.942  32.376  1.00  0.00     0.167 HD
ATOM     53  C   UNL A   1      45.345  26.871  36.731  1.00  0.00     0.034 A 
ATOM     54  C   UNL A   1      45.455  26.648  29.703  1.00  0.00     0.034 A 
ATOM     55  C   UNL A   1      46.572  26.384  36.149  1.00  0.00     0.049 A 
ATOM     56  C   UNL A   1      46.663  26.283  30.537  1.00  0.00     0.074 A 
ATOM     57  C   UNL A   1      47.710  25.930  36.796  1.00  0.00     0.029 A 
ATOM     58  N   UNL A   1      46.831  26.300  34.788  1.00  0.00    -0.354 N 
ATOM     59  N   UNL A   1      46.792  26.257  31.845  1.00  0.00    -0.248 NA
ATOM     60  C   UNL A   1      47.876  25.886  29.810  1.00  0.00     0.031 C 
ATOM     61  C   UNL A   1      48.682  25.655  35.829  1.00  0.00     0.029 A 
ATOM     62  C   UNL A   1      48.122  25.840  34.575  1.00  0.00     0.049 A 
ATOM     63  H   UNL A   1      46.191  26.534  34.077  1.00  0.00     0.167 HD
ATOM     64  C   UNL A   1      48.087  25.804  32.093  1.00  0.00     0.074 A 
ATOM     65  C   UNL A   1      48.690  25.555  30.800  1.00  0.00     0.031 C 
ATOM     66  C   UNL A   1      48.718  25.603  33.280  1.00  0.00     0.034 A 
BRANCH  53  67
ATOM     67  C   UNL A   1      45.242  26.985  38.233  1.00  0.00     0.023 A 
ATOM     68  C   UNL A   1      45.667  28.133  38.924  1.00  0.00     0.031 A 
ATOM     69  C   UNL A   1      44.738  25.913  38.991  1.00  0.00     0.131 A 
ATOM     70  C   UNL A   1      45.649  28.153  40.328  1.00  0.00     0.055 A 
ATOM     71  C   UNL A   1      44.641  25.973  40.382  1.00  0.00     0.041 A 
ATOM     72  F   UNL A   1      44.343  24.778  38.391  1.00  0.00    -0.206 F 
ATOM     73  C   UNL A   1      45.111  27.093  41.060  1.00  0.00     0.022 A 
BRANCH  70  74
ATOM     74  S   UNL A   1      46.480  29.519  41.187  1.00  0.00     0.124 S 
ATOM     75  O   UNL A   1      47.691  28.865  41.677  1.00  0.00    -0.237 OA
ATOM     76  O   UNL A   1      46.668  30.495  40.120  1.00  0.00    -0.237 OA
ATOM     77  O   UNL A   1      45.525  29.903  42.224  1.00  0.00    -0.744 OA
ENDBRANCH  70  74
ENDBRANCH  53  67
BRANCH  54  78
ATOM     78  C   UNL A   1      45.533  26.635  28.212  1.00  0.00     0.023 A 
ATOM     79  C   UNL A   1      45.415  25.440  27.485  1.00  0.00     0.031 A 
ATOM     80  C   UNL A   1      45.794  27.817  27.494  1.00  0.00     0.131 A 
ATOM     81  C   UNL A   1      45.613  25.442  26.095  1.00  0.00     0.055 A 
ATOM     82  C   UNL A   1      45.927  27.824  26.104  1.00  0.00     0.041 A 
ATOM     83  F   UNL A   1      45.924  28.989  28.136  1.00  0.00    -0.206 F 
ATOM     84  C   UNL A   1      45.850  26.628  25.398  1.00  0.00     0.022 A 
BRANCH  81  85
ATOM     85  S   UNL A   1      45.661  23.852  25.222  1.00  0.00     0.124 S 
ATOM     86  O   UNL A   1      46.384  24.204  24.006  1.00  0.00    -0.237 OA
ATOM     87  O   UNL A   1      46.377  23.006  26.171  1.00  0.00    -0.237 OA
ATOM     88  O   UNL A   1      44.250  23.522  25.036  1.00  0.00    -0.744 OA
ENDBRANCH  81  85
ENDBRANCH  54  78
BRANCH  66  89
ATOM     89  C   UNL A   1      50.117  25.031  33.233  1.00  0.00     0.023 A 
ATOM     90  C   UNL A   1      50.357  23.653  33.088  1.00  0.00     0.031 A 
ATOM     91  C   UNL A   1      51.232  25.884  33.348  1.00  0.00     0.131 A 
ATOM     92  C   UNL A   1      51.673  23.164  33.130  1.00  0.00     0.055 A 
ATOM     93  C   UNL A   1      52.539  25.399  33.314  1.00  0.00     0.041 A 
ATOM     94  F   UNL A   1      51.067  27.209  33.493  1.00  0.00    -0.206 F 
ATOM     95  C   UNL A   1      52.765  24.029  33.221  1.00  0.00     0.022 A 
BRANCH  92  96
ATOM     96  S   UNL A   1      51.933  21.369  33.184  1.00  0.00     0.124 S 
ATOM     97  O   UNL A   1      50.573  20.861  33.034  1.00  0.00    -0.237 OA
ATOM     98  O   UNL A   1      52.824  21.149  32.049  1.00  0.00    -0.237 OA
ATOM     99  O   UNL A   1      52.537  21.150  34.497  1.00  0.00    -0.744 OA
ENDBRANCH  92  96
ENDBRANCH  66  89
ENDBRANCH  40  41
ENDBRANCH  33  35
ENDBRANCH  32  33
ENDBRANCH  31  32
ENDBRANCH  30  31
ENDBRANCH  29  30
ENDBRANCH  28  29
ENDBRANCH  27  28
ENDBRANCH  26  27
ENDBRANCH   1  26
TORSDOF 27
ENDMDL
MODEL 2
REMARK VINA RESULT:      -8.2      5.379     10.053
REMARK SMILES CSCc1ccc(C(=O)N[C@H]2C=C[C@@H](C(=O)OCCOCCOCCOCCOC(=O)c3ccc(-c4c5nc(c(-c6cc(S(=O)(=O)[O-])ccc6F)c6ccc([nH]6)c(-c6cc(S(=O)(=O)[O-])ccc6F)c6nc(c(-c7cc(S(=O)(=O)[O-])ccc7F)c7ccc4[nH]7)C=C6)C=C5)cc3)C2)o1
REMARK SMILES IDX 22 1 21 2 20 3 19 4 18 5 17 6 15 7 16 8 14 9 11 10 12 11
REMARK SMILES IDX 95 12 13 13 10 14 8 15 9 16 7 18 4 19 5 20 96 21 6 22 3 23
REMARK SMILES IDX 2 24 1 25 23 26 24 27 25 28 26 29 27 30 28 31 29 32 30 33
REMARK SMILES IDX 31 34 32 35 33 36 94 37 34 38 93 39 35 40 36 41 37 42 87 43
REMARK SMILES IDX 38 44 92 45 86 46 88 47 39 48 91 49 85 50 84 51 40 53 72 54
REMARK SMILES IDX 52 55 71 56 53 57 56 58 70 59 89 60 54 61 55 62 69 64 90 65
REMARK SMILES IDX 57 66 41 67 42 68 50 69 43 70 49 71 51 72 48 73 44 74 45 75
REMARK SMILES IDX 46 76 47 77 73 78 74 79 82 80 75 81 81 82 83 83 80 84 76 85
REMARK SMILES IDX 77 86 78 87 79 88 58 89 59 90 67 91 60 92 66 93 68 94 65 95
REMARK SMILES IDX 61 96 62 97 63 98 64 99
REMARK H PARENT 10 17 88 52 56 63
REMARK Flexibility Score: inf
ROOT
ATOM      1  C   UNL A   1      36.571  23.334  26.095  1.00  0.00     0.188 C 
ENDROOT
BRANCH   1   2
ATOM      2  C   UNL A   1      35.321  23.628  25.240  1.00  0.00     0.188 C 
BRANCH   2   3
ATOM      3  O   UNL A   1      35.220  24.817  24.465  1.00  0.00    -0.376 OA
BRANCH   3   4
ATOM      4  C   UNL A   1      33.947  25.397  24.205  1.00  0.00     0.202 C 
BRANCH   4   5
ATOM      5  C   UNL A   1      33.471  26.597  25.034  1.00  0.00     0.261 C 
BRANCH   5   6
ATOM      6  O   UNL A   1      32.966  26.239  26.333  1.00  0.00    -0.463 OA
BRANCH   6   7
ATOM      7  C   UNL A   1      31.644  26.360  26.584  1.00  0.00     0.312 C 
ATOM      8  O   UNL A   1      31.094  27.418  26.868  1.00  0.00    -0.252 OA
BRANCH   7   9
ATOM      9  C   UNL A   1      30.879  25.029  26.413  1.00  0.00     0.124 C 
ATOM     10  C   UNL A   1      30.968  23.133  24.805  1.00  0.00     0.106 C 
ATOM     11  C   UNL A   1      31.849  22.903  25.976  1.00  0.00    -0.006 C 
ATOM     12  C   UNL A   1      30.417  24.547  25.010  1.00  0.00     0.048 C 
ATOM     13  C   UNL A   1      31.771  23.903  26.863  1.00  0.00    -0.014 C 
BRANCH  10  14
ATOM     14  N   UNL A   1      31.590  22.826  23.528  1.00  0.00    -0.343 N 
ATOM     15  C   UNL A   1      32.209  21.727  22.968  1.00  0.00     0.287 C 
ATOM     16  O   UNL A   1      32.475  21.818  21.767  1.00  0.00    -0.266 OA
ATOM     17  H   UNL A   1      31.563  23.591  22.910  1.00  0.00     0.164 HD
BRANCH  15  18
ATOM     18  C   UNL A   1      32.510  20.560  23.760  1.00  0.00     0.191 A 
ATOM     19  C   UNL A   1      32.752  18.415  24.212  1.00  0.00     0.114 A 
ATOM     20  C   UNL A   1      33.110  19.084  25.357  1.00  0.00     0.047 A 
ATOM     21  O   UNL A   1      32.326  19.295  23.251  1.00  0.00    -0.455 OA
ATOM     22  C   UNL A   1      33.117  20.431  24.984  1.00  0.00     0.056 A 
BRANCH  19  23
ATOM     23  C   UNL A   1      32.888  16.988  23.844  1.00  0.00     0.144 C 
BRANCH  23  24
ATOM     24  S   UNL A   1      33.248  15.984  25.331  1.00  0.00    -0.157 SA
ATOM     25  C   UNL A   1      35.060  15.937  25.223  1.00  0.00     0.085 C 
ENDBRANCH  23  24
ENDBRANCH  19  23
ENDBRANCH  15  18
ENDBRANCH  10  14
ENDBRANCH   7   9
ENDBRANCH   6   7
ENDBRANCH   5   6
ENDBRANCH   4   5
ENDBRANCH   3   4
ENDBRANCH   2   3
ENDBRANCH   1   2
BRANCH   1  26
ATOM     26  O   UNL A   1      37.289  22.166  25.745  1.00  0.00    -0.377 OA
BRANCH  26  27
ATOM     27  C   UNL A   1      36.799  21.427  24.629  1.00  0.00     0.188 C 
BRANCH  27  28
ATOM     28  C   UNL A   1      36.961  19.893  24.663  1.00  0.00     0.188 C 
BRANCH  28  29
ATOM     29  O   UNL A   1      37.894  19.429  25.632  1.00  0.00    -0.376 OA
BRANCH  29  30
ATOM     30  C   UNL A   1      39.278  19.432  25.317  1.00  0.00     0.202 C 
BRANCH  30  31
ATOM     31  C   UNL A   1      40.250  20.140  26.280  1.00  0.00     0.261 C 
BRANCH  31  32
ATOM     32  O   UNL A   1      41.547  19.547  26.440  1.00  0.00    -0.460 OA
BRANCH  32  33
ATOM     33  C   UNL A   1      42.615  20.263  26.028  1.00  0.00     0.338 C 
ATOM     34  O   UNL A   1      43.471  19.900  25.237  1.00  0.00    -0.246 OA
BRANCH  33  35
ATOM     35  C   UNL A   1      42.463  21.645  26.528  1.00  0.00     0.060 A 
ATOM     36  C   UNL A   1      42.282  22.678  25.601  1.00  0.00     0.016 A 
ATOM     37  C   UNL A   1      42.512  21.922  27.897  1.00  0.00     0.016 A 
ATOM     38  C   UNL A   1      42.205  24.001  26.035  1.00  0.00     0.010 A 
ATOM     39  C   UNL A   1      42.457  23.251  28.329  1.00  0.00     0.010 A 
ATOM     40  C   UNL A   1      42.347  24.298  27.397  1.00  0.00    -0.014 A 
BRANCH  40  41
ATOM     41  C   UNL A   1      42.610  25.700  27.807  1.00  0.00     0.031 A 
ATOM     42  C   UNL A   1      44.022  26.216  27.701  1.00  0.00     0.074 A 
ATOM     43  C   UNL A   1      41.619  26.513  28.213  1.00  0.00     0.049 A 
ATOM     44  N   UNL A   1      44.509  27.385  28.022  1.00  0.00    -0.248 NA
ATOM     45  C   UNL A   1      45.018  25.278  27.159  1.00  0.00     0.031 C 
ATOM     46  C   UNL A   1      40.208  26.146  28.299  1.00  0.00     0.029 A 
ATOM     47  N   UNL A   1      41.654  27.821  28.629  1.00  0.00    -0.354 N 
ATOM     48  C   UNL A   1      45.868  27.323  27.729  1.00  0.00     0.074 A 
ATOM     49  C   UNL A   1      46.132  25.985  27.243  1.00  0.00     0.031 C 
ATOM     50  C   UNL A   1      39.509  27.204  28.747  1.00  0.00     0.029 A 
ATOM     51  C   UNL A   1      40.428  28.309  29.021  1.00  0.00     0.049 A 
ATOM     52  H   UNL A   1      42.477  28.360  28.646  1.00  0.00     0.167 HD
ATOM     53  C   UNL A   1      46.807  28.295  27.843  1.00  0.00     0.034 A 
ATOM     54  C   UNL A   1      40.095  29.499  29.563  1.00  0.00     0.034 A 
ATOM     55  C   UNL A   1      46.527  29.619  28.342  1.00  0.00     0.049 A 
ATOM     56  C   UNL A   1      41.177  30.534  29.775  1.00  0.00     0.074 A 
ATOM     57  C   UNL A   1      47.400  30.683  28.494  1.00  0.00     0.029 A 
ATOM     58  N   UNL A   1      45.286  30.059  28.784  1.00  0.00    -0.354 N 
ATOM     59  N   UNL A   1      42.459  30.466  29.492  1.00  0.00    -0.248 NA
ATOM     60  C   UNL A   1      40.764  31.811  30.373  1.00  0.00     0.031 C 
ATOM     61  C   UNL A   1      46.707  31.733  29.106  1.00  0.00     0.029 A 
ATOM     62  C   UNL A   1      45.379  31.364  29.244  1.00  0.00     0.049 A 
ATOM     63  H   UNL A   1      44.460  29.523  28.772  1.00  0.00     0.167 HD
ATOM     64  C   UNL A   1      42.993  31.705  29.841  1.00  0.00     0.074 A 
ATOM     65  C   UNL A   1      41.893  32.503  30.341  1.00  0.00     0.031 C 
ATOM     66  C   UNL A   1      44.275  32.148  29.749  1.00  0.00     0.034 A 
BRANCH  53  67
ATOM     67  C   UNL A   1      48.227  27.935  27.480  1.00  0.00     0.023 A 
ATOM     68  C   UNL A   1      49.175  27.568  28.452  1.00  0.00     0.031 A 
ATOM     69  C   UNL A   1      48.650  27.989  26.140  1.00  0.00     0.131 A 
ATOM     70  C   UNL A   1      50.510  27.343  28.080  1.00  0.00     0.055 A 
ATOM     71  C   UNL A   1      49.958  27.679  25.765  1.00  0.00     0.041 A 
ATOM     72  F   UNL A   1      47.799  28.361  25.170  1.00  0.00    -0.206 F 
ATOM     73  C   UNL A   1      50.901  27.367  26.739  1.00  0.00     0.022 A 
BRANCH  70  74
ATOM     74  S   UNL A   1      51.758  27.172  29.386  1.00  0.00     0.124 S 
ATOM     75  O   UNL A   1      50.984  26.537  30.450  1.00  0.00    -0.237 OA
ATOM     76  O   UNL A   1      52.770  26.339  28.748  1.00  0.00    -0.237 OA
ATOM     77  O   UNL A   1      52.162  28.549  29.656  1.00  0.00    -0.744 OA
ENDBRANCH  70  74
ENDBRANCH  53  67
BRANCH  54  78
ATOM     78  C   UNL A   1      38.690  29.774  29.985  1.00  0.00     0.023 A 
ATOM     79  C   UNL A   1      37.804  30.484  29.159  1.00  0.00     0.031 A 
ATOM     80  C   UNL A   1      38.231  29.386  31.258  1.00  0.00     0.131 A 
ATOM     81  C   UNL A   1      36.529  30.831  29.633  1.00  0.00     0.055 A 
ATOM     82  C   UNL A   1      36.939  29.680  31.700  1.00  0.00     0.041 A 
ATOM     83  F   UNL A   1      39.036  28.710  32.095  1.00  0.00    -0.206 F 
ATOM     84  C   UNL A   1      36.084  30.419  30.890  1.00  0.00     0.022 A 
BRANCH  81  85
ATOM     85  S   UNL A   1      35.495  31.926  28.620  1.00  0.00     0.124 S 
ATOM     86  O   UNL A   1      34.539  32.423  29.603  1.00  0.00    -0.237 OA
ATOM     87  O   UNL A   1      36.469  32.894  28.127  1.00  0.00    -0.237 OA
ATOM     88  O   UNL A   1      34.940  31.031  27.608  1.00  0.00    -0.744 OA
ENDBRANCH  81  85
ENDBRANCH  54  78
BRANCH  66  89
ATOM     89  C   UNL A   1      44.543  33.583  30.145  1.00  0.00     0.023 A 
ATOM     90  C   UNL A   1      44.866  33.946  31.465  1.00  0.00     0.031 A 
ATOM     91  C   UNL A   1      44.461  34.607  29.183  1.00  0.00     0.131 A 
ATOM     92  C   UNL A   1      45.028  35.301  31.798  1.00  0.00     0.055 A 
ATOM     93  C   UNL A   1      44.697  35.944  29.506  1.00  0.00     0.041 A 
ATOM     94  F   UNL A   1      44.153  34.324  27.907  1.00  0.00    -0.206 F 
ATOM     95  C   UNL A   1      44.966  36.299  30.824  1.00  0.00     0.022 A 
BRANCH  92  96
ATOM     96  S   UNL A   1      45.203  35.752  33.547  1.00  0.00     0.124 S 
ATOM     97  O   UNL A   1      44.069  36.648  33.744  1.00  0.00    -0.237 OA
ATOM     98  O   UNL A   1      45.117  34.456  34.213  1.00  0.00    -0.237 OA
ATOM     99  O   UNL A   1      46.517  36.392  33.605  1.00  0.00    -0.744 OA
ENDBRANCH  92  96
ENDBRANCH  66  89
ENDBRANCH  40  41
ENDBRANCH  33  35
ENDBRANCH  32  33
ENDBRANCH  31  32
ENDBRANCH  30  31
ENDBRANCH  29  30
ENDBRANCH  28  29
ENDBRANCH  27  28
ENDBRANCH  26  27
ENDBRANCH   1  26
TORSDOF 27
ENDMDL
MODEL 3
REMARK VINA RESULT:      -8.0      6.431     10.603
REMARK SMILES CSCc1ccc(C(=O)N[C@H]2C=C[C@@H](C(=O)OCCOCCOCCOCCOC(=O)c3ccc(-c4c5nc(c(-c6cc(S(=O)(=O)[O-])ccc6F)c6ccc([nH]6)c(-c6cc(S(=O)(=O)[O-])ccc6F)c6nc(c(-c7cc(S(=O)(=O)[O-])ccc7F)c7ccc4[nH]7)C=C6)C=C5)cc3)C2)o1
REMARK SMILES IDX 22 1 21 2 20 3 19 4 18 5 17 6 15 7 16 8 14 9 11 10 12 11
REMARK SMILES IDX 95 12 13 13 10 14 8 15 9 16 7 18 4 19 5 20 96 21 6 22 3 23
REMARK SMILES IDX 2 24 1 25 23 26 24 27 25 28 26 29 27 30 28 31 29 32 30 33
REMARK SMILES IDX 31 34 32 35 33 36 94 37 34 38 93 39 35 40 36 41 37 42 87 43
REMARK SMILES IDX 38 44 92 45 86 46 88 47 39 48 91 49 85 50 84 51 40 53 72 54
REMARK SMILES IDX 52 55 71 56 53 57 56 58 70 59 89 60 54 61 55 62 69 64 90 65
REMARK SMILES IDX 57 66 41 67 42 68 50 69 43 70 49 71 51 72 48 73 44 74 45 75
REMARK SMILES IDX 46 76 47 77 73 78 74 79 82 80 75 81 81 82 83 83 80 84 76 85
REMARK SMILES IDX 77 86 78 87 79 88 58 89 59 90 67 91 60 92 66 93 68 94 65 95
REMARK SMILES IDX 61 96 62 97 63 98 64 99
REMARK H PARENT 10 17 88 52 56 63
REMARK Flexibility Score: inf
ROOT
ATOM      1  C   UNL A   1      37.718  21.758  25.520  1.00  0.00     0.188 C 
ENDROOT
BRANCH   1   2
ATOM      2  C   UNL A   1      36.400  22.435  25.955  1.00  0.00     0.188 C 
BRANCH   2   3
ATOM      3  O   UNL A   1      35.279  21.665  26.373  1.00  0.00    -0.376 OA
BRANCH   3   4
ATOM      4  C   UNL A   1      34.597  21.991  27.579  1.00  0.00     0.202 C 
BRANCH   4   5
ATOM      5  C   UNL A   1      33.143  22.478  27.526  1.00  0.00     0.261 C 
BRANCH   5   6
ATOM      6  O   UNL A   1      32.960  23.666  26.736  1.00  0.00    -0.463 OA
BRANCH   6   7
ATOM      7  C   UNL A   1      31.717  24.173  26.584  1.00  0.00     0.312 C 
ATOM      8  O   UNL A   1      30.688  23.541  26.798  1.00  0.00    -0.252 OA
BRANCH   7   9
ATOM      9  C   UNL A   1      31.724  25.661  26.171  1.00  0.00     0.124 C 
ATOM     10  C   UNL A   1      31.865  26.898  24.017  1.00  0.00     0.106 C 
ATOM     11  C   UNL A   1      30.460  26.631  24.407  1.00  0.00    -0.006 C 
ATOM     12  C   UNL A   1      32.702  26.184  25.083  1.00  0.00     0.048 C 
ATOM     13  C   UNL A   1      30.380  26.003  25.587  1.00  0.00    -0.014 C 
BRANCH  10  14
ATOM     14  N   UNL A   1      32.156  26.611  22.623  1.00  0.00    -0.343 N 
ATOM     15  C   UNL A   1      32.590  25.513  21.908  1.00  0.00     0.287 C 
ATOM     16  O   UNL A   1      32.567  25.631  20.680  1.00  0.00    -0.266 OA
ATOM     17  H   UNL A   1      32.009  27.395  22.045  1.00  0.00     0.164 HD
BRANCH  15  18
ATOM     18  C   UNL A   1      33.032  24.317  22.581  1.00  0.00     0.191 A 
ATOM     19  C   UNL A   1      32.855  22.335  23.533  1.00  0.00     0.114 A 
ATOM     20  C   UNL A   1      34.190  22.656  23.576  1.00  0.00     0.047 A 
ATOM     21  O   UNL A   1      32.128  23.360  22.986  1.00  0.00    -0.455 OA
ATOM     22  C   UNL A   1      34.291  23.823  22.814  1.00  0.00     0.056 A 
BRANCH  19  23
ATOM     23  C   UNL A   1      32.156  21.067  23.840  1.00  0.00     0.144 C 
BRANCH  23  24
ATOM     24  S   UNL A   1      33.366  19.775  24.303  1.00  0.00    -0.157 SA
ATOM     25  C   UNL A   1      32.346  18.300  24.017  1.00  0.00     0.085 C 
ENDBRANCH  23  24
ENDBRANCH  19  23
ENDBRANCH  15  18
ENDBRANCH  10  14
ENDBRANCH   7   9
ENDBRANCH   6   7
ENDBRANCH   5   6
ENDBRANCH   4   5
ENDBRANCH   3   4
ENDBRANCH   2   3
ENDBRANCH   1   2
BRANCH   1  26
ATOM     26  O   UNL A   1      38.867  22.136  26.253  1.00  0.00    -0.377 OA
BRANCH  26  27
ATOM     27  C   UNL A   1      39.948  21.206  26.268  1.00  0.00     0.188 C 
BRANCH  27  28
ATOM     28  C   UNL A   1      40.915  21.255  27.469  1.00  0.00     0.188 C 
BRANCH  28  29
ATOM     29  O   UNL A   1      41.936  22.239  27.351  1.00  0.00    -0.376 OA
BRANCH  29  30
ATOM     30  C   UNL A   1      42.205  22.810  26.079  1.00  0.00     0.202 C 
BRANCH  30  31
ATOM     31  C   UNL A   1      43.553  22.497  25.402  1.00  0.00     0.261 C 
BRANCH  31  32
ATOM     32  O   UNL A   1      44.075  23.492  24.511  1.00  0.00    -0.460 OA
BRANCH  32  33
ATOM     33  C   UNL A   1      45.236  24.089  24.854  1.00  0.00     0.338 C 
ATOM     34  O   UNL A   1      46.351  23.791  24.457  1.00  0.00    -0.246 OA
BRANCH  33  35
ATOM     35  C   UNL A   1      44.916  25.307  25.627  1.00  0.00     0.060 A 
ATOM     36  C   UNL A   1      44.039  26.246  25.069  1.00  0.00     0.016 A 
ATOM     37  C   UNL A   1      45.484  25.530  26.884  1.00  0.00     0.016 A 
ATOM     38  C   UNL A   1      43.770  27.436  25.742  1.00  0.00     0.010 A 
ATOM     39  C   UNL A   1      45.232  26.734  27.547  1.00  0.00     0.010 A 
ATOM     40  C   UNL A   1      44.408  27.711  26.958  1.00  0.00    -0.014 A 
BRANCH  40  41
ATOM     41  C   UNL A   1      44.392  29.098  27.487  1.00  0.00     0.031 A 
ATOM     42  C   UNL A   1      43.175  29.552  28.250  1.00  0.00     0.074 A 
ATOM     43  C   UNL A   1      45.447  29.919  27.341  1.00  0.00     0.049 A 
ATOM     44  N   UNL A   1      42.909  30.716  28.782  1.00  0.00    -0.248 NA
ATOM     45  C   UNL A   1      42.112  28.551  28.435  1.00  0.00     0.031 C 
ATOM     46  C   UNL A   1      46.700  29.573  26.675  1.00  0.00     0.029 A 
ATOM     47  N   UNL A   1      45.628  31.218  27.748  1.00  0.00    -0.354 N 
ATOM     48  C   UNL A   1      41.649  30.591  29.358  1.00  0.00     0.074 A 
ATOM     49  C   UNL A   1      41.188  29.249  29.072  1.00  0.00     0.031 C 
ATOM     50  C   UNL A   1      47.521  30.637  26.713  1.00  0.00     0.029 A 
ATOM     51  C   UNL A   1      46.837  31.752  27.366  1.00  0.00     0.049 A 
ATOM     52  H   UNL A   1      44.957  31.720  28.262  1.00  0.00     0.167 HD
ATOM     53  C   UNL A   1      40.946  31.507  30.069  1.00  0.00     0.034 A 
ATOM     54  C   UNL A   1      47.322  33.004  27.507  1.00  0.00     0.034 A 
ATOM     55  C   UNL A   1      41.417  32.844  30.332  1.00  0.00     0.049 A 
ATOM     56  C   UNL A   1      46.478  34.039  28.216  1.00  0.00     0.074 A 
ATOM     57  C   UNL A   1      40.790  33.852  31.046  1.00  0.00     0.029 A 
ATOM     58  N   UNL A   1      42.621  33.369  29.881  1.00  0.00    -0.354 N 
ATOM     59  N   UNL A   1      45.288  33.910  28.760  1.00  0.00    -0.248 NA
ATOM     60  C   UNL A   1      47.047  35.388  28.339  1.00  0.00     0.031 C 
ATOM     61  C   UNL A   1      41.574  35.007  30.953  1.00  0.00     0.029 A 
ATOM     62  C   UNL A   1      42.738  34.696  30.268  1.00  0.00     0.049 A 
ATOM     63  H   UNL A   1      43.294  32.871  29.363  1.00  0.00     0.167 HD
ATOM     64  C   UNL A   1      44.987  35.150  29.322  1.00  0.00     0.074 A 
ATOM     65  C   UNL A   1      46.126  36.006  29.063  1.00  0.00     0.031 C 
ATOM     66  C   UNL A   1      43.876  35.544  29.997  1.00  0.00     0.034 A 
BRANCH  53  67
ATOM     67  C   UNL A   1      39.572  31.106  30.552  1.00  0.00     0.023 A 
ATOM     68  C   UNL A   1      38.406  31.435  29.840  1.00  0.00     0.031 A 
ATOM     69  C   UNL A   1      39.425  30.408  31.764  1.00  0.00     0.131 A 
ATOM     70  C   UNL A   1      37.146  31.133  30.380  1.00  0.00     0.055 A 
ATOM     71  C   UNL A   1      38.173  30.032  32.253  1.00  0.00     0.041 A 
ATOM     72  F   UNL A   1      40.500  30.090  32.504  1.00  0.00    -0.206 F 
ATOM     73  C   UNL A   1      37.023  30.408  31.566  1.00  0.00     0.022 A 
BRANCH  70  74
ATOM     74  S   UNL A   1      35.672  31.836  29.589  1.00  0.00     0.124 S 
ATOM     75  O   UNL A   1      36.233  32.992  28.894  1.00  0.00    -0.237 OA
ATOM     76  O   UNL A   1      35.216  30.741  28.741  1.00  0.00    -0.237 OA
ATOM     77  O   UNL A   1      34.799  32.159  30.715  1.00  0.00    -0.744 OA
ENDBRANCH  70  74
ENDBRANCH  53  67
BRANCH  54  78
ATOM     78  C   UNL A   1      48.650  33.372  26.934  1.00  0.00     0.023 A 
ATOM     79  C   UNL A   1      49.847  32.975  27.551  1.00  0.00     0.031 A 
ATOM     80  C   UNL A   1      48.740  34.190  25.792  1.00  0.00     0.131 A 
ATOM     81  C   UNL A   1      51.077  33.439  27.058  1.00  0.00     0.055 A 
ATOM     82  C   UNL A   1      49.970  34.595  25.268  1.00  0.00     0.041 A 
ATOM     83  F   UNL A   1      47.629  34.606  25.164  1.00  0.00    -0.206 F 
ATOM     84  C   UNL A   1      51.148  34.230  25.910  1.00  0.00     0.022 A 
BRANCH  81  85
ATOM     85  S   UNL A   1      52.584  33.077  28.003  1.00  0.00     0.124 S 
ATOM     86  O   UNL A   1      53.453  32.520  26.973  1.00  0.00    -0.237 OA
ATOM     87  O   UNL A   1      52.950  34.396  28.507  1.00  0.00    -0.237 OA
ATOM     88  O   UNL A   1      52.130  32.128  29.017  1.00  0.00    -0.744 OA
ENDBRANCH  81  85
ENDBRANCH  54  78
BRANCH  66  89
ATOM     89  C   UNL A   1      43.866  36.950  30.556  1.00  0.00     0.023 A 
ATOM     90  C   UNL A   1      43.385  38.045  29.816  1.00  0.00     0.031 A 
ATOM     91  C   UNL A   1      44.359  37.197  31.851  1.00  0.00     0.131 A 
ATOM     92  C   UNL A   1      43.471  39.341  30.349  1.00  0.00     0.055 A 
ATOM     93  C   UNL A   1      44.372  38.479  32.404  1.00  0.00     0.041 A 
ATOM     94  F   UNL A   1      44.836  36.193  32.605  1.00  0.00    -0.206 F 
ATOM     95  C   UNL A   1      43.942  39.562  31.645  1.00  0.00     0.022 A 
BRANCH  92  96
ATOM     96  S   UNL A   1      43.068  40.750  29.279  1.00  0.00     0.124 S 
ATOM     97  O   UNL A   1      43.643  40.337  28.004  1.00  0.00    -0.237 OA
ATOM     98  O   UNL A   1      41.610  40.782  29.341  1.00  0.00    -0.237 OA
ATOM     99  O   UNL A   1      43.739  41.875  29.928  1.00  0.00    -0.744 OA
ENDBRANCH  92  96
ENDBRANCH  66  89
ENDBRANCH  40  41
ENDBRANCH  33  35
ENDBRANCH  32  33
ENDBRANCH  31  32
ENDBRANCH  30  31
ENDBRANCH  29  30
ENDBRANCH  28  29
ENDBRANCH  27  28
ENDBRANCH  26  27
ENDBRANCH   1  26
TORSDOF 27
ENDMDL
