MODEL 1
REMARK VINA RESULT:     -10.3      0.000      0.000
REMARK SMILES O=C(OCCOCCOCCOCCOC(=O)c1ccc(-c2c3nc(c(-c4cc(S(=O)(=O)[O-])ccc4F)c4ccc([nH]4)c(-c4cc(S(=O)(=O)[O-])ccc4F)c4nc(c(-c5cc(S(=O)(=O)[O-])ccc5F)c5ccc2[nH]5)C=C4)C=C3)cc1)C1=Cc2cc(Cl)cc(-c3ccc(Cl)cc3)c2O[C@@H]1C(F)(F)F
REMARK SMILES IDX 10 1 9 2 8 3 7 4 6 5 5 6 4 7 3 8 2 9 1 10 81 11 82 12 98 13
REMARK SMILES IDX 83 14 97 15 84 16 96 17 85 18 88 19 86 20 87 21 99 22 100 23
REMARK SMILES IDX 101 24 102 25 89 26 90 27 95 28 91 29 94 30 92 31 93 32
REMARK SMILES IDX 11 33 12 34 13 35 14 36 15 37 16 38 17 39 18 40 19 41 80 42
REMARK SMILES IDX 20 43 79 44 21 45 22 46 23 47 73 48 24 49 78 50 72 51 74 52
REMARK SMILES IDX 25 53 77 54 71 55 70 56 26 58 58 59 38 60 57 61 39 62 42 63
REMARK SMILES IDX 56 64 75 65 40 66 41 67 55 69 76 70 43 71 27 72 28 73 36 74
REMARK SMILES IDX 29 75 35 76 37 77 34 78 30 79 31 80 32 81 33 82 59 83 60 84
REMARK SMILES IDX 68 85 61 86 67 87 69 88 66 89 62 90 63 91 64 92 65 93 44 94
REMARK SMILES IDX 45 95 53 96 46 97 52 98 54 99 51 100 47 101 48 102 49 103
REMARK SMILES IDX 50 104
REMARK H PARENT 74 57 42 68
REMARK Flexibility Score: inf
ROOT
ATOM      1  C   UNL A   1      33.249  28.725  27.325  1.00  0.00     0.188 C 
ENDROOT
BRANCH   1   2
ATOM      2  O   UNL A   1      33.296  27.596  26.484  1.00  0.00    -0.377 OA
BRANCH   2   3
ATOM      3  C   UNL A   1      32.792  27.919  25.218  1.00  0.00     0.188 C 
BRANCH   3   4
ATOM      4  C   UNL A   1      32.970  26.772  24.236  1.00  0.00     0.188 C 
BRANCH   4   5
ATOM      5  O   UNL A   1      31.926  26.142  23.424  1.00  0.00    -0.376 OA
BRANCH   5   6
ATOM      6  C   UNL A   1      31.392  24.608  23.135  1.00  0.00     0.202 C 
BRANCH   6   7
ATOM      7  C   UNL A   1      32.581  22.901  22.470  1.00  0.00     0.261 C 
BRANCH   7   8
ATOM      8  O   UNL A   1      33.581  22.116  23.311  1.00  0.00    -0.460 OA
BRANCH   8   9
ATOM      9  C   UNL A   1      34.724  22.786  23.502  1.00  0.00     0.338 C 
ATOM     10  O   UNL A   1      35.463  23.266  22.677  1.00  0.00    -0.246 OA
BRANCH   9  11
ATOM     11  C   UNL A   1      34.973  22.310  24.850  1.00  0.00     0.087 C 
ATOM     12  C   UNL A   1      36.130  21.433  24.978  1.00  0.00     0.027 C 
ATOM     13  C   UNL A   1      34.827  24.058  25.631  1.00  0.00     0.316 C 
ATOM     14  C   UNL A   1      37.704  21.936  25.681  1.00  0.00     0.019 A 
ATOM     15  O   UNL A   1      36.568  24.691  26.273  1.00  0.00    -0.475 OA
ATOM     16  C   UNL A   1      38.702  20.996  25.696  1.00  0.00     0.032 A 
ATOM     17  C   UNL A   1      38.033  23.564  26.205  1.00  0.00     0.135 A 
ATOM     18  C   UNL A   1      39.942  21.447  26.148  1.00  0.00     0.042 A 
ATOM     19  C   UNL A   1      39.342  23.933  26.535  1.00  0.00     0.026 A 
ATOM     20  Cl  UNL A   1      41.224  20.284  26.232  1.00  0.00    -0.084 Cl
ATOM     21  C   UNL A   1      40.239  22.809  26.522  1.00  0.00     0.033 A 
BRANCH  13  22
ATOM     22  C   UNL A   1      33.370  23.544  26.384  1.00  0.00     0.430 C 
ATOM     23  F   UNL A   1      32.712  22.458  25.940  1.00  0.00    -0.167 F 
ATOM     24  F   UNL A   1      33.717  23.189  27.665  1.00  0.00    -0.167 F 
ATOM     25  F   UNL A   1      32.442  24.522  26.554  1.00  0.00    -0.167 F 
ENDBRANCH  13  22
BRANCH  19  26
ATOM     26  C   UNL A   1      39.965  25.224  26.824  1.00  0.00    -0.015 A 
ATOM     27  C   UNL A   1      39.577  26.038  27.901  1.00  0.00     0.010 A 
ATOM     28  C   UNL A   1      40.803  25.818  25.896  1.00  0.00     0.010 A 
ATOM     29  C   UNL A   1      40.188  27.284  28.137  1.00  0.00     0.021 A 
ATOM     30  C   UNL A   1      41.551  26.947  26.220  1.00  0.00     0.021 A 
ATOM     31  C   UNL A   1      41.242  27.692  27.338  1.00  0.00     0.041 A 
ATOM     32  Cl  UNL A   1      42.117  29.132  27.664  1.00  0.00    -0.084 Cl
ENDBRANCH  19  26
ENDBRANCH   9  11
ENDBRANCH   8   9
ENDBRANCH   7   8
ENDBRANCH   6   7
ENDBRANCH   5   6
ENDBRANCH   4   5
ENDBRANCH   3   4
ENDBRANCH   2   3
ENDBRANCH   1   2
BRANCH   1  33
ATOM     33  C   UNL A   1      34.075  29.937  26.904  1.00  0.00     0.188 C 
BRANCH  33  34
ATOM     34  O   UNL A   1      33.566  31.155  27.392  1.00  0.00    -0.376 OA
BRANCH  34  35
ATOM     35  C   UNL A   1      34.254  31.785  28.464  1.00  0.00     0.202 C 
BRANCH  35  36
ATOM     36  C   UNL A   1      33.951  33.232  28.916  1.00  0.00     0.261 C 
BRANCH  36  37
ATOM     37  O   UNL A   1      34.732  33.795  29.990  1.00  0.00    -0.460 OA
BRANCH  37  38
ATOM     38  C   UNL A   1      35.045  33.021  31.054  1.00  0.00     0.338 C 
ATOM     39  O   UNL A   1      34.258  32.484  31.812  1.00  0.00    -0.246 OA
BRANCH  38  40
ATOM     40  C   UNL A   1      36.505  32.726  30.986  1.00  0.00     0.060 A 
ATOM     41  C   UNL A   1      37.400  33.498  31.746  1.00  0.00     0.016 A 
ATOM     42  C   UNL A   1      36.992  31.666  30.219  1.00  0.00     0.016 A 
ATOM     43  C   UNL A   1      38.780  33.237  31.717  1.00  0.00     0.010 A 
ATOM     44  C   UNL A   1      38.371  31.404  30.191  1.00  0.00     0.010 A 
ATOM     45  C   UNL A   1      39.285  32.209  30.911  1.00  0.00    -0.014 A 
BRANCH  45  46
ATOM     46  C   UNL A   1      40.739  32.150  30.560  1.00  0.00     0.031 A 
ATOM     47  C   UNL A   1      41.322  33.405  29.959  1.00  0.00     0.074 A 
ATOM     48  C   UNL A   1      41.539  31.078  30.752  1.00  0.00     0.049 A 
ATOM     49  N   UNL A   1      42.535  33.649  29.540  1.00  0.00    -0.248 NA
ATOM     50  C   UNL A   1      40.396  34.540  29.804  1.00  0.00     0.031 C 
ATOM     51  C   UNL A   1      41.155  29.820  31.384  1.00  0.00     0.029 A 
ATOM     52  N   UNL A   1      42.860  30.875  30.413  1.00  0.00    -0.354 N 
ATOM     53  C   UNL A   1      42.510  34.962  29.086  1.00  0.00     0.074 A 
ATOM     54  C   UNL A   1      41.144  35.417  29.164  1.00  0.00     0.031 C 
ATOM     55  C   UNL A   1      42.191  28.960  31.340  1.00  0.00     0.029 A 
ATOM     56  C   UNL A   1      43.331  29.610  30.699  1.00  0.00     0.049 A 
ATOM     57  H   UNL A   1      43.420  31.573  30.002  1.00  0.00     0.167 HD
ATOM     58  C   UNL A   1      43.538  35.750  28.696  1.00  0.00     0.034 A 
ATOM     59  C   UNL A   1      44.542  29.047  30.485  1.00  0.00     0.034 A 
ATOM     60  C   UNL A   1      44.897  35.295  28.606  1.00  0.00     0.049 A 
ATOM     61  C   UNL A   1      45.652  29.898  29.906  1.00  0.00     0.074 A 
ATOM     62  C   UNL A   1      46.020  36.014  28.244  1.00  0.00     0.029 A 
ATOM     63  N   UNL A   1      45.314  33.995  28.855  1.00  0.00    -0.354 N 
ATOM     64  N   UNL A   1      45.627  31.163  29.551  1.00  0.00    -0.248 NA
ATOM     65  C   UNL A   1      46.967  29.261  29.745  1.00  0.00     0.031 C 
ATOM     66  C   UNL A   1      47.096  35.126  28.171  1.00  0.00     0.029 A 
ATOM     67  C   UNL A   1      46.671  33.880  28.604  1.00  0.00     0.049 A 
ATOM     68  H   UNL A   1      44.732  33.263  29.163  1.00  0.00     0.167 HD
ATOM     69  C   UNL A   1      46.937  31.486  29.198  1.00  0.00     0.074 A 
ATOM     70  C   UNL A   1      47.723  30.284  29.379  1.00  0.00     0.031 C 
ATOM     71  C   UNL A   1      47.448  32.677  28.787  1.00  0.00     0.034 A 
BRANCH  58  72
ATOM     72  C   UNL A   1      43.196  37.165  28.301  1.00  0.00     0.023 A 
ATOM     73  C   UNL A   1      43.363  38.240  29.195  1.00  0.00     0.031 A 
ATOM     74  C   UNL A   1      42.609  37.428  27.054  1.00  0.00     0.131 A 
ATOM     75  C   UNL A   1      42.848  39.502  28.870  1.00  0.00     0.055 A 
ATOM     76  C   UNL A   1      42.198  38.712  26.695  1.00  0.00     0.041 A 
ATOM     77  F   UNL A   1      42.393  36.436  26.176  1.00  0.00    -0.206 F 
ATOM     78  C   UNL A   1      42.295  39.754  27.612  1.00  0.00     0.022 A 
BRANCH  75  79
ATOM     79  S   UNL A   1      42.726  40.748  30.183  1.00  0.00     0.124 S 
ATOM     80  O   UNL A   1      43.766  41.695  29.786  1.00  0.00    -0.237 OA
ATOM     81  O   UNL A   1      41.352  41.216  30.049  1.00  0.00    -0.237 OA
ATOM     82  O   UNL A   1      43.015  39.992  31.401  1.00  0.00    -0.744 OA
ENDBRANCH  75  79
ENDBRANCH  58  72
BRANCH  59  83
ATOM     83  C   UNL A   1      44.813  27.615  30.837  1.00  0.00     0.023 A 
ATOM     84  C   UNL A   1      44.553  26.577  29.923  1.00  0.00     0.031 A 
ATOM     85  C   UNL A   1      45.235  27.253  32.129  1.00  0.00     0.131 A 
ATOM     86  C   UNL A   1      44.655  25.236  30.330  1.00  0.00     0.055 A 
ATOM     87  C   UNL A   1      45.386  25.916  32.513  1.00  0.00     0.041 A 
ATOM     88  F   UNL A   1      45.492  28.197  33.049  1.00  0.00    -0.206 F 
ATOM     89  C   UNL A   1      45.081  24.898  31.615  1.00  0.00     0.022 A 
BRANCH  86  90
ATOM     90  S   UNL A   1      44.114  23.932  29.186  1.00  0.00     0.124 S 
ATOM     91  O   UNL A   1      44.136  22.755  30.047  1.00  0.00    -0.237 OA
ATOM     92  O   UNL A   1      42.795  24.412  28.787  1.00  0.00    -0.237 OA
ATOM     93  O   UNL A   1      45.128  23.959  28.135  1.00  0.00    -0.744 OA
ENDBRANCH  86  90
ENDBRANCH  59  83
BRANCH  71  94
ATOM     94  C   UNL A   1      48.942  32.766  28.578  1.00  0.00     0.023 A 
ATOM     95  C   UNL A   1      49.538  32.555  27.323  1.00  0.00     0.031 A 
ATOM     96  C   UNL A   1      49.786  33.068  29.664  1.00  0.00     0.131 A 
ATOM     97  C   UNL A   1      50.935  32.573  27.202  1.00  0.00     0.055 A 
ATOM     98  C   UNL A   1      51.169  33.174  29.517  1.00  0.00     0.041 A 
ATOM     99  F   UNL A   1      49.277  33.274  30.890  1.00  0.00    -0.206 F 
ATOM    100  C   UNL A   1      51.753  32.907  28.284  1.00  0.00     0.022 A 
BRANCH  97 101
ATOM    101  S   UNL A   1      51.677  32.016  25.644  1.00  0.00     0.124 S 
ATOM    102  O   UNL A   1      53.104  32.140  25.929  1.00  0.00    -0.237 OA
ATOM    103  O   UNL A   1      51.167  30.654  25.524  1.00  0.00    -0.237 OA
ATOM    104  O   UNL A   1      51.157  32.962  24.659  1.00  0.00    -0.744 OA
ENDBRANCH  97 101
ENDBRANCH  71  94
ENDBRANCH  45  46
ENDBRANCH  38  40
ENDBRANCH  37  38
ENDBRANCH  36  37
ENDBRANCH  35  36
ENDBRANCH  34  35
ENDBRANCH  33  34
ENDBRANCH   1  33
TORSDOF 25
ENDMDL
MODEL 2
REMARK VINA RESULT:     -10.2      4.686     10.906
REMARK SMILES O=C(OCCOCCOCCOCCOC(=O)c1ccc(-c2c3nc(c(-c4cc(S(=O)(=O)[O-])ccc4F)c4ccc([nH]4)c(-c4cc(S(=O)(=O)[O-])ccc4F)c4nc(c(-c5cc(S(=O)(=O)[O-])ccc5F)c5ccc2[nH]5)C=C4)C=C3)cc1)C1=Cc2cc(Cl)cc(-c3ccc(Cl)cc3)c2O[C@@H]1C(F)(F)F
REMARK SMILES IDX 10 1 9 2 8 3 7 4 6 5 5 6 4 7 3 8 2 9 1 10 81 11 82 12 98 13
REMARK SMILES IDX 83 14 97 15 84 16 96 17 85 18 88 19 86 20 87 21 99 22 100 23
REMARK SMILES IDX 101 24 102 25 89 26 90 27 95 28 91 29 94 30 92 31 93 32
REMARK SMILES IDX 11 33 12 34 13 35 14 36 15 37 16 38 17 39 18 40 19 41 80 42
REMARK SMILES IDX 20 43 79 44 21 45 22 46 23 47 73 48 24 49 78 50 72 51 74 52
REMARK SMILES IDX 25 53 77 54 71 55 70 56 26 58 58 59 38 60 57 61 39 62 42 63
REMARK SMILES IDX 56 64 75 65 40 66 41 67 55 69 76 70 43 71 27 72 28 73 36 74
REMARK SMILES IDX 29 75 35 76 37 77 34 78 30 79 31 80 32 81 33 82 59 83 60 84
REMARK SMILES IDX 68 85 61 86 67 87 69 88 66 89 62 90 63 91 64 92 65 93 44 94
REMARK SMILES IDX 45 95 53 96 46 97 52 98 54 99 51 100 47 101 48 102 49 103
REMARK SMILES IDX 50 104
REMARK H PARENT 74 57 42 68
REMARK Flexibility Score: inf
ROOT
ATOM      1  C   UNL A   1      36.226  21.827  25.607  1.00  0.00     0.188 C 
ENDROOT
BRANCH   1   2
ATOM      2  O   UNL A   1      36.263  23.114  26.177  1.00  0.00    -0.377 OA
BRANCH   2   3
ATOM      3  C   UNL A   1      35.475  23.995  25.426  1.00  0.00     0.188 C 
BRANCH   3   4
ATOM      4  C   UNL A   1      34.112  23.398  25.114  1.00  0.00     0.188 C 
BRANCH   4   5
ATOM      5  O   UNL A   1      32.806  23.955  25.477  1.00  0.00    -0.376 OA
BRANCH   5   6
ATOM      6  C   UNL A   1      31.295  23.998  24.818  1.00  0.00     0.202 C 
BRANCH   6   7
ATOM      7  C   UNL A   1      29.949  25.714  24.714  1.00  0.00     0.261 C 
BRANCH   7   8
ATOM      8  O   UNL A   1      30.349  27.182  24.816  1.00  0.00    -0.460 OA
BRANCH   8   9
ATOM      9  C   UNL A   1      31.167  27.418  25.848  1.00  0.00     0.338 C 
ATOM     10  O   UNL A   1      30.988  27.185  27.019  1.00  0.00    -0.246 OA
BRANCH   9  11
ATOM     11  C   UNL A   1      31.993  28.408  25.183  1.00  0.00     0.087 C 
ATOM     12  C   UNL A   1      31.884  29.753  25.731  1.00  0.00     0.027 C 
ATOM     13  C   UNL A   1      33.574  27.319  25.250  1.00  0.00     0.316 C 
ATOM     14  C   UNL A   1      33.130  30.524  26.771  1.00  0.00     0.019 A 
ATOM     15  O   UNL A   1      34.891  28.064  26.497  1.00  0.00    -0.475 OA
ATOM     16  C   UNL A   1      32.855  31.785  27.231  1.00  0.00     0.032 A 
ATOM     17  C   UNL A   1      34.565  29.695  27.303  1.00  0.00     0.135 A 
ATOM     18  C   UNL A   1      33.790  32.314  28.122  1.00  0.00     0.042 A 
ATOM     19  C   UNL A   1      35.376  30.278  28.284  1.00  0.00     0.026 A 
ATOM     20  Cl  UNL A   1      33.513  33.925  28.694  1.00  0.00    -0.084 Cl
ATOM     21  C   UNL A   1      34.947  31.609  28.619  1.00  0.00     0.033 A 
BRANCH  13  22
ATOM     22  C   UNL A   1      33.474  27.160  23.542  1.00  0.00     0.430 C 
ATOM     23  F   UNL A   1      32.356  27.510  22.881  1.00  0.00    -0.167 F 
ATOM     24  F   UNL A   1      34.413  28.023  23.031  1.00  0.00    -0.167 F 
ATOM     25  F   UNL A   1      33.849  25.945  23.060  1.00  0.00    -0.167 F 
ENDBRANCH  13  22
BRANCH  19  26
ATOM     26  C   UNL A   1      36.513  29.777  29.057  1.00  0.00    -0.015 A 
ATOM     27  C   UNL A   1      36.465  29.574  30.446  1.00  0.00     0.010 A 
ATOM     28  C   UNL A   1      37.772  29.716  28.485  1.00  0.00     0.010 A 
ATOM     29  C   UNL A   1      37.586  29.109  31.159  1.00  0.00     0.021 A 
ATOM     30  C   UNL A   1      38.826  29.074  29.132  1.00  0.00     0.021 A 
ATOM     31  C   UNL A   1      38.742  28.774  30.475  1.00  0.00     0.041 A 
ATOM     32  Cl  UNL A   1      40.090  28.069  31.270  1.00  0.00    -0.084 Cl
ENDBRANCH  19  26
ENDBRANCH   9  11
ENDBRANCH   8   9
ENDBRANCH   7   8
ENDBRANCH   6   7
ENDBRANCH   5   6
ENDBRANCH   4   5
ENDBRANCH   3   4
ENDBRANCH   2   3
ENDBRANCH   1   2
BRANCH   1  33
ATOM     33  C   UNL A   1      37.413  21.419  24.739  1.00  0.00     0.188 C 
BRANCH  33  34
ATOM     34  O   UNL A   1      38.335  20.593  25.408  1.00  0.00    -0.376 OA
BRANCH  34  35
ATOM     35  C   UNL A   1      39.507  21.194  25.941  1.00  0.00     0.202 C 
BRANCH  35  36
ATOM     36  C   UNL A   1      40.838  20.425  26.109  1.00  0.00     0.261 C 
BRANCH  36  37
ATOM     37  O   UNL A   1      41.903  21.048  26.857  1.00  0.00    -0.460 OA
BRANCH  37  38
ATOM     38  C   UNL A   1      42.705  21.944  26.238  1.00  0.00     0.338 C 
ATOM     39  O   UNL A   1      43.037  21.928  25.067  1.00  0.00    -0.246 OA
BRANCH  38  40
ATOM     40  C   UNL A   1      42.903  23.093  27.169  1.00  0.00     0.060 A 
ATOM     41  C   UNL A   1      44.173  23.686  27.271  1.00  0.00     0.016 A 
ATOM     42  C   UNL A   1      41.838  23.619  27.902  1.00  0.00     0.016 A 
ATOM     43  C   UNL A   1      44.390  24.779  28.126  1.00  0.00     0.010 A 
ATOM     44  C   UNL A   1      42.054  24.712  28.756  1.00  0.00     0.010 A 
ATOM     45  C   UNL A   1      43.341  25.281  28.906  1.00  0.00    -0.014 A 
BRANCH  45  46
ATOM     46  C   UNL A   1      43.612  26.166  30.082  1.00  0.00     0.031 A 
ATOM     47  C   UNL A   1      44.170  25.481  31.305  1.00  0.00     0.074 A 
ATOM     48  C   UNL A   1      43.403  27.501  30.113  1.00  0.00     0.049 A 
ATOM     49  N   UNL A   1      44.485  25.975  32.473  1.00  0.00    -0.248 NA
ATOM     50  C   UNL A   1      44.395  24.030  31.189  1.00  0.00     0.031 C 
ATOM     51  C   UNL A   1      42.941  28.325  29.000  1.00  0.00     0.029 A 
ATOM     52  N   UNL A   1      43.546  28.406  31.143  1.00  0.00    -0.354 N 
ATOM     53  C   UNL A   1      44.950  24.896  33.216  1.00  0.00     0.074 A 
ATOM     54  C   UNL A   1      44.760  23.711  32.415  1.00  0.00     0.031 C 
ATOM     55  C   UNL A   1      42.785  29.596  29.416  1.00  0.00     0.029 A 
ATOM     56  C   UNL A   1      43.161  29.693  30.824  1.00  0.00     0.049 A 
ATOM     57  H   UNL A   1      43.892  28.157  32.030  1.00  0.00     0.167 HD
ATOM     58  C   UNL A   1      45.543  24.889  34.431  1.00  0.00     0.034 A 
ATOM     59  C   UNL A   1      43.131  30.819  31.573  1.00  0.00     0.034 A 
ATOM     60  C   UNL A   1      45.721  26.066  35.234  1.00  0.00     0.049 A 
ATOM     61  C   UNL A   1      43.662  30.768  32.991  1.00  0.00     0.074 A 
ATOM     62  C   UNL A   1      46.329  26.177  36.470  1.00  0.00     0.029 A 
ATOM     63  N   UNL A   1      45.270  27.333  34.892  1.00  0.00    -0.354 N 
ATOM     64  N   UNL A   1      44.167  29.750  33.651  1.00  0.00    -0.248 NA
ATOM     65  C   UNL A   1      43.663  32.028  33.747  1.00  0.00     0.031 C 
ATOM     66  C   UNL A   1      46.151  27.486  36.923  1.00  0.00     0.029 A 
ATOM     67  C   UNL A   1      45.540  28.222  35.919  1.00  0.00     0.049 A 
ATOM     68  H   UNL A   1      44.823  27.565  34.046  1.00  0.00     0.167 HD
ATOM     69  C   UNL A   1      44.613  30.268  34.867  1.00  0.00     0.074 A 
ATOM     70  C   UNL A   1      44.312  31.684  34.849  1.00  0.00     0.031 C 
ATOM     71  C   UNL A   1      45.237  29.634  35.894  1.00  0.00     0.034 A 
BRANCH  58  72
ATOM     72  C   UNL A   1      45.991  23.549  34.959  1.00  0.00     0.023 A 
ATOM     73  C   UNL A   1      47.348  23.174  34.962  1.00  0.00     0.031 A 
ATOM     74  C   UNL A   1      45.043  22.601  35.376  1.00  0.00     0.131 A 
ATOM     75  C   UNL A   1      47.704  21.854  35.267  1.00  0.00     0.055 A 
ATOM     76  C   UNL A   1      45.418  21.321  35.784  1.00  0.00     0.041 A 
ATOM     77  F   UNL A   1      43.732  22.892  35.361  1.00  0.00    -0.206 F 
ATOM     78  C   UNL A   1      46.753  20.933  35.710  1.00  0.00     0.022 A 
BRANCH  75  79
ATOM     79  S   UNL A   1      49.390  21.304  34.881  1.00  0.00     0.124 S 
ATOM     80  O   UNL A   1      49.349  21.236  33.421  1.00  0.00    -0.237 OA
ATOM     81  O   UNL A   1      50.209  22.369  35.448  1.00  0.00    -0.237 OA
ATOM     82  O   UNL A   1      49.491  20.011  35.555  1.00  0.00    -0.744 OA
ENDBRANCH  75  79
ENDBRANCH  58  72
BRANCH  59  83
ATOM     83  C   UNL A   1      42.617  32.113  31.020  1.00  0.00     0.023 A 
ATOM     84  C   UNL A   1      41.247  32.434  31.066  1.00  0.00     0.031 A 
ATOM     85  C   UNL A   1      43.470  33.002  30.342  1.00  0.00     0.131 A 
ATOM     86  C   UNL A   1      40.765  33.571  30.395  1.00  0.00     0.055 A 
ATOM     87  C   UNL A   1      42.992  34.162  29.721  1.00  0.00     0.041 A 
ATOM     88  F   UNL A   1      44.786  32.749  30.256  1.00  0.00    -0.206 F 
ATOM     89  C   UNL A   1      41.629  34.443  29.733  1.00  0.00     0.022 A 
BRANCH  86  90
ATOM     90  S   UNL A   1      38.970  33.836  30.306  1.00  0.00     0.124 S 
ATOM     91  O   UNL A   1      38.466  32.468  30.347  1.00  0.00    -0.237 OA
ATOM     92  O   UNL A   1      38.726  34.648  31.494  1.00  0.00    -0.237 OA
ATOM     93  O   UNL A   1      38.792  34.532  29.033  1.00  0.00    -0.744 OA
ENDBRANCH  86  90
ENDBRANCH  59  83
BRANCH  71  94
ATOM     94  C   UNL A   1      45.712  30.475  37.055  1.00  0.00     0.023 A 
ATOM     95  C   UNL A   1      44.961  30.621  38.233  1.00  0.00     0.031 A 
ATOM     96  C   UNL A   1      46.946  31.149  36.975  1.00  0.00     0.131 A 
ATOM     97  C   UNL A   1      45.413  31.477  39.248  1.00  0.00     0.055 A 
ATOM     98  C   UNL A   1      47.433  31.926  38.027  1.00  0.00     0.041 A 
ATOM     99  F   UNL A   1      47.708  31.055  35.873  1.00  0.00    -0.206 F 
ATOM    100  C   UNL A   1      46.655  32.109  39.164  1.00  0.00     0.022 A 
BRANCH  97 101
ATOM    101  S   UNL A   1      44.291  31.863  40.619  1.00  0.00     0.124 S 
ATOM    102  O   UNL A   1      42.983  31.736  39.983  1.00  0.00    -0.237 OA
ATOM    103  O   UNL A   1      44.625  30.832  41.597  1.00  0.00    -0.237 OA
ATOM    104  O   UNL A   1      44.667  33.223  40.998  1.00  0.00    -0.744 OA
ENDBRANCH  97 101
ENDBRANCH  71  94
ENDBRANCH  45  46
ENDBRANCH  38  40
ENDBRANCH  37  38
ENDBRANCH  36  37
ENDBRANCH  35  36
ENDBRANCH  34  35
ENDBRANCH  33  34
ENDBRANCH   1  33
TORSDOF 25
ENDMDL
MODEL 3
REMARK VINA RESULT:      -9.7      4.197      9.850
REMARK SMILES O=C(OCCOCCOCCOCCOC(=O)c1ccc(-c2c3nc(c(-c4cc(S(=O)(=O)[O-])ccc4F)c4ccc([nH]4)c(-c4cc(S(=O)(=O)[O-])ccc4F)c4nc(c(-c5cc(S(=O)(=O)[O-])ccc5F)c5ccc2[nH]5)C=C4)C=C3)cc1)C1=Cc2cc(Cl)cc(-c3ccc(Cl)cc3)c2O[C@@H]1C(F)(F)F
REMARK SMILES IDX 10 1 9 2 8 3 7 4 6 5 5 6 4 7 3 8 2 9 1 10 81 11 82 12 98 13
REMARK SMILES IDX 83 14 97 15 84 16 96 17 85 18 88 19 86 20 87 21 99 22 100 23
REMARK SMILES IDX 101 24 102 25 89 26 90 27 95 28 91 29 94 30 92 31 93 32
REMARK SMILES IDX 11 33 12 34 13 35 14 36 15 37 16 38 17 39 18 40 19 41 80 42
REMARK SMILES IDX 20 43 79 44 21 45 22 46 23 47 73 48 24 49 78 50 72 51 74 52
REMARK SMILES IDX 25 53 77 54 71 55 70 56 26 58 58 59 38 60 57 61 39 62 42 63
REMARK SMILES IDX 56 64 75 65 40 66 41 67 55 69 76 70 43 71 27 72 28 73 36 74
REMARK SMILES IDX 29 75 35 76 37 77 34 78 30 79 31 80 32 81 33 82 59 83 60 84
REMARK SMILES IDX 68 85 61 86 67 87 69 88 66 89 62 90 63 91 64 92 65 93 44 94
REMARK SMILES IDX 45 95 53 96 46 97 52 98 54 99 51 100 47 101 48 102 49 103
REMARK SMILES IDX 50 104
REMARK H PARENT 74 57 42 68
REMARK Flexibility Score: inf
ROOT
ATOM      1  C   UNL A   1      35.982  22.300  25.657  1.00  0.00     0.188 C 
ENDROOT
BRANCH   1   2
ATOM      2  O   UNL A   1      35.853  23.697  25.531  1.00  0.00    -0.377 OA
BRANCH   2   3
ATOM      3  C   UNL A   1      34.500  24.056  25.531  1.00  0.00     0.188 C 
BRANCH   3   4
ATOM      4  C   UNL A   1      33.711  23.267  26.564  1.00  0.00     0.188 C 
BRANCH   4   5
ATOM      5  O   UNL A   1      32.391  23.601  27.103  1.00  0.00    -0.376 OA
BRANCH   5   6
ATOM      6  C   UNL A   1      30.860  23.768  26.512  1.00  0.00     0.202 C 
BRANCH   6   7
ATOM      7  C   UNL A   1      29.881  25.617  25.889  1.00  0.00     0.261 C 
BRANCH   7   8
ATOM      8  O   UNL A   1      30.573  26.894  25.426  1.00  0.00    -0.460 OA
BRANCH   8   9
ATOM      9  C   UNL A   1      31.351  27.426  26.377  1.00  0.00     0.338 C 
ATOM     10  O   UNL A   1      31.271  27.298  27.574  1.00  0.00    -0.246 OA
BRANCH   9  11
ATOM     11  C   UNL A   1      31.904  28.492  25.562  1.00  0.00     0.087 C 
ATOM     12  C   UNL A   1      31.720  29.830  26.111  1.00  0.00     0.027 C 
ATOM     13  C   UNL A   1      33.600  27.617  25.343  1.00  0.00     0.316 C 
ATOM     14  C   UNL A   1      33.022  30.786  26.895  1.00  0.00     0.019 A 
ATOM     15  O   UNL A   1      35.012  28.564  26.318  1.00  0.00    -0.475 OA
ATOM     16  C   UNL A   1      32.672  32.016  27.388  1.00  0.00     0.032 A 
ATOM     17  C   UNL A   1      34.628  30.166  27.159  1.00  0.00     0.135 A 
ATOM     18  C   UNL A   1      33.676  32.688  28.086  1.00  0.00     0.042 A 
ATOM     19  C   UNL A   1      35.520  30.879  27.967  1.00  0.00     0.026 A 
ATOM     20  Cl  UNL A   1      33.299  34.269  28.687  1.00  0.00    -0.084 Cl
ATOM     21  C   UNL A   1      34.988  32.154  28.365  1.00  0.00     0.033 A 
BRANCH  13  22
ATOM     22  C   UNL A   1      33.211  27.392  23.684  1.00  0.00     0.430 C 
ATOM     23  F   UNL A   1      32.241  28.117  23.100  1.00  0.00    -0.167 F 
ATOM     24  F   UNL A   1      34.334  27.764  22.984  1.00  0.00    -0.167 F 
ATOM     25  F   UNL A   1      33.008  26.100  23.317  1.00  0.00    -0.167 F 
ENDBRANCH  13  22
BRANCH  19  26
ATOM     26  C   UNL A   1      36.835  30.553  28.520  1.00  0.00    -0.015 A 
ATOM     27  C   UNL A   1      37.335  29.243  28.587  1.00  0.00     0.010 A 
ATOM     28  C   UNL A   1      37.547  31.503  29.232  1.00  0.00     0.010 A 
ATOM     29  C   UNL A   1      38.597  28.966  29.143  1.00  0.00     0.021 A 
ATOM     30  C   UNL A   1      38.870  31.281  29.605  1.00  0.00     0.021 A 
ATOM     31  C   UNL A   1      39.401  30.009  29.571  1.00  0.00     0.041 A 
ATOM     32  Cl  UNL A   1      41.004  29.745  30.125  1.00  0.00    -0.084 Cl
ENDBRANCH  19  26
ENDBRANCH   9  11
ENDBRANCH   8   9
ENDBRANCH   7   8
ENDBRANCH   6   7
ENDBRANCH   5   6
ENDBRANCH   4   5
ENDBRANCH   3   4
ENDBRANCH   2   3
ENDBRANCH   1   2
BRANCH   1  33
ATOM     33  C   UNL A   1      37.284  21.678  25.165  1.00  0.00     0.188 C 
BRANCH  33  34
ATOM     34  O   UNL A   1      38.247  21.525  26.180  1.00  0.00    -0.376 OA
BRANCH  34  35
ATOM     35  C   UNL A   1      39.508  22.157  26.006  1.00  0.00     0.202 C 
BRANCH  35  36
ATOM     36  C   UNL A   1      39.980  23.336  26.888  1.00  0.00     0.261 C 
BRANCH  36  37
ATOM     37  O   UNL A   1      41.296  23.883  26.659  1.00  0.00    -0.460 OA
BRANCH  37  38
ATOM     38  C   UNL A   1      42.323  23.476  27.439  1.00  0.00     0.338 C 
ATOM     39  O   UNL A   1      42.411  22.410  28.019  1.00  0.00    -0.246 OA
BRANCH  38  40
ATOM     40  C   UNL A   1      43.440  24.448  27.258  1.00  0.00     0.060 A 
ATOM     41  C   UNL A   1      44.191  24.850  28.376  1.00  0.00     0.016 A 
ATOM     42  C   UNL A   1      43.783  24.926  25.992  1.00  0.00     0.016 A 
ATOM     43  C   UNL A   1      45.259  25.752  28.239  1.00  0.00     0.010 A 
ATOM     44  C   UNL A   1      44.851  25.827  25.855  1.00  0.00     0.010 A 
ATOM     45  C   UNL A   1      45.578  26.279  26.982  1.00  0.00    -0.014 A 
BRANCH  45  46
ATOM     46  C   UNL A   1      46.432  27.501  26.854  1.00  0.00     0.031 A 
ATOM     47  C   UNL A   1      47.915  27.258  26.725  1.00  0.00     0.074 A 
ATOM     48  C   UNL A   1      45.969  28.771  26.838  1.00  0.00     0.049 A 
ATOM     49  N   UNL A   1      48.898  28.111  26.619  1.00  0.00    -0.248 NA
ATOM     50  C   UNL A   1      48.342  25.848  26.725  1.00  0.00     0.031 C 
ATOM     51  C   UNL A   1      44.567  29.176  26.878  1.00  0.00     0.029 A 
ATOM     52  N   UNL A   1      46.647  29.971  26.795  1.00  0.00    -0.354 N 
ATOM     53  C   UNL A   1      50.049  27.336  26.531  1.00  0.00     0.074 A 
ATOM     54  C   UNL A   1      49.656  25.961  26.720  1.00  0.00     0.031 C 
ATOM     55  C   UNL A   1      44.489  30.520  26.914  1.00  0.00     0.029 A 
ATOM     56  C   UNL A   1      45.835  31.084  26.872  1.00  0.00     0.049 A 
ATOM     57  H   UNL A   1      47.627  30.029  26.717  1.00  0.00     0.167 HD
ATOM     58  C   UNL A   1      51.316  27.718  26.253  1.00  0.00     0.034 A 
ATOM     59  C   UNL A   1      46.140  32.402  26.891  1.00  0.00     0.034 A 
ATOM     60  C   UNL A   1      51.711  29.087  26.077  1.00  0.00     0.049 A 
ATOM     61  C   UNL A   1      47.586  32.820  26.729  1.00  0.00     0.074 A 
ATOM     62  C   UNL A   1      52.964  29.585  25.771  1.00  0.00     0.029 A 
ATOM     63  N   UNL A   1      50.867  30.179  26.216  1.00  0.00    -0.354 N 
ATOM     64  N   UNL A   1      48.653  32.070  26.572  1.00  0.00    -0.248 NA
ATOM     65  C   UNL A   1      47.863  34.264  26.696  1.00  0.00     0.031 C 
ATOM     66  C   UNL A   1      52.899  30.979  25.830  1.00  0.00     0.029 A 
ATOM     67  C   UNL A   1      51.583  31.352  26.053  1.00  0.00     0.049 A 
ATOM     68  H   UNL A   1      49.902  30.127  26.404  1.00  0.00     0.167 HD
ATOM     69  C   UNL A   1      49.710  32.952  26.348  1.00  0.00     0.074 A 
ATOM     70  C   UNL A   1      49.152  34.287  26.395  1.00  0.00     0.031 C 
ATOM     71  C   UNL A   1      51.019  32.681  26.101  1.00  0.00     0.034 A 
BRANCH  58  72
ATOM     72  C   UNL A   1      52.353  26.625  26.174  1.00  0.00     0.023 A 
ATOM     73  C   UNL A   1      53.218  26.350  27.251  1.00  0.00     0.031 A 
ATOM     74  C   UNL A   1      52.541  25.915  24.979  1.00  0.00     0.131 A 
ATOM     75  C   UNL A   1      54.295  25.473  27.071  1.00  0.00     0.055 A 
ATOM     76  C   UNL A   1      53.550  24.961  24.844  1.00  0.00     0.041 A 
ATOM     77  F   UNL A   1      51.768  26.160  23.908  1.00  0.00    -0.206 F 
ATOM     78  C   UNL A   1      54.449  24.751  25.886  1.00  0.00     0.022 A 
BRANCH  75  79
ATOM     79  S   UNL A   1      55.603  25.444  28.329  1.00  0.00     0.124 S 
ATOM     80  O   UNL A   1      56.120  24.084  28.183  1.00  0.00    -0.237 OA
ATOM     81  O   UNL A   1      56.489  26.515  27.890  1.00  0.00    -0.237 OA
ATOM     82  O   UNL A   1      54.884  25.698  29.576  1.00  0.00    -0.744 OA
ENDBRANCH  75  79
ENDBRANCH  58  72
BRANCH  59  83
ATOM     83  C   UNL A   1      45.077  33.449  27.035  1.00  0.00     0.023 A 
ATOM     84  C   UNL A   1      44.606  33.841  28.302  1.00  0.00     0.031 A 
ATOM     85  C   UNL A   1      44.441  33.997  25.907  1.00  0.00     0.131 A 
ATOM     86  C   UNL A   1      43.497  34.697  28.409  1.00  0.00     0.055 A 
ATOM     87  C   UNL A   1      43.371  34.893  26.020  1.00  0.00     0.041 A 
ATOM     88  F   UNL A   1      44.840  33.658  24.670  1.00  0.00    -0.206 F 
ATOM     89  C   UNL A   1      42.884  35.236  27.278  1.00  0.00     0.022 A 
BRANCH  86  90
ATOM     90  S   UNL A   1      42.793  35.013  30.054  1.00  0.00     0.124 S 
ATOM     91  O   UNL A   1      43.407  36.290  30.399  1.00  0.00    -0.237 OA
ATOM     92  O   UNL A   1      41.362  35.044  29.768  1.00  0.00    -0.237 OA
ATOM     93  O   UNL A   1      43.242  33.868  30.842  1.00  0.00    -0.744 OA
ENDBRANCH  86  90
ENDBRANCH  59  83
BRANCH  71  94
ATOM     94  C   UNL A   1      51.930  33.844  25.781  1.00  0.00     0.023 A 
ATOM     95  C   UNL A   1      52.505  34.643  26.783  1.00  0.00     0.031 A 
ATOM     96  C   UNL A   1      52.225  34.157  24.441  1.00  0.00     0.131 A 
ATOM     97  C   UNL A   1      53.279  35.758  26.428  1.00  0.00     0.055 A 
ATOM     98  C   UNL A   1      53.071  35.211  24.097  1.00  0.00     0.041 A 
ATOM     99  F   UNL A   1      51.701  33.434  23.437  1.00  0.00    -0.206 F 
ATOM    100  C   UNL A   1      53.588  36.031  25.094  1.00  0.00     0.022 A 
BRANCH  97 101
ATOM    101  S   UNL A   1      53.763  36.926  27.728  1.00  0.00     0.124 S 
ATOM    102  O   UNL A   1      54.572  37.886  26.983  1.00  0.00    -0.237 OA
ATOM    103  O   UNL A   1      52.473  37.415  28.205  1.00  0.00    -0.237 OA
ATOM    104  O   UNL A   1      54.502  36.096  28.677  1.00  0.00    -0.744 OA
ENDBRANCH  97 101
ENDBRANCH  71  94
ENDBRANCH  45  46
ENDBRANCH  38  40
ENDBRANCH  37  38
ENDBRANCH  36  37
ENDBRANCH  35  36
ENDBRANCH  34  35
ENDBRANCH  33  34
ENDBRANCH   1  33
TORSDOF 25
ENDMDL
