MODEL 1
REMARK VINA RESULT:      -9.5      0.000      0.000
REMARK SMILES O=C(C[C@H](c1ccsc1)n1cccc1)OCCOCCOCCOCCOC(=O)c1ccc(-c2c3nc(c(-c4cc(S(=O)(=O)[O-])ccc4F)c4ccc([nH]4)c(-c4cc(S(=O)(=O)[O-])ccc4F)c4nc(c(-c5cc(S(=O)(=O)[O-])ccc5F)c5ccc2[nH]5)C=C4)C=C3)cc1
REMARK SMILES IDX 22 1 21 2 20 3 19 4 18 5 17 6 16 7 15 8 2 9 1 10 3 11 4 12
REMARK SMILES IDX 10 13 11 14 14 15 12 16 13 17 5 18 6 19 9 20 7 21 8 22 23 23
REMARK SMILES IDX 24 24 25 25 26 26 27 27 28 28 29 29 30 30 31 31 92 32 32 33
REMARK SMILES IDX 91 34 33 35 34 36 35 37 85 38 36 39 90 40 84 41 86 42 37 43
REMARK SMILES IDX 89 44 83 45 82 46 38 48 70 49 50 50 69 51 51 52 54 53 68 54
REMARK SMILES IDX 87 55 52 56 53 57 67 59 88 60 55 61 39 62 40 63 48 64 41 65
REMARK SMILES IDX 47 66 49 67 46 68 42 69 43 70 44 71 45 72 71 73 72 74 80 75
REMARK SMILES IDX 73 76 79 77 81 78 78 79 74 80 75 81 76 82 77 83 56 84 57 85
REMARK SMILES IDX 65 86 58 87 64 88 66 89 63 90 59 91 60 92 61 93 62 94
REMARK H PARENT 86 47 54 58
REMARK Flexibility Score: inf
ROOT
ATOM      1  C   UNL A   1      43.018  18.468  25.956  1.00  0.00     0.188 C 
ENDROOT
BRANCH   1   2
ATOM      2  O   UNL A   1      41.930  19.202  25.403  1.00  0.00    -0.377 OA
BRANCH   2   3
ATOM      3  C   UNL A   1      41.381  20.223  26.220  1.00  0.00     0.188 C 
BRANCH   3   4
ATOM      4  C   UNL A   1      39.906  20.532  25.938  1.00  0.00     0.188 C 
BRANCH   4   5
ATOM      5  O   UNL A   1      39.088  19.554  25.306  1.00  0.00    -0.376 OA
BRANCH   5   6
ATOM      6  C   UNL A   1      37.756  19.846  24.908  1.00  0.00     0.202 C 
BRANCH   6   7
ATOM      7  C   UNL A   1      37.373  21.293  24.616  1.00  0.00     0.261 C 
BRANCH   7   8
ATOM      8  O   UNL A   1      36.937  22.083  25.722  1.00  0.00    -0.463 OA
BRANCH   8   9
ATOM      9  C   UNL A   1      35.666  22.280  26.103  1.00  0.00     0.308 C 
ATOM     10  O   UNL A   1      35.325  23.407  26.468  1.00  0.00    -0.252 OA
BRANCH   9  11
ATOM     11  C   UNL A   1      34.663  21.145  26.116  1.00  0.00     0.153 C 
BRANCH  11  12
ATOM     12  C   UNL A   1      34.090  20.683  24.758  1.00  0.00     0.128 C 
BRANCH  12  13
ATOM     13  N   UNL A   1      33.625  19.283  24.813  1.00  0.00    -0.346 N 
ATOM     14  C   UNL A   1      32.579  18.725  25.491  1.00  0.00     0.086 A 
ATOM     15  C   UNL A   1      34.308  18.257  24.184  1.00  0.00     0.086 A 
ATOM     16  C   UNL A   1      32.792  17.364  25.560  1.00  0.00     0.019 A 
ATOM     17  C   UNL A   1      33.901  17.069  24.744  1.00  0.00     0.019 A 
ENDBRANCH  12  13
BRANCH  12  18
ATOM     18  C   UNL A   1      33.191  21.751  24.095  1.00  0.00    -0.014 A 
ATOM     19  C   UNL A   1      31.764  21.960  24.190  1.00  0.00     0.017 A 
ATOM     20  C   UNL A   1      33.732  22.787  23.337  1.00  0.00     0.070 A 
ATOM     21  C   UNL A   1      31.327  23.134  23.613  1.00  0.00     0.065 A 
ATOM     22  S   UNL A   1      32.593  23.965  22.839  1.00  0.00    -0.152 S 
ENDBRANCH  12  18
ENDBRANCH  11  12
ENDBRANCH   9  11
ENDBRANCH   8   9
ENDBRANCH   7   8
ENDBRANCH   6   7
ENDBRANCH   5   6
ENDBRANCH   4   5
ENDBRANCH   3   4
ENDBRANCH   2   3
ENDBRANCH   1   2
BRANCH   1  23
ATOM     23  C   UNL A   1      44.461  18.801  25.480  1.00  0.00     0.188 C 
BRANCH  23  24
ATOM     24  O   UNL A   1      44.523  19.809  24.483  1.00  0.00    -0.376 OA
BRANCH  24  25
ATOM     25  C   UNL A   1      45.131  21.068  24.704  1.00  0.00     0.202 C 
BRANCH  25  26
ATOM     26  C   UNL A   1      44.451  22.273  24.050  1.00  0.00     0.261 C 
BRANCH  26  27
ATOM     27  O   UNL A   1      43.730  23.063  24.972  1.00  0.00    -0.460 OA
BRANCH  27  28
ATOM     28  C   UNL A   1      44.191  24.327  25.020  1.00  0.00     0.338 C 
ATOM     29  O   UNL A   1      45.334  24.716  24.908  1.00  0.00    -0.246 OA
BRANCH  28  30
ATOM     30  C   UNL A   1      43.053  25.213  25.222  1.00  0.00     0.060 A 
ATOM     31  C   UNL A   1      43.360  26.568  25.092  1.00  0.00     0.016 A 
ATOM     32  C   UNL A   1      42.085  24.692  26.082  1.00  0.00     0.016 A 
ATOM     33  C   UNL A   1      42.979  27.368  26.124  1.00  0.00     0.010 A 
ATOM     34  C   UNL A   1      41.763  25.469  27.149  1.00  0.00     0.010 A 
ATOM     35  C   UNL A   1      42.280  26.769  27.180  1.00  0.00    -0.014 A 
BRANCH  35  36
ATOM     36  C   UNL A   1      41.922  27.627  28.285  1.00  0.00     0.031 A 
ATOM     37  C   UNL A   1      42.878  27.261  29.459  1.00  0.00     0.074 A 
ATOM     38  C   UNL A   1      40.844  28.432  27.995  1.00  0.00     0.049 A 
ATOM     39  N   UNL A   1      42.750  27.433  30.732  1.00  0.00    -0.248 NA
ATOM     40  C   UNL A   1      44.154  26.509  29.182  1.00  0.00     0.031 C 
ATOM     41  C   UNL A   1      40.125  28.546  26.685  1.00  0.00     0.029 A 
ATOM     42  N   UNL A   1      40.110  29.319  28.733  1.00  0.00    -0.354 N 
ATOM     43  C   UNL A   1      43.990  27.118  31.338  1.00  0.00     0.074 A 
ATOM     44  C   UNL A   1      44.765  26.429  30.363  1.00  0.00     0.031 C 
ATOM     45  C   UNL A   1      39.019  29.330  26.785  1.00  0.00     0.029 A 
ATOM     46  C   UNL A   1      38.912  29.829  28.139  1.00  0.00     0.049 A 
ATOM     47  H   UNL A   1      40.394  29.595  29.635  1.00  0.00     0.167 HD
ATOM     48  C   UNL A   1      44.338  27.573  32.575  1.00  0.00     0.034 A 
ATOM     49  C   UNL A   1      37.913  30.543  28.763  1.00  0.00     0.034 A 
ATOM     50  C   UNL A   1      43.226  28.254  33.149  1.00  0.00     0.049 A 
ATOM     51  C   UNL A   1      38.491  30.748  30.105  1.00  0.00     0.074 A 
ATOM     52  C   UNL A   1      42.054  27.759  33.656  1.00  0.00     0.029 A 
ATOM     53  N   UNL A   1      43.062  29.582  32.828  1.00  0.00    -0.354 N 
ATOM     54  N   UNL A   1      39.490  31.534  30.366  1.00  0.00    -0.248 NA
ATOM     55  C   UNL A   1      38.044  29.875  31.196  1.00  0.00     0.031 C 
ATOM     56  C   UNL A   1      41.099  28.619  33.081  1.00  0.00     0.029 A 
ATOM     57  C   UNL A   1      41.724  29.760  32.559  1.00  0.00     0.049 A 
ATOM     58  H   UNL A   1      43.765  30.270  32.797  1.00  0.00     0.167 HD
ATOM     59  C   UNL A   1      39.984  31.029  31.541  1.00  0.00     0.074 A 
ATOM     60  C   UNL A   1      38.907  30.257  32.133  1.00  0.00     0.031 C 
ATOM     61  C   UNL A   1      41.324  30.865  31.716  1.00  0.00     0.034 A 
BRANCH  48  62
ATOM     62  C   UNL A   1      45.633  27.623  33.326  1.00  0.00     0.023 A 
ATOM     63  C   UNL A   1      45.684  26.860  34.517  1.00  0.00     0.031 A 
ATOM     64  C   UNL A   1      46.646  28.571  33.144  1.00  0.00     0.131 A 
ATOM     65  C   UNL A   1      46.600  27.146  35.531  1.00  0.00     0.055 A 
ATOM     66  C   UNL A   1      47.609  28.813  34.136  1.00  0.00     0.041 A 
ATOM     67  F   UNL A   1      46.688  29.350  32.053  1.00  0.00    -0.206 F 
ATOM     68  C   UNL A   1      47.566  28.129  35.352  1.00  0.00     0.022 A 
BRANCH  65  69
ATOM     69  S   UNL A   1      46.370  26.327  37.135  1.00  0.00     0.124 S 
ATOM     70  O   UNL A   1      45.786  25.046  36.749  1.00  0.00    -0.237 OA
ATOM     71  O   UNL A   1      47.736  26.276  37.648  1.00  0.00    -0.237 OA
ATOM     72  O   UNL A   1      45.470  27.230  37.849  1.00  0.00    -0.744 OA
ENDBRANCH  65  69
ENDBRANCH  48  62
BRANCH  49  73
ATOM     73  C   UNL A   1      36.472  31.038  28.593  1.00  0.00     0.023 A 
ATOM     74  C   UNL A   1      35.940  32.309  28.887  1.00  0.00     0.031 A 
ATOM     75  C   UNL A   1      35.531  30.148  27.970  1.00  0.00     0.131 A 
ATOM     76  C   UNL A   1      34.608  32.647  28.472  1.00  0.00     0.055 A 
ATOM     77  C   UNL A   1      34.280  30.515  27.476  1.00  0.00     0.041 A 
ATOM     78  F   UNL A   1      35.788  28.843  27.801  1.00  0.00    -0.206 F 
ATOM     79  C   UNL A   1      33.817  31.784  27.708  1.00  0.00     0.022 A 
BRANCH  76  80
ATOM     80  S   UNL A   1      33.836  34.243  28.905  1.00  0.00     0.124 S 
ATOM     81  O   UNL A   1      33.745  34.152  30.358  1.00  0.00    -0.237 OA
ATOM     82  O   UNL A   1      34.784  35.215  28.377  1.00  0.00    -0.237 OA
ATOM     83  O   UNL A   1      32.550  34.202  28.205  1.00  0.00    -0.744 OA
ENDBRANCH  76  80
ENDBRANCH  49  73
BRANCH  61  84
ATOM     84  C   UNL A   1      42.216  31.645  30.735  1.00  0.00     0.023 A 
ATOM     85  C   UNL A   1      42.875  30.965  29.695  1.00  0.00     0.031 A 
ATOM     86  C   UNL A   1      42.528  33.016  30.847  1.00  0.00     0.131 A 
ATOM     87  C   UNL A   1      43.802  31.624  28.858  1.00  0.00     0.055 A 
ATOM     88  C   UNL A   1      43.453  33.675  30.022  1.00  0.00     0.041 A 
ATOM     89  F   UNL A   1      41.944  33.785  31.761  1.00  0.00    -0.206 F 
ATOM     90  C   UNL A   1      44.099  32.976  29.019  1.00  0.00     0.022 A 
BRANCH  87  91
ATOM     91  S   UNL A   1      44.599  30.695  27.521  1.00  0.00     0.124 S 
ATOM     92  O   UNL A   1      44.909  29.421  28.158  1.00  0.00    -0.237 OA
ATOM     93  O   UNL A   1      43.558  30.666  26.498  1.00  0.00    -0.237 OA
ATOM     94  O   UNL A   1      45.763  31.516  27.183  1.00  0.00    -0.744 OA
ENDBRANCH  87  91
ENDBRANCH  61  84
ENDBRANCH  35  36
ENDBRANCH  28  30
ENDBRANCH  27  28
ENDBRANCH  26  27
ENDBRANCH  25  26
ENDBRANCH  24  25
ENDBRANCH  23  24
ENDBRANCH   1  23
TORSDOF 26
ENDMDL
MODEL 2
REMARK VINA RESULT:      -8.6      2.465      3.362
REMARK SMILES O=C(C[C@H](c1ccsc1)n1cccc1)OCCOCCOCCOCCOC(=O)c1ccc(-c2c3nc(c(-c4cc(S(=O)(=O)[O-])ccc4F)c4ccc([nH]4)c(-c4cc(S(=O)(=O)[O-])ccc4F)c4nc(c(-c5cc(S(=O)(=O)[O-])ccc5F)c5ccc2[nH]5)C=C4)C=C3)cc1
REMARK SMILES IDX 22 1 21 2 20 3 19 4 18 5 17 6 16 7 15 8 2 9 1 10 3 11 4 12
REMARK SMILES IDX 10 13 11 14 14 15 12 16 13 17 5 18 6 19 9 20 7 21 8 22 23 23
REMARK SMILES IDX 24 24 25 25 26 26 27 27 28 28 29 29 30 30 31 31 92 32 32 33
REMARK SMILES IDX 91 34 33 35 34 36 35 37 85 38 36 39 90 40 84 41 86 42 37 43
REMARK SMILES IDX 89 44 83 45 82 46 38 48 70 49 50 50 69 51 51 52 54 53 68 54
REMARK SMILES IDX 87 55 52 56 53 57 67 59 88 60 55 61 39 62 40 63 48 64 41 65
REMARK SMILES IDX 47 66 49 67 46 68 42 69 43 70 44 71 45 72 71 73 72 74 80 75
REMARK SMILES IDX 73 76 79 77 81 78 78 79 74 80 75 81 76 82 77 83 56 84 57 85
REMARK SMILES IDX 65 86 58 87 64 88 66 89 63 90 59 91 60 92 61 93 62 94
REMARK H PARENT 86 47 54 58
REMARK Flexibility Score: inf
ROOT
ATOM      1  C   UNL A   1      42.750  18.460  26.120  1.00  0.00     0.188 C 
ENDROOT
BRANCH   1   2
ATOM      2  O   UNL A   1      41.774  19.405  25.693  1.00  0.00    -0.377 OA
BRANCH   2   3
ATOM      3  C   UNL A   1      41.693  20.607  26.441  1.00  0.00     0.188 C 
BRANCH   3   4
ATOM      4  C   UNL A   1      40.389  21.389  26.239  1.00  0.00     0.188 C 
BRANCH   4   5
ATOM      5  O   UNL A   1      39.222  20.712  25.787  1.00  0.00    -0.376 OA
BRANCH   5   6
ATOM      6  C   UNL A   1      38.036  21.420  25.457  1.00  0.00     0.202 C 
BRANCH   6   7
ATOM      7  C   UNL A   1      38.038  22.943  25.536  1.00  0.00     0.261 C 
BRANCH   7   8
ATOM      8  O   UNL A   1      36.926  23.559  26.185  1.00  0.00    -0.463 OA
BRANCH   8   9
ATOM      9  C   UNL A   1      35.835  24.059  25.585  1.00  0.00     0.308 C 
ATOM     10  O   UNL A   1      35.210  24.960  26.148  1.00  0.00    -0.252 OA
BRANCH   9  11
ATOM     11  C   UNL A   1      35.351  23.519  24.256  1.00  0.00     0.153 C 
BRANCH  11  12
ATOM     12  C   UNL A   1      33.866  23.106  24.152  1.00  0.00     0.128 C 
BRANCH  12  13
ATOM     13  N   UNL A   1      33.141  23.933  23.168  1.00  0.00    -0.346 N 
ATOM     14  C   UNL A   1      33.058  23.823  21.810  1.00  0.00     0.086 A 
ATOM     15  C   UNL A   1      32.453  25.077  23.535  1.00  0.00     0.086 A 
ATOM     16  C   UNL A   1      32.621  25.031  21.308  1.00  0.00     0.019 A 
ATOM     17  C   UNL A   1      32.254  25.834  22.406  1.00  0.00     0.019 A 
ENDBRANCH  12  13
BRANCH  12  18
ATOM     18  C   UNL A   1      33.673  21.573  24.137  1.00  0.00    -0.014 A 
ATOM     19  C   UNL A   1      34.476  20.524  24.724  1.00  0.00     0.017 A 
ATOM     20  C   UNL A   1      32.536  20.989  23.581  1.00  0.00     0.070 A 
ATOM     21  C   UNL A   1      33.894  19.275  24.674  1.00  0.00     0.065 A 
ATOM     22  S   UNL A   1      32.423  19.298  23.821  1.00  0.00    -0.152 S 
ENDBRANCH  12  18
ENDBRANCH  11  12
ENDBRANCH   9  11
ENDBRANCH   8   9
ENDBRANCH   7   8
ENDBRANCH   6   7
ENDBRANCH   5   6
ENDBRANCH   4   5
ENDBRANCH   3   4
ENDBRANCH   2   3
ENDBRANCH   1   2
BRANCH   1  23
ATOM     23  C   UNL A   1      44.172  18.522  25.496  1.00  0.00     0.188 C 
BRANCH  23  24
ATOM     24  O   UNL A   1      44.283  19.413  24.396  1.00  0.00    -0.376 OA
BRANCH  24  25
ATOM     25  C   UNL A   1      45.087  20.577  24.432  1.00  0.00     0.202 C 
BRANCH  25  26
ATOM     26  C   UNL A   1      44.500  21.826  23.770  1.00  0.00     0.261 C 
BRANCH  26  27
ATOM     27  O   UNL A   1      43.950  22.734  24.702  1.00  0.00    -0.460 OA
BRANCH  27  28
ATOM     28  C   UNL A   1      44.575  23.926  24.672  1.00  0.00     0.338 C 
ATOM     29  O   UNL A   1      45.714  24.170  24.334  1.00  0.00    -0.246 OA
BRANCH  28  30
ATOM     30  C   UNL A   1      43.628  24.940  25.115  1.00  0.00     0.060 A 
ATOM     31  C   UNL A   1      44.184  26.213  25.251  1.00  0.00     0.016 A 
ATOM     32  C   UNL A   1      42.593  24.433  25.901  1.00  0.00     0.016 A 
ATOM     33  C   UNL A   1      43.977  26.831  26.445  1.00  0.00     0.010 A 
ATOM     34  C   UNL A   1      42.439  25.010  27.121  1.00  0.00     0.010 A 
ATOM     35  C   UNL A   1      43.194  26.158  27.391  1.00  0.00    -0.014 A 
BRANCH  35  36
ATOM     36  C   UNL A   1      43.021  26.811  28.667  1.00  0.00     0.031 A 
ATOM     37  C   UNL A   1      44.055  26.168  29.639  1.00  0.00     0.074 A 
ATOM     38  C   UNL A   1      41.991  27.724  28.654  1.00  0.00     0.049 A 
ATOM     39  N   UNL A   1      44.071  26.103  30.928  1.00  0.00    -0.248 NA
ATOM     40  C   UNL A   1      45.230  25.403  29.086  1.00  0.00     0.031 C 
ATOM     41  C   UNL A   1      41.157  28.129  27.477  1.00  0.00     0.029 A 
ATOM     42  N   UNL A   1      41.412  28.499  29.619  1.00  0.00    -0.354 N 
ATOM     43  C   UNL A   1      45.335  25.601  31.321  1.00  0.00     0.074 A 
ATOM     44  C   UNL A   1      45.947  25.061  30.155  1.00  0.00     0.031 C 
ATOM     45  C   UNL A   1      40.136  28.949  27.842  1.00  0.00     0.029 A 
ATOM     46  C   UNL A   1      40.207  29.188  29.269  1.00  0.00     0.049 A 
ATOM     47  H   UNL A   1      41.806  28.580  30.518  1.00  0.00     0.167 HD
ATOM     48  C   UNL A   1      45.841  25.789  32.573  1.00  0.00     0.034 A 
ATOM     49  C   UNL A   1      39.339  29.832  30.122  1.00  0.00     0.034 A 
ATOM     50  C   UNL A   1      44.853  26.418  33.383  1.00  0.00     0.049 A 
ATOM     51  C   UNL A   1      40.063  29.741  31.404  1.00  0.00     0.074 A 
ATOM     52  C   UNL A   1      43.700  25.912  33.922  1.00  0.00     0.029 A 
ATOM     53  N   UNL A   1      44.769  27.790  33.330  1.00  0.00    -0.354 N 
ATOM     54  N   UNL A   1      41.145  30.398  31.688  1.00  0.00    -0.248 NA
ATOM     55  C   UNL A   1      39.656  28.707  32.361  1.00  0.00     0.031 C 
ATOM     56  C   UNL A   1      42.767  26.925  33.625  1.00  0.00     0.029 A 
ATOM     57  C   UNL A   1      43.431  28.101  33.252  1.00  0.00     0.049 A 
ATOM     58  H   UNL A   1      45.521  28.426  33.345  1.00  0.00     0.167 HD
ATOM     59  C   UNL A   1      41.711  29.649  32.688  1.00  0.00     0.074 A 
ATOM     60  C   UNL A   1      40.637  28.849  33.247  1.00  0.00     0.031 C 
ATOM     61  C   UNL A   1      43.043  29.370  32.676  1.00  0.00     0.034 A 
BRANCH  48  62
ATOM     62  C   UNL A   1      47.205  25.613  33.168  1.00  0.00     0.023 A 
ATOM     63  C   UNL A   1      48.253  26.306  32.519  1.00  0.00     0.031 A 
ATOM     64  C   UNL A   1      47.577  24.609  34.069  1.00  0.00     0.131 A 
ATOM     65  C   UNL A   1      49.585  25.906  32.648  1.00  0.00     0.055 A 
ATOM     66  C   UNL A   1      48.922  24.250  34.249  1.00  0.00     0.041 A 
ATOM     67  F   UNL A   1      46.661  23.887  34.732  1.00  0.00    -0.206 F 
ATOM     68  C   UNL A   1      49.930  24.870  33.508  1.00  0.00     0.022 A 
BRANCH  65  69
ATOM     69  S   UNL A   1      50.805  26.652  31.530  1.00  0.00     0.124 S 
ATOM     70  O   UNL A   1      51.639  25.510  31.172  1.00  0.00    -0.237 OA
ATOM     71  O   UNL A   1      49.956  27.180  30.465  1.00  0.00    -0.237 OA
ATOM     72  O   UNL A   1      51.455  27.661  32.364  1.00  0.00    -0.744 OA
ENDBRANCH  65  69
ENDBRANCH  48  62
BRANCH  49  73
ATOM     73  C   UNL A   1      37.934  30.441  30.210  1.00  0.00     0.023 A 
ATOM     74  C   UNL A   1      37.467  31.447  31.079  1.00  0.00     0.031 A 
ATOM     75  C   UNL A   1      36.965  30.023  29.234  1.00  0.00     0.131 A 
ATOM     76  C   UNL A   1      36.170  32.028  30.877  1.00  0.00     0.055 A 
ATOM     77  C   UNL A   1      35.754  30.664  28.977  1.00  0.00     0.041 A 
ATOM     78  F   UNL A   1      37.152  28.947  28.458  1.00  0.00    -0.206 F 
ATOM     79  C   UNL A   1      35.356  31.692  29.790  1.00  0.00     0.022 A 
BRANCH  76  80
ATOM     80  S   UNL A   1      35.476  33.267  32.024  1.00  0.00     0.124 S 
ATOM     81  O   UNL A   1      36.310  34.432  31.752  1.00  0.00    -0.237 OA
ATOM     82  O   UNL A   1      34.085  33.356  31.601  1.00  0.00    -0.237 OA
ATOM     83  O   UNL A   1      35.676  32.662  33.342  1.00  0.00    -0.744 OA
ENDBRANCH  76  80
ENDBRANCH  49  73
BRANCH  61  84
ATOM     84  C   UNL A   1      43.895  30.263  31.758  1.00  0.00     0.023 A 
ATOM     85  C   UNL A   1      44.353  29.766  30.525  1.00  0.00     0.031 A 
ATOM     86  C   UNL A   1      44.362  31.550  32.096  1.00  0.00     0.131 A 
ATOM     87  C   UNL A   1      45.242  30.509  29.719  1.00  0.00     0.055 A 
ATOM     88  C   UNL A   1      45.251  32.291  31.302  1.00  0.00     0.041 A 
ATOM     89  F   UNL A   1      43.972  32.155  33.215  1.00  0.00    -0.206 F 
ATOM     90  C   UNL A   1      45.699  31.768  30.102  1.00  0.00     0.022 A 
BRANCH  87  91
ATOM     91  S   UNL A   1      45.777  29.820  28.129  1.00  0.00     0.124 S 
ATOM     92  O   UNL A   1      44.539  29.792  27.360  1.00  0.00    -0.237 OA
ATOM     93  O   UNL A   1      46.782  30.785  27.694  1.00  0.00    -0.237 OA
ATOM     94  O   UNL A   1      46.311  28.505  28.489  1.00  0.00    -0.744 OA
ENDBRANCH  87  91
ENDBRANCH  61  84
ENDBRANCH  35  36
ENDBRANCH  28  30
ENDBRANCH  27  28
ENDBRANCH  26  27
ENDBRANCH  25  26
ENDBRANCH  24  25
ENDBRANCH  23  24
ENDBRANCH   1  23
TORSDOF 26
ENDMDL
MODEL 3
REMARK VINA RESULT:      -7.8      4.150      5.512
REMARK SMILES O=C(C[C@H](c1ccsc1)n1cccc1)OCCOCCOCCOCCOC(=O)c1ccc(-c2c3nc(c(-c4cc(S(=O)(=O)[O-])ccc4F)c4ccc([nH]4)c(-c4cc(S(=O)(=O)[O-])ccc4F)c4nc(c(-c5cc(S(=O)(=O)[O-])ccc5F)c5ccc2[nH]5)C=C4)C=C3)cc1
REMARK SMILES IDX 22 1 21 2 20 3 19 4 18 5 17 6 16 7 15 8 2 9 1 10 3 11 4 12
REMARK SMILES IDX 10 13 11 14 14 15 12 16 13 17 5 18 6 19 9 20 7 21 8 22 23 23
REMARK SMILES IDX 24 24 25 25 26 26 27 27 28 28 29 29 30 30 31 31 92 32 32 33
REMARK SMILES IDX 91 34 33 35 34 36 35 37 85 38 36 39 90 40 84 41 86 42 37 43
REMARK SMILES IDX 89 44 83 45 82 46 38 48 70 49 50 50 69 51 51 52 54 53 68 54
REMARK SMILES IDX 87 55 52 56 53 57 67 59 88 60 55 61 39 62 40 63 48 64 41 65
REMARK SMILES IDX 47 66 49 67 46 68 42 69 43 70 44 71 45 72 71 73 72 74 80 75
REMARK SMILES IDX 73 76 79 77 81 78 78 79 74 80 75 81 76 82 77 83 56 84 57 85
REMARK SMILES IDX 65 86 58 87 64 88 66 89 63 90 59 91 60 92 61 93 62 94
REMARK H PARENT 86 47 54 58
REMARK Flexibility Score: inf
ROOT
ATOM      1  C   UNL A   1      42.622  18.539  26.129  1.00  0.00     0.188 C 
ENDROOT
BRANCH   1   2
ATOM      2  O   UNL A   1      41.554  19.388  25.722  1.00  0.00    -0.377 OA
BRANCH   2   3
ATOM      3  C   UNL A   1      41.421  20.612  26.426  1.00  0.00     0.188 C 
BRANCH   3   4
ATOM      4  C   UNL A   1      40.114  21.364  26.143  1.00  0.00     0.188 C 
BRANCH   4   5
ATOM      5  O   UNL A   1      38.995  20.662  25.614  1.00  0.00    -0.376 OA
BRANCH   5   6
ATOM      6  C   UNL A   1      37.790  21.333  25.276  1.00  0.00     0.202 C 
BRANCH   6   7
ATOM      7  C   UNL A   1      37.771  22.859  25.275  1.00  0.00     0.261 C 
BRANCH   7   8
ATOM      8  O   UNL A   1      36.687  23.493  25.954  1.00  0.00    -0.463 OA
BRANCH   8   9
ATOM      9  C   UNL A   1      35.500  23.819  25.421  1.00  0.00     0.308 C 
ATOM     10  O   UNL A   1      34.921  24.825  25.838  1.00  0.00    -0.252 OA
BRANCH   9  11
ATOM     11  C   UNL A   1      34.858  22.967  24.348  1.00  0.00     0.153 C 
BRANCH  11  12
ATOM     12  C   UNL A   1      33.499  22.309  24.677  1.00  0.00     0.128 C 
BRANCH  12  13
ATOM     13  N   UNL A   1      32.370  23.124  24.189  1.00  0.00    -0.346 N 
ATOM     14  C   UNL A   1      32.093  23.591  22.936  1.00  0.00     0.086 A 
ATOM     15  C   UNL A   1      31.402  23.627  25.042  1.00  0.00     0.086 A 
ATOM     16  C   UNL A   1      31.181  24.619  23.054  1.00  0.00     0.019 A 
ATOM     17  C   UNL A   1      30.756  24.653  24.397  1.00  0.00     0.019 A 
ENDBRANCH  12  13
BRANCH  12  18
ATOM     18  C   UNL A   1      33.496  20.786  24.421  1.00  0.00    -0.014 A 
ATOM     19  C   UNL A   1      34.492  19.784  24.729  1.00  0.00     0.017 A 
ATOM     20  C   UNL A   1      32.376  20.138  23.902  1.00  0.00     0.070 A 
ATOM     21  C   UNL A   1      34.067  18.487  24.530  1.00  0.00     0.065 A 
ATOM     22  S   UNL A   1      32.504  18.432  23.861  1.00  0.00    -0.152 S 
ENDBRANCH  12  18
ENDBRANCH  11  12
ENDBRANCH   9  11
ENDBRANCH   8   9
ENDBRANCH   7   8
ENDBRANCH   6   7
ENDBRANCH   5   6
ENDBRANCH   4   5
ENDBRANCH   3   4
ENDBRANCH   2   3
ENDBRANCH   1   2
BRANCH   1  23
ATOM     23  C   UNL A   1      44.006  18.701  25.441  1.00  0.00     0.188 C 
BRANCH  23  24
ATOM     24  O   UNL A   1      44.023  19.658  24.392  1.00  0.00    -0.376 OA
BRANCH  24  25
ATOM     25  C   UNL A   1      44.971  20.707  24.328  1.00  0.00     0.202 C 
BRANCH  25  26
ATOM     26  C   UNL A   1      44.448  22.063  23.848  1.00  0.00     0.261 C 
BRANCH  26  27
ATOM     27  O   UNL A   1      44.510  23.059  24.846  1.00  0.00    -0.460 OA
BRANCH  27  28
ATOM     28  C   UNL A   1      45.748  23.576  24.965  1.00  0.00     0.338 C 
ATOM     29  O   UNL A   1      46.812  22.995  24.936  1.00  0.00    -0.246 OA
BRANCH  28  30
ATOM     30  C   UNL A   1      45.619  25.018  25.128  1.00  0.00     0.060 A 
ATOM     31  C   UNL A   1      46.774  25.639  25.602  1.00  0.00     0.016 A 
ATOM     32  C   UNL A   1      44.316  25.434  25.405  1.00  0.00     0.016 A 
ATOM     33  C   UNL A   1      46.618  26.440  26.691  1.00  0.00     0.010 A 
ATOM     34  C   UNL A   1      44.160  26.175  26.534  1.00  0.00     0.010 A 
ATOM     35  C   UNL A   1      45.320  26.599  27.192  1.00  0.00    -0.014 A 
BRANCH  35  36
ATOM     36  C   UNL A   1      45.180  27.419  28.373  1.00  0.00     0.031 A 
ATOM     37  C   UNL A   1      44.877  26.448  29.553  1.00  0.00     0.074 A 
ATOM     38  C   UNL A   1      45.291  28.762  28.095  1.00  0.00     0.049 A 
ATOM     39  N   UNL A   1      44.309  26.662  30.693  1.00  0.00    -0.248 NA
ATOM     40  C   UNL A   1      45.184  24.979  29.417  1.00  0.00     0.031 C 
ATOM     41  C   UNL A   1      45.615  29.389  26.773  1.00  0.00     0.029 A 
ATOM     42  N   UNL A   1      45.146  29.891  28.852  1.00  0.00    -0.354 N 
ATOM     43  C   UNL A   1      44.470  25.497  31.482  1.00  0.00     0.074 A 
ATOM     44  C   UNL A   1      44.888  24.456  30.605  1.00  0.00     0.031 C 
ATOM     45  C   UNL A   1      45.508  30.743  26.819  1.00  0.00     0.029 A 
ATOM     46  C   UNL A   1      45.137  31.144  28.160  1.00  0.00     0.049 A 
ATOM     47  H   UNL A   1      45.053  29.845  29.831  1.00  0.00     0.167 HD
ATOM     48  C   UNL A   1      44.372  25.514  32.842  1.00  0.00     0.034 A 
ATOM     49  C   UNL A   1      44.785  32.374  28.671  1.00  0.00     0.034 A 
ATOM     50  C   UNL A   1      43.960  26.811  33.262  1.00  0.00     0.049 A 
ATOM     51  C   UNL A   1      44.588  32.055  30.097  1.00  0.00     0.074 A 
ATOM     52  C   UNL A   1      42.741  27.426  33.162  1.00  0.00     0.029 A 
ATOM     53  N   UNL A   1      44.940  27.763  33.431  1.00  0.00    -0.354 N 
ATOM     54  N   UNL A   1      45.542  31.761  30.926  1.00  0.00    -0.248 NA
ATOM     55  C   UNL A   1      43.218  31.869  30.587  1.00  0.00     0.031 C 
ATOM     56  C   UNL A   1      43.094  28.706  32.692  1.00  0.00     0.029 A 
ATOM     57  C   UNL A   1      44.469  28.920  32.856  1.00  0.00     0.049 A 
ATOM     58  H   UNL A   1      45.809  27.639  33.878  1.00  0.00     0.167 HD
ATOM     59  C   UNL A   1      44.893  31.067  31.915  1.00  0.00     0.074 A 
ATOM     60  C   UNL A   1      43.494  31.435  31.813  1.00  0.00     0.031 C 
ATOM     61  C   UNL A   1      45.421  29.915  32.414  1.00  0.00     0.034 A 
BRANCH  48  62
ATOM     62  C   UNL A   1      44.743  24.533  33.912  1.00  0.00     0.023 A 
ATOM     63  C   UNL A   1      46.121  24.451  34.220  1.00  0.00     0.031 A 
ATOM     64  C   UNL A   1      43.929  23.498  34.387  1.00  0.00     0.131 A 
ATOM     65  C   UNL A   1      46.669  23.318  34.827  1.00  0.00     0.055 A 
ATOM     66  C   UNL A   1      44.471  22.390  35.056  1.00  0.00     0.041 A 
ATOM     67  F   UNL A   1      42.610  23.477  34.146  1.00  0.00    -0.206 F 
ATOM     68  C   UNL A   1      45.850  22.276  35.244  1.00  0.00     0.022 A 
BRANCH  65  69
ATOM     69  S   UNL A   1      48.478  23.180  34.883  1.00  0.00     0.124 S 
ATOM     70  O   UNL A   1      48.694  21.779  34.538  1.00  0.00    -0.237 OA
ATOM     71  O   UNL A   1      48.887  24.155  33.875  1.00  0.00    -0.237 OA
ATOM     72  O   UNL A   1      48.802  23.539  36.262  1.00  0.00    -0.744 OA
ENDBRANCH  65  69
ENDBRANCH  48  62
BRANCH  49  73
ATOM     73  C   UNL A   1      44.428  33.810  28.270  1.00  0.00     0.023 A 
ATOM     74  C   UNL A   1      44.582  34.994  29.018  1.00  0.00     0.031 A 
ATOM     75  C   UNL A   1      43.959  34.030  26.929  1.00  0.00     0.131 A 
ATOM     76  C   UNL A   1      44.375  36.271  28.396  1.00  0.00     0.055 A 
ATOM     77  C   UNL A   1      43.864  35.272  26.303  1.00  0.00     0.041 A 
ATOM     78  F   UNL A   1      43.562  33.024  26.138  1.00  0.00    -0.206 F 
ATOM     79  C   UNL A   1      44.095  36.408  27.033  1.00  0.00     0.022 A 
BRANCH  76  80
ATOM     80  S   UNL A   1      44.470  37.832  29.338  1.00  0.00     0.124 S 
ATOM     81  O   UNL A   1      45.910  38.026  29.460  1.00  0.00    -0.237 OA
ATOM     82  O   UNL A   1      43.762  38.772  28.479  1.00  0.00    -0.237 OA
ATOM     83  O   UNL A   1      43.785  37.516  30.593  1.00  0.00    -0.744 OA
ENDBRANCH  76  80
ENDBRANCH  49  73
BRANCH  61  84
ATOM     84  C   UNL A   1      46.915  29.694  32.121  1.00  0.00     0.023 A 
ATOM     85  C   UNL A   1      47.312  28.686  31.225  1.00  0.00     0.031 A 
ATOM     86  C   UNL A   1      47.970  30.369  32.770  1.00  0.00     0.131 A 
ATOM     87  C   UNL A   1      48.674  28.369  31.032  1.00  0.00     0.055 A 
ATOM     88  C   UNL A   1      49.326  30.054  32.587  1.00  0.00     0.041 A 
ATOM     89  F   UNL A   1      47.735  31.372  33.610  1.00  0.00    -0.206 F 
ATOM     90  C   UNL A   1      49.685  29.045  31.713  1.00  0.00     0.022 A 
BRANCH  87  91
ATOM     91  S   UNL A   1      49.119  27.073  29.845  1.00  0.00     0.124 S 
ATOM     92  O   UNL A   1      48.844  27.708  28.561  1.00  0.00    -0.237 OA
ATOM     93  O   UNL A   1      50.526  26.837  30.156  1.00  0.00    -0.237 OA
ATOM     94  O   UNL A   1      48.224  25.969  30.193  1.00  0.00    -0.744 OA
ENDBRANCH  87  91
ENDBRANCH  61  84
ENDBRANCH  35  36
ENDBRANCH  28  30
ENDBRANCH  27  28
ENDBRANCH  26  27
ENDBRANCH  25  26
ENDBRANCH  24  25
ENDBRANCH  23  24
ENDBRANCH   1  23
TORSDOF 26
ENDMDL
