MODEL 1
REMARK VINA RESULT:     -10.1      0.000      0.000
REMARK SMILES O=C(OCCOCCOCCOCCOC(=O)c1cccc(N2CCCCC2)n1)c1ccc(-c2c3nc(c(-c4cc(S(=O)(=O)[O-])ccc4F)c4ccc([nH]4)c(-c4cc(S(=O)(=O)[O-])ccc4F)c4nc(c(-c5cc(S(=O)(=O)[O-])ccc5F)c5ccc2[nH]5)C=C4)C=C3)cc1
REMARK SMILES IDX 8 1 7 2 6 3 5 4 4 5 3 6 2 7 1 8 30 9 31 10 92 11 32 12 91 13
REMARK SMILES IDX 33 14 34 15 35 16 85 17 36 18 90 19 84 20 86 21 37 22 89 23
REMARK SMILES IDX 83 24 82 25 38 27 70 28 50 29 69 30 51 31 54 32 68 33 87 34
REMARK SMILES IDX 52 35 53 36 67 38 88 39 55 40 39 41 40 42 48 43 41 44 47 45
REMARK SMILES IDX 49 46 46 47 42 48 43 49 44 50 45 51 71 52 72 53 80 54 73 55
REMARK SMILES IDX 79 56 81 57 78 58 74 59 75 60 76 61 77 62 56 63 57 64 65 65
REMARK SMILES IDX 58 66 64 67 66 68 63 69 59 70 60 71 61 72 62 73 9 74 10 75
REMARK SMILES IDX 11 76 12 77 13 78 14 79 15 80 16 81 17 82 18 83 19 84 29 85
REMARK SMILES IDX 20 86 22 87 21 88 23 89 24 90 28 91 25 92 27 93 26 94
REMARK H PARENT 86 26 54 37
REMARK Flexibility Score: inf
ROOT
ATOM      1  C   UNL A   1      32.576  22.525  27.393  1.00  0.00     0.188 C 
ENDROOT
BRANCH   1   2
ATOM      2  C   UNL A   1      33.886  21.747  27.260  1.00  0.00     0.188 C 
BRANCH   2   3
ATOM      3  O   UNL A   1      33.945  21.097  25.992  1.00  0.00    -0.376 OA
BRANCH   3   4
ATOM      4  C   UNL A   1      35.116  21.325  25.215  1.00  0.00     0.202 C 
BRANCH   4   5
ATOM      5  C   UNL A   1      36.379  21.622  26.028  1.00  0.00     0.261 C 
BRANCH   5   6
ATOM      6  O   UNL A   1      37.558  21.030  25.463  1.00  0.00    -0.460 OA
BRANCH   6   7
ATOM      7  C   UNL A   1      38.823  21.106  25.951  1.00  0.00     0.338 C 
ATOM      8  O   UNL A   1      39.469  20.066  26.070  1.00  0.00    -0.246 OA
BRANCH   7   9
ATOM      9  C   UNL A   1      39.482  22.391  26.337  1.00  0.00     0.060 A 
ATOM     10  C   UNL A   1      39.053  23.656  25.938  1.00  0.00     0.016 A 
ATOM     11  C   UNL A   1      40.553  22.320  27.243  1.00  0.00     0.016 A 
ATOM     12  C   UNL A   1      39.696  24.812  26.346  1.00  0.00     0.010 A 
ATOM     13  C   UNL A   1      41.180  23.484  27.701  1.00  0.00     0.010 A 
ATOM     14  C   UNL A   1      40.761  24.736  27.234  1.00  0.00    -0.014 A 
BRANCH  14  15
ATOM     15  C   UNL A   1      41.480  25.984  27.549  1.00  0.00     0.031 A 
ATOM     16  C   UNL A   1      40.797  26.976  28.440  1.00  0.00     0.074 A 
ATOM     17  C   UNL A   1      42.758  26.137  27.160  1.00  0.00     0.049 A 
ATOM     18  N   UNL A   1      41.175  28.173  28.789  1.00  0.00    -0.248 NA
ATOM     19  C   UNL A   1      39.513  26.553  29.028  1.00  0.00     0.031 C 
ATOM     20  C   UNL A   1      43.543  25.138  26.424  1.00  0.00     0.029 A 
ATOM     21  N   UNL A   1      43.638  27.170  27.347  1.00  0.00    -0.354 N 
ATOM     22  C   UNL A   1      40.160  28.664  29.601  1.00  0.00     0.074 A 
ATOM     23  C   UNL A   1      39.152  27.634  29.700  1.00  0.00     0.031 C 
ATOM     24  C   UNL A   1      44.787  25.605  26.238  1.00  0.00     0.029 A 
ATOM     25  C   UNL A   1      44.864  26.966  26.753  1.00  0.00     0.049 A 
ATOM     26  H   UNL A   1      43.415  27.981  27.858  1.00  0.00     0.167 HD
ATOM     27  C   UNL A   1      40.084  29.879  30.191  1.00  0.00     0.034 A 
ATOM     28  C   UNL A   1      45.899  27.815  26.596  1.00  0.00     0.034 A 
ATOM     29  C   UNL A   1      41.120  30.870  30.057  1.00  0.00     0.049 A 
ATOM     30  C   UNL A   1      45.736  29.206  27.164  1.00  0.00     0.074 A 
ATOM     31  C   UNL A   1      41.151  32.164  30.543  1.00  0.00     0.029 A 
ATOM     32  N   UNL A   1      42.317  30.668  29.378  1.00  0.00    -0.354 N 
ATOM     33  N   UNL A   1      44.737  29.699  27.864  1.00  0.00    -0.248 NA
ATOM     34  C   UNL A   1      46.821  30.159  26.909  1.00  0.00     0.031 C 
ATOM     35  C   UNL A   1      42.334  32.763  30.099  1.00  0.00     0.029 A 
ATOM     36  C   UNL A   1      43.078  31.822  29.400  1.00  0.00     0.049 A 
ATOM     37  H   UNL A   1      42.584  29.825  28.944  1.00  0.00     0.167 HD
ATOM     38  C   UNL A   1      45.083  31.017  28.143  1.00  0.00     0.074 A 
ATOM     39  C   UNL A   1      46.397  31.227  27.566  1.00  0.00     0.031 C 
ATOM     40  C   UNL A   1      44.385  31.977  28.803  1.00  0.00     0.034 A 
BRANCH  27  41
ATOM     41  C   UNL A   1      38.804  30.219  30.909  1.00  0.00     0.023 A 
ATOM     42  C   UNL A   1      37.866  31.129  30.391  1.00  0.00     0.031 A 
ATOM     43  C   UNL A   1      38.555  29.664  32.178  1.00  0.00     0.131 A 
ATOM     44  C   UNL A   1      36.755  31.502  31.165  1.00  0.00     0.055 A 
ATOM     45  C   UNL A   1      37.413  29.986  32.912  1.00  0.00     0.041 A 
ATOM     46  F   UNL A   1      39.434  28.818  32.737  1.00  0.00    -0.206 F 
ATOM     47  C   UNL A   1      36.510  30.919  32.411  1.00  0.00     0.022 A 
BRANCH  44  48
ATOM     48  S   UNL A   1      35.693  32.851  30.577  1.00  0.00     0.124 S 
ATOM     49  O   UNL A   1      35.755  32.666  29.128  1.00  0.00    -0.237 OA
ATOM     50  O   UNL A   1      34.413  32.545  31.204  1.00  0.00    -0.237 OA
ATOM     51  O   UNL A   1      36.358  34.053  31.074  1.00  0.00    -0.744 OA
ENDBRANCH  44  48
ENDBRANCH  27  41
BRANCH  28  52
ATOM     52  C   UNL A   1      47.105  27.437  25.795  1.00  0.00     0.023 A 
ATOM     53  C   UNL A   1      47.267  27.858  24.465  1.00  0.00     0.031 A 
ATOM     54  C   UNL A   1      48.078  26.564  26.322  1.00  0.00     0.131 A 
ATOM     55  C   UNL A   1      48.331  27.361  23.693  1.00  0.00     0.055 A 
ATOM     56  C   UNL A   1      49.175  26.130  25.572  1.00  0.00     0.041 A 
ATOM     57  F   UNL A   1      47.977  26.107  27.580  1.00  0.00    -0.206 F 
ATOM     58  C   UNL A   1      49.294  26.513  24.243  1.00  0.00     0.022 A 
BRANCH  55  59
ATOM     59  S   UNL A   1      48.361  27.722  21.915  1.00  0.00     0.124 S 
ATOM     60  O   UNL A   1      48.574  26.396  21.345  1.00  0.00    -0.237 OA
ATOM     61  O   UNL A   1      47.041  28.306  21.703  1.00  0.00    -0.237 OA
ATOM     62  O   UNL A   1      49.483  28.649  21.773  1.00  0.00    -0.744 OA
ENDBRANCH  55  59
ENDBRANCH  28  52
BRANCH  40  63
ATOM     63  C   UNL A   1      45.060  33.314  28.948  1.00  0.00     0.023 A 
ATOM     64  C   UNL A   1      45.896  33.595  30.041  1.00  0.00     0.031 A 
ATOM     65  C   UNL A   1      44.862  34.314  27.981  1.00  0.00     0.131 A 
ATOM     66  C   UNL A   1      46.459  34.870  30.172  1.00  0.00     0.055 A 
ATOM     67  C   UNL A   1      45.479  35.560  28.083  1.00  0.00     0.041 A 
ATOM     68  F   UNL A   1      44.072  34.091  26.918  1.00  0.00    -0.206 F 
ATOM     69  C   UNL A   1      46.273  35.848  29.191  1.00  0.00     0.022 A 
BRANCH  66  70
ATOM     70  S   UNL A   1      47.370  35.262  31.689  1.00  0.00     0.124 S 
ATOM     71  O   UNL A   1      47.634  33.935  32.235  1.00  0.00    -0.237 OA
ATOM     72  O   UNL A   1      48.531  35.984  31.180  1.00  0.00    -0.237 OA
ATOM     73  O   UNL A   1      46.425  36.073  32.455  1.00  0.00    -0.744 OA
ENDBRANCH  66  70
ENDBRANCH  40  63
ENDBRANCH  14  15
ENDBRANCH   7   9
ENDBRANCH   6   7
ENDBRANCH   5   6
ENDBRANCH   4   5
ENDBRANCH   3   4
ENDBRANCH   2   3
ENDBRANCH   1   2
BRANCH   1  74
ATOM     74  O   UNL A   1      32.278  23.390  26.294  1.00  0.00    -0.377 OA
BRANCH  74  75
ATOM     75  C   UNL A   1      31.144  23.038  25.504  1.00  0.00     0.188 C 
BRANCH  75  76
ATOM     76  C   UNL A   1      31.138  23.392  24.000  1.00  0.00     0.188 C 
BRANCH  76  77
ATOM     77  O   UNL A   1      31.887  22.491  23.197  1.00  0.00    -0.376 OA
BRANCH  77  78
ATOM     78  C   UNL A   1      33.070  23.036  22.620  1.00  0.00     0.202 C 
BRANCH  78  79
ATOM     79  C   UNL A   1      33.645  24.277  23.324  1.00  0.00     0.261 C 
BRANCH  79  80
ATOM     80  O   UNL A   1      34.054  25.344  22.450  1.00  0.00    -0.459 OA
BRANCH  80  81
ATOM     81  C   UNL A   1      33.127  25.877  21.604  1.00  0.00     0.357 C 
ATOM     82  O   UNL A   1      33.036  25.690  20.419  1.00  0.00    -0.244 OA
BRANCH  81  83
ATOM     83  C   UNL A   1      32.166  26.638  22.469  1.00  0.00     0.150 A 
ATOM     84  C   UNL A   1      30.849  26.806  22.062  1.00  0.00     0.036 A 
ATOM     85  N   UNL A   1      32.714  27.292  23.529  1.00  0.00    -0.224 NA
ATOM     86  C   UNL A   1      30.056  27.688  22.787  1.00  0.00     0.006 A 
ATOM     87  C   UNL A   1      31.951  28.181  24.195  1.00  0.00     0.129 A 
ATOM     88  C   UNL A   1      30.615  28.388  23.856  1.00  0.00     0.047 A 
BRANCH  87  89
ATOM     89  N   UNL A   1      32.565  28.920  25.180  1.00  0.00    -0.357 N 
ATOM     90  C   UNL A   1      33.978  28.712  25.454  1.00  0.00     0.118 C 
ATOM     91  C   UNL A   1      32.000  30.213  25.519  1.00  0.00     0.118 C 
ATOM     92  C   UNL A   1      34.239  28.951  26.943  1.00  0.00     0.022 C 
ATOM     93  C   UNL A   1      32.206  30.454  27.014  1.00  0.00     0.022 C 
ATOM     94  C   UNL A   1      33.674  30.293  27.414  1.00  0.00     0.004 C 
ENDBRANCH  87  89
ENDBRANCH  81  83
ENDBRANCH  80  81
ENDBRANCH  79  80
ENDBRANCH  78  79
ENDBRANCH  77  78
ENDBRANCH  76  77
ENDBRANCH  75  76
ENDBRANCH  74  75
ENDBRANCH   1  74
TORSDOF 24
ENDMDL
MODEL 2
REMARK VINA RESULT:     -10.0      1.779      2.557
REMARK SMILES O=C(OCCOCCOCCOCCOC(=O)c1cccc(N2CCCCC2)n1)c1ccc(-c2c3nc(c(-c4cc(S(=O)(=O)[O-])ccc4F)c4ccc([nH]4)c(-c4cc(S(=O)(=O)[O-])ccc4F)c4nc(c(-c5cc(S(=O)(=O)[O-])ccc5F)c5ccc2[nH]5)C=C4)C=C3)cc1
REMARK SMILES IDX 8 1 7 2 6 3 5 4 4 5 3 6 2 7 1 8 30 9 31 10 92 11 32 12 91 13
REMARK SMILES IDX 33 14 34 15 35 16 85 17 36 18 90 19 84 20 86 21 37 22 89 23
REMARK SMILES IDX 83 24 82 25 38 27 70 28 50 29 69 30 51 31 54 32 68 33 87 34
REMARK SMILES IDX 52 35 53 36 67 38 88 39 55 40 39 41 40 42 48 43 41 44 47 45
REMARK SMILES IDX 49 46 46 47 42 48 43 49 44 50 45 51 71 52 72 53 80 54 73 55
REMARK SMILES IDX 79 56 81 57 78 58 74 59 75 60 76 61 77 62 56 63 57 64 65 65
REMARK SMILES IDX 58 66 64 67 66 68 63 69 59 70 60 71 61 72 62 73 9 74 10 75
REMARK SMILES IDX 11 76 12 77 13 78 14 79 15 80 16 81 17 82 18 83 19 84 29 85
REMARK SMILES IDX 20 86 22 87 21 88 23 89 24 90 28 91 25 92 27 93 26 94
REMARK H PARENT 86 26 54 37
REMARK Flexibility Score: inf
ROOT
ATOM      1  C   UNL A   1      32.117  20.620  24.781  1.00  0.00     0.188 C 
ENDROOT
BRANCH   1   2
ATOM      2  C   UNL A   1      33.447  19.864  24.797  1.00  0.00     0.188 C 
BRANCH   2   3
ATOM      3  O   UNL A   1      34.239  20.289  25.903  1.00  0.00    -0.376 OA
BRANCH   3   4
ATOM      4  C   UNL A   1      35.236  21.269  25.632  1.00  0.00     0.202 C 
BRANCH   4   5
ATOM      5  C   UNL A   1      36.561  20.709  25.108  1.00  0.00     0.261 C 
BRANCH   5   6
ATOM      6  O   UNL A   1      37.628  21.668  25.153  1.00  0.00    -0.460 OA
BRANCH   6   7
ATOM      7  C   UNL A   1      38.695  21.663  25.993  1.00  0.00     0.338 C 
ATOM      8  O   UNL A   1      39.127  20.579  26.385  1.00  0.00    -0.246 OA
BRANCH   7   9
ATOM      9  C   UNL A   1      39.386  22.904  26.457  1.00  0.00     0.060 A 
ATOM     10  C   UNL A   1      39.112  24.189  25.989  1.00  0.00     0.016 A 
ATOM     11  C   UNL A   1      40.310  22.774  27.506  1.00  0.00     0.016 A 
ATOM     12  C   UNL A   1      39.775  25.304  26.474  1.00  0.00     0.010 A 
ATOM     13  C   UNL A   1      40.951  23.900  28.038  1.00  0.00     0.010 A 
ATOM     14  C   UNL A   1      40.695  25.168  27.505  1.00  0.00    -0.014 A 
BRANCH  14  15
ATOM     15  C   UNL A   1      41.452  26.368  27.907  1.00  0.00     0.031 A 
ATOM     16  C   UNL A   1      40.772  27.353  28.807  1.00  0.00     0.074 A 
ATOM     17  C   UNL A   1      42.754  26.478  27.585  1.00  0.00     0.049 A 
ATOM     18  N   UNL A   1      41.185  28.515  29.225  1.00  0.00    -0.248 NA
ATOM     19  C   UNL A   1      39.443  26.966  29.315  1.00  0.00     0.031 C 
ATOM     20  C   UNL A   1      43.528  25.474  26.845  1.00  0.00     0.029 A 
ATOM     21  N   UNL A   1      43.668  27.460  27.859  1.00  0.00    -0.354 N 
ATOM     22  C   UNL A   1      40.154  29.020  30.009  1.00  0.00     0.074 A 
ATOM     23  C   UNL A   1      39.098  28.034  30.016  1.00  0.00     0.031 C 
ATOM     24  C   UNL A   1      44.800  25.890  26.738  1.00  0.00     0.029 A 
ATOM     25  C   UNL A   1      44.912  27.223  27.314  1.00  0.00     0.049 A 
ATOM     26  H   UNL A   1      43.457  28.258  28.393  1.00  0.00     0.167 HD
ATOM     27  C   UNL A   1      40.104  30.212  30.647  1.00  0.00     0.034 A 
ATOM     28  C   UNL A   1      45.990  28.029  27.244  1.00  0.00     0.034 A 
ATOM     29  C   UNL A   1      41.188  31.158  30.606  1.00  0.00     0.049 A 
ATOM     30  C   UNL A   1      45.862  29.401  27.863  1.00  0.00     0.074 A 
ATOM     31  C   UNL A   1      41.252  32.427  31.147  1.00  0.00     0.029 A 
ATOM     32  N   UNL A   1      42.407  30.929  29.975  1.00  0.00    -0.354 N 
ATOM     33  N   UNL A   1      44.853  29.912  28.536  1.00  0.00    -0.248 NA
ATOM     34  C   UNL A   1      46.999  30.312  27.702  1.00  0.00     0.031 C 
ATOM     35  C   UNL A   1      42.482  32.989  30.786  1.00  0.00     0.029 A 
ATOM     36  C   UNL A   1      43.216  32.044  30.083  1.00  0.00     0.049 A 
ATOM     37  H   UNL A   1      42.656  30.092  29.518  1.00  0.00     0.167 HD
ATOM     38  C   UNL A   1      45.242  31.199  28.888  1.00  0.00     0.074 A 
ATOM     39  C   UNL A   1      46.591  31.371  28.383  1.00  0.00     0.031 C 
ATOM     40  C   UNL A   1      44.556  32.163  29.555  1.00  0.00     0.034 A 
BRANCH  27  41
ATOM     41  C   UNL A   1      38.806  30.580  31.318  1.00  0.00     0.023 A 
ATOM     42  C   UNL A   1      37.747  31.193  30.627  1.00  0.00     0.031 A 
ATOM     43  C   UNL A   1      38.660  30.371  32.701  1.00  0.00     0.131 A 
ATOM     44  C   UNL A   1      36.614  31.630  31.334  1.00  0.00     0.055 A 
ATOM     45  C   UNL A   1      37.501  30.744  33.385  1.00  0.00     0.041 A 
ATOM     46  F   UNL A   1      39.653  29.823  33.418  1.00  0.00    -0.206 F 
ATOM     47  C   UNL A   1      36.474  31.388  32.703  1.00  0.00     0.022 A 
BRANCH  44  48
ATOM     48  S   UNL A   1      35.372  32.629  30.464  1.00  0.00     0.124 S 
ATOM     49  O   UNL A   1      36.095  33.883  30.257  1.00  0.00    -0.237 OA
ATOM     50  O   UNL A   1      35.109  31.839  29.267  1.00  0.00    -0.237 OA
ATOM     51  O   UNL A   1      34.266  32.706  31.416  1.00  0.00    -0.744 OA
ENDBRANCH  44  48
ENDBRANCH  27  41
BRANCH  28  52
ATOM     52  C   UNL A   1      47.216  27.629  26.485  1.00  0.00     0.023 A 
ATOM     53  C   UNL A   1      47.362  27.917  25.118  1.00  0.00     0.031 A 
ATOM     54  C   UNL A   1      48.228  26.864  27.098  1.00  0.00     0.131 A 
ATOM     55  C   UNL A   1      48.452  27.394  24.401  1.00  0.00     0.055 A 
ATOM     56  C   UNL A   1      49.347  26.407  26.397  1.00  0.00     0.041 A 
ATOM     57  F   UNL A   1      48.144  26.536  28.397  1.00  0.00    -0.206 F 
ATOM     58  C   UNL A   1      49.453  26.655  25.034  1.00  0.00     0.022 A 
BRANCH  55  59
ATOM     59  S   UNL A   1      48.471  27.569  22.594  1.00  0.00     0.124 S 
ATOM     60  O   UNL A   1      48.510  26.177  22.160  1.00  0.00    -0.237 OA
ATOM     61  O   UNL A   1      47.223  28.283  22.347  1.00  0.00    -0.237 OA
ATOM     62  O   UNL A   1      49.689  28.335  22.338  1.00  0.00    -0.744 OA
ENDBRANCH  55  59
ENDBRANCH  28  52
BRANCH  40  63
ATOM     63  C   UNL A   1      45.282  33.459  29.790  1.00  0.00     0.023 A 
ATOM     64  C   UNL A   1      45.210  34.515  28.867  1.00  0.00     0.031 A 
ATOM     65  C   UNL A   1      46.053  33.637  30.952  1.00  0.00     0.131 A 
ATOM     66  C   UNL A   1      45.946  35.684  29.092  1.00  0.00     0.055 A 
ATOM     67  C   UNL A   1      46.730  34.829  31.202  1.00  0.00     0.041 A 
ATOM     68  F   UNL A   1      46.151  32.657  31.864  1.00  0.00    -0.206 F 
ATOM     69  C   UNL A   1      46.690  35.857  30.263  1.00  0.00     0.022 A 
BRANCH  66  70
ATOM     70  S   UNL A   1      45.987  36.945  27.791  1.00  0.00     0.124 S 
ATOM     71  O   UNL A   1      47.249  37.622  28.065  1.00  0.00    -0.237 OA
ATOM     72  O   UNL A   1      45.944  36.141  26.574  1.00  0.00    -0.237 OA
ATOM     73  O   UNL A   1      44.787  37.740  28.048  1.00  0.00    -0.744 OA
ENDBRANCH  66  70
ENDBRANCH  40  63
ENDBRANCH  14  15
ENDBRANCH   7   9
ENDBRANCH   6   7
ENDBRANCH   5   6
ENDBRANCH   4   5
ENDBRANCH   3   4
ENDBRANCH   2   3
ENDBRANCH   1   2
BRANCH   1  74
ATOM     74  O   UNL A   1      32.173  21.920  24.190  1.00  0.00    -0.377 OA
BRANCH  74  75
ATOM     75  C   UNL A   1      32.441  21.965  22.789  1.00  0.00     0.188 C 
BRANCH  75  76
ATOM     76  C   UNL A   1      33.343  23.088  22.233  1.00  0.00     0.188 C 
BRANCH  76  77
ATOM     77  O   UNL A   1      34.219  23.651  23.201  1.00  0.00    -0.376 OA
BRANCH  77  78
ATOM     78  C   UNL A   1      33.858  24.950  23.661  1.00  0.00     0.202 C 
BRANCH  78  79
ATOM     79  C   UNL A   1      32.840  25.707  22.790  1.00  0.00     0.261 C 
BRANCH  79  80
ATOM     80  O   UNL A   1      31.460  25.502  23.141  1.00  0.00    -0.459 OA
BRANCH  80  81
ATOM     81  C   UNL A   1      31.062  25.815  24.407  1.00  0.00     0.357 C 
ATOM     82  O   UNL A   1      30.722  25.047  25.268  1.00  0.00    -0.244 OA
BRANCH  81  83
ATOM     83  C   UNL A   1      31.260  27.295  24.550  1.00  0.00     0.150 A 
ATOM     84  C   UNL A   1      32.076  27.792  25.556  1.00  0.00     0.036 A 
ATOM     85  N   UNL A   1      30.452  28.076  23.782  1.00  0.00    -0.224 NA
ATOM     86  C   UNL A   1      32.064  29.164  25.780  1.00  0.00     0.006 A 
ATOM     87  C   UNL A   1      30.411  29.399  24.041  1.00  0.00     0.129 A 
ATOM     88  C   UNL A   1      31.216  29.972  25.022  1.00  0.00     0.047 A 
BRANCH  87  89
ATOM     89  N   UNL A   1      29.494  30.146  23.337  1.00  0.00    -0.357 N 
ATOM     90  C   UNL A   1      28.579  29.480  22.424  1.00  0.00     0.118 C 
ATOM     91  C   UNL A   1      29.077  31.419  23.893  1.00  0.00     0.118 C 
ATOM     92  C   UNL A   1      28.273  30.415  21.251  1.00  0.00     0.022 C 
ATOM     93  C   UNL A   1      28.811  32.387  22.741  1.00  0.00     0.022 C 
ATOM     94  C   UNL A   1      27.828  31.800  21.727  1.00  0.00     0.004 C 
ENDBRANCH  87  89
ENDBRANCH  81  83
ENDBRANCH  80  81
ENDBRANCH  79  80
ENDBRANCH  78  79
ENDBRANCH  77  78
ENDBRANCH  76  77
ENDBRANCH  75  76
ENDBRANCH  74  75
ENDBRANCH   1  74
TORSDOF 24
ENDMDL
MODEL 3
REMARK VINA RESULT:     -10.0      1.973      7.965
REMARK SMILES O=C(OCCOCCOCCOCCOC(=O)c1cccc(N2CCCCC2)n1)c1ccc(-c2c3nc(c(-c4cc(S(=O)(=O)[O-])ccc4F)c4ccc([nH]4)c(-c4cc(S(=O)(=O)[O-])ccc4F)c4nc(c(-c5cc(S(=O)(=O)[O-])ccc5F)c5ccc2[nH]5)C=C4)C=C3)cc1
REMARK SMILES IDX 8 1 7 2 6 3 5 4 4 5 3 6 2 7 1 8 30 9 31 10 92 11 32 12 91 13
REMARK SMILES IDX 33 14 34 15 35 16 85 17 36 18 90 19 84 20 86 21 37 22 89 23
REMARK SMILES IDX 83 24 82 25 38 27 70 28 50 29 69 30 51 31 54 32 68 33 87 34
REMARK SMILES IDX 52 35 53 36 67 38 88 39 55 40 39 41 40 42 48 43 41 44 47 45
REMARK SMILES IDX 49 46 46 47 42 48 43 49 44 50 45 51 71 52 72 53 80 54 73 55
REMARK SMILES IDX 79 56 81 57 78 58 74 59 75 60 76 61 77 62 56 63 57 64 65 65
REMARK SMILES IDX 58 66 64 67 66 68 63 69 59 70 60 71 61 72 62 73 9 74 10 75
REMARK SMILES IDX 11 76 12 77 13 78 14 79 15 80 16 81 17 82 18 83 19 84 29 85
REMARK SMILES IDX 20 86 22 87 21 88 23 89 24 90 28 91 25 92 27 93 26 94
REMARK H PARENT 86 26 54 37
REMARK Flexibility Score: inf
ROOT
ATOM      1  C   UNL A   1      36.124  22.275  24.239  1.00  0.00     0.188 C 
ENDROOT
BRANCH   1   2
ATOM      2  C   UNL A   1      37.368  22.589  25.072  1.00  0.00     0.188 C 
BRANCH   2   3
ATOM      3  O   UNL A   1      37.794  21.424  25.775  1.00  0.00    -0.376 OA
BRANCH   3   4
ATOM      4  C   UNL A   1      38.172  20.304  24.979  1.00  0.00     0.202 C 
BRANCH   4   5
ATOM      5  C   UNL A   1      38.901  19.194  25.739  1.00  0.00     0.261 C 
BRANCH   5   6
ATOM      6  O   UNL A   1      40.326  19.249  25.576  1.00  0.00    -0.460 OA
BRANCH   6   7
ATOM      7  C   UNL A   1      41.231  19.735  26.465  1.00  0.00     0.338 C 
ATOM      8  O   UNL A   1      41.904  18.934  27.114  1.00  0.00    -0.246 OA
BRANCH   7   9
ATOM      9  C   UNL A   1      41.467  21.193  26.688  1.00  0.00     0.060 A 
ATOM     10  C   UNL A   1      41.149  22.199  25.776  1.00  0.00     0.016 A 
ATOM     11  C   UNL A   1      41.959  21.583  27.945  1.00  0.00     0.016 A 
ATOM     12  C   UNL A   1      41.375  23.537  26.049  1.00  0.00     0.010 A 
ATOM     13  C   UNL A   1      42.146  22.936  28.251  1.00  0.00     0.010 A 
ATOM     14  C   UNL A   1      41.871  23.916  27.290  1.00  0.00    -0.014 A 
BRANCH  14  15
ATOM     15  C   UNL A   1      42.197  25.339  27.491  1.00  0.00     0.031 A 
ATOM     16  C   UNL A   1      43.446  25.866  26.852  1.00  0.00     0.074 A 
ATOM     17  C   UNL A   1      41.316  26.149  28.105  1.00  0.00     0.049 A 
ATOM     18  N   UNL A   1      43.994  27.043  26.951  1.00  0.00    -0.248 NA
ATOM     19  C   UNL A   1      44.171  24.935  25.967  1.00  0.00     0.031 C 
ATOM     20  C   UNL A   1      40.002  25.736  28.613  1.00  0.00     0.029 A 
ATOM     21  N   UNL A   1      41.368  27.488  28.385  1.00  0.00    -0.354 N 
ATOM     22  C   UNL A   1      45.148  26.985  26.180  1.00  0.00     0.074 A 
ATOM     23  C   UNL A   1      45.219  25.659  25.611  1.00  0.00     0.031 C 
ATOM     24  C   UNL A   1      39.372  26.804  29.128  1.00  0.00     0.029 A 
ATOM     25  C   UNL A   1      40.269  27.952  29.074  1.00  0.00     0.049 A 
ATOM     26  H   UNL A   1      42.120  28.065  28.119  1.00  0.00     0.167 HD
ATOM     27  C   UNL A   1      46.067  27.959  25.987  1.00  0.00     0.034 A 
ATOM     28  C   UNL A   1      40.051  29.153  29.645  1.00  0.00     0.034 A 
ATOM     29  C   UNL A   1      45.946  29.266  26.579  1.00  0.00     0.049 A 
ATOM     30  C   UNL A   1      41.149  30.183  29.513  1.00  0.00     0.074 A 
ATOM     31  C   UNL A   1      46.828  30.328  26.526  1.00  0.00     0.029 A 
ATOM     32  N   UNL A   1      44.861  29.684  27.345  1.00  0.00    -0.354 N 
ATOM     33  N   UNL A   1      42.283  30.100  28.850  1.00  0.00    -0.248 NA
ATOM     34  C   UNL A   1      40.956  31.455  30.216  1.00  0.00     0.031 C 
ATOM     35  C   UNL A   1      46.309  31.361  27.314  1.00  0.00     0.029 A 
ATOM     36  C   UNL A   1      45.067  30.973  27.798  1.00  0.00     0.049 A 
ATOM     37  H   UNL A   1      44.063  29.139  27.535  1.00  0.00     0.167 HD
ATOM     38  C   UNL A   1      42.929  31.315  29.047  1.00  0.00     0.074 A 
ATOM     39  C   UNL A   1      42.042  32.124  29.861  1.00  0.00     0.031 C 
ATOM     40  C   UNL A   1      44.146  31.733  28.612  1.00  0.00     0.034 A 
BRANCH  27  41
ATOM     41  C   UNL A   1      47.308  27.594  25.214  1.00  0.00     0.023 A 
ATOM     42  C   UNL A   1      47.415  27.784  23.826  1.00  0.00     0.031 A 
ATOM     43  C   UNL A   1      48.381  26.976  25.882  1.00  0.00     0.131 A 
ATOM     44  C   UNL A   1      48.546  27.306  23.142  1.00  0.00     0.055 A 
ATOM     45  C   UNL A   1      49.532  26.566  25.206  1.00  0.00     0.041 A 
ATOM     46  F   UNL A   1      48.317  26.736  27.201  1.00  0.00    -0.206 F 
ATOM     47  C   UNL A   1      49.614  26.720  23.826  1.00  0.00     0.022 A 
BRANCH  44  48
ATOM     48  S   UNL A   1      48.553  27.348  21.327  1.00  0.00     0.124 S 
ATOM     49  O   UNL A   1      48.649  25.927  21.000  1.00  0.00    -0.237 OA
ATOM     50  O   UNL A   1      47.280  27.989  21.018  1.00  0.00    -0.237 OA
ATOM     51  O   UNL A   1      49.741  28.136  21.007  1.00  0.00    -0.744 OA
ENDBRANCH  44  48
ENDBRANCH  27  41
BRANCH  28  52
ATOM     52  C   UNL A   1      38.832  29.417  30.471  1.00  0.00     0.023 A 
ATOM     53  C   UNL A   1      37.820  30.288  30.033  1.00  0.00     0.031 A 
ATOM     54  C   UNL A   1      38.704  28.872  31.765  1.00  0.00     0.131 A 
ATOM     55  C   UNL A   1      36.766  30.634  30.897  1.00  0.00     0.055 A 
ATOM     56  C   UNL A   1      37.616  29.163  32.592  1.00  0.00     0.041 A 
ATOM     57  F   UNL A   1      39.643  28.048  32.255  1.00  0.00    -0.206 F 
ATOM     58  C   UNL A   1      36.649  30.065  32.166  1.00  0.00     0.022 A 
BRANCH  55  59
ATOM     59  S   UNL A   1      35.625  31.952  30.393  1.00  0.00     0.124 S 
ATOM     60  O   UNL A   1      36.517  33.104  30.311  1.00  0.00    -0.237 OA
ATOM     61  O   UNL A   1      35.116  31.444  29.124  1.00  0.00    -0.237 OA
ATOM     62  O   UNL A   1      34.652  31.995  31.483  1.00  0.00    -0.744 OA
ENDBRANCH  55  59
ENDBRANCH  28  52
BRANCH  40  63
ATOM     63  C   UNL A   1      44.548  33.132  28.993  1.00  0.00     0.023 A 
ATOM     64  C   UNL A   1      44.302  34.220  28.140  1.00  0.00     0.031 A 
ATOM     65  C   UNL A   1      45.185  33.375  30.222  1.00  0.00     0.131 A 
ATOM     66  C   UNL A   1      44.743  35.498  28.503  1.00  0.00     0.055 A 
ATOM     67  C   UNL A   1      45.563  34.660  30.606  1.00  0.00     0.041 A 
ATOM     68  F   UNL A   1      45.441  32.366  31.071  1.00  0.00    -0.206 F 
ATOM     69  C   UNL A   1      45.354  35.729  29.739  1.00  0.00     0.022 A 
BRANCH  66  70
ATOM     70  S   UNL A   1      44.585  36.843  27.298  1.00  0.00     0.124 S 
ATOM     71  O   UNL A   1      45.800  36.685  26.506  1.00  0.00    -0.237 OA
ATOM     72  O   UNL A   1      43.335  36.512  26.622  1.00  0.00    -0.237 OA
ATOM     73  O   UNL A   1      44.538  38.044  28.130  1.00  0.00    -0.744 OA
ENDBRANCH  66  70
ENDBRANCH  40  63
ENDBRANCH  14  15
ENDBRANCH   7   9
ENDBRANCH   6   7
ENDBRANCH   5   6
ENDBRANCH   4   5
ENDBRANCH   3   4
ENDBRANCH   2   3
ENDBRANCH   1   2
BRANCH   1  74
ATOM     74  O   UNL A   1      35.825  23.233  23.222  1.00  0.00    -0.377 OA
BRANCH  74  75
ATOM     75  C   UNL A   1      34.675  24.049  23.442  1.00  0.00     0.188 C 
BRANCH  75  76
ATOM     76  C   UNL A   1      33.276  23.478  23.123  1.00  0.00     0.188 C 
BRANCH  76  77
ATOM     77  O   UNL A   1      32.664  22.816  24.221  1.00  0.00    -0.376 OA
BRANCH  77  78
ATOM     78  C   UNL A   1      31.263  23.034  24.354  1.00  0.00     0.202 C 
BRANCH  78  79
ATOM     79  C   UNL A   1      30.701  24.247  23.593  1.00  0.00     0.261 C 
BRANCH  79  80
ATOM     80  O   UNL A   1      30.027  25.223  24.407  1.00  0.00    -0.459 OA
BRANCH  80  81
ATOM     81  C   UNL A   1      30.724  25.811  25.420  1.00  0.00     0.357 C 
ATOM     82  O   UNL A   1      30.982  25.332  26.493  1.00  0.00    -0.244 OA
BRANCH  81  83
ATOM     83  C   UNL A   1      31.215  27.122  24.881  1.00  0.00     0.150 A 
ATOM     84  C   UNL A   1      32.482  27.579  25.214  1.00  0.00     0.036 A 
ATOM     85  N   UNL A   1      30.286  27.882  24.239  1.00  0.00    -0.224 NA
ATOM     86  C   UNL A   1      32.812  28.884  24.865  1.00  0.00     0.006 A 
ATOM     87  C   UNL A   1      30.599  29.161  23.949  1.00  0.00     0.129 A 
ATOM     88  C   UNL A   1      31.858  29.684  24.236  1.00  0.00     0.047 A 
BRANCH  87  89
ATOM     89  N   UNL A   1      29.601  29.945  23.417  1.00  0.00    -0.357 N 
ATOM     90  C   UNL A   1      28.503  29.315  22.699  1.00  0.00     0.118 C 
ATOM     91  C   UNL A   1      29.351  31.240  24.020  1.00  0.00     0.118 C 
ATOM     92  C   UNL A   1      28.026  30.255  21.589  1.00  0.00     0.022 C 
ATOM     93  C   UNL A   1      28.917  32.211  22.922  1.00  0.00     0.022 C 
ATOM     94  C   UNL A   1      27.738  31.661  22.117  1.00  0.00     0.004 C 
ENDBRANCH  87  89
ENDBRANCH  81  83
ENDBRANCH  80  81
ENDBRANCH  79  80
ENDBRANCH  78  79
ENDBRANCH  77  78
ENDBRANCH  76  77
ENDBRANCH  75  76
ENDBRANCH  74  75
ENDBRANCH   1  74
TORSDOF 24
ENDMDL
