MODEL 1
REMARK VINA RESULT:      -9.8      0.000      0.000
REMARK SMILES O=C(OCCOCCOCCOCCOC(=O)[C@H]1[C@H]2CC[C@H](CC2)[C@@H]1C(=O)Nc1ccc(Cc2ccncc2)cc1)c1ccc(-c2c3nc(c(-c4cc(S(=O)(=O)[O-])ccc4F)c4ccc([nH]4)c(-c4cc(S(=O)(=O)[O-])ccc4F)c4nc(c(-c5cc(S(=O)(=O)[O-])ccc5F)c5ccc2[nH]5)C=C4)C=C3)cc1
REMARK SMILES IDX 10 1 9 2 8 3 7 4 6 5 5 6 4 7 3 8 2 9 1 10 42 11 43 12 104 13
REMARK SMILES IDX 44 14 103 15 45 16 46 17 47 18 97 19 48 20 102 21 96 22
REMARK SMILES IDX 98 23 49 24 101 25 95 26 94 27 50 29 82 30 62 31 81 32 63 33
REMARK SMILES IDX 66 34 80 35 99 36 64 37 65 38 79 40 100 41 67 42 51 43 52 44
REMARK SMILES IDX 60 45 53 46 59 47 61 48 58 49 54 50 55 51 56 52 57 53 83 54
REMARK SMILES IDX 84 55 92 56 85 57 91 58 93 59 90 60 86 61 87 62 88 63 89 64
REMARK SMILES IDX 68 65 69 66 77 67 70 68 76 69 78 70 75 71 71 72 72 73 73 74
REMARK SMILES IDX 74 75 11 76 12 77 13 78 14 79 15 80 16 81 17 82 18 83 19 84
REMARK SMILES IDX 25 85 24 86 20 87 22 88 23 89 21 90 26 91 27 92 28 93 29 95
REMARK SMILES IDX 30 96 41 97 31 98 40 99 32 100 33 101 34 102 35 103 39 104
REMARK SMILES IDX 36 105 38 106 37 107
REMARK H PARENT 98 28 66 39 28 94
REMARK Flexibility Score: inf
ROOT
ATOM      1  C   UNL A   1      33.606  20.602  26.036  1.00  0.00     0.188 C 
ENDROOT
BRANCH   1   2
ATOM      2  O   UNL A   1      34.803  21.375  26.087  1.00  0.00    -0.377 OA
BRANCH   2   3
ATOM      3  C   UNL A   1      35.903  20.856  25.350  1.00  0.00     0.188 C 
BRANCH   3   4
ATOM      4  C   UNL A   1      36.681  21.945  24.625  1.00  0.00     0.188 C 
BRANCH   4   5
ATOM      5  O   UNL A   1      38.083  21.681  24.728  1.00  0.00    -0.376 OA
BRANCH   5   6
ATOM      6  C   UNL A   1      38.474  20.911  25.861  1.00  0.00     0.202 C 
BRANCH   6   7
ATOM      7  C   UNL A   1      39.176  19.602  25.507  1.00  0.00     0.261 C 
BRANCH   7   8
ATOM      8  O   UNL A   1      40.580  19.615  25.802  1.00  0.00    -0.460 OA
BRANCH   8   9
ATOM      9  C   UNL A   1      41.210  20.042  26.927  1.00  0.00     0.338 C 
ATOM     10  O   UNL A   1      41.133  19.317  27.920  1.00  0.00    -0.246 OA
BRANCH   9  11
ATOM     11  C   UNL A   1      41.924  21.360  27.081  1.00  0.00     0.060 A 
ATOM     12  C   UNL A   1      42.512  21.852  28.250  1.00  0.00     0.016 A 
ATOM     13  C   UNL A   1      42.033  22.158  25.923  1.00  0.00     0.016 A 
ATOM     14  C   UNL A   1      43.192  23.062  28.282  1.00  0.00     0.010 A 
ATOM     15  C   UNL A   1      42.662  23.407  25.954  1.00  0.00     0.010 A 
ATOM     16  C   UNL A   1      43.219  23.866  27.150  1.00  0.00    -0.014 A 
BRANCH  16  17
ATOM     17  C   UNL A   1      43.549  25.283  27.365  1.00  0.00     0.031 A 
ATOM     18  C   UNL A   1      44.914  25.725  26.924  1.00  0.00     0.074 A 
ATOM     19  C   UNL A   1      42.604  26.153  27.754  1.00  0.00     0.049 A 
ATOM     20  N   UNL A   1      45.484  26.892  27.020  1.00  0.00    -0.248 NA
ATOM     21  C   UNL A   1      45.737  24.706  26.244  1.00  0.00     0.031 C 
ATOM     22  C   UNL A   1      41.201  25.818  27.999  1.00  0.00     0.029 A 
ATOM     23  N   UNL A   1      42.675  27.499  27.989  1.00  0.00    -0.354 N 
ATOM     24  C   UNL A   1      46.737  26.742  26.435  1.00  0.00     0.074 A 
ATOM     25  C   UNL A   1      46.838  25.381  25.966  1.00  0.00     0.031 C 
ATOM     26  C   UNL A   1      40.546  26.933  28.368  1.00  0.00     0.029 A 
ATOM     27  C   UNL A   1      41.499  28.036  28.457  1.00  0.00     0.049 A 
ATOM     28  H   UNL A   1      43.490  28.031  27.837  1.00  0.00     0.167 HD
ATOM     29  C   UNL A   1      47.725  27.662  26.335  1.00  0.00     0.034 A 
ATOM     30  C   UNL A   1      41.260  29.264  28.956  1.00  0.00     0.034 A 
ATOM     31  C   UNL A   1      47.592  28.986  26.880  1.00  0.00     0.049 A 
ATOM     32  C   UNL A   1      42.426  30.228  28.993  1.00  0.00     0.074 A 
ATOM     33  C   UNL A   1      48.536  29.988  26.981  1.00  0.00     0.029 A 
ATOM     34  N   UNL A   1      46.418  29.478  27.444  1.00  0.00    -0.354 N 
ATOM     35  N   UNL A   1      43.647  30.063  28.526  1.00  0.00    -0.248 NA
ATOM     36  C   UNL A   1      42.200  31.527  29.636  1.00  0.00     0.031 C 
ATOM     37  C   UNL A   1      47.952  31.058  27.669  1.00  0.00     0.029 A 
ATOM     38  C   UNL A   1      46.622  30.755  27.931  1.00  0.00     0.049 A 
ATOM     39  H   UNL A   1      45.565  28.989  27.489  1.00  0.00     0.167 HD
ATOM     40  C   UNL A   1      44.330  31.240  28.814  1.00  0.00     0.074 A 
ATOM     41  C   UNL A   1      43.375  32.116  29.468  1.00  0.00     0.031 C 
ATOM     42  C   UNL A   1      45.625  31.577  28.577  1.00  0.00     0.034 A 
BRANCH  29  43
ATOM     43  C   UNL A   1      49.038  27.181  25.769  1.00  0.00     0.023 A 
ATOM     44  C   UNL A   1      50.106  26.778  26.593  1.00  0.00     0.031 A 
ATOM     45  C   UNL A   1      49.269  27.270  24.386  1.00  0.00     0.131 A 
ATOM     46  C   UNL A   1      51.376  26.563  26.033  1.00  0.00     0.055 A 
ATOM     47  C   UNL A   1      50.515  26.981  23.827  1.00  0.00     0.041 A 
ATOM     48  F   UNL A   1      48.300  27.690  23.557  1.00  0.00    -0.206 F 
ATOM     49  C   UNL A   1      51.582  26.642  24.652  1.00  0.00     0.022 A 
BRANCH  46  50
ATOM     50  S   UNL A   1      52.795  26.342  27.144  1.00  0.00     0.124 S 
ATOM     51  O   UNL A   1      53.425  27.659  27.083  1.00  0.00    -0.237 OA
ATOM     52  O   UNL A   1      52.157  25.998  28.409  1.00  0.00    -0.237 OA
ATOM     53  O   UNL A   1      53.558  25.264  26.517  1.00  0.00    -0.744 OA
ENDBRANCH  46  50
ENDBRANCH  29  43
BRANCH  30  54
ATOM     54  C   UNL A   1      39.938  29.612  29.558  1.00  0.00     0.023 A 
ATOM     55  C   UNL A   1      39.718  29.544  30.942  1.00  0.00     0.031 A 
ATOM     56  C   UNL A   1      38.839  29.951  28.743  1.00  0.00     0.131 A 
ATOM     57  C   UNL A   1      38.430  29.761  31.460  1.00  0.00     0.055 A 
ATOM     58  C   UNL A   1      37.576  30.232  29.269  1.00  0.00     0.041 A 
ATOM     59  F   UNL A   1      38.975  30.015  27.408  1.00  0.00    -0.206 F 
ATOM     60  C   UNL A   1      37.361  30.124  30.637  1.00  0.00     0.022 A 
BRANCH  57  61
ATOM     61  S   UNL A   1      38.148  29.471  33.228  1.00  0.00     0.124 S 
ATOM     62  O   UNL A   1      37.567  28.133  33.216  1.00  0.00    -0.237 OA
ATOM     63  O   UNL A   1      39.502  29.576  33.762  1.00  0.00    -0.237 OA
ATOM     64  O   UNL A   1      37.236  30.546  33.609  1.00  0.00    -0.744 OA
ENDBRANCH  57  61
ENDBRANCH  30  54
BRANCH  42  65
ATOM     65  C   UNL A   1      46.051  32.951  29.009  1.00  0.00     0.023 A 
ATOM     66  C   UNL A   1      45.895  34.062  28.165  1.00  0.00     0.031 A 
ATOM     67  C   UNL A   1      46.591  33.151  30.291  1.00  0.00     0.131 A 
ATOM     68  C   UNL A   1      46.315  35.326  28.599  1.00  0.00     0.055 A 
ATOM     69  C   UNL A   1      46.956  34.419  30.738  1.00  0.00     0.041 A 
ATOM     70  F   UNL A   1      46.754  32.117  31.131  1.00  0.00    -0.206 F 
ATOM     71  C   UNL A   1      46.826  35.513  29.887  1.00  0.00     0.022 A 
BRANCH  68  72
ATOM     72  S   UNL A   1      46.237  36.712  27.436  1.00  0.00     0.124 S 
ATOM     73  O   UNL A   1      44.822  36.730  27.081  1.00  0.00    -0.237 OA
ATOM     74  O   UNL A   1      46.705  37.831  28.248  1.00  0.00    -0.237 OA
ATOM     75  O   UNL A   1      47.142  36.307  26.362  1.00  0.00    -0.744 OA
ENDBRANCH  68  72
ENDBRANCH  42  65
ENDBRANCH  16  17
ENDBRANCH   9  11
ENDBRANCH   8   9
ENDBRANCH   7   8
ENDBRANCH   6   7
ENDBRANCH   5   6
ENDBRANCH   4   5
ENDBRANCH   3   4
ENDBRANCH   2   3
ENDBRANCH   1   2
BRANCH   1  76
ATOM     76  C   UNL A   1      32.519  21.017  25.044  1.00  0.00     0.188 C 
BRANCH  76  77
ATOM     77  O   UNL A   1      31.274  21.289  25.671  1.00  0.00    -0.376 OA
BRANCH  77  78
ATOM     78  C   UNL A   1      31.040  22.628  26.089  1.00  0.00     0.202 C 
BRANCH  78  79
ATOM     79  C   UNL A   1      30.816  23.672  24.976  1.00  0.00     0.261 C 
BRANCH  79  80
ATOM     80  O   UNL A   1      29.925  24.814  25.148  1.00  0.00    -0.463 OA
BRANCH  80  81
ATOM     81  C   UNL A   1      29.996  25.897  24.348  1.00  0.00     0.310 C 
ATOM     82  O   UNL A   1      29.047  26.612  24.058  1.00  0.00    -0.252 OA
BRANCH  81  83
ATOM     83  C   UNL A   1      31.399  26.254  23.886  1.00  0.00     0.115 C 
ATOM     84  C   UNL A   1      31.513  26.608  22.378  1.00  0.00     0.004 C 
ATOM     85  C   UNL A   1      32.077  27.316  24.779  1.00  0.00     0.096 C 
ATOM     86  C   UNL A   1      30.904  27.985  22.058  1.00  0.00     0.005 C 
ATOM     87  C   UNL A   1      33.012  26.686  22.044  1.00  0.00     0.005 C 
ATOM     88  C   UNL A   1      32.631  28.440  23.831  1.00  0.00     0.002 C 
ATOM     89  C   UNL A   1      31.456  29.036  23.026  1.00  0.00     0.005 C 
ATOM     90  C   UNL A   1      33.631  27.872  22.788  1.00  0.00     0.005 C 
BRANCH  85  91
ATOM     91  C   UNL A   1      33.212  26.705  25.634  1.00  0.00     0.228 C 
ATOM     92  O   UNL A   1      33.612  25.552  25.446  1.00  0.00    -0.274 OA
ATOM     93  N   UNL A   1      33.765  27.394  26.680  1.00  0.00    -0.326 N 
ATOM     94  H   UNL A   1      34.217  26.832  27.351  1.00  0.00     0.169 HD
BRANCH  93  95
ATOM     95  C   UNL A   1      33.792  28.766  26.952  1.00  0.00     0.041 A 
ATOM     96  C   UNL A   1      32.621  29.500  27.124  1.00  0.00     0.026 A 
ATOM     97  C   UNL A   1      35.029  29.414  26.991  1.00  0.00     0.026 A 
ATOM     98  C   UNL A   1      32.691  30.870  27.413  1.00  0.00     0.006 A 
ATOM     99  C   UNL A   1      35.101  30.767  27.345  1.00  0.00     0.006 A 
ATOM    100  C   UNL A   1      33.932  31.505  27.583  1.00  0.00    -0.043 A 
BRANCH 100 101
ATOM    101  C   UNL A   1      34.009  32.922  28.121  1.00  0.00     0.071 C 
BRANCH 101 102
ATOM    102  C   UNL A   1      34.971  33.136  29.261  1.00  0.00    -0.041 A 
ATOM    103  C   UNL A   1      36.231  33.696  29.040  1.00  0.00     0.024 A 
ATOM    104  C   UNL A   1      34.593  32.855  30.580  1.00  0.00     0.024 A 
ATOM    105  C   UNL A   1      37.072  33.889  30.124  1.00  0.00     0.111 A 
ATOM    106  C   UNL A   1      35.502  33.101  31.601  1.00  0.00     0.111 A 
ATOM    107  N   UNL A   1      36.751  33.571  31.391  1.00  0.00    -0.265 NA
ENDBRANCH 101 102
ENDBRANCH 100 101
ENDBRANCH  93  95
ENDBRANCH  85  91
ENDBRANCH  81  83
ENDBRANCH  80  81
ENDBRANCH  79  80
ENDBRANCH  78  79
ENDBRANCH  77  78
ENDBRANCH  76  77
ENDBRANCH   1  76
TORSDOF 27
ENDMDL
MODEL 2
REMARK VINA RESULT:      -9.6      1.754      2.023
REMARK SMILES O=C(OCCOCCOCCOCCOC(=O)[C@H]1[C@H]2CC[C@H](CC2)[C@@H]1C(=O)Nc1ccc(Cc2ccncc2)cc1)c1ccc(-c2c3nc(c(-c4cc(S(=O)(=O)[O-])ccc4F)c4ccc([nH]4)c(-c4cc(S(=O)(=O)[O-])ccc4F)c4nc(c(-c5cc(S(=O)(=O)[O-])ccc5F)c5ccc2[nH]5)C=C4)C=C3)cc1
REMARK SMILES IDX 10 1 9 2 8 3 7 4 6 5 5 6 4 7 3 8 2 9 1 10 42 11 43 12 104 13
REMARK SMILES IDX 44 14 103 15 45 16 46 17 47 18 97 19 48 20 102 21 96 22
REMARK SMILES IDX 98 23 49 24 101 25 95 26 94 27 50 29 82 30 62 31 81 32 63 33
REMARK SMILES IDX 66 34 80 35 99 36 64 37 65 38 79 40 100 41 67 42 51 43 52 44
REMARK SMILES IDX 60 45 53 46 59 47 61 48 58 49 54 50 55 51 56 52 57 53 83 54
REMARK SMILES IDX 84 55 92 56 85 57 91 58 93 59 90 60 86 61 87 62 88 63 89 64
REMARK SMILES IDX 68 65 69 66 77 67 70 68 76 69 78 70 75 71 71 72 72 73 73 74
REMARK SMILES IDX 74 75 11 76 12 77 13 78 14 79 15 80 16 81 17 82 18 83 19 84
REMARK SMILES IDX 25 85 24 86 20 87 22 88 23 89 21 90 26 91 27 92 28 93 29 95
REMARK SMILES IDX 30 96 41 97 31 98 40 99 32 100 33 101 34 102 35 103 39 104
REMARK SMILES IDX 36 105 38 106 37 107
REMARK H PARENT 98 28 66 39 28 94
REMARK Flexibility Score: inf
ROOT
ATOM      1  C   UNL A   1      33.470  20.650  26.040  1.00  0.00     0.188 C 
ENDROOT
BRANCH   1   2
ATOM      2  O   UNL A   1      34.633  21.474  26.007  1.00  0.00    -0.377 OA
BRANCH   2   3
ATOM      3  C   UNL A   1      35.759  20.922  25.335  1.00  0.00     0.188 C 
BRANCH   3   4
ATOM      4  C   UNL A   1      36.478  21.948  24.470  1.00  0.00     0.188 C 
BRANCH   4   5
ATOM      5  O   UNL A   1      37.892  21.770  24.592  1.00  0.00    -0.376 OA
BRANCH   5   6
ATOM      6  C   UNL A   1      38.314  21.036  25.738  1.00  0.00     0.202 C 
BRANCH   6   7
ATOM      7  C   UNL A   1      39.095  19.766  25.406  1.00  0.00     0.261 C 
BRANCH   7   8
ATOM      8  O   UNL A   1      40.488  19.855  25.740  1.00  0.00    -0.460 OA
BRANCH   8   9
ATOM      9  C   UNL A   1      41.062  20.287  26.892  1.00  0.00     0.338 C 
ATOM     10  O   UNL A   1      40.930  19.568  27.885  1.00  0.00    -0.246 OA
BRANCH   9  11
ATOM     11  C   UNL A   1      41.774  21.602  27.075  1.00  0.00     0.060 A 
ATOM     12  C   UNL A   1      42.365  22.067  28.252  1.00  0.00     0.016 A 
ATOM     13  C   UNL A   1      41.877  22.427  25.935  1.00  0.00     0.016 A 
ATOM     14  C   UNL A   1      43.043  23.278  28.310  1.00  0.00     0.010 A 
ATOM     15  C   UNL A   1      42.503  23.676  25.993  1.00  0.00     0.010 A 
ATOM     16  C   UNL A   1      43.064  24.108  27.197  1.00  0.00    -0.014 A 
BRANCH  16  17
ATOM     17  C   UNL A   1      43.392  25.521  27.443  1.00  0.00     0.031 A 
ATOM     18  C   UNL A   1      44.749  25.978  26.997  1.00  0.00     0.074 A 
ATOM     19  C   UNL A   1      42.449  26.377  27.867  1.00  0.00     0.049 A 
ATOM     20  N   UNL A   1      45.316  27.145  27.115  1.00  0.00    -0.248 NA
ATOM     21  C   UNL A   1      45.567  24.981  26.281  1.00  0.00     0.031 C 
ATOM     22  C   UNL A   1      41.050  26.031  28.122  1.00  0.00     0.029 A 
ATOM     23  N   UNL A   1      42.518  27.716  28.135  1.00  0.00    -0.354 N 
ATOM     24  C   UNL A   1      46.563  27.015  26.510  1.00  0.00     0.074 A 
ATOM     25  C   UNL A   1      46.662  25.667  26.005  1.00  0.00     0.031 C 
ATOM     26  C   UNL A   1      40.397  27.133  28.528  1.00  0.00     0.029 A 
ATOM     27  C   UNL A   1      41.347  28.237  28.632  1.00  0.00     0.049 A 
ATOM     28  H   UNL A   1      43.330  28.256  27.987  1.00  0.00     0.167 HD
ATOM     29  C   UNL A   1      47.546  27.940  26.421  1.00  0.00     0.034 A 
ATOM     30  C   UNL A   1      41.111  29.452  29.166  1.00  0.00     0.034 A 
ATOM     31  C   UNL A   1      47.415  29.250  27.001  1.00  0.00     0.049 A 
ATOM     32  C   UNL A   1      42.274  30.418  29.212  1.00  0.00     0.074 A 
ATOM     33  C   UNL A   1      48.358  30.252  27.116  1.00  0.00     0.029 A 
ATOM     34  N   UNL A   1      46.247  29.723  27.593  1.00  0.00    -0.354 N 
ATOM     35  N   UNL A   1      43.489  30.270  28.725  1.00  0.00    -0.248 NA
ATOM     36  C   UNL A   1      42.052  31.699  29.891  1.00  0.00     0.031 C 
ATOM     37  C   UNL A   1      47.779  31.302  27.838  1.00  0.00     0.029 A 
ATOM     38  C   UNL A   1      46.454  30.988  28.110  1.00  0.00     0.049 A 
ATOM     39  H   UNL A   1      45.397  29.230  27.636  1.00  0.00     0.167 HD
ATOM     40  C   UNL A   1      44.172  31.441  29.034  1.00  0.00     0.074 A 
ATOM     41  C   UNL A   1      43.222  32.297  29.723  1.00  0.00     0.031 C 
ATOM     42  C   UNL A   1      45.462  31.789  28.790  1.00  0.00     0.034 A 
BRANCH  29  43
ATOM     43  C   UNL A   1      48.853  27.479  25.826  1.00  0.00     0.023 A 
ATOM     44  C   UNL A   1      49.203  27.749  24.490  1.00  0.00     0.031 A 
ATOM     45  C   UNL A   1      49.690  26.629  26.569  1.00  0.00     0.131 A 
ATOM     46  C   UNL A   1      50.313  27.105  23.916  1.00  0.00     0.055 A 
ATOM     47  C   UNL A   1      50.835  26.054  26.015  1.00  0.00     0.041 A 
ATOM     48  F   UNL A   1      49.383  26.304  27.834  1.00  0.00    -0.206 F 
ATOM     49  C   UNL A   1      51.143  26.276  24.677  1.00  0.00     0.022 A 
BRANCH  46  50
ATOM     50  S   UNL A   1      50.566  27.232  22.123  1.00  0.00     0.124 S 
ATOM     51  O   UNL A   1      51.970  26.850  21.995  1.00  0.00    -0.237 OA
ATOM     52  O   UNL A   1      49.595  26.281  21.597  1.00  0.00    -0.237 OA
ATOM     53  O   UNL A   1      50.281  28.637  21.835  1.00  0.00    -0.744 OA
ENDBRANCH  46  50
ENDBRANCH  29  43
BRANCH  30  54
ATOM     54  C   UNL A   1      39.795  29.779  29.793  1.00  0.00     0.023 A 
ATOM     55  C   UNL A   1      39.612  29.738  31.183  1.00  0.00     0.031 A 
ATOM     56  C   UNL A   1      38.667  30.070  28.999  1.00  0.00     0.131 A 
ATOM     57  C   UNL A   1      38.332  29.934  31.730  1.00  0.00     0.055 A 
ATOM     58  C   UNL A   1      37.411  30.331  29.552  1.00  0.00     0.041 A 
ATOM     59  F   UNL A   1      38.768  30.106  27.660  1.00  0.00    -0.206 F 
ATOM     60  C   UNL A   1      37.234  30.249  30.927  1.00  0.00     0.022 A 
BRANCH  57  61
ATOM     61  S   UNL A   1      38.103  29.678  33.511  1.00  0.00     0.124 S 
ATOM     62  O   UNL A   1      39.464  29.379  33.941  1.00  0.00    -0.237 OA
ATOM     63  O   UNL A   1      37.569  30.970  33.926  1.00  0.00    -0.237 OA
ATOM     64  O   UNL A   1      37.166  28.559  33.576  1.00  0.00    -0.744 OA
ENDBRANCH  57  61
ENDBRANCH  30  54
BRANCH  42  65
ATOM     65  C   UNL A   1      45.889  33.154  29.250  1.00  0.00     0.023 A 
ATOM     66  C   UNL A   1      46.445  33.354  30.523  1.00  0.00     0.031 A 
ATOM     67  C   UNL A   1      45.763  34.258  28.391  1.00  0.00     0.131 A 
ATOM     68  C   UNL A   1      46.820  34.643  30.921  1.00  0.00     0.055 A 
ATOM     69  C   UNL A   1      46.189  35.529  28.771  1.00  0.00     0.041 A 
ATOM     70  F   UNL A   1      45.240  34.111  27.163  1.00  0.00    -0.206 F 
ATOM     71  C   UNL A   1      46.713  35.728  30.045  1.00  0.00     0.022 A 
BRANCH  68  72
ATOM     72  S   UNL A   1      47.396  34.894  32.620  1.00  0.00     0.124 S 
ATOM     73  O   UNL A   1      46.235  35.522  33.243  1.00  0.00    -0.237 OA
ATOM     74  O   UNL A   1      47.694  33.533  33.055  1.00  0.00    -0.237 OA
ATOM     75  O   UNL A   1      48.562  35.761  32.460  1.00  0.00    -0.744 OA
ENDBRANCH  68  72
ENDBRANCH  42  65
ENDBRANCH  16  17
ENDBRANCH   9  11
ENDBRANCH   8   9
ENDBRANCH   7   8
ENDBRANCH   6   7
ENDBRANCH   5   6
ENDBRANCH   4   5
ENDBRANCH   3   4
ENDBRANCH   2   3
ENDBRANCH   1   2
BRANCH   1  76
ATOM     76  C   UNL A   1      32.415  20.843  24.951  1.00  0.00     0.188 C 
BRANCH  76  77
ATOM     77  O   UNL A   1      31.173  21.306  25.460  1.00  0.00    -0.376 OA
BRANCH  77  78
ATOM     78  C   UNL A   1      31.149  22.614  26.015  1.00  0.00     0.202 C 
BRANCH  78  79
ATOM     79  C   UNL A   1      30.994  23.785  25.023  1.00  0.00     0.261 C 
BRANCH  79  80
ATOM     80  O   UNL A   1      30.093  24.904  25.273  1.00  0.00    -0.463 OA
BRANCH  80  81
ATOM     81  C   UNL A   1      30.118  26.019  24.515  1.00  0.00     0.310 C 
ATOM     82  O   UNL A   1      29.148  26.731  24.293  1.00  0.00    -0.252 OA
BRANCH  81  83
ATOM     83  C   UNL A   1      31.495  26.414  24.013  1.00  0.00     0.115 C 
ATOM     84  C   UNL A   1      31.549  26.811  22.512  1.00  0.00     0.004 C 
ATOM     85  C   UNL A   1      32.187  27.466  24.909  1.00  0.00     0.096 C 
ATOM     86  C   UNL A   1      30.903  28.184  22.252  1.00  0.00     0.005 C 
ATOM     87  C   UNL A   1      33.033  26.926  22.126  1.00  0.00     0.005 C 
ATOM     88  C   UNL A   1      32.686  28.624  23.972  1.00  0.00     0.002 C 
ATOM     89  C   UNL A   1      31.472  29.219  23.227  1.00  0.00     0.005 C 
ATOM     90  C   UNL A   1      33.657  28.103  22.879  1.00  0.00     0.005 C 
BRANCH  85  91
ATOM     91  C   UNL A   1      33.363  26.853  25.706  1.00  0.00     0.228 C 
ATOM     92  O   UNL A   1      33.756  25.702  25.494  1.00  0.00    -0.274 OA
ATOM     93  N   UNL A   1      33.965  27.539  26.727  1.00  0.00    -0.326 N 
ATOM     94  H   UNL A   1      34.451  26.976  27.373  1.00  0.00     0.169 HD
BRANCH  93  95
ATOM     95  C   UNL A   1      34.003  28.910  27.002  1.00  0.00     0.041 A 
ATOM     96  C   UNL A   1      32.843  29.636  27.263  1.00  0.00     0.026 A 
ATOM     97  C   UNL A   1      35.236  29.567  26.953  1.00  0.00     0.026 A 
ATOM     98  C   UNL A   1      32.925  31.005  27.551  1.00  0.00     0.006 A 
ATOM     99  C   UNL A   1      35.324  30.919  27.307  1.00  0.00     0.006 A 
ATOM    100  C   UNL A   1      34.171  31.647  27.633  1.00  0.00    -0.043 A 
BRANCH 100 101
ATOM    101  C   UNL A   1      34.277  33.063  28.171  1.00  0.00     0.071 C 
BRANCH 101 102
ATOM    102  C   UNL A   1      34.994  33.209  29.489  1.00  0.00    -0.041 A 
ATOM    103  C   UNL A   1      36.247  33.822  29.560  1.00  0.00     0.024 A 
ATOM    104  C   UNL A   1      34.386  32.806  30.684  1.00  0.00     0.024 A 
ATOM    105  C   UNL A   1      36.857  33.948  30.798  1.00  0.00     0.111 A 
ATOM    106  C   UNL A   1      35.071  32.992  31.878  1.00  0.00     0.111 A 
ATOM    107  N   UNL A   1      36.315  33.514  31.950  1.00  0.00    -0.265 NA
ENDBRANCH 101 102
ENDBRANCH 100 101
ENDBRANCH  93  95
ENDBRANCH  85  91
ENDBRANCH  81  83
ENDBRANCH  80  81
ENDBRANCH  79  80
ENDBRANCH  78  79
ENDBRANCH  77  78
ENDBRANCH  76  77
ENDBRANCH   1  76
TORSDOF 27
ENDMDL
MODEL 3
REMARK VINA RESULT:      -9.5      1.004      7.060
REMARK SMILES O=C(OCCOCCOCCOCCOC(=O)[C@H]1[C@H]2CC[C@H](CC2)[C@@H]1C(=O)Nc1ccc(Cc2ccncc2)cc1)c1ccc(-c2c3nc(c(-c4cc(S(=O)(=O)[O-])ccc4F)c4ccc([nH]4)c(-c4cc(S(=O)(=O)[O-])ccc4F)c4nc(c(-c5cc(S(=O)(=O)[O-])ccc5F)c5ccc2[nH]5)C=C4)C=C3)cc1
REMARK SMILES IDX 10 1 9 2 8 3 7 4 6 5 5 6 4 7 3 8 2 9 1 10 42 11 43 12 104 13
REMARK SMILES IDX 44 14 103 15 45 16 46 17 47 18 97 19 48 20 102 21 96 22
REMARK SMILES IDX 98 23 49 24 101 25 95 26 94 27 50 29 82 30 62 31 81 32 63 33
REMARK SMILES IDX 66 34 80 35 99 36 64 37 65 38 79 40 100 41 67 42 51 43 52 44
REMARK SMILES IDX 60 45 53 46 59 47 61 48 58 49 54 50 55 51 56 52 57 53 83 54
REMARK SMILES IDX 84 55 92 56 85 57 91 58 93 59 90 60 86 61 87 62 88 63 89 64
REMARK SMILES IDX 68 65 69 66 77 67 70 68 76 69 78 70 75 71 71 72 72 73 73 74
REMARK SMILES IDX 74 75 11 76 12 77 13 78 14 79 15 80 16 81 17 82 18 83 19 84
REMARK SMILES IDX 25 85 24 86 20 87 22 88 23 89 21 90 26 91 27 92 28 93 29 95
REMARK SMILES IDX 30 96 41 97 31 98 40 99 32 100 33 101 34 102 35 103 39 104
REMARK SMILES IDX 36 105 38 106 37 107
REMARK H PARENT 98 28 66 39 28 94
REMARK Flexibility Score: inf
ROOT
ATOM      1  C   UNL A   1      33.610  20.996  25.641  1.00  0.00     0.188 C 
ENDROOT
BRANCH   1   2
ATOM      2  O   UNL A   1      34.861  21.675  25.717  1.00  0.00    -0.377 OA
BRANCH   2   3
ATOM      3  C   UNL A   1      35.942  21.052  25.032  1.00  0.00     0.188 C 
BRANCH   3   4
ATOM      4  C   UNL A   1      36.833  22.060  24.319  1.00  0.00     0.188 C 
BRANCH   4   5
ATOM      5  O   UNL A   1      38.150  22.010  24.875  1.00  0.00    -0.376 OA
BRANCH   5   6
ATOM      6  C   UNL A   1      38.350  21.015  25.874  1.00  0.00     0.202 C 
BRANCH   6   7
ATOM      7  C   UNL A   1      39.161  19.812  25.396  1.00  0.00     0.261 C 
BRANCH   7   8
ATOM      8  O   UNL A   1      40.549  19.888  25.753  1.00  0.00    -0.460 OA
BRANCH   8   9
ATOM      9  C   UNL A   1      41.105  20.241  26.940  1.00  0.00     0.338 C 
ATOM     10  O   UNL A   1      40.780  19.579  27.928  1.00  0.00    -0.246 OA
BRANCH   9  11
ATOM     11  C   UNL A   1      42.021  21.417  27.162  1.00  0.00     0.060 A 
ATOM     12  C   UNL A   1      42.572  21.820  28.381  1.00  0.00     0.016 A 
ATOM     13  C   UNL A   1      42.378  22.161  26.018  1.00  0.00     0.016 A 
ATOM     14  C   UNL A   1      43.447  22.893  28.478  1.00  0.00     0.010 A 
ATOM     15  C   UNL A   1      43.210  23.283  26.109  1.00  0.00     0.010 A 
ATOM     16  C   UNL A   1      43.722  23.659  27.353  1.00  0.00    -0.014 A 
BRANCH  16  17
ATOM     17  C   UNL A   1      44.273  25.001  27.597  1.00  0.00     0.031 A 
ATOM     18  C   UNL A   1      43.313  26.032  28.114  1.00  0.00     0.074 A 
ATOM     19  C   UNL A   1      45.596  25.218  27.537  1.00  0.00     0.049 A 
ATOM     20  N   UNL A   1      43.507  27.292  28.382  1.00  0.00    -0.248 NA
ATOM     21  C   UNL A   1      41.946  25.559  28.404  1.00  0.00     0.031 C 
ATOM     22  C   UNL A   1      46.604  24.199  27.240  1.00  0.00     0.029 A 
ATOM     23  N   UNL A   1      46.322  26.358  27.747  1.00  0.00    -0.354 N 
ATOM     24  C   UNL A   1      42.285  27.765  28.849  1.00  0.00     0.074 A 
ATOM     25  C   UNL A   1      41.362  26.656  28.851  1.00  0.00     0.031 C 
ATOM     26  C   UNL A   1      47.820  24.770  27.270  1.00  0.00     0.029 A 
ATOM     27  C   UNL A   1      47.667  26.202  27.513  1.00  0.00     0.049 A 
ATOM     28  H   UNL A   1      45.919  27.209  28.037  1.00  0.00     0.167 HD
ATOM     29  C   UNL A   1      41.964  29.029  29.209  1.00  0.00     0.034 A 
ATOM     30  C   UNL A   1      48.637  27.135  27.444  1.00  0.00     0.034 A 
ATOM     31  C   UNL A   1      42.909  30.109  29.125  1.00  0.00     0.049 A 
ATOM     32  C   UNL A   1      48.224  28.571  27.684  1.00  0.00     0.074 A 
ATOM     33  C   UNL A   1      42.711  31.461  29.323  1.00  0.00     0.029 A 
ATOM     34  N   UNL A   1      44.250  29.943  28.786  1.00  0.00    -0.354 N 
ATOM     35  N   UNL A   1      47.045  29.042  28.036  1.00  0.00    -0.248 NA
ATOM     36  C   UNL A   1      49.252  29.601  27.501  1.00  0.00     0.031 C 
ATOM     37  C   UNL A   1      43.914  32.117  29.036  1.00  0.00     0.029 A 
ATOM     38  C   UNL A   1      44.883  31.169  28.730  1.00  0.00     0.049 A 
ATOM     39  H   UNL A   1      44.684  29.077  28.612  1.00  0.00     0.167 HD
ATOM     40  C   UNL A   1      47.194  30.422  28.121  1.00  0.00     0.074 A 
ATOM     41  C   UNL A   1      48.585  30.703  27.814  1.00  0.00     0.031 C 
ATOM     42  C   UNL A   1      46.277  31.381  28.414  1.00  0.00     0.034 A 
BRANCH  29  43
ATOM     43  C   UNL A   1      40.517  29.285  29.550  1.00  0.00     0.023 A 
ATOM     44  C   UNL A   1      40.048  29.278  30.877  1.00  0.00     0.031 A 
ATOM     45  C   UNL A   1      39.571  29.392  28.516  1.00  0.00     0.131 A 
ATOM     46  C   UNL A   1      38.666  29.288  31.128  1.00  0.00     0.055 A 
ATOM     47  C   UNL A   1      38.202  29.479  28.776  1.00  0.00     0.041 A 
ATOM     48  F   UNL A   1      39.958  29.362  27.231  1.00  0.00    -0.206 F 
ATOM     49  C   UNL A   1      37.741  29.410  30.087  1.00  0.00     0.022 A 
BRANCH  46  50
ATOM     50  S   UNL A   1      38.083  28.974  32.819  1.00  0.00     0.124 S 
ATOM     51  O   UNL A   1      37.991  27.515  32.833  1.00  0.00    -0.237 OA
ATOM     52  O   UNL A   1      39.142  29.555  33.634  1.00  0.00    -0.237 OA
ATOM     53  O   UNL A   1      36.799  29.672  32.875  1.00  0.00    -0.744 OA
ENDBRANCH  46  50
ENDBRANCH  29  43
BRANCH  30  54
ATOM     54  C   UNL A   1      50.026  26.779  27.027  1.00  0.00     0.023 A 
ATOM     55  C   UNL A   1      51.078  26.712  27.953  1.00  0.00     0.031 A 
ATOM     56  C   UNL A   1      50.343  26.567  25.670  1.00  0.00     0.131 A 
ATOM     57  C   UNL A   1      52.393  26.493  27.508  1.00  0.00     0.055 A 
ATOM     58  C   UNL A   1      51.641  26.283  25.241  1.00  0.00     0.041 A 
ATOM     59  F   UNL A   1      49.388  26.636  24.729  1.00  0.00    -0.206 F 
ATOM     60  C   UNL A   1      52.681  26.258  26.162  1.00  0.00     0.022 A 
BRANCH  57  61
ATOM     61  S   UNL A   1      53.745  26.611  28.712  1.00  0.00     0.124 S 
ATOM     62  O   UNL A   1      53.033  26.424  29.970  1.00  0.00    -0.237 OA
ATOM     63  O   UNL A   1      54.607  25.510  28.294  1.00  0.00    -0.237 OA
ATOM     64  O   UNL A   1      54.283  27.951  28.489  1.00  0.00    -0.744 OA
ENDBRANCH  57  61
ENDBRANCH  30  54
BRANCH  42  65
ATOM     65  C   UNL A   1      46.772  32.799  28.436  1.00  0.00     0.023 A 
ATOM     66  C   UNL A   1      46.956  33.527  27.250  1.00  0.00     0.031 A 
ATOM     67  C   UNL A   1      47.033  33.435  29.662  1.00  0.00     0.131 A 
ATOM     68  C   UNL A   1      47.431  34.843  27.311  1.00  0.00     0.055 A 
ATOM     69  C   UNL A   1      47.452  34.762  29.719  1.00  0.00     0.041 A 
ATOM     70  F   UNL A   1      46.866  32.778  30.821  1.00  0.00    -0.206 F 
ATOM     71  C   UNL A   1      47.662  35.471  28.539  1.00  0.00     0.022 A 
BRANCH  68  72
ATOM     72  S   UNL A   1      47.799  35.705  25.761  1.00  0.00     0.124 S 
ATOM     73  O   UNL A   1      47.212  37.019  26.000  1.00  0.00    -0.237 OA
ATOM     74  O   UNL A   1      49.257  35.658  25.713  1.00  0.00    -0.237 OA
ATOM     75  O   UNL A   1      47.121  34.895  24.751  1.00  0.00    -0.744 OA
ENDBRANCH  68  72
ENDBRANCH  42  65
ENDBRANCH  16  17
ENDBRANCH   9  11
ENDBRANCH   8   9
ENDBRANCH   7   8
ENDBRANCH   6   7
ENDBRANCH   5   6
ENDBRANCH   4   5
ENDBRANCH   3   4
ENDBRANCH   2   3
ENDBRANCH   1   2
BRANCH   1  76
ATOM     76  C   UNL A   1      32.744  21.213  24.401  1.00  0.00     0.188 C 
BRANCH  76  77
ATOM     77  O   UNL A   1      31.406  21.571  24.717  1.00  0.00    -0.376 OA
BRANCH  77  78
ATOM     78  C   UNL A   1      31.086  22.956  24.701  1.00  0.00     0.202 C 
BRANCH  78  79
ATOM     79  C   UNL A   1      30.736  23.571  23.330  1.00  0.00     0.261 C 
BRANCH  79  80
ATOM     80  O   UNL A   1      29.851  24.721  23.195  1.00  0.00    -0.463 OA
BRANCH  80  81
ATOM     81  C   UNL A   1      30.091  25.882  23.838  1.00  0.00     0.310 C 
ATOM     82  O   UNL A   1      29.298  26.444  24.580  1.00  0.00    -0.252 OA
BRANCH  81  83
ATOM     83  C   UNL A   1      31.499  26.425  23.661  1.00  0.00     0.115 C 
ATOM     84  C   UNL A   1      31.759  27.115  22.293  1.00  0.00     0.004 C 
ATOM     85  C   UNL A   1      31.961  27.304  24.844  1.00  0.00     0.096 C 
ATOM     86  C   UNL A   1      31.064  28.485  22.194  1.00  0.00     0.005 C 
ATOM     87  C   UNL A   1      33.273  27.365  22.193  1.00  0.00     0.005 C 
ATOM     88  C   UNL A   1      32.516  28.645  24.243  1.00  0.00     0.002 C 
ATOM     89  C   UNL A   1      31.394  29.327  23.430  1.00  0.00     0.005 C 
ATOM     90  C   UNL A   1      33.683  28.393  23.251  1.00  0.00     0.005 C 
BRANCH  85  91
ATOM     91  C   UNL A   1      33.039  26.592  25.696  1.00  0.00     0.228 C 
ATOM     92  O   UNL A   1      33.325  25.406  25.515  1.00  0.00    -0.274 OA
ATOM     93  N   UNL A   1      33.663  27.233  26.733  1.00  0.00    -0.326 N 
ATOM     94  H   UNL A   1      34.064  26.636  27.406  1.00  0.00     0.169 HD
BRANCH  93  95
ATOM     95  C   UNL A   1      33.823  28.599  26.993  1.00  0.00     0.041 A 
ATOM     96  C   UNL A   1      32.736  29.420  27.285  1.00  0.00     0.026 A 
ATOM     97  C   UNL A   1      35.104  29.150  26.898  1.00  0.00     0.026 A 
ATOM     98  C   UNL A   1      32.941  30.779  27.557  1.00  0.00     0.006 A 
ATOM     99  C   UNL A   1      35.315  30.493  27.236  1.00  0.00     0.006 A 
ATOM    100  C   UNL A   1      34.238  31.317  27.592  1.00  0.00    -0.043 A 
BRANCH 100 101
ATOM    101  C   UNL A   1      34.479  32.723  28.112  1.00  0.00     0.071 C 
BRANCH 101 102
ATOM    102  C   UNL A   1      35.279  32.820  29.385  1.00  0.00    -0.041 A 
ATOM    103  C   UNL A   1      34.686  32.577  30.626  1.00  0.00     0.024 A 
ATOM    104  C   UNL A   1      36.656  33.075  29.348  1.00  0.00     0.024 A 
ATOM    105  C   UNL A   1      35.470  32.661  31.765  1.00  0.00     0.111 A 
ATOM    106  C   UNL A   1      37.359  33.120  30.545  1.00  0.00     0.111 A 
ATOM    107  N   UNL A   1      36.780  32.962  31.755  1.00  0.00    -0.265 NA
ENDBRANCH 101 102
ENDBRANCH 100 101
ENDBRANCH  93  95
ENDBRANCH  85  91
ENDBRANCH  81  83
ENDBRANCH  80  81
ENDBRANCH  79  80
ENDBRANCH  78  79
ENDBRANCH  77  78
ENDBRANCH  76  77
ENDBRANCH   1  76
TORSDOF 27
ENDMDL
