MODEL 1
REMARK VINA RESULT:     -10.1      0.000      0.000
REMARK SMILES Cc1cc(C)c2c(=O)n(CCCC(=O)OCCOCCOCCOCCOC(=O)c3ccc(-c4c5nc(c(-c6cc(S(=O)(=O)[O-])ccc6F)c6ccc([nH]6)c(-c6cc(S(=O)(=O)[O-])ccc6F)c6nc(c(-c7cc(S(=O)(=O)[O-])ccc7F)c7ccc4[nH]7)C=C6)C=C5)cc3)sc2n1
REMARK SMILES IDX 21 1 20 2 19 3 18 4 17 5 16 6 15 7 13 8 14 9 12 10 11 11
REMARK SMILES IDX 10 12 9 13 1 14 2 15 3 16 95 17 4 18 94 19 5 20 6 21 93 22
REMARK SMILES IDX 7 23 8 24 22 25 23 26 24 27 25 28 26 29 27 30 28 31 29 32
REMARK SMILES IDX 30 33 31 34 92 35 32 36 91 37 33 38 34 39 35 40 85 41 36 42
REMARK SMILES IDX 90 43 84 44 86 45 37 46 89 47 83 48 82 49 38 51 70 52 50 53
REMARK SMILES IDX 69 54 51 55 54 56 68 57 87 58 52 59 53 60 67 62 88 63 55 64
REMARK SMILES IDX 39 65 40 66 48 67 41 68 47 69 49 70 46 71 42 72 43 73 44 74
REMARK SMILES IDX 45 75 71 76 72 77 80 78 73 79 79 80 81 81 78 82 74 83 75 84
REMARK SMILES IDX 76 85 77 86 56 87 57 88 65 89 58 90 64 91 66 92 63 93 59 94
REMARK SMILES IDX 60 95 61 96 62 97
REMARK H PARENT 86 50 54 61
REMARK Flexibility Score: inf
ROOT
ATOM      1  O   UNL A   1      31.496  29.286  26.017  1.00  0.00    -0.377 OA
ENDROOT
BRANCH   1   2
ATOM      2  C   UNL A   1      31.934  27.990  25.671  1.00  0.00     0.188 C 
BRANCH   2   3
ATOM      3  C   UNL A   1      31.022  26.808  26.050  1.00  0.00     0.188 C 
BRANCH   3   4
ATOM      4  O   UNL A   1      30.440  25.988  25.053  1.00  0.00    -0.376 OA
BRANCH   4   5
ATOM      5  C   UNL A   1      30.481  26.352  23.684  1.00  0.00     0.202 C 
BRANCH   5   6
ATOM      6  C   UNL A   1      30.792  25.352  22.560  1.00  0.00     0.261 C 
BRANCH   6   7
ATOM      7  O   UNL A   1      31.819  25.742  21.641  1.00  0.00    -0.463 OA
BRANCH   7   8
ATOM      8  C   UNL A   1      33.049  25.965  22.146  1.00  0.00     0.305 C 
ATOM      9  O   UNL A   1      33.780  26.889  21.803  1.00  0.00    -0.252 OA
BRANCH   8  10
ATOM     10  C   UNL A   1      33.451  25.010  23.258  1.00  0.00     0.124 C 
BRANCH  10  11
ATOM     11  C   UNL A   1      34.464  25.331  24.373  1.00  0.00     0.035 C 
BRANCH  11  12
ATOM     12  C   UNL A   1      34.222  24.877  25.819  1.00  0.00     0.139 C 
BRANCH  12  13
ATOM     13  N   UNL A   1      34.178  23.440  25.959  1.00  0.00    -0.262 N 
ATOM     14  C   UNL A   1      32.400  17.976  24.140  1.00  0.00     0.067 C 
ATOM     15  C   UNL A   1      33.266  19.062  24.696  1.00  0.00     0.039 A 
ATOM     16  C   UNL A   1      34.666  19.009  24.598  1.00  0.00     0.027 A 
ATOM     17  N   UNL A   1      32.606  20.117  25.217  1.00  0.00    -0.241 NA
ATOM     18  C   UNL A   1      35.440  20.110  24.997  1.00  0.00    -0.033 A 
ATOM     19  C   UNL A   1      33.373  21.157  25.573  1.00  0.00     0.146 A 
ATOM     20  C   UNL A   1      36.935  20.077  24.954  1.00  0.00     0.045 C 
ATOM     21  C   UNL A   1      34.746  21.230  25.423  1.00  0.00     0.081 A 
ATOM     22  S   UNL A   1      32.700  22.637  26.243  1.00  0.00    -0.035 S 
ATOM     23  C   UNL A   1      35.236  22.609  25.621  1.00  0.00     0.270 A 
ATOM     24  O   UNL A   1      36.387  22.945  25.389  1.00  0.00    -0.268 OA
ENDBRANCH  12  13
ENDBRANCH  11  12
ENDBRANCH  10  11
ENDBRANCH   8  10
ENDBRANCH   7   8
ENDBRANCH   6   7
ENDBRANCH   5   6
ENDBRANCH   4   5
ENDBRANCH   3   4
ENDBRANCH   2   3
ENDBRANCH   1   2
BRANCH   1  25
ATOM     25  C   UNL A   1      32.447  30.334  26.146  1.00  0.00     0.188 C 
BRANCH  25  26
ATOM     26  C   UNL A   1      32.241  31.480  27.164  1.00  0.00     0.188 C 
BRANCH  26  27
ATOM     27  O   UNL A   1      33.408  32.211  27.520  1.00  0.00    -0.376 OA
BRANCH  27  28
ATOM     28  C   UNL A   1      34.337  31.682  28.454  1.00  0.00     0.202 C 
BRANCH  28  29
ATOM     29  C   UNL A   1      35.640  31.096  27.904  1.00  0.00     0.261 C 
BRANCH  29  30
ATOM     30  O   UNL A   1      36.030  29.876  28.508  1.00  0.00    -0.460 OA
BRANCH  30  31
ATOM     31  C   UNL A   1      37.196  29.941  29.170  1.00  0.00     0.338 C 
ATOM     32  O   UNL A   1      37.494  30.726  30.070  1.00  0.00    -0.246 OA
BRANCH  31  33
ATOM     33  C   UNL A   1      38.136  29.003  28.581  1.00  0.00     0.060 A 
ATOM     34  C   UNL A   1      38.627  28.022  29.440  1.00  0.00     0.016 A 
ATOM     35  C   UNL A   1      38.779  29.368  27.388  1.00  0.00     0.016 A 
ATOM     36  C   UNL A   1      39.922  27.618  29.255  1.00  0.00     0.010 A 
ATOM     37  C   UNL A   1      40.078  28.972  27.214  1.00  0.00     0.010 A 
ATOM     38  C   UNL A   1      40.656  28.190  28.208  1.00  0.00    -0.014 A 
BRANCH  38  39
ATOM     39  C   UNL A   1      42.054  27.852  28.118  1.00  0.00     0.031 A 
ATOM     40  C   UNL A   1      42.236  26.527  27.508  1.00  0.00     0.074 A 
ATOM     41  C   UNL A   1      43.038  28.677  28.517  1.00  0.00     0.049 A 
ATOM     42  N   UNL A   1      42.479  25.424  28.128  1.00  0.00    -0.248 NA
ATOM     43  C   UNL A   1      41.847  26.357  26.099  1.00  0.00     0.031 C 
ATOM     44  C   UNL A   1      42.933  30.081  28.924  1.00  0.00     0.029 A 
ATOM     45  N   UNL A   1      44.375  28.441  28.565  1.00  0.00    -0.354 N 
ATOM     46  C   UNL A   1      42.561  24.467  27.132  1.00  0.00     0.074 A 
ATOM     47  C   UNL A   1      41.920  25.030  25.974  1.00  0.00     0.031 C 
ATOM     48  C   UNL A   1      44.172  30.628  28.957  1.00  0.00     0.029 A 
ATOM     49  C   UNL A   1      45.155  29.583  28.716  1.00  0.00     0.049 A 
ATOM     50  H   UNL A   1      44.760  27.538  28.497  1.00  0.00     0.167 HD
ATOM     51  C   UNL A   1      43.446  23.443  27.244  1.00  0.00     0.034 A 
ATOM     52  C   UNL A   1      46.508  29.645  28.606  1.00  0.00     0.034 A 
ATOM     53  C   UNL A   1      43.940  23.334  28.595  1.00  0.00     0.049 A 
ATOM     54  C   UNL A   1      47.007  28.287  28.937  1.00  0.00     0.074 A 
ATOM     55  C   UNL A   1      43.433  22.921  29.808  1.00  0.00     0.029 A 
ATOM     56  N   UNL A   1      45.039  24.117  28.859  1.00  0.00    -0.354 N 
ATOM     57  N   UNL A   1      46.853  27.738  30.113  1.00  0.00    -0.248 NA
ATOM     58  C   UNL A   1      47.336  27.361  27.860  1.00  0.00     0.031 C 
ATOM     59  C   UNL A   1      44.127  23.675  30.803  1.00  0.00     0.029 A 
ATOM     60  C   UNL A   1      45.070  24.491  30.178  1.00  0.00     0.049 A 
ATOM     61  H   UNL A   1      45.713  24.374  28.190  1.00  0.00     0.167 HD
ATOM     62  C   UNL A   1      46.638  26.399  29.847  1.00  0.00     0.074 A 
ATOM     63  C   UNL A   1      47.112  26.200  28.483  1.00  0.00     0.031 C 
ATOM     64  C   UNL A   1      45.817  25.651  30.639  1.00  0.00     0.034 A 
BRANCH  51  65
ATOM     65  C   UNL A   1      44.205  22.868  26.075  1.00  0.00     0.023 A 
ATOM     66  C   UNL A   1      44.052  21.499  25.797  1.00  0.00     0.031 A 
ATOM     67  C   UNL A   1      45.265  23.524  25.401  1.00  0.00     0.131 A 
ATOM     68  C   UNL A   1      44.932  20.844  24.917  1.00  0.00     0.055 A 
ATOM     69  C   UNL A   1      46.097  22.883  24.484  1.00  0.00     0.041 A 
ATOM     70  F   UNL A   1      45.623  24.785  25.671  1.00  0.00    -0.206 F 
ATOM     71  C   UNL A   1      45.945  21.530  24.250  1.00  0.00     0.022 A 
BRANCH  68  72
ATOM     72  S   UNL A   1      44.803  19.047  24.733  1.00  0.00     0.124 S 
ATOM     73  O   UNL A   1      43.795  18.713  25.731  1.00  0.00    -0.237 OA
ATOM     74  O   UNL A   1      44.398  18.915  23.337  1.00  0.00    -0.237 OA
ATOM     75  O   UNL A   1      46.155  18.580  25.031  1.00  0.00    -0.744 OA
ENDBRANCH  68  72
ENDBRANCH  51  65
BRANCH  52  76
ATOM     76  C   UNL A   1      47.335  30.656  27.884  1.00  0.00     0.023 A 
ATOM     77  C   UNL A   1      46.729  31.702  27.151  1.00  0.00     0.031 A 
ATOM     78  C   UNL A   1      48.717  30.786  28.138  1.00  0.00     0.131 A 
ATOM     79  C   UNL A   1      47.479  32.834  26.758  1.00  0.00     0.055 A 
ATOM     80  C   UNL A   1      49.455  31.906  27.744  1.00  0.00     0.041 A 
ATOM     81  F   UNL A   1      49.386  29.877  28.862  1.00  0.00    -0.206 F 
ATOM     82  C   UNL A   1      48.834  32.946  27.071  1.00  0.00     0.022 A 
BRANCH  79  83
ATOM     83  S   UNL A   1      46.664  34.255  25.960  1.00  0.00     0.124 S 
ATOM     84  O   UNL A   1      46.330  35.095  27.105  1.00  0.00    -0.237 OA
ATOM     85  O   UNL A   1      47.701  34.760  25.067  1.00  0.00    -0.237 OA
ATOM     86  O   UNL A   1      45.517  33.647  25.284  1.00  0.00    -0.744 OA
ENDBRANCH  79  83
ENDBRANCH  52  76
BRANCH  64  87
ATOM     87  C   UNL A   1      45.597  26.115  32.059  1.00  0.00     0.023 A 
ATOM     88  C   UNL A   1      44.471  26.826  32.533  1.00  0.00     0.031 A 
ATOM     89  C   UNL A   1      46.575  25.734  32.993  1.00  0.00     0.131 A 
ATOM     90  C   UNL A   1      44.364  27.124  33.908  1.00  0.00     0.055 A 
ATOM     91  C   UNL A   1      46.454  26.011  34.352  1.00  0.00     0.041 A 
ATOM     92  F   UNL A   1      47.661  25.048  32.597  1.00  0.00    -0.206 F 
ATOM     93  C   UNL A   1      45.346  26.709  34.815  1.00  0.00     0.022 A 
BRANCH  90  94
ATOM     94  S   UNL A   1      42.931  28.051  34.552  1.00  0.00     0.124 S 
ATOM     95  O   UNL A   1      41.801  27.193  34.220  1.00  0.00    -0.237 OA
ATOM     96  O   UNL A   1      43.245  28.179  35.972  1.00  0.00    -0.237 OA
ATOM     97  O   UNL A   1      42.976  29.312  33.807  1.00  0.00    -0.744 OA
ENDBRANCH  90  94
ENDBRANCH  64  87
ENDBRANCH  38  39
ENDBRANCH  31  33
ENDBRANCH  30  31
ENDBRANCH  29  30
ENDBRANCH  28  29
ENDBRANCH  27  28
ENDBRANCH  26  27
ENDBRANCH  25  26
ENDBRANCH   1  25
TORSDOF 26
ENDMDL
MODEL 2
REMARK VINA RESULT:     -10.0      1.671      2.278
REMARK SMILES Cc1cc(C)c2c(=O)n(CCCC(=O)OCCOCCOCCOCCOC(=O)c3ccc(-c4c5nc(c(-c6cc(S(=O)(=O)[O-])ccc6F)c6ccc([nH]6)c(-c6cc(S(=O)(=O)[O-])ccc6F)c6nc(c(-c7cc(S(=O)(=O)[O-])ccc7F)c7ccc4[nH]7)C=C6)C=C5)cc3)sc2n1
REMARK SMILES IDX 21 1 20 2 19 3 18 4 17 5 16 6 15 7 13 8 14 9 12 10 11 11
REMARK SMILES IDX 10 12 9 13 1 14 2 15 3 16 95 17 4 18 94 19 5 20 6 21 93 22
REMARK SMILES IDX 7 23 8 24 22 25 23 26 24 27 25 28 26 29 27 30 28 31 29 32
REMARK SMILES IDX 30 33 31 34 92 35 32 36 91 37 33 38 34 39 35 40 85 41 36 42
REMARK SMILES IDX 90 43 84 44 86 45 37 46 89 47 83 48 82 49 38 51 70 52 50 53
REMARK SMILES IDX 69 54 51 55 54 56 68 57 87 58 52 59 53 60 67 62 88 63 55 64
REMARK SMILES IDX 39 65 40 66 48 67 41 68 47 69 49 70 46 71 42 72 43 73 44 74
REMARK SMILES IDX 45 75 71 76 72 77 80 78 73 79 79 80 81 81 78 82 74 83 75 84
REMARK SMILES IDX 76 85 77 86 56 87 57 88 65 89 58 90 64 91 66 92 63 93 59 94
REMARK SMILES IDX 60 95 61 96 62 97
REMARK H PARENT 86 50 54 61
REMARK Flexibility Score: inf
ROOT
ATOM      1  O   UNL A   1      31.619  28.914  26.261  1.00  0.00    -0.377 OA
ENDROOT
BRANCH   1   2
ATOM      2  C   UNL A   1      32.208  27.714  25.809  1.00  0.00     0.188 C 
BRANCH   2   3
ATOM      3  C   UNL A   1      31.676  26.395  26.401  1.00  0.00     0.188 C 
BRANCH   3   4
ATOM      4  O   UNL A   1      31.272  25.330  25.559  1.00  0.00    -0.376 OA
BRANCH   4   5
ATOM      5  C   UNL A   1      30.425  25.552  24.445  1.00  0.00     0.202 C 
BRANCH   5   6
ATOM      6  C   UNL A   1      30.627  24.862  23.089  1.00  0.00     0.261 C 
BRANCH   6   7
ATOM      7  O   UNL A   1      31.442  25.564  22.143  1.00  0.00    -0.463 OA
BRANCH   7   8
ATOM      8  C   UNL A   1      32.775  25.385  22.221  1.00  0.00     0.305 C 
ATOM      9  O   UNL A   1      33.565  26.231  22.629  1.00  0.00    -0.252 OA
BRANCH   8  10
ATOM     10  C   UNL A   1      33.242  23.991  21.833  1.00  0.00     0.124 C 
BRANCH  10  11
ATOM     11  C   UNL A   1      34.128  23.081  22.705  1.00  0.00     0.035 C 
BRANCH  11  12
ATOM     12  C   UNL A   1      33.728  22.733  24.145  1.00  0.00     0.139 C 
BRANCH  12  13
ATOM     13  N   UNL A   1      34.857  22.373  24.971  1.00  0.00    -0.262 N 
ATOM     14  C   UNL A   1      40.372  20.057  25.721  1.00  0.00     0.067 C 
ATOM     15  C   UNL A   1      39.187  20.956  25.889  1.00  0.00     0.039 A 
ATOM     16  C   UNL A   1      39.331  22.298  26.277  1.00  0.00     0.027 A 
ATOM     17  N   UNL A   1      37.996  20.410  25.566  1.00  0.00    -0.241 NA
ATOM     18  C   UNL A   1      38.217  23.151  26.283  1.00  0.00    -0.033 A 
ATOM     19  C   UNL A   1      36.956  21.254  25.566  1.00  0.00     0.146 A 
ATOM     20  C   UNL A   1      38.318  24.574  26.735  1.00  0.00     0.045 C 
ATOM     21  C   UNL A   1      37.023  22.608  25.839  1.00  0.00     0.081 A 
ATOM     22  S   UNL A   1      35.328  20.742  25.143  1.00  0.00    -0.035 S 
ATOM     23  C   UNL A   1      35.774  23.296  25.455  1.00  0.00     0.270 A 
ATOM     24  O   UNL A   1      35.656  24.511  25.459  1.00  0.00    -0.268 OA
ENDBRANCH  12  13
ENDBRANCH  11  12
ENDBRANCH  10  11
ENDBRANCH   8  10
ENDBRANCH   7   8
ENDBRANCH   6   7
ENDBRANCH   5   6
ENDBRANCH   4   5
ENDBRANCH   3   4
ENDBRANCH   2   3
ENDBRANCH   1   2
BRANCH   1  25
ATOM     25  C   UNL A   1      32.276  30.150  26.016  1.00  0.00     0.188 C 
BRANCH  25  26
ATOM     26  C   UNL A   1      32.335  31.253  27.099  1.00  0.00     0.188 C 
BRANCH  26  27
ATOM     27  O   UNL A   1      33.591  31.901  27.258  1.00  0.00    -0.376 OA
BRANCH  27  28
ATOM     28  C   UNL A   1      34.413  31.623  28.383  1.00  0.00     0.202 C 
BRANCH  28  29
ATOM     29  C   UNL A   1      35.719  30.862  28.137  1.00  0.00     0.261 C 
BRANCH  29  30
ATOM     30  O   UNL A   1      35.948  29.796  29.040  1.00  0.00    -0.460 OA
BRANCH  30  31
ATOM     31  C   UNL A   1      37.163  29.813  29.609  1.00  0.00     0.338 C 
ATOM     32  O   UNL A   1      37.530  30.516  30.552  1.00  0.00    -0.246 OA
BRANCH  31  33
ATOM     33  C   UNL A   1      38.057  28.944  28.862  1.00  0.00     0.060 A 
ATOM     34  C   UNL A   1      38.538  27.835  29.555  1.00  0.00     0.016 A 
ATOM     35  C   UNL A   1      38.680  29.460  27.715  1.00  0.00     0.016 A 
ATOM     36  C   UNL A   1      39.814  27.427  29.274  1.00  0.00     0.010 A 
ATOM     37  C   UNL A   1      39.960  29.058  27.446  1.00  0.00     0.010 A 
ATOM     38  C   UNL A   1      40.538  28.124  28.299  1.00  0.00    -0.014 A 
BRANCH  38  39
ATOM     39  C   UNL A   1      41.922  27.763  28.118  1.00  0.00     0.031 A 
ATOM     40  C   UNL A   1      42.041  26.451  27.467  1.00  0.00     0.074 A 
ATOM     41  C   UNL A   1      42.943  28.560  28.477  1.00  0.00     0.049 A 
ATOM     42  N   UNL A   1      42.299  25.329  28.045  1.00  0.00    -0.248 NA
ATOM     43  C   UNL A   1      41.568  26.322  26.079  1.00  0.00     0.031 C 
ATOM     44  C   UNL A   1      42.889  29.955  28.923  1.00  0.00     0.029 A 
ATOM     45  N   UNL A   1      44.276  28.299  28.440  1.00  0.00    -0.354 N 
ATOM     46  C   UNL A   1      42.304  24.395  27.022  1.00  0.00     0.074 A 
ATOM     47  C   UNL A   1      41.607  24.998  25.919  1.00  0.00     0.031 C 
ATOM     48  C   UNL A   1      44.138  30.478  28.896  1.00  0.00     0.029 A 
ATOM     49  C   UNL A   1      45.085  29.423  28.572  1.00  0.00     0.049 A 
ATOM     50  H   UNL A   1      44.639  27.391  28.328  1.00  0.00     0.167 HD
ATOM     51  C   UNL A   1      43.174  23.353  27.058  1.00  0.00     0.034 A 
ATOM     52  C   UNL A   1      46.431  29.462  28.383  1.00  0.00     0.034 A 
ATOM     53  C   UNL A   1      43.745  23.202  28.374  1.00  0.00     0.049 A 
ATOM     54  C   UNL A   1      46.922  28.088  28.652  1.00  0.00     0.074 A 
ATOM     55  C   UNL A   1      43.302  22.767  29.605  1.00  0.00     0.029 A 
ATOM     56  N   UNL A   1      44.872  23.958  28.591  1.00  0.00    -0.354 N 
ATOM     57  N   UNL A   1      46.826  27.513  29.821  1.00  0.00    -0.248 NA
ATOM     58  C   UNL A   1      47.169  27.184  27.535  1.00  0.00     0.031 C 
ATOM     59  C   UNL A   1      44.068  23.484  30.574  1.00  0.00     0.029 A 
ATOM     60  C   UNL A   1      44.988  24.298  29.914  1.00  0.00     0.049 A 
ATOM     61  H   UNL A   1      45.511  24.219  27.889  1.00  0.00     0.167 HD
ATOM     62  C   UNL A   1      46.571  26.186  29.537  1.00  0.00     0.074 A 
ATOM     63  C   UNL A   1      46.960  26.012  28.142  1.00  0.00     0.031 C 
ATOM     64  C   UNL A   1      45.783  25.432  30.358  1.00  0.00     0.034 A 
BRANCH  51  65
ATOM     65  C   UNL A   1      43.852  22.794  25.832  1.00  0.00     0.023 A 
ATOM     66  C   UNL A   1      43.913  21.397  25.690  1.00  0.00     0.031 A 
ATOM     67  C   UNL A   1      44.669  23.544  24.950  1.00  0.00     0.131 A 
ATOM     68  C   UNL A   1      44.764  20.810  24.737  1.00  0.00     0.055 A 
ATOM     69  C   UNL A   1      45.465  22.958  23.966  1.00  0.00     0.041 A 
ATOM     70  F   UNL A   1      44.826  24.869  25.060  1.00  0.00    -0.206 F 
ATOM     71  C   UNL A   1      45.530  21.582  23.866  1.00  0.00     0.022 A 
BRANCH  68  72
ATOM     72  S   UNL A   1      44.939  19.008  24.717  1.00  0.00     0.124 S 
ATOM     73  O   UNL A   1      46.103  18.809  25.571  1.00  0.00    -0.237 OA
ATOM     74  O   UNL A   1      43.656  18.574  25.263  1.00  0.00    -0.237 OA
ATOM     75  O   UNL A   1      45.143  18.704  23.302  1.00  0.00    -0.744 OA
ENDBRANCH  68  72
ENDBRANCH  51  65
BRANCH  52  76
ATOM     76  C   UNL A   1      47.233  30.477  27.637  1.00  0.00     0.023 A 
ATOM     77  C   UNL A   1      46.617  31.609  27.057  1.00  0.00     0.031 A 
ATOM     78  C   UNL A   1      48.641  30.507  27.731  1.00  0.00     0.131 A 
ATOM     79  C   UNL A   1      47.390  32.722  26.656  1.00  0.00     0.055 A 
ATOM     80  C   UNL A   1      49.400  31.610  27.328  1.00  0.00     0.041 A 
ATOM     81  F   UNL A   1      49.328  29.508  28.305  1.00  0.00    -0.206 F 
ATOM     82  C   UNL A   1      48.776  32.732  26.809  1.00  0.00     0.022 A 
BRANCH  79  83
ATOM     83  S   UNL A   1      46.583  34.244  26.062  1.00  0.00     0.124 S 
ATOM     84  O   UNL A   1      46.037  34.799  27.295  1.00  0.00    -0.237 OA
ATOM     85  O   UNL A   1      47.688  34.978  25.456  1.00  0.00    -0.237 OA
ATOM     86  O   UNL A   1      45.586  33.747  25.112  1.00  0.00    -0.744 OA
ENDBRANCH  79  83
ENDBRANCH  52  76
BRANCH  64  87
ATOM     87  C   UNL A   1      45.656  25.865  31.799  1.00  0.00     0.023 A 
ATOM     88  C   UNL A   1      46.604  25.633  32.821  1.00  0.00     0.031 A 
ATOM     89  C   UNL A   1      44.520  26.629  32.117  1.00  0.00     0.131 A 
ATOM     90  C   UNL A   1      46.386  26.169  34.108  1.00  0.00     0.055 A 
ATOM     91  C   UNL A   1      44.320  27.174  33.381  1.00  0.00     0.041 A 
ATOM     92  F   UNL A   1      43.592  26.888  31.179  1.00  0.00    -0.206 F 
ATOM     93  C   UNL A   1      45.254  26.945  34.384  1.00  0.00     0.022 A 
BRANCH  90  94
ATOM     94  S   UNL A   1      47.582  25.878  35.453  1.00  0.00     0.124 S 
ATOM     95  O   UNL A   1      48.868  26.142  34.821  1.00  0.00    -0.237 OA
ATOM     96  O   UNL A   1      47.157  26.835  36.471  1.00  0.00    -0.237 OA
ATOM     97  O   UNL A   1      47.359  24.475  35.813  1.00  0.00    -0.744 OA
ENDBRANCH  90  94
ENDBRANCH  64  87
ENDBRANCH  38  39
ENDBRANCH  31  33
ENDBRANCH  30  31
ENDBRANCH  29  30
ENDBRANCH  28  29
ENDBRANCH  27  28
ENDBRANCH  26  27
ENDBRANCH  25  26
ENDBRANCH   1  25
TORSDOF 26
ENDMDL
MODEL 3
REMARK VINA RESULT:      -9.0      3.580      7.753
REMARK SMILES Cc1cc(C)c2c(=O)n(CCCC(=O)OCCOCCOCCOCCOC(=O)c3ccc(-c4c5nc(c(-c6cc(S(=O)(=O)[O-])ccc6F)c6ccc([nH]6)c(-c6cc(S(=O)(=O)[O-])ccc6F)c6nc(c(-c7cc(S(=O)(=O)[O-])ccc7F)c7ccc4[nH]7)C=C6)C=C5)cc3)sc2n1
REMARK SMILES IDX 21 1 20 2 19 3 18 4 17 5 16 6 15 7 13 8 14 9 12 10 11 11
REMARK SMILES IDX 10 12 9 13 1 14 2 15 3 16 95 17 4 18 94 19 5 20 6 21 93 22
REMARK SMILES IDX 7 23 8 24 22 25 23 26 24 27 25 28 26 29 27 30 28 31 29 32
REMARK SMILES IDX 30 33 31 34 92 35 32 36 91 37 33 38 34 39 35 40 85 41 36 42
REMARK SMILES IDX 90 43 84 44 86 45 37 46 89 47 83 48 82 49 38 51 70 52 50 53
REMARK SMILES IDX 69 54 51 55 54 56 68 57 87 58 52 59 53 60 67 62 88 63 55 64
REMARK SMILES IDX 39 65 40 66 48 67 41 68 47 69 49 70 46 71 42 72 43 73 44 74
REMARK SMILES IDX 45 75 71 76 72 77 80 78 73 79 79 80 81 81 78 82 74 83 75 84
REMARK SMILES IDX 76 85 77 86 56 87 57 88 65 89 58 90 64 91 66 92 63 93 59 94
REMARK SMILES IDX 60 95 61 96 62 97
REMARK H PARENT 86 50 54 61
REMARK Flexibility Score: inf
ROOT
ATOM      1  O   UNL A   1      34.159  33.263  30.485  1.00  0.00    -0.377 OA
ENDROOT
BRANCH   1   2
ATOM      2  C   UNL A   1      34.406  33.619  29.143  1.00  0.00     0.188 C 
BRANCH   2   3
ATOM      3  C   UNL A   1      35.387  32.739  28.344  1.00  0.00     0.188 C 
BRANCH   3   4
ATOM      4  O   UNL A   1      34.978  31.492  27.813  1.00  0.00    -0.376 OA
BRANCH   4   5
ATOM      5  C   UNL A   1      33.609  31.194  27.601  1.00  0.00     0.202 C 
BRANCH   5   6
ATOM      6  C   UNL A   1      33.122  30.217  26.521  1.00  0.00     0.261 C 
BRANCH   6   7
ATOM      7  O   UNL A   1      32.216  29.199  26.960  1.00  0.00    -0.463 OA
BRANCH   7   8
ATOM      8  C   UNL A   1      32.349  27.974  26.414  1.00  0.00     0.305 C 
ATOM      9  O   UNL A   1      33.276  27.206  26.655  1.00  0.00    -0.252 OA
BRANCH   8  10
ATOM     10  C   UNL A   1      31.198  27.563  25.510  1.00  0.00     0.124 C 
BRANCH  10  11
ATOM     11  C   UNL A   1      30.850  26.112  25.128  1.00  0.00     0.035 C 
BRANCH  11  12
ATOM     12  C   UNL A   1      31.737  25.312  24.165  1.00  0.00     0.139 C 
BRANCH  12  13
ATOM     13  N   UNL A   1      32.217  24.075  24.736  1.00  0.00    -0.262 N 
ATOM     14  C   UNL A   1      32.566  18.059  24.857  1.00  0.00     0.067 C 
ATOM     15  C   UNL A   1      32.972  19.495  24.962  1.00  0.00     0.039 A 
ATOM     16  C   UNL A   1      34.296  19.904  24.735  1.00  0.00     0.027 A 
ATOM     17  N   UNL A   1      31.968  20.364  25.208  1.00  0.00    -0.241 NA
ATOM     18  C   UNL A   1      34.614  21.270  24.697  1.00  0.00    -0.033 A 
ATOM     19  C   UNL A   1      32.301  21.660  25.147  1.00  0.00     0.146 A 
ATOM     20  C   UNL A   1      36.019  21.747  24.507  1.00  0.00     0.045 C 
ATOM     21  C   UNL A   1      33.555  22.153  24.836  1.00  0.00     0.081 A 
ATOM     22  S   UNL A   1      31.129  22.945  25.407  1.00  0.00    -0.035 S 
ATOM     23  C   UNL A   1      33.508  23.602  24.555  1.00  0.00     0.270 A 
ATOM     24  O   UNL A   1      34.461  24.223  24.110  1.00  0.00    -0.268 OA
ENDBRANCH  12  13
ENDBRANCH  11  12
ENDBRANCH  10  11
ENDBRANCH   8  10
ENDBRANCH   7   8
ENDBRANCH   6   7
ENDBRANCH   5   6
ENDBRANCH   4   5
ENDBRANCH   3   4
ENDBRANCH   2   3
ENDBRANCH   1   2
BRANCH   1  25
ATOM     25  C   UNL A   1      34.955  32.258  31.100  1.00  0.00     0.188 C 
BRANCH  25  26
ATOM     26  C   UNL A   1      35.982  32.613  32.200  1.00  0.00     0.188 C 
BRANCH  26  27
ATOM     27  O   UNL A   1      36.179  34.001  32.440  1.00  0.00    -0.376 OA
BRANCH  27  28
ATOM     28  C   UNL A   1      37.274  34.453  33.224  1.00  0.00     0.202 C 
BRANCH  28  29
ATOM     29  C   UNL A   1      38.659  34.458  32.572  1.00  0.00     0.261 C 
BRANCH  29  30
ATOM     30  O   UNL A   1      39.393  33.261  32.754  1.00  0.00    -0.460 OA
BRANCH  30  31
ATOM     31  C   UNL A   1      40.247  33.295  33.788  1.00  0.00     0.338 C 
ATOM     32  O   UNL A   1      40.654  34.295  34.380  1.00  0.00    -0.246 OA
BRANCH  31  33
ATOM     33  C   UNL A   1      40.739  31.953  34.051  1.00  0.00     0.060 A 
ATOM     34  C   UNL A   1      42.122  31.795  33.991  1.00  0.00     0.016 A 
ATOM     35  C   UNL A   1      39.840  30.882  33.934  1.00  0.00     0.016 A 
ATOM     36  C   UNL A   1      42.596  30.604  33.511  1.00  0.00     0.010 A 
ATOM     37  C   UNL A   1      40.316  29.697  33.442  1.00  0.00     0.010 A 
ATOM     38  C   UNL A   1      41.672  29.619  33.140  1.00  0.00    -0.014 A 
BRANCH  38  39
ATOM     39  C   UNL A   1      42.189  28.430  32.511  1.00  0.00     0.031 A 
ATOM     40  C   UNL A   1      42.820  27.545  33.500  1.00  0.00     0.074 A 
ATOM     41  C   UNL A   1      42.062  28.178  31.196  1.00  0.00     0.049 A 
ATOM     42  N   UNL A   1      44.083  27.424  33.724  1.00  0.00    -0.248 NA
ATOM     43  C   UNL A   1      41.962  26.931  34.526  1.00  0.00     0.031 C 
ATOM     44  C   UNL A   1      41.261  28.906  30.208  1.00  0.00     0.029 A 
ATOM     45  N   UNL A   1      42.577  27.147  30.477  1.00  0.00    -0.354 N 
ATOM     46  C   UNL A   1      44.176  26.484  34.736  1.00  0.00     0.074 A 
ATOM     47  C   UNL A   1      42.878  26.420  35.351  1.00  0.00     0.031 C 
ATOM     48  C   UNL A   1      41.167  28.164  29.079  1.00  0.00     0.029 A 
ATOM     49  C   UNL A   1      42.012  26.988  29.216  1.00  0.00     0.049 A 
ATOM     50  H   UNL A   1      43.290  26.561  30.820  1.00  0.00     0.167 HD
ATOM     51  C   UNL A   1      45.208  25.601  34.753  1.00  0.00     0.034 A 
ATOM     52  C   UNL A   1      42.211  25.934  28.380  1.00  0.00     0.034 A 
ATOM     53  C   UNL A   1      46.260  26.021  33.859  1.00  0.00     0.049 A 
ATOM     54  C   UNL A   1      43.538  25.375  28.738  1.00  0.00     0.074 A 
ATOM     55  C   UNL A   1      47.216  27.013  33.848  1.00  0.00     0.029 A 
ATOM     56  N   UNL A   1      46.106  25.591  32.563  1.00  0.00    -0.354 N 
ATOM     57  N   UNL A   1      44.653  26.043  28.606  1.00  0.00    -0.248 NA
ATOM     58  C   UNL A   1      43.614  24.212  29.615  1.00  0.00     0.031 C 
ATOM     59  C   UNL A   1      47.453  27.317  32.473  1.00  0.00     0.029 A 
ATOM     60  C   UNL A   1      46.674  26.474  31.681  1.00  0.00     0.049 A 
ATOM     61  H   UNL A   1      45.648  24.758  32.303  1.00  0.00     0.167 HD
ATOM     62  C   UNL A   1      45.421  25.657  29.687  1.00  0.00     0.074 A 
ATOM     63  C   UNL A   1      44.813  24.422  30.166  1.00  0.00     0.031 C 
ATOM     64  C   UNL A   1      46.285  26.531  30.280  1.00  0.00     0.034 A 
BRANCH  51  65
ATOM     65  C   UNL A   1      45.066  24.164  35.188  1.00  0.00     0.023 A 
ATOM     66  C   UNL A   1      45.752  23.755  36.345  1.00  0.00     0.031 A 
ATOM     67  C   UNL A   1      44.525  23.129  34.387  1.00  0.00     0.131 A 
ATOM     68  C   UNL A   1      45.895  22.389  36.646  1.00  0.00     0.055 A 
ATOM     69  C   UNL A   1      44.619  21.779  34.723  1.00  0.00     0.041 A 
ATOM     70  F   UNL A   1      43.973  23.354  33.189  1.00  0.00    -0.206 F 
ATOM     71  C   UNL A   1      45.323  21.399  35.849  1.00  0.00     0.022 A 
BRANCH  68  72
ATOM     72  S   UNL A   1      46.938  21.911  38.047  1.00  0.00     0.124 S 
ATOM     73  O   UNL A   1      47.406  23.204  38.530  1.00  0.00    -0.237 OA
ATOM     74  O   UNL A   1      45.989  21.206  38.903  1.00  0.00    -0.237 OA
ATOM     75  O   UNL A   1      47.961  21.066  37.433  1.00  0.00    -0.744 OA
ENDBRANCH  68  72
ENDBRANCH  51  65
BRANCH  52  76
ATOM     76  C   UNL A   1      41.199  25.174  27.589  1.00  0.00     0.023 A 
ATOM     77  C   UNL A   1      41.422  23.825  27.229  1.00  0.00     0.031 A 
ATOM     78  C   UNL A   1      39.884  25.659  27.427  1.00  0.00     0.131 A 
ATOM     79  C   UNL A   1      40.352  23.013  26.788  1.00  0.00     0.055 A 
ATOM     80  C   UNL A   1      38.831  24.851  26.987  1.00  0.00     0.041 A 
ATOM     81  F   UNL A   1      39.549  26.908  27.780  1.00  0.00    -0.206 F 
ATOM     82  C   UNL A   1      39.056  23.517  26.686  1.00  0.00     0.022 A 
BRANCH  79  83
ATOM     83  S   UNL A   1      40.604  21.234  26.482  1.00  0.00     0.124 S 
ATOM     84  O   UNL A   1      39.372  20.868  25.793  1.00  0.00    -0.237 OA
ATOM     85  O   UNL A   1      41.823  21.216  25.681  1.00  0.00    -0.237 OA
ATOM     86  O   UNL A   1      40.749  20.679  27.828  1.00  0.00    -0.744 OA
ENDBRANCH  79  83
ENDBRANCH  52  76
BRANCH  64  87
ATOM     87  C   UNL A   1      46.792  27.688  29.453  1.00  0.00     0.023 A 
ATOM     88  C   UNL A   1      47.821  27.627  28.486  1.00  0.00     0.031 A 
ATOM     89  C   UNL A   1      46.119  28.910  29.621  1.00  0.00     0.131 A 
ATOM     90  C   UNL A   1      48.134  28.776  27.729  1.00  0.00     0.055 A 
ATOM     91  C   UNL A   1      46.417  30.034  28.857  1.00  0.00     0.041 A 
ATOM     92  F   UNL A   1      45.126  29.020  30.520  1.00  0.00    -0.206 F 
ATOM     93  C   UNL A   1      47.428  29.972  27.907  1.00  0.00     0.022 A 
BRANCH  90  94
ATOM     94  S   UNL A   1      49.465  28.736  26.482  1.00  0.00     0.124 S 
ATOM     95  O   UNL A   1      50.499  27.935  27.123  1.00  0.00    -0.237 OA
ATOM     96  O   UNL A   1      48.804  28.131  25.329  1.00  0.00    -0.237 OA
ATOM     97  O   UNL A   1      49.811  30.149  26.306  1.00  0.00    -0.744 OA
ENDBRANCH  90  94
ENDBRANCH  64  87
ENDBRANCH  38  39
ENDBRANCH  31  33
ENDBRANCH  30  31
ENDBRANCH  29  30
ENDBRANCH  28  29
ENDBRANCH  27  28
ENDBRANCH  26  27
ENDBRANCH  25  26
ENDBRANCH   1  25
TORSDOF 26
ENDMDL
