MODEL 1
REMARK VINA RESULT:      -8.7      0.000      0.000
REMARK SMILES Cc1cscc1CNC(=O)N[C@@H](C)c1nc(C(=O)OCCOCCOCCOCCOC(=O)c2ccc(-c3c4nc(c(-c5cc(S(=O)(=O)[O-])ccc5F)c5ccc([nH]5)c(-c5cc(S(=O)(=O)[O-])ccc5F)c5nc(c(-c6cc(S(=O)(=O)[O-])ccc6F)c6ccc3[nH]6)C=C5)C=C4)cc2)cs1
REMARK SMILES IDX 24 1 23 2 22 3 21 4 20 5 19 6 17 7 18 8 16 9 14 10 15 11
REMARK SMILES IDX 98 12 97 13 12 14 13 15 11 16 8 17 9 18 10 20 7 22 6 23 1 24
REMARK SMILES IDX 2 25 3 26 4 27 5 28 25 29 26 30 27 31 28 32 29 33 30 34
REMARK SMILES IDX 31 35 32 36 33 37 34 38 35 39 96 40 36 41 95 42 37 43 38 44
REMARK SMILES IDX 39 45 89 46 40 47 94 48 88 49 90 50 41 51 93 52 87 53 86 54
REMARK SMILES IDX 42 56 74 57 54 58 73 59 55 60 58 61 72 62 91 63 56 64 57 65
REMARK SMILES IDX 71 67 92 68 59 69 43 70 44 71 52 72 45 73 51 74 53 75 50 76
REMARK SMILES IDX 46 77 47 78 48 79 49 80 75 81 76 82 84 83 77 84 83 85 85 86
REMARK SMILES IDX 82 87 78 88 79 89 80 90 81 91 60 92 61 93 69 94 62 95 68 96
REMARK SMILES IDX 70 97 67 98 63 99 64 100 65 101 66 102
REMARK H PARENT 8 19 11 21 90 55 58 66
REMARK Flexibility Score: inf
ROOT
ATOM      1  C   UNL A   1      33.250  35.196  31.949  1.00  0.00     0.188 C 
ENDROOT
BRANCH   1   2
ATOM      2  C   UNL A   1      33.537  35.229  30.439  1.00  0.00     0.188 C 
BRANCH   2   3
ATOM      3  O   UNL A   1      33.614  33.949  29.821  1.00  0.00    -0.376 OA
BRANCH   3   4
ATOM      4  C   UNL A   1      33.360  33.906  28.425  1.00  0.00     0.202 C 
BRANCH   4   5
ATOM      5  C   UNL A   1      34.157  32.816  27.697  1.00  0.00     0.261 C 
BRANCH   5   6
ATOM      6  O   UNL A   1      33.851  31.478  28.118  1.00  0.00    -0.458 OA
BRANCH   6   7
ATOM      7  C   UNL A   1      34.548  30.471  27.533  1.00  0.00     0.357 C 
ATOM      8  O   UNL A   1      35.760  30.314  27.620  1.00  0.00    -0.244 OA
BRANCH   7   9
ATOM      9  C   UNL A   1      33.662  29.485  26.916  1.00  0.00     0.159 A 
ATOM     10  C   UNL A   1      32.819  28.239  25.276  1.00  0.00     0.116 A 
ATOM     11  N   UNL A   1      33.740  29.134  25.569  1.00  0.00    -0.232 NA
ATOM     12  S   UNL A   1      31.746  27.845  26.566  1.00  0.00    -0.124 S 
ATOM     13  C   UNL A   1      32.632  28.871  27.606  1.00  0.00     0.102 A 
BRANCH  10  14
ATOM     14  C   UNL A   1      32.683  27.531  23.948  1.00  0.00     0.140 C 
ATOM     15  C   UNL A   1      32.767  28.528  22.794  1.00  0.00     0.039 C 
BRANCH  14  16
ATOM     16  N   UNL A   1      31.416  26.823  23.903  1.00  0.00    -0.329 N 
ATOM     17  N   UNL A   1      31.717  24.924  22.523  1.00  0.00    -0.334 N 
ATOM     18  C   UNL A   1      30.960  25.764  23.233  1.00  0.00     0.315 C 
ATOM     19  H   UNL A   1      31.177  24.246  22.057  1.00  0.00     0.165 HD
ATOM     20  O   UNL A   1      29.755  25.514  23.288  1.00  0.00    -0.249 OA
ATOM     21  H   UNL A   1      30.740  27.213  24.503  1.00  0.00     0.166 HD
BRANCH  17  22
ATOM     22  C   UNL A   1      33.129  24.758  22.269  1.00  0.00     0.154 C 
BRANCH  22  23
ATOM     23  C   UNL A   1      33.785  23.890  23.313  1.00  0.00    -0.015 A 
ATOM     24  C   UNL A   1      32.484  21.710  22.696  1.00  0.00     0.045 C 
ATOM     25  C   UNL A   1      33.471  22.485  23.507  1.00  0.00    -0.035 A 
ATOM     26  C   UNL A   1      34.197  21.940  24.550  1.00  0.00     0.068 A 
ATOM     27  S   UNL A   1      35.256  23.058  25.278  1.00  0.00    -0.152 S 
ATOM     28  C   UNL A   1      34.751  24.297  24.220  1.00  0.00     0.070 A 
ENDBRANCH  22  23
ENDBRANCH  17  22
ENDBRANCH  14  16
ENDBRANCH  10  14
ENDBRANCH   7   9
ENDBRANCH   6   7
ENDBRANCH   5   6
ENDBRANCH   4   5
ENDBRANCH   3   4
ENDBRANCH   2   3
ENDBRANCH   1   2
BRANCH   1  29
ATOM     29  O   UNL A   1      33.426  33.983  32.657  1.00  0.00    -0.377 OA
BRANCH  29  30
ATOM     30  C   UNL A   1      34.485  33.847  33.593  1.00  0.00     0.188 C 
BRANCH  30  31
ATOM     31  C   UNL A   1      35.616  32.822  33.372  1.00  0.00     0.188 C 
BRANCH  31  32
ATOM     32  O   UNL A   1      36.851  33.378  32.932  1.00  0.00    -0.376 OA
BRANCH  32  33
ATOM     33  C   UNL A   1      37.009  33.469  31.521  1.00  0.00     0.202 C 
BRANCH  33  34
ATOM     34  C   UNL A   1      36.406  32.273  30.779  1.00  0.00     0.261 C 
BRANCH  34  35
ATOM     35  O   UNL A   1      37.349  31.247  30.437  1.00  0.00    -0.460 OA
BRANCH  35  36
ATOM     36  C   UNL A   1      37.162  30.035  31.004  1.00  0.00     0.338 C 
ATOM     37  O   UNL A   1      36.166  29.338  30.940  1.00  0.00    -0.246 OA
BRANCH  36  38
ATOM     38  C   UNL A   1      38.445  29.612  31.592  1.00  0.00     0.060 A 
ATOM     39  C   UNL A   1      39.448  30.567  31.795  1.00  0.00     0.016 A 
ATOM     40  C   UNL A   1      38.652  28.273  31.933  1.00  0.00     0.016 A 
ATOM     41  C   UNL A   1      40.686  30.174  32.303  1.00  0.00     0.010 A 
ATOM     42  C   UNL A   1      39.897  27.878  32.421  1.00  0.00     0.010 A 
ATOM     43  C   UNL A   1      40.928  28.820  32.572  1.00  0.00    -0.014 A 
BRANCH  43  44
ATOM     44  C   UNL A   1      42.315  28.336  32.768  1.00  0.00     0.031 A 
ATOM     45  C   UNL A   1      43.101  27.965  31.541  1.00  0.00     0.074 A 
ATOM     46  C   UNL A   1      42.847  28.200  33.994  1.00  0.00     0.049 A 
ATOM     47  N   UNL A   1      44.283  27.419  31.442  1.00  0.00    -0.248 NA
ATOM     48  C   UNL A   1      42.451  28.240  30.249  1.00  0.00     0.031 C 
ATOM     49  C   UNL A   1      42.192  28.563  35.247  1.00  0.00     0.029 A 
ATOM     50  N   UNL A   1      44.064  27.697  34.381  1.00  0.00    -0.354 N 
ATOM     51  C   UNL A   1      44.520  27.284  30.078  1.00  0.00     0.074 A 
ATOM     52  C   UNL A   1      43.345  27.773  29.392  1.00  0.00     0.031 C 
ATOM     53  C   UNL A   1      43.007  28.249  36.270  1.00  0.00     0.029 A 
ATOM     54  C   UNL A   1      44.224  27.630  35.745  1.00  0.00     0.049 A 
ATOM     55  H   UNL A   1      44.758  27.411  33.743  1.00  0.00     0.167 HD
ATOM     56  C   UNL A   1      45.620  26.796  29.455  1.00  0.00     0.034 A 
ATOM     57  C   UNL A   1      45.225  27.099  36.477  1.00  0.00     0.034 A 
ATOM     58  C   UNL A   1      46.768  26.276  30.155  1.00  0.00     0.049 A 
ATOM     59  C   UNL A   1      46.404  26.478  35.765  1.00  0.00     0.074 A 
ATOM     60  C   UNL A   1      47.931  25.744  29.629  1.00  0.00     0.029 A 
ATOM     61  N   UNL A   1      46.886  26.210  31.536  1.00  0.00    -0.354 N 
ATOM     62  N   UNL A   1      46.622  26.358  34.474  1.00  0.00    -0.248 NA
ATOM     63  C   UNL A   1      47.475  25.925  36.606  1.00  0.00     0.031 C 
ATOM     64  C   UNL A   1      48.726  25.301  30.692  1.00  0.00     0.029 A 
ATOM     65  C   UNL A   1      48.093  25.624  31.881  1.00  0.00     0.049 A 
ATOM     66  H   UNL A   1      46.212  26.533  32.177  1.00  0.00     0.167 HD
ATOM     67  C   UNL A   1      47.871  25.751  34.353  1.00  0.00     0.074 A 
ATOM     68  C   UNL A   1      48.356  25.529  35.699  1.00  0.00     0.031 C 
ATOM     69  C   UNL A   1      48.560  25.418  33.233  1.00  0.00     0.034 A 
BRANCH  56  70
ATOM     70  C   UNL A   1      45.588  26.751  27.948  1.00  0.00     0.023 A 
ATOM     71  C   UNL A   1      45.256  25.572  27.254  1.00  0.00     0.031 A 
ATOM     72  C   UNL A   1      45.949  27.881  27.196  1.00  0.00     0.131 A 
ATOM     73  C   UNL A   1      45.366  25.531  25.857  1.00  0.00     0.055 A 
ATOM     74  C   UNL A   1      45.982  27.855  25.801  1.00  0.00     0.041 A 
ATOM     75  F   UNL A   1      46.301  29.024  27.806  1.00  0.00    -0.206 F 
ATOM     76  C   UNL A   1      45.703  26.671  25.124  1.00  0.00     0.022 A 
BRANCH  73  77
ATOM     77  S   UNL A   1      45.202  23.929  25.021  1.00  0.00     0.124 S 
ATOM     78  O   UNL A   1      45.542  22.999  26.094  1.00  0.00    -0.237 OA
ATOM     79  O   UNL A   1      43.805  23.935  24.600  1.00  0.00    -0.237 OA
ATOM     80  O   UNL A   1      46.180  24.005  23.938  1.00  0.00    -0.744 OA
ENDBRANCH  73  77
ENDBRANCH  56  70
BRANCH  57  81
ATOM     81  C   UNL A   1      45.148  27.083  37.966  1.00  0.00     0.023 A 
ATOM     82  C   UNL A   1      45.657  28.144  38.733  1.00  0.00     0.031 A 
ATOM     83  C   UNL A   1      44.618  25.973  38.647  1.00  0.00     0.131 A 
ATOM     84  C   UNL A   1      45.665  28.053  40.134  1.00  0.00     0.055 A 
ATOM     85  C   UNL A   1      44.583  25.908  40.041  1.00  0.00     0.041 A 
ATOM     86  F   UNL A   1      44.120  24.930  37.963  1.00  0.00    -0.206 F 
ATOM     87  C   UNL A   1      45.122  26.947  40.793  1.00  0.00     0.022 A 
BRANCH  84  88
ATOM     88  S   UNL A   1      46.474  29.368  41.086  1.00  0.00     0.124 S 
ATOM     89  O   UNL A   1      45.343  29.970  41.783  1.00  0.00    -0.237 OA
ATOM     90  O   UNL A   1      47.410  28.613  41.912  1.00  0.00    -0.237 OA
ATOM     91  O   UNL A   1      47.089  30.204  40.057  1.00  0.00    -0.744 OA
ENDBRANCH  84  88
ENDBRANCH  57  81
BRANCH  69  92
ATOM     92  C   UNL A   1      49.944  24.847  33.415  1.00  0.00     0.023 A 
ATOM     93  C   UNL A   1      50.216  23.480  33.244  1.00  0.00     0.031 A 
ATOM     94  C   UNL A   1      51.012  25.702  33.747  1.00  0.00     0.131 A 
ATOM     95  C   UNL A   1      51.520  23.000  33.443  1.00  0.00     0.055 A 
ATOM     96  C   UNL A   1      52.314  25.227  33.894  1.00  0.00     0.041 A 
ATOM     97  F   UNL A   1      50.804  27.018  33.919  1.00  0.00    -0.206 F 
ATOM     98  C   UNL A   1      52.573  23.867  33.751  1.00  0.00     0.022 A 
BRANCH  95  99
ATOM     99  S   UNL A   1      51.819  21.213  33.349  1.00  0.00     0.124 S 
ATOM    100  O   UNL A   1      52.536  20.959  34.595  1.00  0.00    -0.237 OA
ATOM    101  O   UNL A   1      50.466  20.672  33.271  1.00  0.00    -0.237 OA
ATOM    102  O   UNL A   1      52.616  21.061  32.134  1.00  0.00    -0.744 OA
ENDBRANCH  95  99
ENDBRANCH  69  92
ENDBRANCH  43  44
ENDBRANCH  36  38
ENDBRANCH  35  36
ENDBRANCH  34  35
ENDBRANCH  33  34
ENDBRANCH  32  33
ENDBRANCH  31  32
ENDBRANCH  30  31
ENDBRANCH  29  30
ENDBRANCH   1  29
TORSDOF 27
ENDMDL
MODEL 2
REMARK VINA RESULT:      -8.4      6.428      9.156
REMARK SMILES Cc1cscc1CNC(=O)N[C@@H](C)c1nc(C(=O)OCCOCCOCCOCCOC(=O)c2ccc(-c3c4nc(c(-c5cc(S(=O)(=O)[O-])ccc5F)c5ccc([nH]5)c(-c5cc(S(=O)(=O)[O-])ccc5F)c5nc(c(-c6cc(S(=O)(=O)[O-])ccc6F)c6ccc3[nH]6)C=C5)C=C4)cc2)cs1
REMARK SMILES IDX 24 1 23 2 22 3 21 4 20 5 19 6 17 7 18 8 16 9 14 10 15 11
REMARK SMILES IDX 98 12 97 13 12 14 13 15 11 16 8 17 9 18 10 20 7 22 6 23 1 24
REMARK SMILES IDX 2 25 3 26 4 27 5 28 25 29 26 30 27 31 28 32 29 33 30 34
REMARK SMILES IDX 31 35 32 36 33 37 34 38 35 39 96 40 36 41 95 42 37 43 38 44
REMARK SMILES IDX 39 45 89 46 40 47 94 48 88 49 90 50 41 51 93 52 87 53 86 54
REMARK SMILES IDX 42 56 74 57 54 58 73 59 55 60 58 61 72 62 91 63 56 64 57 65
REMARK SMILES IDX 71 67 92 68 59 69 43 70 44 71 52 72 45 73 51 74 53 75 50 76
REMARK SMILES IDX 46 77 47 78 48 79 49 80 75 81 76 82 84 83 77 84 83 85 85 86
REMARK SMILES IDX 82 87 78 88 79 89 80 90 81 91 60 92 61 93 69 94 62 95 68 96
REMARK SMILES IDX 70 97 67 98 63 99 64 100 65 101 66 102
REMARK H PARENT 8 19 11 21 90 55 58 66
REMARK Flexibility Score: inf
ROOT
ATOM      1  C   UNL A   1      34.335  34.182  32.779  1.00  0.00     0.188 C 
ENDROOT
BRANCH   1   2
ATOM      2  C   UNL A   1      34.374  34.595  31.298  1.00  0.00     0.188 C 
BRANCH   2   3
ATOM      3  O   UNL A   1      34.998  33.651  30.435  1.00  0.00    -0.376 OA
BRANCH   3   4
ATOM      4  C   UNL A   1      35.125  34.030  29.072  1.00  0.00     0.202 C 
BRANCH   4   5
ATOM      5  C   UNL A   1      35.658  32.903  28.177  1.00  0.00     0.261 C 
BRANCH   5   6
ATOM      6  O   UNL A   1      34.686  31.897  27.852  1.00  0.00    -0.458 OA
BRANCH   6   7
ATOM      7  C   UNL A   1      35.151  30.647  27.603  1.00  0.00     0.357 C 
ATOM      8  O   UNL A   1      36.298  30.270  27.817  1.00  0.00    -0.244 OA
BRANCH   7   9
ATOM      9  C   UNL A   1      34.078  29.739  27.202  1.00  0.00     0.159 A 
ATOM     10  C   UNL A   1      33.174  27.847  26.455  1.00  0.00     0.116 A 
ATOM     11  N   UNL A   1      34.312  28.435  26.765  1.00  0.00    -0.232 NA
ATOM     12  S   UNL A   1      31.778  28.851  26.569  1.00  0.00    -0.124 S 
ATOM     13  C   UNL A   1      32.750  30.124  27.161  1.00  0.00     0.102 A 
BRANCH  10  14
ATOM     14  C   UNL A   1      33.022  26.395  26.068  1.00  0.00     0.140 C 
ATOM     15  C   UNL A   1      33.139  26.224  24.554  1.00  0.00     0.039 C 
BRANCH  14  16
ATOM     16  N   UNL A   1      31.734  25.903  26.526  1.00  0.00    -0.329 N 
ATOM     17  N   UNL A   1      31.593  23.620  25.919  1.00  0.00    -0.334 N 
ATOM     18  C   UNL A   1      31.072  24.754  26.393  1.00  0.00     0.315 C 
ATOM     19  H   UNL A   1      30.919  22.907  25.846  1.00  0.00     0.165 HD
ATOM     20  O   UNL A   1      29.897  24.713  26.761  1.00  0.00    -0.249 OA
ATOM     21  H   UNL A   1      31.238  26.570  27.053  1.00  0.00     0.166 HD
BRANCH  17  22
ATOM     22  C   UNL A   1      32.898  23.177  25.485  1.00  0.00     0.154 C 
BRANCH  22  23
ATOM     23  C   UNL A   1      32.902  21.708  25.144  1.00  0.00    -0.015 A 
ATOM     24  C   UNL A   1      32.133  22.014  22.666  1.00  0.00     0.045 C 
ATOM     25  C   UNL A   1      32.537  21.182  23.840  1.00  0.00    -0.035 A 
ATOM     26  C   UNL A   1      32.601  19.802  23.812  1.00  0.00     0.068 A 
ATOM     27  S   UNL A   1      33.108  19.129  25.292  1.00  0.00    -0.152 S 
ATOM     28  C   UNL A   1      33.238  20.674  26.003  1.00  0.00     0.070 A 
ENDBRANCH  22  23
ENDBRANCH  17  22
ENDBRANCH  14  16
ENDBRANCH  10  14
ENDBRANCH   7   9
ENDBRANCH   6   7
ENDBRANCH   5   6
ENDBRANCH   4   5
ENDBRANCH   3   4
ENDBRANCH   2   3
ENDBRANCH   1   2
BRANCH   1  29
ATOM     29  O   UNL A   1      34.883  32.935  33.160  1.00  0.00    -0.377 OA
BRANCH  29  30
ATOM     30  C   UNL A   1      36.138  32.875  33.823  1.00  0.00     0.188 C 
BRANCH  30  31
ATOM     31  C   UNL A   1      37.332  32.124  33.201  1.00  0.00     0.188 C 
BRANCH  31  32
ATOM     32  O   UNL A   1      37.177  31.786  31.825  1.00  0.00    -0.376 OA
BRANCH  32  33
ATOM     33  C   UNL A   1      36.814  30.435  31.568  1.00  0.00     0.202 C 
BRANCH  33  34
ATOM     34  C   UNL A   1      37.356  29.465  32.623  1.00  0.00     0.261 C 
BRANCH  34  35
ATOM     35  O   UNL A   1      38.271  28.484  32.116  1.00  0.00    -0.460 OA
BRANCH  35  36
ATOM     36  C   UNL A   1      39.511  28.475  32.652  1.00  0.00     0.338 C 
ATOM     37  O   UNL A   1      39.952  27.695  33.476  1.00  0.00    -0.246 OA
BRANCH  36  38
ATOM     38  C   UNL A   1      40.314  29.486  31.942  1.00  0.00     0.060 A 
ATOM     39  C   UNL A   1      40.315  29.493  30.542  1.00  0.00     0.016 A 
ATOM     40  C   UNL A   1      41.067  30.416  32.663  1.00  0.00     0.016 A 
ATOM     41  C   UNL A   1      41.109  30.411  29.855  1.00  0.00     0.010 A 
ATOM     42  C   UNL A   1      41.877  31.319  31.975  1.00  0.00     0.010 A 
ATOM     43  C   UNL A   1      41.928  31.294  30.572  1.00  0.00    -0.014 A 
BRANCH  43  44
ATOM     44  C   UNL A   1      43.023  32.018  29.883  1.00  0.00     0.031 A 
ATOM     45  C   UNL A   1      44.308  31.273  29.648  1.00  0.00     0.074 A 
ATOM     46  C   UNL A   1      42.893  33.302  29.510  1.00  0.00     0.049 A 
ATOM     47  N   UNL A   1      45.445  31.703  29.170  1.00  0.00    -0.248 NA
ATOM     48  C   UNL A   1      44.306  29.848  30.016  1.00  0.00     0.031 C 
ATOM     49  C   UNL A   1      41.684  34.109  29.655  1.00  0.00     0.029 A 
ATOM     50  N   UNL A   1      43.806  34.157  28.946  1.00  0.00    -0.354 N 
ATOM     51  C   UNL A   1      46.295  30.602  29.180  1.00  0.00     0.074 A 
ATOM     52  C   UNL A   1      45.552  29.497  29.743  1.00  0.00     0.031 C 
ATOM     53  C   UNL A   1      41.937  35.353  29.211  1.00  0.00     0.029 A 
ATOM     54  C   UNL A   1      43.334  35.439  28.786  1.00  0.00     0.049 A 
ATOM     55  H   UNL A   1      44.713  33.881  28.681  1.00  0.00     0.167 HD
ATOM     56  C   UNL A   1      47.580  30.522  28.757  1.00  0.00     0.034 A 
ATOM     57  C   UNL A   1      43.972  36.555  28.376  1.00  0.00     0.034 A 
ATOM     58  C   UNL A   1      48.318  31.643  28.234  1.00  0.00     0.049 A 
ATOM     59  C   UNL A   1      45.431  36.465  27.992  1.00  0.00     0.074 A 
ATOM     60  C   UNL A   1      49.627  31.683  27.789  1.00  0.00     0.029 A 
ATOM     61  N   UNL A   1      47.812  32.929  28.103  1.00  0.00    -0.354 N 
ATOM     62  N   UNL A   1      46.227  35.419  28.000  1.00  0.00    -0.248 NA
ATOM     63  C   UNL A   1      46.078  37.705  27.538  1.00  0.00     0.031 C 
ATOM     64  C   UNL A   1      49.930  33.005  27.446  1.00  0.00     0.029 A 
ATOM     65  C   UNL A   1      48.790  33.775  27.607  1.00  0.00     0.049 A 
ATOM     66  H   UNL A   1      46.893  33.200  28.329  1.00  0.00     0.167 HD
ATOM     67  C   UNL A   1      47.454  35.869  27.518  1.00  0.00     0.074 A 
ATOM     68  C   UNL A   1      47.294  37.279  27.230  1.00  0.00     0.031 C 
ATOM     69  C   UNL A   1      48.605  35.179  27.319  1.00  0.00     0.034 A 
BRANCH  56  70
ATOM     70  C   UNL A   1      48.267  29.189  28.910  1.00  0.00     0.023 A 
ATOM     71  C   UNL A   1      48.128  28.174  27.946  1.00  0.00     0.031 A 
ATOM     72  C   UNL A   1      49.022  28.907  30.061  1.00  0.00     0.131 A 
ATOM     73  C   UNL A   1      48.671  26.903  28.186  1.00  0.00     0.055 A 
ATOM     74  C   UNL A   1      49.625  27.664  30.259  1.00  0.00     0.041 A 
ATOM     75  F   UNL A   1      49.166  29.829  31.027  1.00  0.00    -0.206 F 
ATOM     76  C   UNL A   1      49.439  26.648  29.325  1.00  0.00     0.022 A 
BRANCH  73  77
ATOM     77  S   UNL A   1      48.239  25.548  27.060  1.00  0.00     0.124 S 
ATOM     78  O   UNL A   1      48.455  26.167  25.756  1.00  0.00    -0.237 OA
ATOM     79  O   UNL A   1      49.189  24.508  27.439  1.00  0.00    -0.237 OA
ATOM     80  O   UNL A   1      46.842  25.265  27.384  1.00  0.00    -0.744 OA
ENDBRANCH  73  77
ENDBRANCH  56  70
BRANCH  57  81
ATOM     81  C   UNL A   1      43.262  37.866  28.344  1.00  0.00     0.023 A 
ATOM     82  C   UNL A   1      43.358  38.771  29.413  1.00  0.00     0.031 A 
ATOM     83  C   UNL A   1      42.425  38.204  27.266  1.00  0.00     0.131 A 
ATOM     84  C   UNL A   1      42.595  39.950  29.401  1.00  0.00     0.055 A 
ATOM     85  C   UNL A   1      41.707  39.401  27.236  1.00  0.00     0.041 A 
ATOM     86  F   UNL A   1      42.296  37.374  26.219  1.00  0.00    -0.206 F 
ATOM     87  C   UNL A   1      41.779  40.276  28.315  1.00  0.00     0.022 A 
BRANCH  84  88
ATOM     88  S   UNL A   1      42.621  41.017  30.868  1.00  0.00     0.124 S 
ATOM     89  O   UNL A   1      41.204  41.320  31.040  1.00  0.00    -0.237 OA
ATOM     90  O   UNL A   1      43.216  40.140  31.870  1.00  0.00    -0.237 OA
ATOM     91  O   UNL A   1      43.455  42.144  30.455  1.00  0.00    -0.744 OA
ENDBRANCH  84  88
ENDBRANCH  57  81
BRANCH  69  92
ATOM     92  C   UNL A   1      49.760  35.922  26.694  1.00  0.00     0.023 A 
ATOM     93  C   UNL A   1      50.720  36.597  27.467  1.00  0.00     0.031 A 
ATOM     94  C   UNL A   1      49.904  35.932  25.294  1.00  0.00     0.131 A 
ATOM     95  C   UNL A   1      51.763  37.287  26.831  1.00  0.00     0.055 A 
ATOM     96  C   UNL A   1      50.971  36.578  24.671  1.00  0.00     0.041 A 
ATOM     97  F   UNL A   1      49.015  35.300  24.512  1.00  0.00    -0.206 F 
ATOM     98  C   UNL A   1      51.904  37.268  25.440  1.00  0.00     0.022 A 
BRANCH  95  99
ATOM     99  S   UNL A   1      52.911  38.262  27.843  1.00  0.00     0.124 S 
ATOM    100  O   UNL A   1      52.109  38.538  29.031  1.00  0.00    -0.237 OA
ATOM    101  O   UNL A   1      54.027  37.340  28.027  1.00  0.00    -0.237 OA
ATOM    102  O   UNL A   1      53.202  39.426  27.008  1.00  0.00    -0.744 OA
ENDBRANCH  95  99
ENDBRANCH  69  92
ENDBRANCH  43  44
ENDBRANCH  36  38
ENDBRANCH  35  36
ENDBRANCH  34  35
ENDBRANCH  33  34
ENDBRANCH  32  33
ENDBRANCH  31  32
ENDBRANCH  30  31
ENDBRANCH  29  30
ENDBRANCH   1  29
TORSDOF 27
ENDMDL
MODEL 3
REMARK VINA RESULT:      -8.3      5.833      8.940
REMARK SMILES Cc1cscc1CNC(=O)N[C@@H](C)c1nc(C(=O)OCCOCCOCCOCCOC(=O)c2ccc(-c3c4nc(c(-c5cc(S(=O)(=O)[O-])ccc5F)c5ccc([nH]5)c(-c5cc(S(=O)(=O)[O-])ccc5F)c5nc(c(-c6cc(S(=O)(=O)[O-])ccc6F)c6ccc3[nH]6)C=C5)C=C4)cc2)cs1
REMARK SMILES IDX 24 1 23 2 22 3 21 4 20 5 19 6 17 7 18 8 16 9 14 10 15 11
REMARK SMILES IDX 98 12 97 13 12 14 13 15 11 16 8 17 9 18 10 20 7 22 6 23 1 24
REMARK SMILES IDX 2 25 3 26 4 27 5 28 25 29 26 30 27 31 28 32 29 33 30 34
REMARK SMILES IDX 31 35 32 36 33 37 34 38 35 39 96 40 36 41 95 42 37 43 38 44
REMARK SMILES IDX 39 45 89 46 40 47 94 48 88 49 90 50 41 51 93 52 87 53 86 54
REMARK SMILES IDX 42 56 74 57 54 58 73 59 55 60 58 61 72 62 91 63 56 64 57 65
REMARK SMILES IDX 71 67 92 68 59 69 43 70 44 71 52 72 45 73 51 74 53 75 50 76
REMARK SMILES IDX 46 77 47 78 48 79 49 80 75 81 76 82 84 83 77 84 83 85 85 86
REMARK SMILES IDX 82 87 78 88 79 89 80 90 81 91 60 92 61 93 69 94 62 95 68 96
REMARK SMILES IDX 70 97 67 98 63 99 64 100 65 101 66 102
REMARK H PARENT 8 19 11 21 90 55 58 66
REMARK Flexibility Score: inf
ROOT
ATOM      1  C   UNL A   1      33.235  30.225  27.204  1.00  0.00     0.188 C 
ENDROOT
BRANCH   1   2
ATOM      2  C   UNL A   1      31.961  30.078  26.357  1.00  0.00     0.188 C 
BRANCH   2   3
ATOM      3  O   UNL A   1      32.188  29.696  25.004  1.00  0.00    -0.376 OA
BRANCH   3   4
ATOM      4  C   UNL A   1      31.069  29.180  24.298  1.00  0.00     0.202 C 
BRANCH   4   5
ATOM      5  C   UNL A   1      31.452  28.465  22.995  1.00  0.00     0.261 C 
BRANCH   5   6
ATOM      6  O   UNL A   1      30.543  27.425  22.604  1.00  0.00    -0.458 OA
BRANCH   6   7
ATOM      7  C   UNL A   1      29.729  26.921  23.566  1.00  0.00     0.357 C 
ATOM      8  O   UNL A   1      28.543  27.202  23.697  1.00  0.00    -0.244 OA
BRANCH   7   9
ATOM      9  C   UNL A   1      30.387  25.868  24.337  1.00  0.00     0.159 A 
ATOM     10  C   UNL A   1      31.523  23.984  24.666  1.00  0.00     0.116 A 
ATOM     11  N   UNL A   1      31.032  24.785  23.742  1.00  0.00    -0.232 NA
ATOM     12  S   UNL A   1      31.153  24.426  26.290  1.00  0.00    -0.124 S 
ATOM     13  C   UNL A   1      30.364  25.829  25.720  1.00  0.00     0.102 A 
BRANCH  10  14
ATOM     14  C   UNL A   1      32.396  22.779  24.400  1.00  0.00     0.140 C 
ATOM     15  C   UNL A   1      33.869  23.182  24.342  1.00  0.00     0.039 C 
BRANCH  14  16
ATOM     16  N   UNL A   1      32.000  22.161  23.146  1.00  0.00    -0.329 N 
ATOM     17  N   UNL A   1      32.393  19.836  23.350  1.00  0.00    -0.334 N 
ATOM     18  C   UNL A   1      32.075  20.926  22.649  1.00  0.00     0.315 C 
ATOM     19  H   UNL A   1      32.452  19.036  22.781  1.00  0.00     0.165 HD
ATOM     20  O   UNL A   1      31.803  20.760  21.459  1.00  0.00    -0.249 OA
ATOM     21  H   UNL A   1      31.582  22.798  22.523  1.00  0.00     0.166 HD
BRANCH  17  22
ATOM     22  C   UNL A   1      32.674  19.536  24.735  1.00  0.00     0.154 C 
BRANCH  22  23
ATOM     23  C   UNL A   1      33.102  18.102  24.919  1.00  0.00    -0.015 A 
ATOM     24  C   UNL A   1      35.648  18.538  24.526  1.00  0.00     0.045 C 
ATOM     25  C   UNL A   1      34.479  17.651  24.809  1.00  0.00    -0.035 A 
ATOM     26  C   UNL A   1      34.584  16.285  24.995  1.00  0.00     0.068 A 
ATOM     27  S   UNL A   1      33.087  15.541  25.318  1.00  0.00    -0.152 S 
ATOM     28  C   UNL A   1      32.267  17.032  25.202  1.00  0.00     0.070 A 
ENDBRANCH  22  23
ENDBRANCH  17  22
ENDBRANCH  14  16
ENDBRANCH  10  14
ENDBRANCH   7   9
ENDBRANCH   6   7
ENDBRANCH   5   6
ENDBRANCH   4   5
ENDBRANCH   3   4
ENDBRANCH   2   3
ENDBRANCH   1   2
BRANCH   1  29
ATOM     29  O   UNL A   1      33.675  31.521  27.565  1.00  0.00    -0.377 OA
BRANCH  29  30
ATOM     30  C   UNL A   1      34.852  31.687  28.343  1.00  0.00     0.188 C 
BRANCH  30  31
ATOM     31  C   UNL A   1      35.134  33.007  29.088  1.00  0.00     0.188 C 
BRANCH  31  32
ATOM     32  O   UNL A   1      35.961  32.879  30.242  1.00  0.00    -0.376 OA
BRANCH  32  33
ATOM     33  C   UNL A   1      35.276  32.917  31.488  1.00  0.00     0.202 C 
BRANCH  33  34
ATOM     34  C   UNL A   1      35.520  31.666  32.337  1.00  0.00     0.261 C 
BRANCH  34  35
ATOM     35  O   UNL A   1      36.009  30.534  31.603  1.00  0.00    -0.460 OA
BRANCH  35  36
ATOM     36  C   UNL A   1      37.055  29.868  32.139  1.00  0.00     0.338 C 
ATOM     37  O   UNL A   1      37.021  28.824  32.764  1.00  0.00    -0.246 OA
BRANCH  36  38
ATOM     38  C   UNL A   1      38.289  30.539  31.694  1.00  0.00     0.060 A 
ATOM     39  C   UNL A   1      38.660  30.458  30.346  1.00  0.00     0.016 A 
ATOM     40  C   UNL A   1      39.077  31.239  32.612  1.00  0.00     0.016 A 
ATOM     41  C   UNL A   1      39.851  31.045  29.919  1.00  0.00     0.010 A 
ATOM     42  C   UNL A   1      40.277  31.807  32.188  1.00  0.00     0.010 A 
ATOM     43  C   UNL A   1      40.685  31.679  30.850  1.00  0.00    -0.014 A 
BRANCH  43  44
ATOM     44  C   UNL A   1      42.091  31.990  30.498  1.00  0.00     0.031 A 
ATOM     45  C   UNL A   1      42.384  33.363  29.959  1.00  0.00     0.074 A 
ATOM     46  C   UNL A   1      43.067  31.076  30.622  1.00  0.00     0.049 A 
ATOM     47  N   UNL A   1      43.497  33.850  29.480  1.00  0.00    -0.248 NA
ATOM     48  C   UNL A   1      41.256  34.309  29.952  1.00  0.00     0.031 C 
ATOM     49  C   UNL A   1      42.905  29.731  31.166  1.00  0.00     0.029 A 
ATOM     50  N   UNL A   1      44.394  31.144  30.276  1.00  0.00    -0.354 N 
ATOM     51  C   UNL A   1      43.205  35.159  29.112  1.00  0.00     0.074 A 
ATOM     52  C   UNL A   1      41.803  35.377  29.393  1.00  0.00     0.031 C 
ATOM     53  C   UNL A   1      44.085  29.089  31.097  1.00  0.00     0.029 A 
ATOM     54  C   UNL A   1      45.074  29.964  30.470  1.00  0.00     0.049 A 
ATOM     55  H   UNL A   1      44.818  31.959  29.922  1.00  0.00     0.167 HD
ATOM     56  C   UNL A   1      44.033  36.096  28.588  1.00  0.00     0.034 A 
ATOM     57  C   UNL A   1      46.340  29.629  30.145  1.00  0.00     0.034 A 
ATOM     58  C   UNL A   1      45.418  35.850  28.278  1.00  0.00     0.049 A 
ATOM     59  C   UNL A   1      47.224  30.659  29.479  1.00  0.00     0.074 A 
ATOM     60  C   UNL A   1      46.347  36.717  27.733  1.00  0.00     0.029 A 
ATOM     61  N   UNL A   1      46.068  34.639  28.473  1.00  0.00    -0.354 N 
ATOM     62  N   UNL A   1      46.940  31.897  29.139  1.00  0.00    -0.248 NA
ATOM     63  C   UNL A   1      48.598  30.250  29.157  1.00  0.00     0.031 C 
ATOM     64  C   UNL A   1      47.541  36.013  27.542  1.00  0.00     0.029 A 
ATOM     65  C   UNL A   1      47.379  34.728  28.036  1.00  0.00     0.049 A 
ATOM     66  H   UNL A   1      45.657  33.834  28.864  1.00  0.00     0.167 HD
ATOM     67  C   UNL A   1      48.113  32.422  28.599  1.00  0.00     0.074 A 
ATOM     68  C   UNL A   1      49.104  31.368  28.658  1.00  0.00     0.031 C 
ATOM     69  C   UNL A   1      48.354  33.665  28.111  1.00  0.00     0.034 A 
BRANCH  56  70
ATOM     70  C   UNL A   1      43.428  37.439  28.266  1.00  0.00     0.023 A 
ATOM     71  C   UNL A   1      43.481  38.508  29.180  1.00  0.00     0.031 A 
ATOM     72  C   UNL A   1      42.739  37.636  27.058  1.00  0.00     0.131 A 
ATOM     73  C   UNL A   1      42.793  39.698  28.903  1.00  0.00     0.055 A 
ATOM     74  C   UNL A   1      42.121  38.850  26.754  1.00  0.00     0.041 A 
ATOM     75  F   UNL A   1      42.634  36.642  26.161  1.00  0.00    -0.206 F 
ATOM     76  C   UNL A   1      42.133  39.885  27.686  1.00  0.00     0.022 A 
BRANCH  73  77
ATOM     77  S   UNL A   1      42.650  40.943  30.214  1.00  0.00     0.124 S 
ATOM     78  O   UNL A   1      41.236  41.296  30.135  1.00  0.00    -0.237 OA
ATOM     79  O   UNL A   1      43.057  40.199  31.400  1.00  0.00    -0.237 OA
ATOM     80  O   UNL A   1      43.573  41.994  29.790  1.00  0.00    -0.744 OA
ENDBRANCH  73  77
ENDBRANCH  56  70
BRANCH  57  81
ATOM     81  C   UNL A   1      46.846  28.250  30.397  1.00  0.00     0.023 A 
ATOM     82  C   UNL A   1      47.544  27.934  31.574  1.00  0.00     0.031 A 
ATOM     83  C   UNL A   1      46.692  27.240  29.430  1.00  0.00     0.131 A 
ATOM     84  C   UNL A   1      48.099  26.654  31.735  1.00  0.00     0.055 A 
ATOM     85  C   UNL A   1      47.203  25.954  29.617  1.00  0.00     0.041 A 
ATOM     86  F   UNL A   1      46.036  27.489  28.286  1.00  0.00    -0.206 F 
ATOM     87  C   UNL A   1      47.925  25.659  30.770  1.00  0.00     0.022 A 
BRANCH  84  88
ATOM     88  S   UNL A   1      49.128  26.331  33.193  1.00  0.00     0.124 S 
ATOM     89  O   UNL A   1      50.473  26.478  32.647  1.00  0.00    -0.237 OA
ATOM     90  O   UNL A   1      48.690  27.376  34.111  1.00  0.00    -0.237 OA
ATOM     91  O   UNL A   1      48.757  24.971  33.578  1.00  0.00    -0.744 OA
ENDBRANCH  84  88
ENDBRANCH  57  81
BRANCH  69  92
ATOM     92  C   UNL A   1      49.763  33.975  27.670  1.00  0.00     0.023 A 
ATOM     93  C   UNL A   1      50.243  33.619  26.399  1.00  0.00     0.031 A 
ATOM     94  C   UNL A   1      50.629  34.660  28.542  1.00  0.00     0.131 A 
ATOM     95  C   UNL A   1      51.569  33.918  26.049  1.00  0.00     0.055 A 
ATOM     96  C   UNL A   1      51.929  34.998  28.170  1.00  0.00     0.041 A 
ATOM     97  F   UNL A   1      50.217  35.024  29.767  1.00  0.00    -0.206 F 
ATOM     98  C   UNL A   1      52.409  34.619  26.919  1.00  0.00     0.022 A 
BRANCH  95  99
ATOM     99  S   UNL A   1      52.206  33.330  24.455  1.00  0.00     0.124 S 
ATOM    100  O   UNL A   1      51.728  34.360  23.538  1.00  0.00    -0.237 OA
ATOM    101  O   UNL A   1      53.646  33.299  24.684  1.00  0.00    -0.237 OA
ATOM    102  O   UNL A   1      51.577  32.020  24.296  1.00  0.00    -0.744 OA
ENDBRANCH  95  99
ENDBRANCH  69  92
ENDBRANCH  43  44
ENDBRANCH  36  38
ENDBRANCH  35  36
ENDBRANCH  34  35
ENDBRANCH  33  34
ENDBRANCH  32  33
ENDBRANCH  31  32
ENDBRANCH  30  31
ENDBRANCH  29  30
ENDBRANCH   1  29
TORSDOF 27
ENDMDL
