MODEL 1
REMARK VINA RESULT:     -10.7      0.000      0.000
REMARK SMILES Cc1c(C(=O)OCCOCCOCCOCCOC(=O)c2ccc(-c3c4nc(c(-c5cc(S(=O)(=O)[O-])ccc5F)c5ccc([nH]5)c(-c5cc(S(=O)(=O)[O-])ccc5F)c5nc(c(-c6cc(S(=O)(=O)[O-])ccc6F)c6ccc3[nH]6)C=C5)C=C4)cc2)cccc1-n1c(C)cc(/C=C2/C(=O)NC(=S)N=C2O)c1C
REMARK SMILES IDX 12 1 11 2 10 3 9 4 8 5 7 6 6 7 4 8 5 9 3 10 1 11 2 12 87 13
REMARK SMILES IDX 84 14 86 15 85 16 88 17 89 18 103 19 90 20 91 21 92 22
REMARK SMILES IDX 104 23 93 24 94 25 95 26 101 27 96 28 97 29 100 30 98 31
REMARK SMILES IDX 99 33 102 34 13 36 14 37 15 38 16 39 17 40 18 41 19 42 20 43
REMARK SMILES IDX 21 44 22 45 83 46 23 47 82 48 24 49 25 50 26 51 76 52 27 53
REMARK SMILES IDX 81 54 75 55 77 56 28 57 80 58 74 59 73 60 29 62 61 63 41 64
REMARK SMILES IDX 60 65 42 66 45 67 59 68 78 69 43 70 44 71 58 73 79 74 46 75
REMARK SMILES IDX 30 76 31 77 39 78 32 79 38 80 40 81 37 82 33 83 34 84 35 85
REMARK SMILES IDX 36 86 62 87 63 88 71 89 64 90 70 91 72 92 69 93 65 94 66 95
REMARK SMILES IDX 67 96 68 97 47 98 48 99 56 100 49 101 55 102 57 103 54 104
REMARK SMILES IDX 50 105 51 106 52 107 53 108
REMARK H PARENT 97 32 102 35 77 61 45 72
REMARK Flexibility Score: inf
ROOT
ATOM      1  O   UNL A   1      31.328  25.822  26.899  1.00  0.00    -0.377 OA
ENDROOT
BRANCH   1   2
ATOM      2  C   UNL A   1      30.547  24.734  26.441  1.00  0.00     0.188 C 
BRANCH   2   3
ATOM      3  C   UNL A   1      31.210  23.363  26.587  1.00  0.00     0.188 C 
BRANCH   3   4
ATOM      4  O   UNL A   1      32.599  23.308  26.884  1.00  0.00    -0.376 OA
BRANCH   4   5
ATOM      5  C   UNL A   1      33.000  22.218  27.714  1.00  0.00     0.202 C 
BRANCH   5   6
ATOM      6  C   UNL A   1      34.229  21.466  27.234  1.00  0.00     0.261 C 
BRANCH   6   7
ATOM      7  O   UNL A   1      33.807  20.514  26.254  1.00  0.00    -0.460 OA
BRANCH   7   8
ATOM      8  C   UNL A   1      34.655  20.331  25.236  1.00  0.00     0.338 C 
ATOM      9  O   UNL A   1      35.074  19.261  24.847  1.00  0.00    -0.246 OA
BRANCH   8  10
ATOM     10  C   UNL A   1      34.803  21.590  24.442  1.00  0.00     0.065 A 
ATOM     11  C   UNL A   1      32.439  21.868  23.407  1.00  0.00     0.047 C 
ATOM     12  C   UNL A   1      33.814  22.350  23.781  1.00  0.00    -0.012 A 
ATOM     13  C   UNL A   1      34.218  23.573  23.217  1.00  0.00     0.049 A 
ATOM     14  C   UNL A   1      36.161  21.927  24.263  1.00  0.00     0.016 A 
ATOM     15  C   UNL A   1      35.572  23.903  23.060  1.00  0.00     0.027 A 
ATOM     16  C   UNL A   1      36.547  23.046  23.538  1.00  0.00     0.003 A 
BRANCH  13  17
ATOM     17  N   UNL A   1      33.272  24.443  22.628  1.00  0.00    -0.318 N 
ATOM     18  C   UNL A   1      32.840  24.442  21.311  1.00  0.00     0.020 A 
ATOM     19  C   UNL A   1      32.580  25.421  23.327  1.00  0.00     0.027 A 
ATOM     20  C   UNL A   1      33.488  23.695  20.194  1.00  0.00     0.065 C 
ATOM     21  C   UNL A   1      31.678  25.192  21.286  1.00  0.00     0.031 A 
ATOM     22  C   UNL A   1      31.450  25.715  22.589  1.00  0.00    -0.003 A 
ATOM     23  C   UNL A   1      33.145  25.986  24.590  1.00  0.00     0.065 C 
BRANCH  22  24
ATOM     24  C   UNL A   1      30.323  26.520  22.933  1.00  0.00     0.029 C 
ATOM     25  C   UNL A   1      30.076  27.831  22.760  1.00  0.00     0.102 C 
ATOM     26  C   UNL A   1      28.742  28.303  23.208  1.00  0.00     0.262 C 
ATOM     27  C   UNL A   1      30.877  28.891  22.141  1.00  0.00     0.226 C 
ATOM     28  O   UNL A   1      28.037  27.729  24.030  1.00  0.00    -0.269 OA
ATOM     29  N   UNL A   1      28.352  29.483  22.634  1.00  0.00    -0.297 N 
ATOM     30  N   UNL A   1      30.452  30.016  21.694  1.00  0.00    -0.184 NA
ATOM     31  C   UNL A   1      29.121  30.298  21.839  1.00  0.00     0.203 C 
ATOM     32  H   UNL A   1      27.430  29.778  22.808  1.00  0.00     0.172 HD
ATOM     33  S   UNL A   1      28.392  31.661  21.187  1.00  0.00    -0.038 S 
BRANCH  27  34
ATOM     34  O   UNL A   1      32.199  28.717  22.123  1.00  0.00    -0.493 OA
ATOM     35  H   UNL A   1      32.632  28.498  21.322  1.00  0.00     0.295 HD
ENDBRANCH  27  34
ENDBRANCH  22  24
ENDBRANCH  13  17
ENDBRANCH   8  10
ENDBRANCH   7   8
ENDBRANCH   6   7
ENDBRANCH   5   6
ENDBRANCH   4   5
ENDBRANCH   3   4
ENDBRANCH   2   3
ENDBRANCH   1   2
BRANCH   1  36
ATOM     36  C   UNL A   1      30.661  27.071  26.746  1.00  0.00     0.188 C 
BRANCH  36  37
ATOM     37  C   UNL A   1      31.659  28.201  26.843  1.00  0.00     0.188 C 
BRANCH  37  38
ATOM     38  O   UNL A   1      31.628  29.205  25.836  1.00  0.00    -0.376 OA
BRANCH  38  39
ATOM     39  C   UNL A   1      32.504  30.314  25.983  1.00  0.00     0.202 C 
BRANCH  39  40
ATOM     40  C   UNL A   1      33.187  30.411  27.354  1.00  0.00     0.261 C 
BRANCH  40  41
ATOM     41  O   UNL A   1      34.235  31.404  27.285  1.00  0.00    -0.460 OA
BRANCH  41  42
ATOM     42  C   UNL A   1      34.083  32.484  28.108  1.00  0.00     0.338 C 
ATOM     43  O   UNL A   1      33.239  33.349  27.975  1.00  0.00    -0.246 OA
BRANCH  42  44
ATOM     44  C   UNL A   1      35.260  32.575  29.038  1.00  0.00     0.060 A 
ATOM     45  C   UNL A   1      36.512  32.959  28.525  1.00  0.00     0.016 A 
ATOM     46  C   UNL A   1      35.200  31.933  30.271  1.00  0.00     0.016 A 
ATOM     47  C   UNL A   1      37.700  32.518  29.144  1.00  0.00     0.010 A 
ATOM     48  C   UNL A   1      36.375  31.446  30.830  1.00  0.00     0.010 A 
ATOM     49  C   UNL A   1      37.637  31.662  30.245  1.00  0.00    -0.014 A 
BRANCH  49  50
ATOM     50  C   UNL A   1      38.753  30.782  30.699  1.00  0.00     0.031 A 
ATOM     51  C   UNL A   1      39.014  29.471  30.003  1.00  0.00     0.074 A 
ATOM     52  C   UNL A   1      39.751  31.305  31.465  1.00  0.00     0.049 A 
ATOM     53  N   UNL A   1      40.008  28.677  30.222  1.00  0.00    -0.248 NA
ATOM     54  C   UNL A   1      38.194  28.973  28.909  1.00  0.00     0.031 C 
ATOM     55  C   UNL A   1      41.098  30.771  31.609  1.00  0.00     0.029 A 
ATOM     56  N   UNL A   1      39.810  32.457  32.262  1.00  0.00    -0.354 N 
ATOM     57  C   UNL A   1      40.219  27.882  29.110  1.00  0.00     0.074 A 
ATOM     58  C   UNL A   1      38.997  28.053  28.362  1.00  0.00     0.031 C 
ATOM     59  C   UNL A   1      41.808  31.441  32.514  1.00  0.00     0.029 A 
ATOM     60  C   UNL A   1      40.868  32.272  33.191  1.00  0.00     0.049 A 
ATOM     61  H   UNL A   1      39.227  33.247  32.191  1.00  0.00     0.167 HD
ATOM     62  C   UNL A   1      41.454  27.301  28.915  1.00  0.00     0.034 A 
ATOM     63  C   UNL A   1      40.650  32.138  34.527  1.00  0.00     0.034 A 
ATOM     64  C   UNL A   1      42.367  27.553  30.071  1.00  0.00     0.049 A 
ATOM     65  C   UNL A   1      41.043  30.705  34.947  1.00  0.00     0.074 A 
ATOM     66  C   UNL A   1      43.657  28.038  30.233  1.00  0.00     0.029 A 
ATOM     67  N   UNL A   1      41.862  27.448  31.374  1.00  0.00    -0.354 N 
ATOM     68  N   UNL A   1      40.995  29.664  34.131  1.00  0.00    -0.248 NA
ATOM     69  C   UNL A   1      41.832  30.408  36.140  1.00  0.00     0.031 C 
ATOM     70  C   UNL A   1      43.873  28.305  31.624  1.00  0.00     0.029 A 
ATOM     71  C   UNL A   1      42.733  27.938  32.327  1.00  0.00     0.049 A 
ATOM     72  H   UNL A   1      40.981  27.065  31.587  1.00  0.00     0.167 HD
ATOM     73  C   UNL A   1      41.906  28.706  34.533  1.00  0.00     0.074 A 
ATOM     74  C   UNL A   1      42.338  29.194  35.842  1.00  0.00     0.031 C 
ATOM     75  C   UNL A   1      42.473  27.719  33.748  1.00  0.00     0.034 A 
BRANCH  62  76
ATOM     76  C   UNL A   1      41.961  26.639  27.605  1.00  0.00     0.023 A 
ATOM     77  C   UNL A   1      42.323  25.265  27.578  1.00  0.00     0.031 A 
ATOM     78  C   UNL A   1      42.125  27.280  26.356  1.00  0.00     0.131 A 
ATOM     79  C   UNL A   1      42.841  24.632  26.417  1.00  0.00     0.055 A 
ATOM     80  C   UNL A   1      42.640  26.658  25.205  1.00  0.00     0.041 A 
ATOM     81  F   UNL A   1      41.761  28.542  26.138  1.00  0.00    -0.206 F 
ATOM     82  C   UNL A   1      43.004  25.328  25.229  1.00  0.00     0.022 A 
BRANCH  79  83
ATOM     83  S   UNL A   1      43.262  22.859  26.443  1.00  0.00     0.124 S 
ATOM     84  O   UNL A   1      42.743  22.397  25.161  1.00  0.00    -0.237 OA
ATOM     85  O   UNL A   1      44.713  22.880  26.588  1.00  0.00    -0.237 OA
ATOM     86  O   UNL A   1      42.540  22.356  27.613  1.00  0.00    -0.744 OA
ENDBRANCH  79  83
ENDBRANCH  62  76
BRANCH  63  87
ATOM     87  C   UNL A   1      39.664  33.187  34.952  1.00  0.00     0.023 A 
ATOM     88  C   UNL A   1      38.623  32.694  35.803  1.00  0.00     0.031 A 
ATOM     89  C   UNL A   1      40.092  34.504  35.176  1.00  0.00     0.131 A 
ATOM     90  C   UNL A   1      38.259  33.390  36.974  1.00  0.00     0.055 A 
ATOM     91  C   UNL A   1      39.671  35.220  36.315  1.00  0.00     0.041 A 
ATOM     92  F   UNL A   1      41.072  35.037  34.434  1.00  0.00    -0.206 F 
ATOM     93  C   UNL A   1      38.816  34.636  37.254  1.00  0.00     0.022 A 
BRANCH  90  94
ATOM     94  S   UNL A   1      37.308  32.530  38.284  1.00  0.00     0.124 S 
ATOM     95  O   UNL A   1      37.989  32.966  39.498  1.00  0.00    -0.237 OA
ATOM     96  O   UNL A   1      35.953  33.038  38.102  1.00  0.00    -0.237 OA
ATOM     97  O   UNL A   1      37.467  31.116  37.943  1.00  0.00    -0.744 OA
ENDBRANCH  90  94
ENDBRANCH  63  87
BRANCH  75  98
ATOM     98  C   UNL A   1      42.830  26.331  34.264  1.00  0.00     0.023 A 
ATOM     99  C   UNL A   1      44.095  25.773  34.118  1.00  0.00     0.031 A 
ATOM    100  C   UNL A   1      41.925  25.574  35.068  1.00  0.00     0.131 A 
ATOM    101  C   UNL A   1      44.441  24.573  34.760  1.00  0.00     0.055 A 
ATOM    102  C   UNL A   1      42.275  24.394  35.724  1.00  0.00     0.041 A 
ATOM    103  F   UNL A   1      40.665  25.958  35.311  1.00  0.00    -0.206 F 
ATOM    104  C   UNL A   1      43.549  23.889  35.580  1.00  0.00     0.022 A 
BRANCH 101 105
ATOM    105  S   UNL A   1      46.121  23.971  34.512  1.00  0.00     0.124 S 
ATOM    106  O   UNL A   1      46.767  25.129  33.899  1.00  0.00    -0.237 OA
ATOM    107  O   UNL A   1      46.540  23.665  35.877  1.00  0.00    -0.237 OA
ATOM    108  O   UNL A   1      45.947  22.813  33.639  1.00  0.00    -0.744 OA
ENDBRANCH 101 105
ENDBRANCH  75  98
ENDBRANCH  49  50
ENDBRANCH  42  44
ENDBRANCH  41  42
ENDBRANCH  40  41
ENDBRANCH  39  40
ENDBRANCH  38  39
ENDBRANCH  37  38
ENDBRANCH  36  37
ENDBRANCH   1  36
TORSDOF 26
ENDMDL
MODEL 2
REMARK VINA RESULT:      -9.6      5.436     10.466
REMARK SMILES Cc1c(C(=O)OCCOCCOCCOCCOC(=O)c2ccc(-c3c4nc(c(-c5cc(S(=O)(=O)[O-])ccc5F)c5ccc([nH]5)c(-c5cc(S(=O)(=O)[O-])ccc5F)c5nc(c(-c6cc(S(=O)(=O)[O-])ccc6F)c6ccc3[nH]6)C=C5)C=C4)cc2)cccc1-n1c(C)cc(/C=C2/C(=O)NC(=S)N=C2O)c1C
REMARK SMILES IDX 12 1 11 2 10 3 9 4 8 5 7 6 6 7 4 8 5 9 3 10 1 11 2 12 87 13
REMARK SMILES IDX 84 14 86 15 85 16 88 17 89 18 103 19 90 20 91 21 92 22
REMARK SMILES IDX 104 23 93 24 94 25 95 26 101 27 96 28 97 29 100 30 98 31
REMARK SMILES IDX 99 33 102 34 13 36 14 37 15 38 16 39 17 40 18 41 19 42 20 43
REMARK SMILES IDX 21 44 22 45 83 46 23 47 82 48 24 49 25 50 26 51 76 52 27 53
REMARK SMILES IDX 81 54 75 55 77 56 28 57 80 58 74 59 73 60 29 62 61 63 41 64
REMARK SMILES IDX 60 65 42 66 45 67 59 68 78 69 43 70 44 71 58 73 79 74 46 75
REMARK SMILES IDX 30 76 31 77 39 78 32 79 38 80 40 81 37 82 33 83 34 84 35 85
REMARK SMILES IDX 36 86 62 87 63 88 71 89 64 90 70 91 72 92 69 93 65 94 66 95
REMARK SMILES IDX 67 96 68 97 47 98 48 99 56 100 49 101 55 102 57 103 54 104
REMARK SMILES IDX 50 105 51 106 52 107 53 108
REMARK H PARENT 97 32 102 35 77 61 45 72
REMARK Flexibility Score: inf
ROOT
ATOM      1  O   UNL A   1      33.318  31.956  27.243  1.00  0.00    -0.377 OA
ENDROOT
BRANCH   1   2
ATOM      2  C   UNL A   1      33.058  30.566  27.309  1.00  0.00     0.188 C 
BRANCH   2   3
ATOM      3  C   UNL A   1      31.721  30.134  26.702  1.00  0.00     0.188 C 
BRANCH   3   4
ATOM      4  O   UNL A   1      31.486  30.392  25.324  1.00  0.00    -0.376 OA
BRANCH   4   5
ATOM      5  C   UNL A   1      30.351  31.211  25.045  1.00  0.00     0.202 C 
BRANCH   5   6
ATOM      6  C   UNL A   1      29.806  31.091  23.633  1.00  0.00     0.261 C 
BRANCH   6   7
ATOM      7  O   UNL A   1      29.071  29.868  23.548  1.00  0.00    -0.460 OA
BRANCH   7   8
ATOM      8  C   UNL A   1      29.541  28.981  22.663  1.00  0.00     0.338 C 
ATOM      9  O   UNL A   1      29.826  29.218  21.507  1.00  0.00    -0.246 OA
BRANCH   8  10
ATOM     10  C   UNL A   1      29.952  27.719  23.351  1.00  0.00     0.065 A 
ATOM     11  C   UNL A   1      32.423  27.460  22.596  1.00  0.00     0.047 C 
ATOM     12  C   UNL A   1      31.235  27.140  23.462  1.00  0.00    -0.012 A 
ATOM     13  C   UNL A   1      31.356  26.007  24.286  1.00  0.00     0.049 A 
ATOM     14  C   UNL A   1      28.831  26.998  23.813  1.00  0.00     0.016 A 
ATOM     15  C   UNL A   1      30.233  25.309  24.753  1.00  0.00     0.027 A 
ATOM     16  C   UNL A   1      28.964  25.780  24.465  1.00  0.00     0.003 A 
BRANCH  13  17
ATOM     17  N   UNL A   1      32.622  25.427  24.534  1.00  0.00    -0.318 N 
ATOM     18  C   UNL A   1      33.620  25.920  25.360  1.00  0.00     0.020 A 
ATOM     19  C   UNL A   1      33.033  24.212  24.006  1.00  0.00     0.027 A 
ATOM     20  C   UNL A   1      33.658  27.294  25.939  1.00  0.00     0.065 C 
ATOM     21  C   UNL A   1      34.492  24.869  25.579  1.00  0.00     0.031 A 
ATOM     22  C   UNL A   1      34.054  23.752  24.814  1.00  0.00    -0.003 A 
ATOM     23  C   UNL A   1      32.422  23.693  22.745  1.00  0.00     0.065 C 
BRANCH  22  24
ATOM     24  C   UNL A   1      34.709  22.484  24.819  1.00  0.00     0.029 C 
ATOM     25  C   UNL A   1      34.255  21.245  25.079  1.00  0.00     0.102 C 
ATOM     26  C   UNL A   1      35.243  20.148  24.926  1.00  0.00     0.262 C 
ATOM     27  C   UNL A   1      32.918  20.762  25.436  1.00  0.00     0.226 C 
ATOM     28  O   UNL A   1      36.460  20.292  24.966  1.00  0.00    -0.269 OA
ATOM     29  N   UNL A   1      34.676  18.913  24.755  1.00  0.00    -0.297 N 
ATOM     30  N   UNL A   1      32.477  19.562  25.322  1.00  0.00    -0.184 NA
ATOM     31  C   UNL A   1      33.342  18.605  24.864  1.00  0.00     0.203 C 
ATOM     32  H   UNL A   1      35.284  18.172  24.533  1.00  0.00     0.172 HD
ATOM     33  S   UNL A   1      32.878  17.028  24.533  1.00  0.00    -0.038 S 
BRANCH  27  34
ATOM     34  O   UNL A   1      32.100  21.631  26.029  1.00  0.00    -0.493 OA
ATOM     35  H   UNL A   1      31.692  21.411  26.843  1.00  0.00     0.295 HD
ENDBRANCH  27  34
ENDBRANCH  22  24
ENDBRANCH  13  17
ENDBRANCH   8  10
ENDBRANCH   7   8
ENDBRANCH   6   7
ENDBRANCH   5   6
ENDBRANCH   4   5
ENDBRANCH   3   4
ENDBRANCH   2   3
ENDBRANCH   1   2
BRANCH   1  36
ATOM     36  C   UNL A   1      34.375  32.351  28.111  1.00  0.00     0.188 C 
BRANCH  36  37
ATOM     37  C   UNL A   1      35.492  31.335  28.054  1.00  0.00     0.188 C 
BRANCH  37  38
ATOM     38  O   UNL A   1      36.286  31.152  29.219  1.00  0.00    -0.376 OA
BRANCH  38  39
ATOM     39  C   UNL A   1      36.746  29.838  29.504  1.00  0.00     0.202 C 
BRANCH  39  40
ATOM     40  C   UNL A   1      37.997  29.777  30.391  1.00  0.00     0.261 C 
BRANCH  40  41
ATOM     41  O   UNL A   1      38.419  28.399  30.509  1.00  0.00    -0.460 OA
BRANCH  41  42
ATOM     42  C   UNL A   1      39.214  27.935  29.499  1.00  0.00     0.338 C 
ATOM     43  O   UNL A   1      38.932  27.015  28.756  1.00  0.00    -0.246 OA
BRANCH  42  44
ATOM     44  C   UNL A   1      40.577  28.557  29.609  1.00  0.00     0.060 A 
ATOM     45  C   UNL A   1      41.085  29.294  28.522  1.00  0.00     0.016 A 
ATOM     46  C   UNL A   1      41.455  28.099  30.586  1.00  0.00     0.016 A 
ATOM     47  C   UNL A   1      42.477  29.387  28.315  1.00  0.00     0.010 A 
ATOM     48  C   UNL A   1      42.820  28.138  30.332  1.00  0.00     0.010 A 
ATOM     49  C   UNL A   1      43.356  28.713  29.164  1.00  0.00    -0.014 A 
BRANCH  49  50
ATOM     50  C   UNL A   1      44.761  28.354  28.816  1.00  0.00     0.031 A 
ATOM     51  C   UNL A   1      45.904  29.197  29.321  1.00  0.00     0.074 A 
ATOM     52  C   UNL A   1      45.044  27.095  28.379  1.00  0.00     0.049 A 
ATOM     53  N   UNL A   1      47.161  28.933  29.189  1.00  0.00    -0.248 NA
ATOM     54  C   UNL A   1      45.715  30.400  30.117  1.00  0.00     0.031 C 
ATOM     55  C   UNL A   1      46.339  26.432  28.437  1.00  0.00     0.029 A 
ATOM     56  N   UNL A   1      44.234  26.097  27.817  1.00  0.00    -0.354 N 
ATOM     57  C   UNL A   1      47.878  29.594  30.171  1.00  0.00     0.074 A 
ATOM     58  C   UNL A   1      46.928  30.563  30.659  1.00  0.00     0.031 C 
ATOM     59  C   UNL A   1      46.324  25.248  27.829  1.00  0.00     0.029 A 
ATOM     60  C   UNL A   1      45.090  25.206  27.117  1.00  0.00     0.049 A 
ATOM     61  H   UNL A   1      43.255  26.028  27.895  1.00  0.00     0.167 HD
ATOM     62  C   UNL A   1      49.129  29.133  30.524  1.00  0.00     0.034 A 
ATOM     63  C   UNL A   1      45.067  25.087  25.763  1.00  0.00     0.034 A 
ATOM     64  C   UNL A   1      49.564  28.003  29.648  1.00  0.00     0.049 A 
ATOM     65  C   UNL A   1      46.406  25.611  25.201  1.00  0.00     0.074 A 
ATOM     66  C   UNL A   1      50.060  26.723  29.847  1.00  0.00     0.029 A 
ATOM     67  N   UNL A   1      49.330  28.081  28.269  1.00  0.00    -0.354 N 
ATOM     68  N   UNL A   1      47.140  26.535  25.801  1.00  0.00    -0.248 NA
ATOM     69  C   UNL A   1      47.171  24.912  24.171  1.00  0.00     0.031 C 
ATOM     70  C   UNL A   1      50.026  26.021  28.600  1.00  0.00     0.029 A 
ATOM     71  C   UNL A   1      49.556  26.883  27.618  1.00  0.00     0.049 A 
ATOM     72  H   UNL A   1      49.034  28.901  27.811  1.00  0.00     0.167 HD
ATOM     73  C   UNL A   1      48.468  26.387  25.448  1.00  0.00     0.074 A 
ATOM     74  C   UNL A   1      48.411  25.410  24.362  1.00  0.00     0.031 C 
ATOM     75  C   UNL A   1      49.570  26.826  26.158  1.00  0.00     0.034 A 
BRANCH  62  76
ATOM     76  C   UNL A   1      49.939  29.549  31.782  1.00  0.00     0.023 A 
ATOM     77  C   UNL A   1      51.141  30.298  31.657  1.00  0.00     0.031 A 
ATOM     78  C   UNL A   1      49.610  29.247  33.122  1.00  0.00     0.131 A 
ATOM     79  C   UNL A   1      51.941  30.653  32.775  1.00  0.00     0.055 A 
ATOM     80  C   UNL A   1      50.402  29.595  34.232  1.00  0.00     0.041 A 
ATOM     81  F   UNL A   1      48.482  28.631  33.469  1.00  0.00    -0.206 F 
ATOM     82  C   UNL A   1      51.575  30.299  34.065  1.00  0.00     0.022 A 
BRANCH  79  83
ATOM     83  S   UNL A   1      53.457  31.637  32.548  1.00  0.00     0.124 S 
ATOM     84  O   UNL A   1      53.438  31.915  31.116  1.00  0.00    -0.237 OA
ATOM     85  O   UNL A   1      53.233  32.773  33.434  1.00  0.00    -0.237 OA
ATOM     86  O   UNL A   1      54.520  30.728  32.980  1.00  0.00    -0.744 OA
ENDBRANCH  79  83
ENDBRANCH  62  76
BRANCH  63  87
ATOM     87  C   UNL A   1      43.635  25.006  25.320  1.00  0.00     0.023 A 
ATOM     88  C   UNL A   1      42.988  23.777  25.669  1.00  0.00     0.031 A 
ATOM     89  C   UNL A   1      42.836  26.159  25.312  1.00  0.00     0.131 A 
ATOM     90  C   UNL A   1      41.702  23.778  26.246  1.00  0.00     0.055 A 
ATOM     91  C   UNL A   1      41.526  26.139  25.830  1.00  0.00     0.041 A 
ATOM     92  F   UNL A   1      43.367  27.353  25.012  1.00  0.00    -0.206 F 
ATOM     93  C   UNL A   1      40.985  24.967  26.368  1.00  0.00     0.022 A 
BRANCH  90  94
ATOM     94  S   UNL A   1      41.099  22.287  27.127  1.00  0.00     0.124 S 
ATOM     95  O   UNL A   1      41.705  22.440  28.445  1.00  0.00    -0.237 OA
ATOM     96  O   UNL A   1      39.649  22.432  27.076  1.00  0.00    -0.237 OA
ATOM     97  O   UNL A   1      41.619  21.184  26.318  1.00  0.00    -0.744 OA
ENDBRANCH  90  94
ENDBRANCH  63  87
BRANCH  75  98
ATOM     98  C   UNL A   1      50.853  27.321  25.505  1.00  0.00     0.023 A 
ATOM     99  C   UNL A   1      50.996  28.609  24.998  1.00  0.00     0.031 A 
ATOM    100  C   UNL A   1      52.047  26.539  25.510  1.00  0.00     0.131 A 
ATOM    101  C   UNL A   1      52.242  29.089  24.569  1.00  0.00     0.055 A 
ATOM    102  C   UNL A   1      53.291  27.023  25.104  1.00  0.00     0.041 A 
ATOM    103  F   UNL A   1      52.094  25.277  25.957  1.00  0.00    -0.206 F 
ATOM    104  C   UNL A   1      53.398  28.316  24.637  1.00  0.00     0.022 A 
BRANCH 101 105
ATOM    105  S   UNL A   1      52.297  30.784  23.960  1.00  0.00     0.124 S 
ATOM    106  O   UNL A   1      51.592  30.667  22.686  1.00  0.00    -0.237 OA
ATOM    107  O   UNL A   1      51.586  31.509  25.009  1.00  0.00    -0.237 OA
ATOM    108  O   UNL A   1      53.726  31.069  23.863  1.00  0.00    -0.744 OA
ENDBRANCH 101 105
ENDBRANCH  75  98
ENDBRANCH  49  50
ENDBRANCH  42  44
ENDBRANCH  41  42
ENDBRANCH  40  41
ENDBRANCH  39  40
ENDBRANCH  38  39
ENDBRANCH  37  38
ENDBRANCH  36  37
ENDBRANCH   1  36
TORSDOF 26
ENDMDL
MODEL 3
REMARK VINA RESULT:      -9.4      2.387      3.209
REMARK SMILES Cc1c(C(=O)OCCOCCOCCOCCOC(=O)c2ccc(-c3c4nc(c(-c5cc(S(=O)(=O)[O-])ccc5F)c5ccc([nH]5)c(-c5cc(S(=O)(=O)[O-])ccc5F)c5nc(c(-c6cc(S(=O)(=O)[O-])ccc6F)c6ccc3[nH]6)C=C5)C=C4)cc2)cccc1-n1c(C)cc(/C=C2/C(=O)NC(=S)N=C2O)c1C
REMARK SMILES IDX 12 1 11 2 10 3 9 4 8 5 7 6 6 7 4 8 5 9 3 10 1 11 2 12 87 13
REMARK SMILES IDX 84 14 86 15 85 16 88 17 89 18 103 19 90 20 91 21 92 22
REMARK SMILES IDX 104 23 93 24 94 25 95 26 101 27 96 28 97 29 100 30 98 31
REMARK SMILES IDX 99 33 102 34 13 36 14 37 15 38 16 39 17 40 18 41 19 42 20 43
REMARK SMILES IDX 21 44 22 45 83 46 23 47 82 48 24 49 25 50 26 51 76 52 27 53
REMARK SMILES IDX 81 54 75 55 77 56 28 57 80 58 74 59 73 60 29 62 61 63 41 64
REMARK SMILES IDX 60 65 42 66 45 67 59 68 78 69 43 70 44 71 58 73 79 74 46 75
REMARK SMILES IDX 30 76 31 77 39 78 32 79 38 80 40 81 37 82 33 83 34 84 35 85
REMARK SMILES IDX 36 86 62 87 63 88 71 89 64 90 70 91 72 92 69 93 65 94 66 95
REMARK SMILES IDX 67 96 68 97 47 98 48 99 56 100 49 101 55 102 57 103 54 104
REMARK SMILES IDX 50 105 51 106 52 107 53 108
REMARK H PARENT 97 32 102 35 77 61 45 72
REMARK Flexibility Score: inf
ROOT
ATOM      1  O   UNL A   1      31.767  26.138  26.925  1.00  0.00    -0.377 OA
ENDROOT
BRANCH   1   2
ATOM      2  C   UNL A   1      31.026  25.100  26.311  1.00  0.00     0.188 C 
BRANCH   2   3
ATOM      3  C   UNL A   1      31.399  23.688  26.768  1.00  0.00     0.188 C 
BRANCH   3   4
ATOM      4  O   UNL A   1      32.582  23.513  27.537  1.00  0.00    -0.376 OA
BRANCH   4   5
ATOM      5  C   UNL A   1      32.748  22.216  28.108  1.00  0.00     0.202 C 
BRANCH   5   6
ATOM      6  C   UNL A   1      33.731  21.316  27.379  1.00  0.00     0.261 C 
BRANCH   6   7
ATOM      7  O   UNL A   1      33.002  20.203  26.855  1.00  0.00    -0.460 OA
BRANCH   7   8
ATOM      8  C   UNL A   1      33.286  19.883  25.588  1.00  0.00     0.338 C 
ATOM      9  O   UNL A   1      32.829  18.939  24.976  1.00  0.00    -0.246 OA
BRANCH   8  10
ATOM     10  C   UNL A   1      34.016  21.000  24.914  1.00  0.00     0.065 A 
ATOM     11  C   UNL A   1      32.078  22.365  23.856  1.00  0.00     0.047 C 
ATOM     12  C   UNL A   1      33.501  22.163  24.302  1.00  0.00    -0.012 A 
ATOM     13  C   UNL A   1      34.431  23.119  23.859  1.00  0.00     0.049 A 
ATOM     14  C   UNL A   1      35.393  20.716  24.795  1.00  0.00     0.016 A 
ATOM     15  C   UNL A   1      35.800  22.829  23.763  1.00  0.00     0.027 A 
ATOM     16  C   UNL A   1      36.271  21.598  24.182  1.00  0.00     0.003 A 
BRANCH  13  17
ATOM     17  N   UNL A   1      33.998  24.357  23.330  1.00  0.00    -0.318 N 
ATOM     18  C   UNL A   1      33.499  24.595  22.059  1.00  0.00     0.020 A 
ATOM     19  C   UNL A   1      33.963  25.538  24.056  1.00  0.00     0.027 A 
ATOM     20  C   UNL A   1      33.572  23.643  20.914  1.00  0.00     0.065 C 
ATOM     21  C   UNL A   1      32.875  25.829  22.116  1.00  0.00     0.031 A 
ATOM     22  C   UNL A   1      33.068  26.373  23.416  1.00  0.00    -0.003 A 
ATOM     23  C   UNL A   1      34.855  25.722  25.240  1.00  0.00     0.065 C 
BRANCH  22  24
ATOM     24  C   UNL A   1      32.537  27.630  23.834  1.00  0.00     0.029 C 
ATOM     25  C   UNL A   1      31.505  28.361  23.375  1.00  0.00     0.102 C 
ATOM     26  C   UNL A   1      31.220  29.614  24.117  1.00  0.00     0.262 C 
ATOM     27  C   UNL A   1      30.553  28.112  22.289  1.00  0.00     0.226 C 
ATOM     28  O   UNL A   1      32.027  30.211  24.821  1.00  0.00    -0.269 OA
ATOM     29  N   UNL A   1      29.948  30.088  23.931  1.00  0.00    -0.297 N 
ATOM     30  N   UNL A   1      29.402  28.657  22.135  1.00  0.00    -0.184 NA
ATOM     31  C   UNL A   1      29.019  29.608  23.041  1.00  0.00     0.203 C 
ATOM     32  H   UNL A   1      29.672  30.849  24.491  1.00  0.00     0.172 HD
ATOM     33  S   UNL A   1      27.495  30.309  23.052  1.00  0.00    -0.038 S 
BRANCH  27  34
ATOM     34  O   UNL A   1      30.956  27.308  21.305  1.00  0.00    -0.493 OA
ATOM     35  H   UNL A   1      31.149  26.408  21.483  1.00  0.00     0.295 HD
ENDBRANCH  27  34
ENDBRANCH  22  24
ENDBRANCH  13  17
ENDBRANCH   8  10
ENDBRANCH   7   8
ENDBRANCH   6   7
ENDBRANCH   5   6
ENDBRANCH   4   5
ENDBRANCH   3   4
ENDBRANCH   2   3
ENDBRANCH   1   2
BRANCH   1  36
ATOM     36  C   UNL A   1      31.023  27.347  27.029  1.00  0.00     0.188 C 
BRANCH  36  37
ATOM     37  C   UNL A   1      31.910  28.451  27.555  1.00  0.00     0.188 C 
BRANCH  37  38
ATOM     38  O   UNL A   1      33.309  28.203  27.633  1.00  0.00    -0.376 OA
BRANCH  38  39
ATOM     39  C   UNL A   1      34.179  29.132  27.003  1.00  0.00     0.202 C 
BRANCH  39  40
ATOM     40  C   UNL A   1      34.008  30.585  27.468  1.00  0.00     0.261 C 
BRANCH  40  41
ATOM     41  O   UNL A   1      35.309  31.214  27.522  1.00  0.00    -0.460 OA
BRANCH  41  42
ATOM     42  C   UNL A   1      35.968  31.108  28.714  1.00  0.00     0.338 C 
ATOM     43  O   UNL A   1      35.497  31.389  29.799  1.00  0.00    -0.246 OA
BRANCH  42  44
ATOM     44  C   UNL A   1      37.425  30.840  28.459  1.00  0.00     0.060 A 
ATOM     45  C   UNL A   1      37.789  29.789  27.596  1.00  0.00     0.016 A 
ATOM     46  C   UNL A   1      38.373  31.354  29.338  1.00  0.00     0.016 A 
ATOM     47  C   UNL A   1      39.023  29.129  27.762  1.00  0.00     0.010 A 
ATOM     48  C   UNL A   1      39.554  30.650  29.537  1.00  0.00     0.010 A 
ATOM     49  C   UNL A   1      39.871  29.486  28.811  1.00  0.00    -0.014 A 
BRANCH  49  50
ATOM     50  C   UNL A   1      40.945  28.614  29.368  1.00  0.00     0.031 A 
ATOM     51  C   UNL A   1      40.865  27.117  29.204  1.00  0.00     0.074 A 
ATOM     52  C   UNL A   1      42.155  29.155  29.682  1.00  0.00     0.049 A 
ATOM     53  N   UNL A   1      41.776  26.265  29.537  1.00  0.00    -0.248 NA
ATOM     54  C   UNL A   1      39.750  26.446  28.552  1.00  0.00     0.031 C 
ATOM     55  C   UNL A   1      43.420  28.441  29.784  1.00  0.00     0.029 A 
ATOM     56  N   UNL A   1      42.547  30.476  29.944  1.00  0.00    -0.354 N 
ATOM     57  C   UNL A   1      41.612  25.103  28.803  1.00  0.00     0.074 A 
ATOM     58  C   UNL A   1      40.277  25.248  28.276  1.00  0.00     0.031 C 
ATOM     59  C   UNL A   1      44.405  29.224  30.218  1.00  0.00     0.029 A 
ATOM     60  C   UNL A   1      43.766  30.415  30.671  1.00  0.00     0.049 A 
ATOM     61  H   UNL A   1      42.067  31.292  29.675  1.00  0.00     0.167 HD
ATOM     62  C   UNL A   1      42.682  24.250  28.637  1.00  0.00     0.034 A 
ATOM     63  C   UNL A   1      43.861  30.810  31.969  1.00  0.00     0.034 A 
ATOM     64  C   UNL A   1      43.869  24.699  29.423  1.00  0.00     0.049 A 
ATOM     65  C   UNL A   1      44.161  29.569  32.838  1.00  0.00     0.074 A 
ATOM     66  C   UNL A   1      45.211  24.931  29.155  1.00  0.00     0.029 A 
ATOM     67  N   UNL A   1      43.684  25.166  30.731  1.00  0.00    -0.354 N 
ATOM     68  N   UNL A   1      43.789  28.341  32.514  1.00  0.00    -0.248 NA
ATOM     69  C   UNL A   1      45.171  29.556  33.894  1.00  0.00     0.031 C 
ATOM     70  C   UNL A   1      45.786  25.621  30.271  1.00  0.00     0.029 A 
ATOM     71  C   UNL A   1      44.813  25.770  31.250  1.00  0.00     0.049 A 
ATOM     72  H   UNL A   1      42.839  25.074  31.228  1.00  0.00     0.167 HD
ATOM     73  C   UNL A   1      44.643  27.421  33.090  1.00  0.00     0.074 A 
ATOM     74  C   UNL A   1      45.435  28.238  34.008  1.00  0.00     0.031 C 
ATOM     75  C   UNL A   1      44.877  26.126  32.666  1.00  0.00     0.034 A 
BRANCH  62  76
ATOM     76  C   UNL A   1      42.771  23.078  27.621  1.00  0.00     0.023 A 
ATOM     77  C   UNL A   1      43.774  23.066  26.613  1.00  0.00     0.031 A 
ATOM     78  C   UNL A   1      41.917  21.955  27.566  1.00  0.00     0.131 A 
ATOM     79  C   UNL A   1      43.860  22.044  25.631  1.00  0.00     0.055 A 
ATOM     80  C   UNL A   1      41.997  20.942  26.594  1.00  0.00     0.041 A 
ATOM     81  F   UNL A   1      40.967  21.724  28.471  1.00  0.00    -0.206 F 
ATOM     82  C   UNL A   1      42.969  20.981  25.617  1.00  0.00     0.022 A 
BRANCH  79  83
ATOM     83  S   UNL A   1      45.187  22.074  24.383  1.00  0.00     0.124 S 
ATOM     84  O   UNL A   1      45.143  23.455  23.914  1.00  0.00    -0.237 OA
ATOM     85  O   UNL A   1      46.360  21.686  25.157  1.00  0.00    -0.237 OA
ATOM     86  O   UNL A   1      44.750  21.080  23.399  1.00  0.00    -0.744 OA
ENDBRANCH  79  83
ENDBRANCH  62  76
BRANCH  63  87
ATOM     87  C   UNL A   1      43.145  32.121  32.118  1.00  0.00     0.023 A 
ATOM     88  C   UNL A   1      41.755  31.990  32.439  1.00  0.00     0.031 A 
ATOM     89  C   UNL A   1      43.814  33.231  32.655  1.00  0.00     0.131 A 
ATOM     90  C   UNL A   1      41.175  32.767  33.462  1.00  0.00     0.055 A 
ATOM     91  C   UNL A   1      43.205  34.044  33.630  1.00  0.00     0.041 A 
ATOM     92  F   UNL A   1      45.120  33.419  32.416  1.00  0.00    -0.206 F 
ATOM     93  C   UNL A   1      41.914  33.768  34.090  1.00  0.00     0.022 A 
BRANCH  90  94
ATOM     94  S   UNL A   1      39.571  32.259  34.191  1.00  0.00     0.124 S 
ATOM     95  O   UNL A   1      38.755  32.022  33.007  1.00  0.00    -0.237 OA
ATOM     96  O   UNL A   1      39.918  31.075  34.969  1.00  0.00    -0.237 OA
ATOM     97  O   UNL A   1      39.189  33.416  35.001  1.00  0.00    -0.744 OA
ENDBRANCH  90  94
ENDBRANCH  63  87
BRANCH  75  98
ATOM     98  C   UNL A   1      45.171  24.967  33.610  1.00  0.00     0.023 A 
ATOM     99  C   UNL A   1      46.451  24.464  33.813  1.00  0.00     0.031 A 
ATOM    100  C   UNL A   1      44.166  24.423  34.465  1.00  0.00     0.131 A 
ATOM    101  C   UNL A   1      46.713  23.521  34.819  1.00  0.00     0.055 A 
ATOM    102  C   UNL A   1      44.429  23.503  35.480  1.00  0.00     0.041 A 
ATOM    103  F   UNL A   1      42.879  24.788  34.405  1.00  0.00    -0.206 F 
ATOM    104  C   UNL A   1      45.718  23.052  35.671  1.00  0.00     0.022 A 
BRANCH 101 105
ATOM    105  S   UNL A   1      48.419  22.970  34.997  1.00  0.00     0.124 S 
ATOM    106  O   UNL A   1      48.389  21.678  34.317  1.00  0.00    -0.237 OA
ATOM    107  O   UNL A   1      49.155  24.027  34.307  1.00  0.00    -0.237 OA
ATOM    108  O   UNL A   1      48.615  22.916  36.442  1.00  0.00    -0.744 OA
ENDBRANCH 101 105
ENDBRANCH  75  98
ENDBRANCH  49  50
ENDBRANCH  42  44
ENDBRANCH  41  42
ENDBRANCH  40  41
ENDBRANCH  39  40
ENDBRANCH  38  39
ENDBRANCH  37  38
ENDBRANCH  36  37
ENDBRANCH   1  36
TORSDOF 26
ENDMDL
