MODEL 1
REMARK VINA RESULT:      -9.4      0.000      0.000
REMARK SMILES CC(C)c1ccc(C(=O)N2CCC[C@@H](C(=O)OCCOCCOCCOCCOC(=O)c3ccc(-c4c5nc(c(-c6cc(S(=O)(=O)[O-])ccc6F)c6ccc([nH]6)c(-c6cc(S(=O)(=O)[O-])ccc6F)c6nc(c(-c7cc(S(=O)(=O)[O-])ccc7F)c7ccc4[nH]7)C=C6)C=C5)cc3)C2)cc1
REMARK SMILES IDX 23 1 22 2 21 3 20 4 19 5 18 6 17 7 15 8 16 9 14 10 10 11
REMARK SMILES IDX 11 12 95 13 12 14 13 15 8 16 9 17 7 18 4 19 5 20 97 21 6 22
REMARK SMILES IDX 96 23 2 24 1 25 3 26 24 27 25 28 26 29 27 30 28 31 29 32
REMARK SMILES IDX 30 33 31 34 32 35 33 36 94 37 34 38 93 39 35 40 36 41 37 42
REMARK SMILES IDX 87 43 38 44 92 45 86 46 88 47 39 48 91 49 85 50 84 51 40 53
REMARK SMILES IDX 72 54 52 55 71 56 53 57 56 58 70 59 89 60 54 61 55 62 69 64
REMARK SMILES IDX 90 65 57 66 41 67 42 68 50 69 43 70 49 71 51 72 48 73 44 74
REMARK SMILES IDX 45 75 46 76 47 77 73 78 74 79 82 80 75 81 81 82 83 83 80 84
REMARK SMILES IDX 76 85 77 86 78 87 79 88 58 89 59 90 67 91 60 92 66 93 68 94
REMARK SMILES IDX 65 95 61 96 62 97 63 98 64 99
REMARK H PARENT 88 52 56 63
REMARK Flexibility Score: inf
ROOT
ATOM      1  O   UNL A   1      34.147  30.099  27.259  1.00  0.00    -0.377 OA
ENDROOT
BRANCH   1   2
ATOM      2  C   UNL A   1      32.807  30.565  27.367  1.00  0.00     0.188 C 
BRANCH   2   3
ATOM      3  C   UNL A   1      31.801  30.596  26.187  1.00  0.00     0.188 C 
BRANCH   3   4
ATOM      4  O   UNL A   1      32.108  29.710  25.129  1.00  0.00    -0.376 OA
BRANCH   4   5
ATOM      5  C   UNL A   1      31.129  28.771  24.729  1.00  0.00     0.202 C 
BRANCH   5   6
ATOM      6  C   UNL A   1      30.701  28.755  23.257  1.00  0.00     0.261 C 
BRANCH   6   7
ATOM      7  O   UNL A   1      29.946  27.614  22.811  1.00  0.00    -0.463 OA
BRANCH   7   8
ATOM      8  C   UNL A   1      29.530  26.690  23.713  1.00  0.00     0.310 C 
ATOM      9  O   UNL A   1      28.439  26.715  24.267  1.00  0.00    -0.252 OA
BRANCH   8  10
ATOM     10  C   UNL A   1      30.548  25.557  23.881  1.00  0.00     0.119 C 
ATOM     11  N   UNL A   1      31.284  23.836  25.584  1.00  0.00    -0.338 N 
ATOM     12  C   UNL A   1      31.106  22.748  24.634  1.00  0.00     0.120 C 
ATOM     13  C   UNL A   1      30.613  25.110  25.349  1.00  0.00     0.135 C 
ATOM     14  C   UNL A   1      31.276  23.238  23.200  1.00  0.00     0.022 C 
ATOM     15  C   UNL A   1      30.314  24.384  22.912  1.00  0.00     0.019 C 
BRANCH  11  16
ATOM     16  C   UNL A   1      32.189  23.712  26.622  1.00  0.00     0.253 C 
ATOM     17  O   UNL A   1      31.860  23.899  27.789  1.00  0.00    -0.269 OA
BRANCH  16  18
ATOM     18  C   UNL A   1      33.588  23.284  26.281  1.00  0.00     0.040 A 
ATOM     19  C   UNL A   1      36.303  22.658  25.690  1.00  0.00    -0.045 A 
ATOM     20  C   UNL A   1      35.708  23.843  25.224  1.00  0.00     0.005 A 
ATOM     21  C   UNL A   1      35.503  21.784  26.443  1.00  0.00     0.005 A 
ATOM     22  C   UNL A   1      34.376  24.157  25.523  1.00  0.00     0.014 A 
ATOM     23  C   UNL A   1      34.160  22.089  26.732  1.00  0.00     0.014 A 
BRANCH  19  24
ATOM     24  C   UNL A   1      37.765  22.383  25.341  1.00  0.00     0.013 C 
ATOM     25  C   UNL A   1      38.717  23.005  26.375  1.00  0.00     0.012 C 
ATOM     26  C   UNL A   1      38.139  20.907  25.156  1.00  0.00     0.012 C 
ENDBRANCH  19  24
ENDBRANCH  16  18
ENDBRANCH  11  16
ENDBRANCH   8  10
ENDBRANCH   7   8
ENDBRANCH   6   7
ENDBRANCH   5   6
ENDBRANCH   4   5
ENDBRANCH   3   4
ENDBRANCH   2   3
ENDBRANCH   1   2
BRANCH   1  27
ATOM     27  C   UNL A   1      35.191  30.879  27.814  1.00  0.00     0.188 C 
BRANCH  27  28
ATOM     28  C   UNL A   1      34.728  32.134  28.576  1.00  0.00     0.188 C 
BRANCH  28  29
ATOM     29  O   UNL A   1      35.135  33.345  27.955  1.00  0.00    -0.376 OA
BRANCH  29  30
ATOM     30  C   UNL A   1      34.191  34.392  27.818  1.00  0.00     0.202 C 
BRANCH  30  31
ATOM     31  C   UNL A   1      33.176  34.676  28.938  1.00  0.00     0.261 C 
BRANCH  31  32
ATOM     32  O   UNL A   1      33.585  35.545  29.998  1.00  0.00    -0.460 OA
BRANCH  32  33
ATOM     33  C   UNL A   1      33.517  35.061  31.260  1.00  0.00     0.338 C 
ATOM     34  O   UNL A   1      32.568  35.107  32.007  1.00  0.00    -0.246 OA
BRANCH  33  35
ATOM     35  C   UNL A   1      34.760  34.287  31.483  1.00  0.00     0.060 A 
ATOM     36  C   UNL A   1      34.683  33.042  32.125  1.00  0.00     0.016 A 
ATOM     37  C   UNL A   1      35.987  34.776  31.029  1.00  0.00     0.016 A 
ATOM     38  C   UNL A   1      35.839  32.289  32.327  1.00  0.00     0.010 A 
ATOM     39  C   UNL A   1      37.148  34.039  31.266  1.00  0.00     0.010 A 
ATOM     40  C   UNL A   1      37.082  32.807  31.940  1.00  0.00    -0.014 A 
BRANCH  40  41
ATOM     41  C   UNL A   1      38.326  32.185  32.451  1.00  0.00     0.031 A 
ATOM     42  C   UNL A   1      38.951  31.098  31.622  1.00  0.00     0.074 A 
ATOM     43  C   UNL A   1      38.890  32.576  33.607  1.00  0.00     0.049 A 
ATOM     44  N   UNL A   1      39.975  30.331  31.887  1.00  0.00    -0.248 NA
ATOM     45  C   UNL A   1      38.325  30.839  30.314  1.00  0.00     0.031 C 
ATOM     46  C   UNL A   1      38.407  33.661  34.458  1.00  0.00     0.029 A 
ATOM     47  N   UNL A   1      39.989  32.089  34.269  1.00  0.00    -0.354 N 
ATOM     48  C   UNL A   1      40.111  29.493  30.785  1.00  0.00     0.074 A 
ATOM     49  C   UNL A   1      39.044  29.823  29.867  1.00  0.00     0.031 C 
ATOM     50  C   UNL A   1      39.198  33.747  35.542  1.00  0.00     0.029 A 
ATOM     51  C   UNL A   1      40.212  32.693  35.485  1.00  0.00     0.049 A 
ATOM     52  H   UNL A   1      40.563  31.376  33.909  1.00  0.00     0.167 HD
ATOM     53  C   UNL A   1      41.045  28.537  30.562  1.00  0.00     0.034 A 
ATOM     54  C   UNL A   1      41.108  32.400  36.450  1.00  0.00     0.034 A 
ATOM     55  C   UNL A   1      42.086  28.211  31.502  1.00  0.00     0.049 A 
ATOM     56  C   UNL A   1      42.074  31.257  36.229  1.00  0.00     0.074 A 
ATOM     57  C   UNL A   1      43.087  27.262  31.383  1.00  0.00     0.029 A 
ATOM     58  N   UNL A   1      42.254  28.811  32.744  1.00  0.00    -0.354 N 
ATOM     59  N   UNL A   1      42.193  30.463  35.188  1.00  0.00    -0.248 NA
ATOM     60  C   UNL A   1      43.028  30.972  37.308  1.00  0.00     0.031 C 
ATOM     61  C   UNL A   1      43.803  27.230  32.584  1.00  0.00     0.029 A 
ATOM     62  C   UNL A   1      43.317  28.227  33.415  1.00  0.00     0.049 A 
ATOM     63  H   UNL A   1      41.699  29.543  33.096  1.00  0.00     0.167 HD
ATOM     64  C   UNL A   1      43.263  29.617  35.472  1.00  0.00     0.074 A 
ATOM     65  C   UNL A   1      43.756  30.001  36.779  1.00  0.00     0.031 C 
ATOM     66  C   UNL A   1      43.798  28.623  34.719  1.00  0.00     0.034 A 
BRANCH  53  67
ATOM     67  C   UNL A   1      40.932  27.743  29.284  1.00  0.00     0.023 A 
ATOM     68  C   UNL A   1      41.825  27.927  28.213  1.00  0.00     0.031 A 
ATOM     69  C   UNL A   1      39.893  26.812  29.121  1.00  0.00     0.131 A 
ATOM     70  C   UNL A   1      41.618  27.246  27.004  1.00  0.00     0.055 A 
ATOM     71  C   UNL A   1      39.744  26.071  27.946  1.00  0.00     0.041 A 
ATOM     72  F   UNL A   1      38.991  26.615  30.095  1.00  0.00    -0.206 F 
ATOM     73  C   UNL A   1      40.600  26.298  26.874  1.00  0.00     0.022 A 
BRANCH  70  74
ATOM     74  S   UNL A   1      42.599  27.729  25.558  1.00  0.00     0.124 S 
ATOM     75  O   UNL A   1      43.899  28.009  26.163  1.00  0.00    -0.237 OA
ATOM     76  O   UNL A   1      42.529  26.539  24.717  1.00  0.00    -0.237 OA
ATOM     77  O   UNL A   1      41.895  28.900  25.041  1.00  0.00    -0.744 OA
ENDBRANCH  70  74
ENDBRANCH  53  67
BRANCH  54  78
ATOM     78  C   UNL A   1      41.115  33.159  37.736  1.00  0.00     0.023 A 
ATOM     79  C   UNL A   1      40.323  32.756  38.823  1.00  0.00     0.031 A 
ATOM     80  C   UNL A   1      41.866  34.341  37.874  1.00  0.00     0.131 A 
ATOM     81  C   UNL A   1      40.260  33.553  39.978  1.00  0.00     0.055 A 
ATOM     82  C   UNL A   1      41.848  35.097  39.047  1.00  0.00     0.041 A 
ATOM     83  F   UNL A   1      42.635  34.779  36.864  1.00  0.00    -0.206 F 
ATOM     84  C   UNL A   1      41.029  34.712  40.103  1.00  0.00     0.022 A 
BRANCH  81  85
ATOM     85  S   UNL A   1      39.075  33.107  41.277  1.00  0.00     0.124 S 
ATOM     86  O   UNL A   1      39.879  33.278  42.482  1.00  0.00    -0.237 OA
ATOM     87  O   UNL A   1      38.015  34.088  41.068  1.00  0.00    -0.237 OA
ATOM     88  O   UNL A   1      38.718  31.727  40.953  1.00  0.00    -0.744 OA
ENDBRANCH  81  85
ENDBRANCH  54  78
BRANCH  66  89
ATOM     89  C   UNL A   1      45.027  27.925  35.256  1.00  0.00     0.023 A 
ATOM     90  C   UNL A   1      44.950  26.730  35.992  1.00  0.00     0.031 A 
ATOM     91  C   UNL A   1      46.302  28.467  35.010  1.00  0.00     0.131 A 
ATOM     92  C   UNL A   1      46.121  26.146  36.499  1.00  0.00     0.055 A 
ATOM     93  C   UNL A   1      47.468  27.844  35.458  1.00  0.00     0.041 A 
ATOM     94  F   UNL A   1      46.437  29.608  34.316  1.00  0.00    -0.206 F 
ATOM     95  C   UNL A   1      47.380  26.683  36.218  1.00  0.00     0.022 A 
BRANCH  92  96
ATOM     96  S   UNL A   1      45.974  24.721  37.612  1.00  0.00     0.124 S 
ATOM     97  O   UNL A   1      47.068  24.954  38.549  1.00  0.00    -0.237 OA
ATOM     98  O   UNL A   1      44.628  24.882  38.151  1.00  0.00    -0.237 OA
ATOM     99  O   UNL A   1      46.152  23.572  36.725  1.00  0.00    -0.744 OA
ENDBRANCH  92  96
ENDBRANCH  66  89
ENDBRANCH  40  41
ENDBRANCH  33  35
ENDBRANCH  32  33
ENDBRANCH  31  32
ENDBRANCH  30  31
ENDBRANCH  29  30
ENDBRANCH  28  29
ENDBRANCH  27  28
ENDBRANCH   1  27
TORSDOF 26
ENDMDL
MODEL 2
REMARK VINA RESULT:      -9.1      2.272      7.771
REMARK SMILES CC(C)c1ccc(C(=O)N2CCC[C@@H](C(=O)OCCOCCOCCOCCOC(=O)c3ccc(-c4c5nc(c(-c6cc(S(=O)(=O)[O-])ccc6F)c6ccc([nH]6)c(-c6cc(S(=O)(=O)[O-])ccc6F)c6nc(c(-c7cc(S(=O)(=O)[O-])ccc7F)c7ccc4[nH]7)C=C6)C=C5)cc3)C2)cc1
REMARK SMILES IDX 23 1 22 2 21 3 20 4 19 5 18 6 17 7 15 8 16 9 14 10 10 11
REMARK SMILES IDX 11 12 95 13 12 14 13 15 8 16 9 17 7 18 4 19 5 20 97 21 6 22
REMARK SMILES IDX 96 23 2 24 1 25 3 26 24 27 25 28 26 29 27 30 28 31 29 32
REMARK SMILES IDX 30 33 31 34 32 35 33 36 94 37 34 38 93 39 35 40 36 41 37 42
REMARK SMILES IDX 87 43 38 44 92 45 86 46 88 47 39 48 91 49 85 50 84 51 40 53
REMARK SMILES IDX 72 54 52 55 71 56 53 57 56 58 70 59 89 60 54 61 55 62 69 64
REMARK SMILES IDX 90 65 57 66 41 67 42 68 50 69 43 70 49 71 51 72 48 73 44 74
REMARK SMILES IDX 45 75 46 76 47 77 73 78 74 79 82 80 75 81 81 82 83 83 80 84
REMARK SMILES IDX 76 85 77 86 78 87 79 88 58 89 59 90 67 91 60 92 66 93 68 94
REMARK SMILES IDX 65 95 61 96 62 97 63 98 64 99
REMARK H PARENT 88 52 56 63
REMARK Flexibility Score: inf
ROOT
ATOM      1  O   UNL A   1      31.820  29.554  24.904  1.00  0.00    -0.377 OA
ENDROOT
BRANCH   1   2
ATOM      2  C   UNL A   1      30.738  28.798  24.377  1.00  0.00     0.188 C 
BRANCH   2   3
ATOM      3  C   UNL A   1      30.175  28.970  22.942  1.00  0.00     0.188 C 
BRANCH   3   4
ATOM      4  O   UNL A   1      30.653  28.024  22.006  1.00  0.00    -0.376 OA
BRANCH   4   5
ATOM      5  C   UNL A   1      31.762  27.223  22.362  1.00  0.00     0.202 C 
BRANCH   5   6
ATOM      6  C   UNL A   1      32.005  25.930  21.574  1.00  0.00     0.261 C 
BRANCH   6   7
ATOM      7  O   UNL A   1      31.911  24.694  22.305  1.00  0.00    -0.463 OA
BRANCH   7   8
ATOM      8  C   UNL A   1      30.962  24.552  23.263  1.00  0.00     0.310 C 
ATOM      9  O   UNL A   1      29.819  24.981  23.167  1.00  0.00    -0.252 OA
BRANCH   8  10
ATOM     10  C   UNL A   1      31.460  23.705  24.439  1.00  0.00     0.119 C 
ATOM     11  N   UNL A   1      33.526  23.371  25.861  1.00  0.00    -0.338 N 
ATOM     12  C   UNL A   1      32.775  23.580  27.089  1.00  0.00     0.120 C 
ATOM     13  C   UNL A   1      32.981  23.851  24.596  1.00  0.00     0.135 C 
ATOM     14  C   UNL A   1      31.309  23.200  26.908  1.00  0.00     0.022 C 
ATOM     15  C   UNL A   1      30.699  23.979  25.748  1.00  0.00     0.019 C 
BRANCH  11  16
ATOM     16  C   UNL A   1      34.676  22.601  25.871  1.00  0.00     0.253 C 
ATOM     17  O   UNL A   1      35.746  23.048  26.272  1.00  0.00    -0.269 OA
BRANCH  16  18
ATOM     18  C   UNL A   1      34.563  21.172  25.425  1.00  0.00     0.040 A 
ATOM     19  C   UNL A   1      34.509  18.417  24.700  1.00  0.00    -0.045 A 
ATOM     20  C   UNL A   1      35.706  19.153  24.686  1.00  0.00     0.005 A 
ATOM     21  C   UNL A   1      33.336  19.095  25.067  1.00  0.00     0.005 A 
ATOM     22  C   UNL A   1      35.736  20.505  25.052  1.00  0.00     0.014 A 
ATOM     23  C   UNL A   1      33.360  20.458  25.421  1.00  0.00     0.014 A 
BRANCH  19  24
ATOM     24  C   UNL A   1      34.548  16.943  24.304  1.00  0.00     0.013 C 
ATOM     25  C   UNL A   1      33.649  16.091  25.214  1.00  0.00     0.012 C 
ATOM     26  C   UNL A   1      34.196  16.636  22.843  1.00  0.00     0.012 C 
ENDBRANCH  19  24
ENDBRANCH  16  18
ENDBRANCH  11  16
ENDBRANCH   8  10
ENDBRANCH   7   8
ENDBRANCH   6   7
ENDBRANCH   5   6
ENDBRANCH   4   5
ENDBRANCH   3   4
ENDBRANCH   2   3
ENDBRANCH   1   2
BRANCH   1  27
ATOM     27  C   UNL A   1      31.771  29.972  26.257  1.00  0.00     0.188 C 
BRANCH  27  28
ATOM     28  C   UNL A   1      32.885  29.399  27.153  1.00  0.00     0.188 C 
BRANCH  28  29
ATOM     29  O   UNL A   1      33.893  30.350  27.466  1.00  0.00    -0.376 OA
BRANCH  29  30
ATOM     30  C   UNL A   1      33.518  31.703  27.660  1.00  0.00     0.202 C 
BRANCH  30  31
ATOM     31  C   UNL A   1      34.589  32.804  27.742  1.00  0.00     0.261 C 
BRANCH  31  32
ATOM     32  O   UNL A   1      34.199  34.066  28.290  1.00  0.00    -0.460 OA
BRANCH  32  33
ATOM     33  C   UNL A   1      34.093  34.152  29.636  1.00  0.00     0.338 C 
ATOM     34  O   UNL A   1      33.134  34.529  30.268  1.00  0.00    -0.246 OA
BRANCH  33  35
ATOM     35  C   UNL A   1      35.304  33.511  30.198  1.00  0.00     0.060 A 
ATOM     36  C   UNL A   1      36.567  33.980  29.808  1.00  0.00     0.016 A 
ATOM     37  C   UNL A   1      35.188  32.475  31.128  1.00  0.00     0.016 A 
ATOM     38  C   UNL A   1      37.720  33.404  30.340  1.00  0.00     0.010 A 
ATOM     39  C   UNL A   1      36.343  31.874  31.631  1.00  0.00     0.010 A 
ATOM     40  C   UNL A   1      37.612  32.317  31.218  1.00  0.00    -0.014 A 
BRANCH  40  41
ATOM     41  C   UNL A   1      38.805  31.491  31.512  1.00  0.00     0.031 A 
ATOM     42  C   UNL A   1      39.592  31.821  32.750  1.00  0.00     0.074 A 
ATOM     43  C   UNL A   1      39.178  30.474  30.715  1.00  0.00     0.049 A 
ATOM     44  N   UNL A   1      40.721  31.323  33.179  1.00  0.00    -0.248 NA
ATOM     45  C   UNL A   1      39.024  32.867  33.618  1.00  0.00     0.031 C 
ATOM     46  C   UNL A   1      38.456  30.024  29.527  1.00  0.00     0.029 A 
ATOM     47  N   UNL A   1      40.269  29.645  30.782  1.00  0.00    -0.354 N 
ATOM     48  C   UNL A   1      41.005  31.999  34.361  1.00  0.00     0.074 A 
ATOM     49  C   UNL A   1      39.947  32.966  34.560  1.00  0.00     0.031 C 
ATOM     50  C   UNL A   1      39.134  29.008  28.965  1.00  0.00     0.029 A 
ATOM     51  C   UNL A   1      40.361  28.769  29.725  1.00  0.00     0.049 A 
ATOM     52  H   UNL A   1      40.923  29.674  31.516  1.00  0.00     0.167 HD
ATOM     53  C   UNL A   1      42.051  31.825  35.202  1.00  0.00     0.034 A 
ATOM     54  C   UNL A   1      41.344  27.905  29.395  1.00  0.00     0.034 A 
ATOM     55  C   UNL A   1      43.105  30.871  34.972  1.00  0.00     0.049 A 
ATOM     56  C   UNL A   1      42.558  27.802  30.291  1.00  0.00     0.074 A 
ATOM     57  C   UNL A   1      44.215  30.607  35.755  1.00  0.00     0.029 A 
ATOM     58  N   UNL A   1      43.192  30.032  33.866  1.00  0.00    -0.354 N 
ATOM     59  N   UNL A   1      42.824  28.449  31.404  1.00  0.00    -0.248 NA
ATOM     60  C   UNL A   1      43.603  26.851  29.891  1.00  0.00     0.031 C 
ATOM     61  C   UNL A   1      45.012  29.675  35.083  1.00  0.00     0.029 A 
ATOM     62  C   UNL A   1      44.353  29.280  33.929  1.00  0.00     0.049 A 
ATOM     63  H   UNL A   1      42.525  29.981  33.144  1.00  0.00     0.167 HD
ATOM     64  C   UNL A   1      44.044  27.949  31.856  1.00  0.00     0.074 A 
ATOM     65  C   UNL A   1      44.458  26.945  30.897  1.00  0.00     0.031 C 
ATOM     66  C   UNL A   1      44.752  28.279  32.966  1.00  0.00     0.034 A 
BRANCH  53  67
ATOM     67  C   UNL A   1      42.132  32.732  36.407  1.00  0.00     0.023 A 
ATOM     68  C   UNL A   1      41.644  32.340  37.666  1.00  0.00     0.031 A 
ATOM     69  C   UNL A   1      42.671  34.023  36.283  1.00  0.00     0.131 A 
ATOM     70  C   UNL A   1      41.641  33.254  38.730  1.00  0.00     0.055 A 
ATOM     71  C   UNL A   1      42.745  34.898  37.368  1.00  0.00     0.041 A 
ATOM     72  F   UNL A   1      43.123  34.466  35.099  1.00  0.00    -0.206 F 
ATOM     73  C   UNL A   1      42.214  34.520  38.598  1.00  0.00     0.022 A 
BRANCH  70  74
ATOM     74  S   UNL A   1      40.738  32.820  40.243  1.00  0.00     0.124 S 
ATOM     75  O   UNL A   1      39.427  32.458  39.710  1.00  0.00    -0.237 OA
ATOM     76  O   UNL A   1      41.534  31.723  40.781  1.00  0.00    -0.237 OA
ATOM     77  O   UNL A   1      40.767  34.054  41.025  1.00  0.00    -0.744 OA
ENDBRANCH  70  74
ENDBRANCH  53  67
BRANCH  54  78
ATOM     78  C   UNL A   1      41.257  27.098  28.141  1.00  0.00     0.023 A 
ATOM     79  C   UNL A   1      40.973  25.724  28.179  1.00  0.00     0.031 A 
ATOM     80  C   UNL A   1      41.522  27.680  26.888  1.00  0.00     0.131 A 
ATOM     81  C   UNL A   1      41.012  24.968  26.997  1.00  0.00     0.055 A 
ATOM     82  C   UNL A   1      41.499  26.935  25.707  1.00  0.00     0.041 A 
ATOM     83  F   UNL A   1      41.807  28.988  26.792  1.00  0.00    -0.206 F 
ATOM     84  C   UNL A   1      41.258  25.567  25.759  1.00  0.00     0.022 A 
BRANCH  81  85
ATOM     85  S   UNL A   1      40.841  23.165  27.112  1.00  0.00     0.124 S 
ATOM     86  O   UNL A   1      39.410  22.990  26.891  1.00  0.00    -0.237 OA
ATOM     87  O   UNL A   1      41.718  22.709  26.038  1.00  0.00    -0.237 OA
ATOM     88  O   UNL A   1      41.306  22.865  28.465  1.00  0.00    -0.744 OA
ENDBRANCH  81  85
ENDBRANCH  54  78
BRANCH  66  89
ATOM     89  C   UNL A   1      46.014  27.497  33.247  1.00  0.00     0.023 A 
ATOM     90  C   UNL A   1      46.005  26.293  33.972  1.00  0.00     0.031 A 
ATOM     91  C   UNL A   1      47.250  27.966  32.764  1.00  0.00     0.131 A 
ATOM     92  C   UNL A   1      47.212  25.628  34.236  1.00  0.00     0.055 A 
ATOM     93  C   UNL A   1      48.438  27.265  32.971  1.00  0.00     0.041 A 
ATOM     94  F   UNL A   1      47.321  29.113  32.068  1.00  0.00    -0.206 F 
ATOM     95  C   UNL A   1      48.425  26.094  33.722  1.00  0.00     0.022 A 
BRANCH  92  96
ATOM     96  S   UNL A   1      47.192  24.190  35.342  1.00  0.00     0.124 S 
ATOM     97  O   UNL A   1      47.710  24.756  36.584  1.00  0.00    -0.237 OA
ATOM     98  O   UNL A   1      45.781  23.821  35.350  1.00  0.00    -0.237 OA
ATOM     99  O   UNL A   1      48.079  23.234  34.680  1.00  0.00    -0.744 OA
ENDBRANCH  92  96
ENDBRANCH  66  89
ENDBRANCH  40  41
ENDBRANCH  33  35
ENDBRANCH  32  33
ENDBRANCH  31  32
ENDBRANCH  30  31
ENDBRANCH  29  30
ENDBRANCH  28  29
ENDBRANCH  27  28
ENDBRANCH   1  27
TORSDOF 26
ENDMDL
MODEL 3
REMARK VINA RESULT:      -8.8      2.462      7.723
REMARK SMILES CC(C)c1ccc(C(=O)N2CCC[C@@H](C(=O)OCCOCCOCCOCCOC(=O)c3ccc(-c4c5nc(c(-c6cc(S(=O)(=O)[O-])ccc6F)c6ccc([nH]6)c(-c6cc(S(=O)(=O)[O-])ccc6F)c6nc(c(-c7cc(S(=O)(=O)[O-])ccc7F)c7ccc4[nH]7)C=C6)C=C5)cc3)C2)cc1
REMARK SMILES IDX 23 1 22 2 21 3 20 4 19 5 18 6 17 7 15 8 16 9 14 10 10 11
REMARK SMILES IDX 11 12 95 13 12 14 13 15 8 16 9 17 7 18 4 19 5 20 97 21 6 22
REMARK SMILES IDX 96 23 2 24 1 25 3 26 24 27 25 28 26 29 27 30 28 31 29 32
REMARK SMILES IDX 30 33 31 34 32 35 33 36 94 37 34 38 93 39 35 40 36 41 37 42
REMARK SMILES IDX 87 43 38 44 92 45 86 46 88 47 39 48 91 49 85 50 84 51 40 53
REMARK SMILES IDX 72 54 52 55 71 56 53 57 56 58 70 59 89 60 54 61 55 62 69 64
REMARK SMILES IDX 90 65 57 66 41 67 42 68 50 69 43 70 49 71 51 72 48 73 44 74
REMARK SMILES IDX 45 75 46 76 47 77 73 78 74 79 82 80 75 81 81 82 83 83 80 84
REMARK SMILES IDX 76 85 77 86 78 87 79 88 58 89 59 90 67 91 60 92 66 93 68 94
REMARK SMILES IDX 65 95 61 96 62 97 63 98 64 99
REMARK H PARENT 88 52 56 63
REMARK Flexibility Score: inf
ROOT
ATOM      1  O   UNL A   1      34.441  30.863  27.260  1.00  0.00    -0.377 OA
ENDROOT
BRANCH   1   2
ATOM      2  C   UNL A   1      33.037  31.083  27.209  1.00  0.00     0.188 C 
BRANCH   2   3
ATOM      3  C   UNL A   1      32.043  30.179  26.435  1.00  0.00     0.188 C 
BRANCH   3   4
ATOM      4  O   UNL A   1      31.966  28.850  26.909  1.00  0.00    -0.376 OA
BRANCH   4   5
ATOM      5  C   UNL A   1      31.500  27.846  26.030  1.00  0.00     0.202 C 
BRANCH   5   6
ATOM      6  C   UNL A   1      31.559  26.387  26.501  1.00  0.00     0.261 C 
BRANCH   6   7
ATOM      7  O   UNL A   1      30.347  25.619  26.395  1.00  0.00    -0.463 OA
BRANCH   7   8
ATOM      8  C   UNL A   1      30.399  24.267  26.489  1.00  0.00     0.310 C 
ATOM      9  O   UNL A   1      29.665  23.599  27.206  1.00  0.00    -0.252 OA
BRANCH   8  10
ATOM     10  C   UNL A   1      31.419  23.667  25.515  1.00  0.00     0.119 C 
ATOM     11  N   UNL A   1      32.400  21.429  24.857  1.00  0.00    -0.338 N 
ATOM     12  C   UNL A   1      32.061  21.636  23.457  1.00  0.00     0.120 C 
ATOM     13  C   UNL A   1      31.714  22.205  25.884  1.00  0.00     0.135 C 
ATOM     14  C   UNL A   1      32.004  23.123  23.121  1.00  0.00     0.022 C 
ATOM     15  C   UNL A   1      31.020  23.838  24.039  1.00  0.00     0.019 C 
BRANCH  11  16
ATOM     16  C   UNL A   1      33.459  20.608  25.202  1.00  0.00     0.253 C 
ATOM     17  O   UNL A   1      33.344  19.387  25.235  1.00  0.00    -0.269 OA
BRANCH  16  18
ATOM     18  C   UNL A   1      34.783  21.259  25.484  1.00  0.00     0.040 A 
ATOM     19  C   UNL A   1      37.338  22.473  25.820  1.00  0.00    -0.045 A 
ATOM     20  C   UNL A   1      37.190  21.263  25.120  1.00  0.00     0.005 A 
ATOM     21  C   UNL A   1      36.181  23.053  26.364  1.00  0.00     0.005 A 
ATOM     22  C   UNL A   1      35.933  20.671  24.946  1.00  0.00     0.014 A 
ATOM     23  C   UNL A   1      34.918  22.452  26.204  1.00  0.00     0.014 A 
BRANCH  19  24
ATOM     24  C   UNL A   1      38.736  23.074  25.961  1.00  0.00     0.013 C 
ATOM     25  C   UNL A   1      38.701  24.406  26.727  1.00  0.00     0.012 C 
ATOM     26  C   UNL A   1      39.789  22.164  26.607  1.00  0.00     0.012 C 
ENDBRANCH  19  24
ENDBRANCH  16  18
ENDBRANCH  11  16
ENDBRANCH   8  10
ENDBRANCH   7   8
ENDBRANCH   6   7
ENDBRANCH   5   6
ENDBRANCH   4   5
ENDBRANCH   3   4
ENDBRANCH   2   3
ENDBRANCH   1   2
BRANCH   1  27
ATOM     27  C   UNL A   1      35.208  31.545  28.236  1.00  0.00     0.188 C 
BRANCH  27  28
ATOM     28  C   UNL A   1      34.430  32.589  29.059  1.00  0.00     0.188 C 
BRANCH  28  29
ATOM     29  O   UNL A   1      34.779  33.927  28.733  1.00  0.00    -0.376 OA
BRANCH  29  30
ATOM     30  C   UNL A   1      33.742  34.870  28.524  1.00  0.00     0.202 C 
BRANCH  30  31
ATOM     31  C   UNL A   1      32.735  35.181  29.644  1.00  0.00     0.261 C 
BRANCH  31  32
ATOM     32  O   UNL A   1      33.224  35.856  30.806  1.00  0.00    -0.460 OA
BRANCH  32  33
ATOM     33  C   UNL A   1      33.089  35.223  31.995  1.00  0.00     0.338 C 
ATOM     34  O   UNL A   1      32.078  35.108  32.647  1.00  0.00    -0.246 OA
BRANCH  33  35
ATOM     35  C   UNL A   1      34.371  34.528  32.251  1.00  0.00     0.060 A 
ATOM     36  C   UNL A   1      34.349  33.224  32.767  1.00  0.00     0.016 A 
ATOM     37  C   UNL A   1      35.585  35.151  31.951  1.00  0.00     0.016 A 
ATOM     38  C   UNL A   1      35.544  32.545  32.997  1.00  0.00     0.010 A 
ATOM     39  C   UNL A   1      36.781  34.484  32.217  1.00  0.00     0.010 A 
ATOM     40  C   UNL A   1      36.766  33.190  32.767  1.00  0.00    -0.014 A 
BRANCH  40  41
ATOM     41  C   UNL A   1      38.014  32.618  33.323  1.00  0.00     0.031 A 
ATOM     42  C   UNL A   1      38.329  32.904  34.765  1.00  0.00     0.074 A 
ATOM     43  C   UNL A   1      38.840  31.862  32.578  1.00  0.00     0.049 A 
ATOM     44  N   UNL A   1      39.395  32.609  35.461  1.00  0.00    -0.248 NA
ATOM     45  C   UNL A   1      37.295  33.632  35.521  1.00  0.00     0.031 C 
ATOM     46  C   UNL A   1      38.604  31.468  31.192  1.00  0.00     0.029 A 
ATOM     47  N   UNL A   1      40.054  31.303  32.887  1.00  0.00    -0.354 N 
ATOM     48  C   UNL A   1      39.165  33.123  36.734  1.00  0.00     0.074 A 
ATOM     49  C   UNL A   1      37.876  33.777  36.701  1.00  0.00     0.031 C 
ATOM     50  C   UNL A   1      39.651  30.742  30.762  1.00  0.00     0.029 A 
ATOM     51  C   UNL A   1      40.652  30.662  31.827  1.00  0.00     0.049 A 
ATOM     52  H   UNL A   1      40.459  31.354  33.783  1.00  0.00     0.167 HD
ATOM     53  C   UNL A   1      39.960  33.050  37.828  1.00  0.00     0.034 A 
ATOM     54  C   UNL A   1      41.879  30.111  31.723  1.00  0.00     0.034 A 
ATOM     55  C   UNL A   1      41.251  32.412  37.831  1.00  0.00     0.049 A 
ATOM     56  C   UNL A   1      42.796  30.136  32.926  1.00  0.00     0.074 A 
ATOM     57  C   UNL A   1      42.143  32.278  38.880  1.00  0.00     0.029 A 
ATOM     58  N   UNL A   1      41.846  31.814  36.726  1.00  0.00    -0.354 N 
ATOM     59  N   UNL A   1      42.576  30.629  34.125  1.00  0.00    -0.248 NA
ATOM     60  C   UNL A   1      44.123  29.528  32.765  1.00  0.00     0.031 C 
ATOM     61  C   UNL A   1      43.307  31.678  38.390  1.00  0.00     0.029 A 
ATOM     62  C   UNL A   1      43.106  31.345  37.059  1.00  0.00     0.049 A 
ATOM     63  H   UNL A   1      41.432  31.737  35.836  1.00  0.00     0.167 HD
ATOM     64  C   UNL A   1      43.721  30.349  34.869  1.00  0.00     0.074 A 
ATOM     65  C   UNL A   1      44.624  29.642  33.986  1.00  0.00     0.031 C 
ATOM     66  C   UNL A   1      43.996  30.639  36.167  1.00  0.00     0.034 A 
BRANCH  53  67
ATOM     67  C   UNL A   1      39.475  33.735  39.083  1.00  0.00     0.023 A 
ATOM     68  C   UNL A   1      38.620  33.093  39.997  1.00  0.00     0.031 A 
ATOM     69  C   UNL A   1      39.845  35.064  39.350  1.00  0.00     0.131 A 
ATOM     70  C   UNL A   1      38.108  33.803  41.093  1.00  0.00     0.055 A 
ATOM     71  C   UNL A   1      39.403  35.737  40.490  1.00  0.00     0.041 A 
ATOM     72  F   UNL A   1      40.634  35.739  38.499  1.00  0.00    -0.206 F 
ATOM     73  C   UNL A   1      38.516  35.112  41.361  1.00  0.00     0.022 A 
BRANCH  70  74
ATOM     74  S   UNL A   1      36.784  33.046  42.074  1.00  0.00     0.124 S 
ATOM     75  O   UNL A   1      35.750  34.076  42.019  1.00  0.00    -0.237 OA
ATOM     76  O   UNL A   1      36.505  31.820  41.335  1.00  0.00    -0.237 OA
ATOM     77  O   UNL A   1      37.396  32.857  43.388  1.00  0.00    -0.744 OA
ENDBRANCH  70  74
ENDBRANCH  53  67
BRANCH  54  78
ATOM     78  C   UNL A   1      42.344  29.529  30.428  1.00  0.00     0.023 A 
ATOM     79  C   UNL A   1      42.274  28.149  30.185  1.00  0.00     0.031 A 
ATOM     80  C   UNL A   1      42.928  30.342  29.439  1.00  0.00     0.131 A 
ATOM     81  C   UNL A   1      42.825  27.616  29.008  1.00  0.00     0.055 A 
ATOM     82  C   UNL A   1      43.418  29.815  28.243  1.00  0.00     0.041 A 
ATOM     83  F   UNL A   1      43.028  31.669  29.621  1.00  0.00    -0.206 F 
ATOM     84  C   UNL A   1      43.381  28.441  28.028  1.00  0.00     0.022 A 
BRANCH  81  85
ATOM     85  S   UNL A   1      42.897  25.813  28.821  1.00  0.00     0.124 S 
ATOM     86  O   UNL A   1      43.592  25.676  27.546  1.00  0.00    -0.237 OA
ATOM     87  O   UNL A   1      43.649  25.417  30.008  1.00  0.00    -0.237 OA
ATOM     88  O   UNL A   1      41.491  25.415  28.814  1.00  0.00    -0.744 OA
ENDBRANCH  81  85
ENDBRANCH  54  78
BRANCH  66  89
ATOM     89  C   UNL A   1      45.300  30.126  36.734  1.00  0.00     0.023 A 
ATOM     90  C   UNL A   1      46.501  30.847  36.625  1.00  0.00     0.031 A 
ATOM     91  C   UNL A   1      45.331  28.892  37.411  1.00  0.00     0.131 A 
ATOM     92  C   UNL A   1      47.690  30.306  37.138  1.00  0.00     0.055 A 
ATOM     93  C   UNL A   1      46.502  28.391  37.979  1.00  0.00     0.041 A 
ATOM     94  F   UNL A   1      44.215  28.158  37.543  1.00  0.00    -0.206 F 
ATOM     95  C   UNL A   1      47.694  29.093  37.832  1.00  0.00     0.022 A 
BRANCH  92  96
ATOM     96  S   UNL A   1      49.254  31.162  36.804  1.00  0.00     0.124 S 
ATOM     97  O   UNL A   1      48.877  32.561  36.978  1.00  0.00    -0.237 OA
ATOM     98  O   UNL A   1      50.137  30.608  37.824  1.00  0.00    -0.237 OA
ATOM     99  O   UNL A   1      49.572  30.773  35.431  1.00  0.00    -0.744 OA
ENDBRANCH  92  96
ENDBRANCH  66  89
ENDBRANCH  40  41
ENDBRANCH  33  35
ENDBRANCH  32  33
ENDBRANCH  31  32
ENDBRANCH  30  31
ENDBRANCH  29  30
ENDBRANCH  28  29
ENDBRANCH  27  28
ENDBRANCH   1  27
TORSDOF 26
ENDMDL
