MODEL 1
REMARK VINA RESULT:      -9.9      0.000      0.000
REMARK SMILES Cc1ccc(F)c(C(=O)N[C@@H]2C=C[C@@H](C(=O)OCCOCCOCCOCCOC(=O)c3ccc(-c4c5nc(c(-c6cc(S(=O)(=O)[O-])ccc6F)c6ccc([nH]6)c(-c6cc(S(=O)(=O)[O-])ccc6F)c6nc(c(-c7cc(S(=O)(=O)[O-])ccc7F)c7ccc4[nH]7)C=C6)C=C5)cc3)C2)c1
REMARK SMILES IDX 24 1 23 2 22 3 21 4 20 5 19 6 18 7 17 8 15 9 16 10 14 11
REMARK SMILES IDX 11 12 12 13 95 14 13 15 10 16 8 17 9 18 7 20 1 21 2 22 3 23
REMARK SMILES IDX 96 24 4 25 5 26 6 27 25 28 26 29 27 30 28 31 29 32 30 33
REMARK SMILES IDX 31 34 32 35 33 36 94 37 34 38 93 39 35 40 36 41 37 42 87 43
REMARK SMILES IDX 38 44 92 45 86 46 88 47 39 48 91 49 85 50 84 51 40 53 72 54
REMARK SMILES IDX 52 55 71 56 53 57 56 58 70 59 89 60 54 61 55 62 69 64 90 65
REMARK SMILES IDX 57 66 41 67 42 68 50 69 43 70 49 71 51 72 48 73 44 74 45 75
REMARK SMILES IDX 46 76 47 77 73 78 74 79 82 80 75 81 81 82 83 83 80 84 76 85
REMARK SMILES IDX 77 86 78 87 79 88 58 89 59 90 67 91 60 92 66 93 68 94 65 95
REMARK SMILES IDX 61 96 62 97 63 98 64 99
REMARK H PARENT 10 19 88 52 56 63
REMARK Flexibility Score: inf
ROOT
ATOM      1  C   UNL A   1      31.909  30.375  25.922  1.00  0.00     0.188 C 
ENDROOT
BRANCH   1   2
ATOM      2  O   UNL A   1      31.679  29.410  24.898  1.00  0.00    -0.377 OA
BRANCH   2   3
ATOM      3  C   UNL A   1      30.559  29.555  24.050  1.00  0.00     0.188 C 
BRANCH   3   4
ATOM      4  C   UNL A   1      30.794  29.231  22.568  1.00  0.00     0.188 C 
BRANCH   4   5
ATOM      5  O   UNL A   1      30.417  27.956  22.076  1.00  0.00    -0.376 OA
BRANCH   5   6
ATOM      6  C   UNL A   1      31.193  26.825  22.468  1.00  0.00     0.202 C 
BRANCH   6   7
ATOM      7  C   UNL A   1      32.216  26.239  21.479  1.00  0.00     0.261 C 
BRANCH   7   8
ATOM      8  O   UNL A   1      33.351  25.594  22.098  1.00  0.00    -0.463 OA
BRANCH   8   9
ATOM      9  C   UNL A   1      33.283  24.242  22.211  1.00  0.00     0.312 C 
ATOM     10  O   UNL A   1      33.521  23.463  21.291  1.00  0.00    -0.252 OA
BRANCH   9  11
ATOM     11  C   UNL A   1      32.939  23.732  23.614  1.00  0.00     0.124 C 
ATOM     12  C   UNL A   1      31.635  24.385  25.618  1.00  0.00     0.106 C 
ATOM     13  C   UNL A   1      30.835  23.563  24.661  1.00  0.00    -0.006 C 
ATOM     14  C   UNL A   1      32.905  24.699  24.805  1.00  0.00     0.048 C 
ATOM     15  C   UNL A   1      31.542  23.189  23.592  1.00  0.00    -0.014 C 
BRANCH  12  16
ATOM     16  N   UNL A   1      31.795  23.580  26.824  1.00  0.00    -0.346 N 
ATOM     17  C   UNL A   1      32.809  22.797  27.318  1.00  0.00     0.254 C 
ATOM     18  O   UNL A   1      32.722  22.399  28.479  1.00  0.00    -0.269 OA
ATOM     19  H   UNL A   1      31.003  23.602  27.409  1.00  0.00     0.164 HD
BRANCH  17  20
ATOM     20  C   UNL A   1      33.956  22.378  26.490  1.00  0.00     0.075 A 
ATOM     21  C   UNL A   1      37.307  23.694  25.338  1.00  0.00     0.044 C 
ATOM     22  C   UNL A   1      36.123  22.795  25.496  1.00  0.00    -0.050 A 
ATOM     23  C   UNL A   1      35.991  21.641  24.714  1.00  0.00     0.006 A 
ATOM     24  C   UNL A   1      35.132  23.122  26.426  1.00  0.00     0.020 A 
ATOM     25  C   UNL A   1      34.862  20.838  24.845  1.00  0.00     0.040 A 
ATOM     26  C   UNL A   1      33.847  21.213  25.722  1.00  0.00     0.135 A 
ATOM     27  F   UNL A   1      32.752  20.441  25.773  1.00  0.00    -0.206 F 
ENDBRANCH  17  20
ENDBRANCH  12  16
ENDBRANCH   9  11
ENDBRANCH   8   9
ENDBRANCH   7   8
ENDBRANCH   6   7
ENDBRANCH   5   6
ENDBRANCH   4   5
ENDBRANCH   3   4
ENDBRANCH   2   3
ENDBRANCH   1   2
BRANCH   1  28
ATOM     28  C   UNL A   1      30.968  31.579  26.082  1.00  0.00     0.188 C 
BRANCH  28  29
ATOM     29  O   UNL A   1      31.430  32.759  26.741  1.00  0.00    -0.376 OA
BRANCH  29  30
ATOM     30  C   UNL A   1      32.717  32.800  27.348  1.00  0.00     0.202 C 
BRANCH  30  31
ATOM     31  C   UNL A   1      33.095  34.041  28.148  1.00  0.00     0.261 C 
BRANCH  31  32
ATOM     32  O   UNL A   1      34.483  34.027  28.507  1.00  0.00    -0.460 OA
BRANCH  32  33
ATOM     33  C   UNL A   1      34.740  33.479  29.717  1.00  0.00     0.338 C 
ATOM     34  O   UNL A   1      34.056  33.569  30.719  1.00  0.00    -0.246 OA
BRANCH  33  35
ATOM     35  C   UNL A   1      35.895  32.572  29.615  1.00  0.00     0.060 A 
ATOM     36  C   UNL A   1      35.797  31.354  30.296  1.00  0.00     0.016 A 
ATOM     37  C   UNL A   1      37.076  32.936  28.961  1.00  0.00     0.016 A 
ATOM     38  C   UNL A   1      36.910  30.533  30.409  1.00  0.00     0.010 A 
ATOM     39  C   UNL A   1      38.199  32.111  29.081  1.00  0.00     0.010 A 
ATOM     40  C   UNL A   1      38.131  30.939  29.857  1.00  0.00    -0.014 A 
BRANCH  40  41
ATOM     41  C   UNL A   1      39.363  30.246  30.302  1.00  0.00     0.031 A 
ATOM     42  C   UNL A   1      40.020  30.710  31.575  1.00  0.00     0.074 A 
ATOM     43  C   UNL A   1      39.831  29.179  29.633  1.00  0.00     0.049 A 
ATOM     44  N   UNL A   1      41.089  30.254  32.171  1.00  0.00    -0.248 NA
ATOM     45  C   UNL A   1      39.380  31.840  32.270  1.00  0.00     0.031 C 
ATOM     46  C   UNL A   1      39.232  28.614  28.423  1.00  0.00     0.029 A 
ATOM     47  N   UNL A   1      40.914  28.377  29.879  1.00  0.00    -0.354 N 
ATOM     48  C   UNL A   1      41.258  31.047  33.302  1.00  0.00     0.074 A 
ATOM     49  C   UNL A   1      40.201  32.033  33.291  1.00  0.00     0.031 C 
ATOM     50  C   UNL A   1      39.965  27.559  28.028  1.00  0.00     0.029 A 
ATOM     51  C   UNL A   1      41.103  27.399  28.930  1.00  0.00     0.049 A 
ATOM     52  H   UNL A   1      41.502  28.490  30.660  1.00  0.00     0.167 HD
ATOM     53  C   UNL A   1      42.208  30.953  34.265  1.00  0.00     0.034 A 
ATOM     54  C   UNL A   1      42.099  26.500  28.796  1.00  0.00     0.034 A 
ATOM     55  C   UNL A   1      43.252  29.959  34.256  1.00  0.00     0.049 A 
ATOM     56  C   UNL A   1      43.191  26.467  29.840  1.00  0.00     0.074 A 
ATOM     57  C   UNL A   1      44.250  29.751  35.190  1.00  0.00     0.029 A 
ATOM     58  N   UNL A   1      43.443  29.017  33.253  1.00  0.00    -0.354 N 
ATOM     59  N   UNL A   1      43.327  27.208  30.917  1.00  0.00    -0.248 NA
ATOM     60  C   UNL A   1      44.253  25.470  29.658  1.00  0.00     0.031 C 
ATOM     61  C   UNL A   1      45.094  28.744  34.711  1.00  0.00     0.029 A 
ATOM     62  C   UNL A   1      44.569  28.257  33.523  1.00  0.00     0.049 A 
ATOM     63  H   UNL A   1      42.863  28.905  32.465  1.00  0.00     0.167 HD
ATOM     64  C   UNL A   1      44.474  26.741  31.556  1.00  0.00     0.074 A 
ATOM     65  C   UNL A   1      44.977  25.645  30.754  1.00  0.00     0.031 C 
ATOM     66  C   UNL A   1      45.058  27.172  32.705  1.00  0.00     0.034 A 
BRANCH  53  67
ATOM     67  C   UNL A   1      42.199  31.989  35.363  1.00  0.00     0.023 A 
ATOM     68  C   UNL A   1      41.302  31.930  36.444  1.00  0.00     0.031 A 
ATOM     69  C   UNL A   1      43.101  33.068  35.317  1.00  0.00     0.131 A 
ATOM     70  C   UNL A   1      41.286  32.959  37.399  1.00  0.00     0.055 A 
ATOM     71  C   UNL A   1      43.134  34.046  36.311  1.00  0.00     0.041 A 
ATOM     72  F   UNL A   1      43.961  33.194  34.293  1.00  0.00    -0.206 F 
ATOM     73  C   UNL A   1      42.215  34.002  37.354  1.00  0.00     0.022 A 
BRANCH  70  74
ATOM     74  S   UNL A   1      39.949  32.991  38.624  1.00  0.00     0.124 S 
ATOM     75  O   UNL A   1      38.916  32.204  37.955  1.00  0.00    -0.237 OA
ATOM     76  O   UNL A   1      40.573  32.370  39.787  1.00  0.00    -0.237 OA
ATOM     77  O   UNL A   1      39.645  34.413  38.764  1.00  0.00    -0.744 OA
ENDBRANCH  70  74
ENDBRANCH  53  67
BRANCH  54  78
ATOM     78  C   UNL A   1      42.147  25.594  27.611  1.00  0.00     0.023 A 
ATOM     79  C   UNL A   1      41.596  24.304  27.652  1.00  0.00     0.031 A 
ATOM     80  C   UNL A   1      42.815  25.985  26.436  1.00  0.00     0.131 A 
ATOM     81  C   UNL A   1      41.773  23.432  26.566  1.00  0.00     0.055 A 
ATOM     82  C   UNL A   1      42.934  25.137  25.333  1.00  0.00     0.041 A 
ATOM     83  F   UNL A   1      43.365  27.207  26.341  1.00  0.00    -0.206 F 
ATOM     84  C   UNL A   1      42.425  23.845  25.402  1.00  0.00     0.022 A 
BRANCH  81  85
ATOM     85  S   UNL A   1      41.238  21.708  26.742  1.00  0.00     0.124 S 
ATOM     86  O   UNL A   1      42.003  21.052  25.688  1.00  0.00    -0.237 OA
ATOM     87  O   UNL A   1      41.641  21.407  28.111  1.00  0.00    -0.237 OA
ATOM     88  O   UNL A   1      39.796  21.776  26.518  1.00  0.00    -0.744 OA
ENDBRANCH  81  85
ENDBRANCH  54  78
BRANCH  66  89
ATOM     89  C   UNL A   1      46.278  26.420  33.182  1.00  0.00     0.023 A 
ATOM     90  C   UNL A   1      47.575  26.770  32.767  1.00  0.00     0.031 A 
ATOM     91  C   UNL A   1      46.138  25.332  34.062  1.00  0.00     0.131 A 
ATOM     92  C   UNL A   1      48.673  26.001  33.183  1.00  0.00     0.055 A 
ATOM     93  C   UNL A   1      47.240  24.615  34.529  1.00  0.00     0.041 A 
ATOM     94  F   UNL A   1      44.923  24.951  34.489  1.00  0.00    -0.206 F 
ATOM     95  C   UNL A   1      48.516  24.939  34.077  1.00  0.00     0.022 A 
BRANCH  92  96
ATOM     96  S   UNL A   1      50.299  26.342  32.457  1.00  0.00     0.124 S 
ATOM     97  O   UNL A   1      50.447  25.237  31.514  1.00  0.00    -0.237 OA
ATOM     98  O   UNL A   1      50.106  27.662  31.865  1.00  0.00    -0.237 OA
ATOM     99  O   UNL A   1      51.203  26.304  33.605  1.00  0.00    -0.744 OA
ENDBRANCH  92  96
ENDBRANCH  66  89
ENDBRANCH  40  41
ENDBRANCH  33  35
ENDBRANCH  32  33
ENDBRANCH  31  32
ENDBRANCH  30  31
ENDBRANCH  29  30
ENDBRANCH  28  29
ENDBRANCH   1  28
TORSDOF 25
ENDMDL
MODEL 2
REMARK VINA RESULT:      -9.6      2.166      2.930
REMARK SMILES Cc1ccc(F)c(C(=O)N[C@@H]2C=C[C@@H](C(=O)OCCOCCOCCOCCOC(=O)c3ccc(-c4c5nc(c(-c6cc(S(=O)(=O)[O-])ccc6F)c6ccc([nH]6)c(-c6cc(S(=O)(=O)[O-])ccc6F)c6nc(c(-c7cc(S(=O)(=O)[O-])ccc7F)c7ccc4[nH]7)C=C6)C=C5)cc3)C2)c1
REMARK SMILES IDX 24 1 23 2 22 3 21 4 20 5 19 6 18 7 17 8 15 9 16 10 14 11
REMARK SMILES IDX 11 12 12 13 95 14 13 15 10 16 8 17 9 18 7 20 1 21 2 22 3 23
REMARK SMILES IDX 96 24 4 25 5 26 6 27 25 28 26 29 27 30 28 31 29 32 30 33
REMARK SMILES IDX 31 34 32 35 33 36 94 37 34 38 93 39 35 40 36 41 37 42 87 43
REMARK SMILES IDX 38 44 92 45 86 46 88 47 39 48 91 49 85 50 84 51 40 53 72 54
REMARK SMILES IDX 52 55 71 56 53 57 56 58 70 59 89 60 54 61 55 62 69 64 90 65
REMARK SMILES IDX 57 66 41 67 42 68 50 69 43 70 49 71 51 72 48 73 44 74 45 75
REMARK SMILES IDX 46 76 47 77 73 78 74 79 82 80 75 81 81 82 83 83 80 84 76 85
REMARK SMILES IDX 77 86 78 87 79 88 58 89 59 90 67 91 60 92 66 93 68 94 65 95
REMARK SMILES IDX 61 96 62 97 63 98 64 99
REMARK H PARENT 10 19 88 52 56 63
REMARK Flexibility Score: inf
ROOT
ATOM      1  C   UNL A   1      34.014  31.148  27.989  1.00  0.00     0.188 C 
ENDROOT
BRANCH   1   2
ATOM      2  O   UNL A   1      33.835  29.979  27.192  1.00  0.00    -0.377 OA
BRANCH   2   3
ATOM      3  C   UNL A   1      33.082  30.063  26.001  1.00  0.00     0.188 C 
BRANCH   3   4
ATOM      4  C   UNL A   1      32.101  28.910  25.745  1.00  0.00     0.188 C 
BRANCH   4   5
ATOM      5  O   UNL A   1      31.493  28.268  26.854  1.00  0.00    -0.376 OA
BRANCH   5   6
ATOM      6  C   UNL A   1      31.466  26.843  26.878  1.00  0.00     0.202 C 
BRANCH   6   7
ATOM      7  C   UNL A   1      31.507  26.070  25.547  1.00  0.00     0.261 C 
BRANCH   7   8
ATOM      8  O   UNL A   1      30.843  24.787  25.575  1.00  0.00    -0.463 OA
BRANCH   8   9
ATOM      9  C   UNL A   1      31.287  23.904  26.506  1.00  0.00     0.312 C 
ATOM     10  O   UNL A   1      30.661  23.601  27.519  1.00  0.00    -0.252 OA
BRANCH   9  11
ATOM     11  C   UNL A   1      32.630  23.244  26.177  1.00  0.00     0.124 C 
ATOM     12  C   UNL A   1      35.009  23.303  26.871  1.00  0.00     0.106 C 
ATOM     13  C   UNL A   1      34.218  22.291  27.634  1.00  0.00    -0.006 C 
ATOM     14  C   UNL A   1      33.914  24.084  26.120  1.00  0.00     0.048 C 
ATOM     15  C   UNL A   1      32.941  22.240  27.245  1.00  0.00    -0.014 C 
BRANCH  12  16
ATOM     16  N   UNL A   1      35.970  22.557  26.066  1.00  0.00    -0.346 N 
ATOM     17  C   UNL A   1      35.868  21.784  24.936  1.00  0.00     0.254 C 
ATOM     18  O   UNL A   1      36.904  21.446  24.367  1.00  0.00    -0.269 OA
ATOM     19  H   UNL A   1      36.891  22.621  26.408  1.00  0.00     0.164 HD
BRANCH  17  20
ATOM     20  C   UNL A   1      34.569  21.305  24.424  1.00  0.00     0.075 A 
ATOM     21  C   UNL A   1      32.399  18.212  24.529  1.00  0.00     0.044 C 
ATOM     22  C   UNL A   1      32.883  19.584  24.188  1.00  0.00    -0.050 A 
ATOM     23  C   UNL A   1      32.220  20.360  23.230  1.00  0.00     0.006 A 
ATOM     24  C   UNL A   1      34.019  20.089  24.826  1.00  0.00     0.020 A 
ATOM     25  C   UNL A   1      32.708  21.619  22.895  1.00  0.00     0.040 A 
ATOM     26  C   UNL A   1      33.883  22.082  23.484  1.00  0.00     0.135 A 
ATOM     27  F   UNL A   1      34.349  23.275  23.089  1.00  0.00    -0.206 F 
ENDBRANCH  17  20
ENDBRANCH  12  16
ENDBRANCH   9  11
ENDBRANCH   8   9
ENDBRANCH   7   8
ENDBRANCH   6   7
ENDBRANCH   5   6
ENDBRANCH   4   5
ENDBRANCH   3   4
ENDBRANCH   2   3
ENDBRANCH   1   2
BRANCH   1  28
ATOM     28  C   UNL A   1      35.118  32.161  27.647  1.00  0.00     0.188 C 
BRANCH  28  29
ATOM     29  O   UNL A   1      34.821  33.558  27.629  1.00  0.00    -0.376 OA
BRANCH  29  30
ATOM     30  C   UNL A   1      33.531  34.034  28.001  1.00  0.00     0.202 C 
BRANCH  30  31
ATOM     31  C   UNL A   1      33.430  34.972  29.199  1.00  0.00     0.261 C 
BRANCH  31  32
ATOM     32  O   UNL A   1      33.453  34.243  30.433  1.00  0.00    -0.460 OA
BRANCH  32  33
ATOM     33  C   UNL A   1      34.499  34.541  31.236  1.00  0.00     0.338 C 
ATOM     34  O   UNL A   1      34.512  35.341  32.153  1.00  0.00    -0.246 OA
BRANCH  33  35
ATOM     35  C   UNL A   1      35.607  33.608  30.972  1.00  0.00     0.060 A 
ATOM     36  C   UNL A   1      35.458  32.306  31.461  1.00  0.00     0.016 A 
ATOM     37  C   UNL A   1      36.796  34.013  30.358  1.00  0.00     0.016 A 
ATOM     38  C   UNL A   1      36.532  31.426  31.424  1.00  0.00     0.010 A 
ATOM     39  C   UNL A   1      37.878  33.128  30.326  1.00  0.00     0.010 A 
ATOM     40  C   UNL A   1      37.763  31.855  30.914  1.00  0.00    -0.014 A 
BRANCH  40  41
ATOM     41  C   UNL A   1      38.965  31.045  31.222  1.00  0.00     0.031 A 
ATOM     42  C   UNL A   1      39.727  31.353  32.484  1.00  0.00     0.074 A 
ATOM     43  C   UNL A   1      39.316  30.011  30.439  1.00  0.00     0.049 A 
ATOM     44  N   UNL A   1      40.793  30.777  32.972  1.00  0.00    -0.248 NA
ATOM     45  C   UNL A   1      39.212  32.459  33.309  1.00  0.00     0.031 C 
ATOM     46  C   UNL A   1      38.609  29.593  29.229  1.00  0.00     0.029 A 
ATOM     47  N   UNL A   1      40.350  29.119  30.550  1.00  0.00    -0.354 N 
ATOM     48  C   UNL A   1      41.084  31.457  34.151  1.00  0.00     0.074 A 
ATOM     49  C   UNL A   1      40.102  32.508  34.287  1.00  0.00     0.031 C 
ATOM     50  C   UNL A   1      39.239  28.529  28.702  1.00  0.00     0.029 A 
ATOM     51  C   UNL A   1      40.413  28.217  29.515  1.00  0.00     0.049 A 
ATOM     52  H   UNL A   1      40.989  29.125  31.299  1.00  0.00     0.167 HD
ATOM     53  C   UNL A   1      42.078  31.217  35.040  1.00  0.00     0.034 A 
ATOM     54  C   UNL A   1      41.332  27.267  29.244  1.00  0.00     0.034 A 
ATOM     55  C   UNL A   1      43.045  30.159  34.883  1.00  0.00     0.049 A 
ATOM     56  C   UNL A   1      42.477  27.072  30.211  1.00  0.00     0.074 A 
ATOM     57  C   UNL A   1      44.078  29.805  35.733  1.00  0.00     0.029 A 
ATOM     58  N   UNL A   1      43.110  29.295  33.797  1.00  0.00    -0.354 N 
ATOM     59  N   UNL A   1      42.729  27.706  31.334  1.00  0.00    -0.248 NA
ATOM     60  C   UNL A   1      43.452  26.025  29.880  1.00  0.00     0.031 C 
ATOM     61  C   UNL A   1      44.818  28.789  35.120  1.00  0.00     0.029 A 
ATOM     62  C   UNL A   1      44.192  28.441  33.932  1.00  0.00     0.049 A 
ATOM     63  H   UNL A   1      42.479  29.291  33.041  1.00  0.00     0.167 HD
ATOM     64  C   UNL A   1      43.874  27.110  31.858  1.00  0.00     0.074 A 
ATOM     65  C   UNL A   1      44.249  26.055  30.938  1.00  0.00     0.031 C 
ATOM     66  C   UNL A   1      44.553  27.400  32.998  1.00  0.00     0.034 A 
BRANCH  53  67
ATOM     67  C   UNL A   1      42.208  32.152  36.218  1.00  0.00     0.023 A 
ATOM     68  C   UNL A   1      41.412  32.025  37.370  1.00  0.00     0.031 A 
ATOM     69  C   UNL A   1      43.139  33.206  36.177  1.00  0.00     0.131 A 
ATOM     70  C   UNL A   1      41.522  32.966  38.405  1.00  0.00     0.055 A 
ATOM     71  C   UNL A   1      43.299  34.092  37.243  1.00  0.00     0.041 A 
ATOM     72  F   UNL A   1      43.906  33.397  35.091  1.00  0.00    -0.206 F 
ATOM     73  C   UNL A   1      42.479  33.983  38.360  1.00  0.00     0.022 A 
BRANCH  70  74
ATOM     74  S   UNL A   1      40.305  32.928  39.750  1.00  0.00     0.124 S 
ATOM     75  O   UNL A   1      39.106  32.472  39.051  1.00  0.00    -0.237 OA
ATOM     76  O   UNL A   1      40.899  31.979  40.685  1.00  0.00    -0.237 OA
ATOM     77  O   UNL A   1      40.259  34.313  40.211  1.00  0.00    -0.744 OA
ENDBRANCH  70  74
ENDBRANCH  53  67
BRANCH  54  78
ATOM     78  C   UNL A   1      41.246  26.465  27.989  1.00  0.00     0.023 A 
ATOM     79  C   UNL A   1      40.851  25.119  28.005  1.00  0.00     0.031 A 
ATOM     80  C   UNL A   1      41.631  27.021  26.754  1.00  0.00     0.131 A 
ATOM     81  C   UNL A   1      40.906  24.359  26.826  1.00  0.00     0.055 A 
ATOM     82  C   UNL A   1      41.624  26.278  25.572  1.00  0.00     0.041 A 
ATOM     83  F   UNL A   1      42.023  28.303  26.679  1.00  0.00    -0.206 F 
ATOM     84  C   UNL A   1      41.275  24.933  25.608  1.00  0.00     0.022 A 
BRANCH  81  85
ATOM     85  S   UNL A   1      40.597  22.574  26.929  1.00  0.00     0.124 S 
ATOM     86  O   UNL A   1      39.227  22.482  26.439  1.00  0.00    -0.237 OA
ATOM     87  O   UNL A   1      41.631  22.039  26.049  1.00  0.00    -0.237 OA
ATOM     88  O   UNL A   1      40.775  22.280  28.349  1.00  0.00    -0.744 OA
ENDBRANCH  81  85
ENDBRANCH  54  78
BRANCH  66  89
ATOM     89  C   UNL A   1      45.741  26.530  33.333  1.00  0.00     0.023 A 
ATOM     90  C   UNL A   1      45.601  25.322  34.038  1.00  0.00     0.031 A 
ATOM     91  C   UNL A   1      47.035  26.921  32.944  1.00  0.00     0.131 A 
ATOM     92  C   UNL A   1      46.740  24.580  34.386  1.00  0.00     0.055 A 
ATOM     93  C   UNL A   1      48.157  26.143  33.230  1.00  0.00     0.041 A 
ATOM     94  F   UNL A   1      47.229  28.066  32.270  1.00  0.00    -0.206 F 
ATOM     95  C   UNL A   1      48.014  24.971  33.969  1.00  0.00     0.022 A 
BRANCH  92  96
ATOM     96  S   UNL A   1      46.545  23.148  35.482  1.00  0.00     0.124 S 
ATOM     97  O   UNL A   1      47.678  23.305  36.389  1.00  0.00    -0.237 OA
ATOM     98  O   UNL A   1      45.227  23.378  36.064  1.00  0.00    -0.237 OA
ATOM     99  O   UNL A   1      46.631  22.006  34.573  1.00  0.00    -0.744 OA
ENDBRANCH  92  96
ENDBRANCH  66  89
ENDBRANCH  40  41
ENDBRANCH  33  35
ENDBRANCH  32  33
ENDBRANCH  31  32
ENDBRANCH  30  31
ENDBRANCH  29  30
ENDBRANCH  28  29
ENDBRANCH   1  28
TORSDOF 25
ENDMDL
MODEL 3
REMARK VINA RESULT:      -9.4      3.021      3.970
REMARK SMILES Cc1ccc(F)c(C(=O)N[C@@H]2C=C[C@@H](C(=O)OCCOCCOCCOCCOC(=O)c3ccc(-c4c5nc(c(-c6cc(S(=O)(=O)[O-])ccc6F)c6ccc([nH]6)c(-c6cc(S(=O)(=O)[O-])ccc6F)c6nc(c(-c7cc(S(=O)(=O)[O-])ccc7F)c7ccc4[nH]7)C=C6)C=C5)cc3)C2)c1
REMARK SMILES IDX 24 1 23 2 22 3 21 4 20 5 19 6 18 7 17 8 15 9 16 10 14 11
REMARK SMILES IDX 11 12 12 13 95 14 13 15 10 16 8 17 9 18 7 20 1 21 2 22 3 23
REMARK SMILES IDX 96 24 4 25 5 26 6 27 25 28 26 29 27 30 28 31 29 32 30 33
REMARK SMILES IDX 31 34 32 35 33 36 94 37 34 38 93 39 35 40 36 41 37 42 87 43
REMARK SMILES IDX 38 44 92 45 86 46 88 47 39 48 91 49 85 50 84 51 40 53 72 54
REMARK SMILES IDX 52 55 71 56 53 57 56 58 70 59 89 60 54 61 55 62 69 64 90 65
REMARK SMILES IDX 57 66 41 67 42 68 50 69 43 70 49 71 51 72 48 73 44 74 45 75
REMARK SMILES IDX 46 76 47 77 73 78 74 79 82 80 75 81 81 82 83 83 80 84 76 85
REMARK SMILES IDX 77 86 78 87 79 88 58 89 59 90 67 91 60 92 66 93 68 94 65 95
REMARK SMILES IDX 61 96 62 97 63 98 64 99
REMARK H PARENT 10 19 88 52 56 63
REMARK Flexibility Score: inf
ROOT
ATOM      1  C   UNL A   1      35.058  30.466  28.140  1.00  0.00     0.188 C 
ENDROOT
BRANCH   1   2
ATOM      2  O   UNL A   1      34.882  29.551  27.062  1.00  0.00    -0.377 OA
BRANCH   2   3
ATOM      3  C   UNL A   1      33.744  29.671  26.232  1.00  0.00     0.188 C 
BRANCH   3   4
ATOM      4  C   UNL A   1      33.244  28.370  25.589  1.00  0.00     0.188 C 
BRANCH   4   5
ATOM      5  O   UNL A   1      33.404  28.190  24.192  1.00  0.00    -0.376 OA
BRANCH   5   6
ATOM      6  C   UNL A   1      32.578  28.952  23.314  1.00  0.00     0.202 C 
BRANCH   6   7
ATOM      7  C   UNL A   1      31.152  28.460  23.012  1.00  0.00     0.261 C 
BRANCH   7   8
ATOM      8  O   UNL A   1      30.374  28.115  24.180  1.00  0.00    -0.463 OA
BRANCH   8   9
ATOM      9  C   UNL A   1      29.545  27.047  24.053  1.00  0.00     0.312 C 
ATOM     10  O   UNL A   1      28.449  27.089  23.499  1.00  0.00    -0.252 OA
BRANCH   9  11
ATOM     11  C   UNL A   1      30.102  25.732  24.609  1.00  0.00     0.124 C 
ATOM     12  C   UNL A   1      32.232  24.745  25.406  1.00  0.00     0.106 C 
ATOM     13  C   UNL A   1      31.445  25.371  26.511  1.00  0.00    -0.006 C 
ATOM     14  C   UNL A   1      31.473  25.215  24.150  1.00  0.00     0.048 C 
ATOM     15  C   UNL A   1      30.286  25.882  26.089  1.00  0.00    -0.014 C 
BRANCH  12  16
ATOM     16  N   UNL A   1      32.258  23.312  25.674  1.00  0.00    -0.346 N 
ATOM     17  C   UNL A   1      33.251  22.363  25.687  1.00  0.00     0.254 C 
ATOM     18  O   UNL A   1      32.991  21.256  26.156  1.00  0.00    -0.269 OA
ATOM     19  H   UNL A   1      31.370  22.945  25.893  1.00  0.00     0.164 HD
BRANCH  17  20
ATOM     20  C   UNL A   1      34.586  22.613  25.109  1.00  0.00     0.075 A 
ATOM     21  C   UNL A   1      38.036  23.704  26.201  1.00  0.00     0.044 C 
ATOM     22  C   UNL A   1      36.902  23.283  25.323  1.00  0.00    -0.050 A 
ATOM     23  C   UNL A   1      37.027  23.309  23.929  1.00  0.00     0.006 A 
ATOM     24  C   UNL A   1      35.699  22.873  25.905  1.00  0.00     0.020 A 
ATOM     25  C   UNL A   1      35.947  22.953  23.126  1.00  0.00     0.040 A 
ATOM     26  C   UNL A   1      34.731  22.617  23.717  1.00  0.00     0.135 A 
ATOM     27  F   UNL A   1      33.701  22.338  22.905  1.00  0.00    -0.206 F 
ENDBRANCH  17  20
ENDBRANCH  12  16
ENDBRANCH   9  11
ENDBRANCH   8   9
ENDBRANCH   7   8
ENDBRANCH   6   7
ENDBRANCH   5   6
ENDBRANCH   4   5
ENDBRANCH   3   4
ENDBRANCH   2   3
ENDBRANCH   1   2
BRANCH   1  28
ATOM     28  C   UNL A   1      35.909  31.732  27.955  1.00  0.00     0.188 C 
BRANCH  28  29
ATOM     29  O   UNL A   1      35.272  32.998  27.775  1.00  0.00    -0.376 OA
BRANCH  29  30
ATOM     30  C   UNL A   1      33.855  33.092  27.664  1.00  0.00     0.202 C 
BRANCH  30  31
ATOM     31  C   UNL A   1      33.149  34.212  28.418  1.00  0.00     0.261 C 
BRANCH  31  32
ATOM     32  O   UNL A   1      34.046  34.885  29.312  1.00  0.00    -0.460 OA
BRANCH  32  33
ATOM     33  C   UNL A   1      33.634  34.908  30.600  1.00  0.00     0.338 C 
ATOM     34  O   UNL A   1      32.528  35.209  31.008  1.00  0.00    -0.246 OA
BRANCH  33  35
ATOM     35  C   UNL A   1      34.673  34.322  31.463  1.00  0.00     0.060 A 
ATOM     36  C   UNL A   1      35.922  34.953  31.455  1.00  0.00     0.016 A 
ATOM     37  C   UNL A   1      34.471  33.139  32.181  1.00  0.00     0.016 A 
ATOM     38  C   UNL A   1      37.004  34.355  32.087  1.00  0.00     0.010 A 
ATOM     39  C   UNL A   1      35.563  32.535  32.811  1.00  0.00     0.010 A 
ATOM     40  C   UNL A   1      36.842  33.113  32.712  1.00  0.00    -0.014 A 
BRANCH  40  41
ATOM     41  C   UNL A   1      38.058  32.335  33.044  1.00  0.00     0.031 A 
ATOM     42  C   UNL A   1      38.747  32.614  34.354  1.00  0.00     0.074 A 
ATOM     43  C   UNL A   1      38.485  31.348  32.237  1.00  0.00     0.049 A 
ATOM     44  N   UNL A   1      39.810  32.056  34.868  1.00  0.00    -0.248 NA
ATOM     45  C   UNL A   1      38.152  33.664  35.198  1.00  0.00     0.031 C 
ATOM     46  C   UNL A   1      37.852  30.959  30.977  1.00  0.00     0.029 A 
ATOM     47  N   UNL A   1      39.546  30.491  32.361  1.00  0.00    -0.354 N 
ATOM     48  C   UNL A   1      40.019  32.694  36.088  1.00  0.00     0.074 A 
ATOM     49  C   UNL A   1      38.992  33.703  36.220  1.00  0.00     0.031 C 
ATOM     50  C   UNL A   1      38.546  29.942  30.438  1.00  0.00     0.029 A 
ATOM     51  C   UNL A   1      39.692  29.637  31.293  1.00  0.00     0.049 A 
ATOM     52  H   UNL A   1      40.148  30.487  33.139  1.00  0.00     0.167 HD
ATOM     53  C   UNL A   1      40.979  32.451  37.014  1.00  0.00     0.034 A 
ATOM     54  C   UNL A   1      40.658  28.734  31.027  1.00  0.00     0.034 A 
ATOM     55  C   UNL A   1      41.992  31.437  36.860  1.00  0.00     0.049 A 
ATOM     56  C   UNL A   1      41.763  28.538  32.040  1.00  0.00     0.074 A 
ATOM     57  C   UNL A   1      42.997  31.084  37.743  1.00  0.00     0.029 A 
ATOM     58  N   UNL A   1      42.141  30.625  35.742  1.00  0.00    -0.354 N 
ATOM     59  N   UNL A   1      41.937  29.132  33.199  1.00  0.00    -0.248 NA
ATOM     60  C   UNL A   1      42.792  27.543  31.714  1.00  0.00     0.031 C 
ATOM     61  C   UNL A   1      43.803  30.123  37.125  1.00  0.00     0.029 A 
ATOM     62  C   UNL A   1      43.247  29.805  35.895  1.00  0.00     0.049 A 
ATOM     63  H   UNL A   1      41.547  30.631  34.957  1.00  0.00     0.167 HD
ATOM     64  C   UNL A   1      43.078  28.555  33.754  1.00  0.00     0.074 A 
ATOM     65  C   UNL A   1      43.536  27.556  32.810  1.00  0.00     0.031 C 
ATOM     66  C   UNL A   1      43.691  28.820  34.936  1.00  0.00     0.034 A 
BRANCH  53  67
ATOM     67  C   UNL A   1      41.017  33.339  38.234  1.00  0.00     0.023 A 
ATOM     68  C   UNL A   1      40.241  33.078  39.377  1.00  0.00     0.031 A 
ATOM     69  C   UNL A   1      41.839  34.481  38.245  1.00  0.00     0.131 A 
ATOM     70  C   UNL A   1      40.259  33.976  40.456  1.00  0.00     0.055 A 
ATOM     71  C   UNL A   1      41.911  35.327  39.352  1.00  0.00     0.041 A 
ATOM     72  F   UNL A   1      42.580  34.799  37.171  1.00  0.00    -0.206 F 
ATOM     73  C   UNL A   1      41.109  35.085  40.461  1.00  0.00     0.022 A 
BRANCH  70  74
ATOM     74  S   UNL A   1      39.055  33.753  41.794  1.00  0.00     0.124 S 
ATOM     75  O   UNL A   1      39.841  33.011  42.777  1.00  0.00    -0.237 OA
ATOM     76  O   UNL A   1      38.721  35.127  42.150  1.00  0.00    -0.237 OA
ATOM     77  O   UNL A   1      37.979  32.991  41.165  1.00  0.00    -0.744 OA
ENDBRANCH  70  74
ENDBRANCH  53  67
BRANCH  54  78
ATOM     78  C   UNL A   1      40.662  27.985  29.737  1.00  0.00     0.023 A 
ATOM     79  C   UNL A   1      41.589  28.276  28.724  1.00  0.00     0.031 A 
ATOM     80  C   UNL A   1      39.684  27.009  29.471  1.00  0.00     0.131 A 
ATOM     81  C   UNL A   1      41.483  27.643  27.476  1.00  0.00     0.055 A 
ATOM     82  C   UNL A   1      39.621  26.336  28.249  1.00  0.00     0.041 A 
ATOM     83  F   UNL A   1      38.769  26.692  30.401  1.00  0.00    -0.206 F 
ATOM     84  C   UNL A   1      40.516  26.665  27.236  1.00  0.00     0.022 A 
BRANCH  81  85
ATOM     85  S   UNL A   1      42.560  28.200  26.126  1.00  0.00     0.124 S 
ATOM     86  O   UNL A   1      43.838  27.611  26.505  1.00  0.00    -0.237 OA
ATOM     87  O   UNL A   1      41.904  27.619  24.959  1.00  0.00    -0.237 OA
ATOM     88  O   UNL A   1      42.491  29.657  26.217  1.00  0.00    -0.744 OA
ENDBRANCH  81  85
ENDBRANCH  54  78
BRANCH  66  89
ATOM     89  C   UNL A   1      44.895  27.979  35.292  1.00  0.00     0.023 A 
ATOM     90  C   UNL A   1      44.767  26.730  35.924  1.00  0.00     0.031 A 
ATOM     91  C   UNL A   1      46.191  28.440  34.998  1.00  0.00     0.131 A 
ATOM     92  C   UNL A   1      45.916  26.015  36.296  1.00  0.00     0.055 A 
ATOM     93  C   UNL A   1      47.326  27.692  35.306  1.00  0.00     0.041 A 
ATOM     94  F   UNL A   1      46.373  29.627  34.397  1.00  0.00    -0.206 F 
ATOM     95  C   UNL A   1      47.193  26.478  35.973  1.00  0.00     0.022 A 
BRANCH  92  96
ATOM     96  S   UNL A   1      45.721  24.519  37.304  1.00  0.00     0.124 S 
ATOM     97  O   UNL A   1      44.854  24.990  38.380  1.00  0.00    -0.237 OA
ATOM     98  O   UNL A   1      45.115  23.585  36.361  1.00  0.00    -0.237 OA
ATOM     99  O   UNL A   1      47.089  24.195  37.704  1.00  0.00    -0.744 OA
ENDBRANCH  92  96
ENDBRANCH  66  89
ENDBRANCH  40  41
ENDBRANCH  33  35
ENDBRANCH  32  33
ENDBRANCH  31  32
ENDBRANCH  30  31
ENDBRANCH  29  30
ENDBRANCH  28  29
ENDBRANCH   1  28
TORSDOF 25
ENDMDL
