MODEL 1
REMARK VINA RESULT:     -12.1      0.000      0.000
REMARK SMILES Cc1cccc(O[C@H](C)C(=O)NNC(=O)[C@H]2[C@@H]3CC[C@@H](C3)[C@@H]2C(=O)OCCOCCOCCOCCOC(=O)c2ccc(-c3c4nc(c(-c5cc(S(=O)(=O)[O-])ccc5F)c5ccc([nH]5)c(-c5cc(S(=O)(=O)[O-])ccc5F)c5nc(c(-c6cc(S(=O)(=O)[O-])ccc6F)c6ccc3[nH]6)C=C5)C=C4)cc2)c1
REMARK SMILES IDX 30 1 29 2 28 3 27 4 26 5 25 6 23 7 24 8 22 9 16 10 17 11
REMARK SMILES IDX 18 12 21 13 20 14 19 15 14 16 13 17 15 19 12 20 10 21 11 22
REMARK SMILES IDX 8 24 9 25 7 26 6 27 1 28 2 29 3 30 103 31 4 32 5 33 31 34
REMARK SMILES IDX 32 35 33 36 34 37 35 38 36 39 37 40 38 41 39 42 40 43 41 44
REMARK SMILES IDX 102 45 42 46 101 47 43 48 44 49 45 50 95 51 46 52 100 53
REMARK SMILES IDX 94 54 96 55 47 56 99 57 93 58 92 59 48 61 80 62 60 63 79 64
REMARK SMILES IDX 61 65 64 66 78 67 97 68 62 69 63 70 77 72 98 73 65 74 49 75
REMARK SMILES IDX 50 76 58 77 51 78 57 79 59 80 56 81 52 82 53 83 54 84 55 85
REMARK SMILES IDX 81 86 82 87 90 88 83 89 89 90 91 91 88 92 84 93 85 94 86 95
REMARK SMILES IDX 87 96 66 97 67 98 75 99 68 100 74 101 76 102 73 103 69 104
REMARK SMILES IDX 70 105 71 106 72 107
REMARK H PARENT 13 18 12 23 96 60 64 71
REMARK Flexibility Score: inf
ROOT
ATOM      1  C   UNL A   1      32.688  30.724  27.246  1.00  0.00     0.188 C 
ENDROOT
BRANCH   1   2
ATOM      2  C   UNL A   1      31.757  30.680  25.820  1.00  0.00     0.188 C 
BRANCH   2   3
ATOM      3  O   UNL A   1      30.304  31.491  25.197  1.00  0.00    -0.376 OA
BRANCH   3   4
ATOM      4  C   UNL A   1      29.156  31.207  23.863  1.00  0.00     0.202 C 
BRANCH   4   5
ATOM      5  C   UNL A   1      29.123  29.873  22.496  1.00  0.00     0.261 C 
BRANCH   5   6
ATOM      6  O   UNL A   1      29.900  28.262  22.513  1.00  0.00    -0.463 OA
BRANCH   6   7
ATOM      7  C   UNL A   1      30.348  27.189  23.348  1.00  0.00     0.310 C 
ATOM      8  O   UNL A   1      29.712  26.211  23.749  1.00  0.00    -0.252 OA
BRANCH   7   9
ATOM      9  C   UNL A   1      31.868  26.981  23.663  1.00  0.00     0.115 C 
ATOM     10  C   UNL A   1      32.306  25.457  23.592  1.00  0.00     0.098 C 
ATOM     11  C   UNL A   1      33.003  25.229  24.956  1.00  0.00     0.003 C 
ATOM     12  C   UNL A   1      31.928  25.206  26.064  1.00  0.00     0.005 C 
ATOM     13  C   UNL A   1      33.655  26.579  25.230  1.00  0.00     0.009 C 
ATOM     14  C   UNL A   1      32.340  27.366  25.089  1.00  0.00     0.004 C 
ATOM     15  C   UNL A   1      31.537  26.684  26.195  1.00  0.00     0.005 C 
BRANCH  10  16
ATOM     16  C   UNL A   1      33.112  24.853  22.417  1.00  0.00     0.242 C 
ATOM     17  N   UNL A   1      33.246  23.526  22.115  1.00  0.00    -0.267 N 
ATOM     18  H   UNL A   1      33.882  23.310  21.394  1.00  0.00     0.191 HD
ATOM     19  O   UNL A   1      33.669  25.634  21.626  1.00  0.00    -0.273 OA
BRANCH  17  20
ATOM     20  N   UNL A   1      32.607  22.462  22.690  1.00  0.00    -0.264 N 
ATOM     21  C   UNL A   1      32.940  21.758  23.804  1.00  0.00     0.279 C 
ATOM     22  O   UNL A   1      32.150  20.842  24.087  1.00  0.00    -0.269 OA
ATOM     23  H   UNL A   1      31.789  22.163  22.232  1.00  0.00     0.191 HD
BRANCH  21  24
ATOM     24  C   UNL A   1      34.236  21.932  24.653  1.00  0.00     0.260 C 
ATOM     25  C   UNL A   1      33.968  21.459  26.093  1.00  0.00     0.064 C 
BRANCH  24  26
ATOM     26  O   UNL A   1      35.584  21.798  24.251  1.00  0.00    -0.481 OA
BRANCH  26  27
ATOM     27  C   UNL A   1      36.660  22.356  24.859  1.00  0.00     0.120 A 
ATOM     28  C   UNL A   1      39.939  20.850  26.126  1.00  0.00     0.044 C 
ATOM     29  C   UNL A   1      38.843  21.827  25.830  1.00  0.00    -0.047 A 
ATOM     30  C   UNL A   1      38.888  23.109  26.380  1.00  0.00     0.003 A 
ATOM     31  C   UNL A   1      37.727  21.468  25.065  1.00  0.00     0.049 A 
ATOM     32  C   UNL A   1      37.863  24.019  26.123  1.00  0.00     0.004 A 
ATOM     33  C   UNL A   1      36.759  23.650  25.350  1.00  0.00     0.046 A 
ENDBRANCH  26  27
ENDBRANCH  24  26
ENDBRANCH  21  24
ENDBRANCH  17  20
ENDBRANCH  10  16
ENDBRANCH   7   9
ENDBRANCH   6   7
ENDBRANCH   5   6
ENDBRANCH   4   5
ENDBRANCH   3   4
ENDBRANCH   2   3
ENDBRANCH   1   2
BRANCH   1  34
ATOM     34  O   UNL A   1      34.093  30.838  27.567  1.00  0.00    -0.377 OA
BRANCH  34  35
ATOM     35  C   UNL A   1      34.880  31.973  27.932  1.00  0.00     0.188 C 
BRANCH  35  36
ATOM     36  C   UNL A   1      34.141  33.136  28.519  1.00  0.00     0.188 C 
BRANCH  36  37
ATOM     37  O   UNL A   1      34.558  33.213  29.870  1.00  0.00    -0.376 OA
BRANCH  37  38
ATOM     38  C   UNL A   1      34.377  34.477  30.458  1.00  0.00     0.202 C 
BRANCH  38  39
ATOM     39  C   UNL A   1      34.842  34.458  31.908  1.00  0.00     0.261 C 
BRANCH  39  40
ATOM     40  O   UNL A   1      35.921  33.505  32.044  1.00  0.00    -0.460 OA
BRANCH  40  41
ATOM     41  C   UNL A   1      37.161  34.067  32.244  1.00  0.00     0.338 C 
ATOM     42  O   UNL A   1      37.437  34.804  33.160  1.00  0.00    -0.246 OA
BRANCH  41  43
ATOM     43  C   UNL A   1      38.043  33.760  31.074  1.00  0.00     0.060 A 
ATOM     44  C   UNL A   1      38.219  32.474  30.590  1.00  0.00     0.016 A 
ATOM     45  C   UNL A   1      38.881  34.709  30.561  1.00  0.00     0.016 A 
ATOM     46  C   UNL A   1      39.458  32.099  29.975  1.00  0.00     0.010 A 
ATOM     47  C   UNL A   1      40.046  34.291  29.888  1.00  0.00     0.010 A 
ATOM     48  C   UNL A   1      40.584  32.944  29.903  1.00  0.00    -0.014 A 
BRANCH  48  49
ATOM     49  C   UNL A   1      42.334  32.356  30.062  1.00  0.00     0.031 A 
ATOM     50  C   UNL A   1      43.314  31.001  29.008  1.00  0.00     0.074 A 
ATOM     51  C   UNL A   1      42.794  32.896  31.242  1.00  0.00     0.049 A 
ATOM     52  N   UNL A   1      43.426  29.707  29.442  1.00  0.00    -0.248 NA
ATOM     53  C   UNL A   1      43.537  30.655  27.474  1.00  0.00     0.031 C 
ATOM     54  C   UNL A   1      44.125  33.191  31.668  1.00  0.00     0.029 A 
ATOM     55  N   UNL A   1      42.126  33.050  32.462  1.00  0.00    -0.354 N 
ATOM     56  C   UNL A   1      43.757  28.683  28.594  1.00  0.00     0.074 A 
ATOM     57  C   UNL A   1      43.634  29.313  27.334  1.00  0.00     0.031 C 
ATOM     58  C   UNL A   1      44.293  32.943  32.978  1.00  0.00     0.029 A 
ATOM     59  C   UNL A   1      42.989  32.612  33.472  1.00  0.00     0.049 A 
ATOM     60  H   UNL A   1      41.216  33.404  32.587  1.00  0.00     0.167 HD
ATOM     61  C   UNL A   1      44.161  27.425  28.989  1.00  0.00     0.034 A 
ATOM     62  C   UNL A   1      42.749  32.313  34.759  1.00  0.00     0.034 A 
ATOM     63  C   UNL A   1      44.602  27.322  30.392  1.00  0.00     0.049 A 
ATOM     64  C   UNL A   1      43.140  30.867  34.996  1.00  0.00     0.074 A 
ATOM     65  C   UNL A   1      45.888  27.363  30.915  1.00  0.00     0.029 A 
ATOM     66  N   UNL A   1      43.767  27.334  31.504  1.00  0.00    -0.354 N 
ATOM     67  N   UNL A   1      43.492  29.989  34.078  1.00  0.00    -0.248 NA
ATOM     68  C   UNL A   1      43.230  30.326  36.346  1.00  0.00     0.031 C 
ATOM     69  C   UNL A   1      45.817  27.670  32.291  1.00  0.00     0.029 A 
ATOM     70  C   UNL A   1      44.486  27.638  32.664  1.00  0.00     0.049 A 
ATOM     71  H   UNL A   1      42.799  27.153  31.478  1.00  0.00     0.167 HD
ATOM     72  C   UNL A   1      43.716  28.757  34.680  1.00  0.00     0.074 A 
ATOM     73  C   UNL A   1      43.625  29.067  36.101  1.00  0.00     0.031 C 
ATOM     74  C   UNL A   1      43.942  27.567  34.019  1.00  0.00     0.034 A 
BRANCH  61  75
ATOM     75  C   UNL A   1      44.614  26.408  27.941  1.00  0.00     0.023 A 
ATOM     76  C   UNL A   1      43.776  25.334  27.570  1.00  0.00     0.031 A 
ATOM     77  C   UNL A   1      45.880  26.423  27.329  1.00  0.00     0.131 A 
ATOM     78  C   UNL A   1      44.241  24.262  26.789  1.00  0.00     0.055 A 
ATOM     79  C   UNL A   1      46.353  25.350  26.551  1.00  0.00     0.041 A 
ATOM     80  F   UNL A   1      46.705  27.472  27.480  1.00  0.00    -0.206 F 
ATOM     81  C   UNL A   1      45.545  24.244  26.308  1.00  0.00     0.022 A 
BRANCH  78  82
ATOM     82  S   UNL A   1      43.119  22.870  26.459  1.00  0.00     0.124 S 
ATOM     83  O   UNL A   1      42.456  22.690  27.747  1.00  0.00    -0.237 OA
ATOM     84  O   UNL A   1      42.290  23.385  25.376  1.00  0.00    -0.237 OA
ATOM     85  O   UNL A   1      44.025  21.786  26.079  1.00  0.00    -0.744 OA
ENDBRANCH  78  82
ENDBRANCH  61  75
BRANCH  62  86
ATOM     86  C   UNL A   1      41.650  33.185  35.268  1.00  0.00     0.023 A 
ATOM     87  C   UNL A   1      40.365  32.588  35.099  1.00  0.00     0.031 A 
ATOM     88  C   UNL A   1      41.837  34.025  36.373  1.00  0.00     0.131 A 
ATOM     89  C   UNL A   1      39.436  32.606  36.150  1.00  0.00     0.055 A 
ATOM     90  C   UNL A   1      40.857  34.119  37.376  1.00  0.00     0.041 A 
ATOM     91  F   UNL A   1      43.032  34.589  36.604  1.00  0.00    -0.206 F 
ATOM     92  C   UNL A   1      39.682  33.363  37.297  1.00  0.00     0.022 A 
BRANCH  89  93
ATOM     93  S   UNL A   1      38.135  31.315  36.202  1.00  0.00     0.124 S 
ATOM     94  O   UNL A   1      37.403  31.570  34.969  1.00  0.00    -0.237 OA
ATOM     95  O   UNL A   1      38.908  30.078  36.252  1.00  0.00    -0.237 OA
ATOM     96  O   UNL A   1      37.426  31.618  37.444  1.00  0.00    -0.744 OA
ENDBRANCH  89  93
ENDBRANCH  62  86
BRANCH  74  97
ATOM     97  C   UNL A   1      43.916  26.156  34.633  1.00  0.00     0.023 A 
ATOM     98  C   UNL A   1      45.056  25.425  34.972  1.00  0.00     0.031 A 
ATOM     99  C   UNL A   1      42.686  25.500  34.936  1.00  0.00     0.131 A 
ATOM    100  C   UNL A   1      44.973  24.109  35.468  1.00  0.00     0.055 A 
ATOM    101  C   UNL A   1      42.602  24.214  35.477  1.00  0.00     0.041 A 
ATOM    102  F   UNL A   1      41.494  26.081  34.761  1.00  0.00    -0.206 F 
ATOM    103  C   UNL A   1      43.752  23.498  35.733  1.00  0.00     0.022 A 
BRANCH 100 104
ATOM    104  S   UNL A   1      46.518  23.204  35.728  1.00  0.00     0.124 S 
ATOM    105  O   UNL A   1      47.271  24.131  36.567  1.00  0.00    -0.237 OA
ATOM    106  O   UNL A   1      46.056  21.986  36.389  1.00  0.00    -0.237 OA
ATOM    107  O   UNL A   1      47.041  23.016  34.377  1.00  0.00    -0.744 OA
ENDBRANCH 100 104
ENDBRANCH  74  97
ENDBRANCH  48  49
ENDBRANCH  41  43
ENDBRANCH  40  41
ENDBRANCH  39  40
ENDBRANCH  38  39
ENDBRANCH  37  38
ENDBRANCH  36  37
ENDBRANCH  35  36
ENDBRANCH  34  35
ENDBRANCH   1  34
TORSDOF 28
ENDMDL
MODEL 2
REMARK VINA RESULT:     -10.0      4.636      8.314
REMARK SMILES Cc1cccc(O[C@H](C)C(=O)NNC(=O)[C@H]2[C@@H]3CC[C@@H](C3)[C@@H]2C(=O)OCCOCCOCCOCCOC(=O)c2ccc(-c3c4nc(c(-c5cc(S(=O)(=O)[O-])ccc5F)c5ccc([nH]5)c(-c5cc(S(=O)(=O)[O-])ccc5F)c5nc(c(-c6cc(S(=O)(=O)[O-])ccc6F)c6ccc3[nH]6)C=C5)C=C4)cc2)c1
REMARK SMILES IDX 30 1 29 2 28 3 27 4 26 5 25 6 23 7 24 8 22 9 16 10 17 11
REMARK SMILES IDX 18 12 21 13 20 14 19 15 14 16 13 17 15 19 12 20 10 21 11 22
REMARK SMILES IDX 8 24 9 25 7 26 6 27 1 28 2 29 3 30 103 31 4 32 5 33 31 34
REMARK SMILES IDX 32 35 33 36 34 37 35 38 36 39 37 40 38 41 39 42 40 43 41 44
REMARK SMILES IDX 102 45 42 46 101 47 43 48 44 49 45 50 95 51 46 52 100 53
REMARK SMILES IDX 94 54 96 55 47 56 99 57 93 58 92 59 48 61 80 62 60 63 79 64
REMARK SMILES IDX 61 65 64 66 78 67 97 68 62 69 63 70 77 72 98 73 65 74 49 75
REMARK SMILES IDX 50 76 58 77 51 78 57 79 59 80 56 81 52 82 53 83 54 84 55 85
REMARK SMILES IDX 81 86 82 87 90 88 83 89 89 90 91 91 88 92 84 93 85 94 86 95
REMARK SMILES IDX 87 96 66 97 67 98 75 99 68 100 74 101 76 102 73 103 69 104
REMARK SMILES IDX 70 105 71 106 72 107
REMARK H PARENT 13 18 12 23 96 60 64 71
REMARK Flexibility Score: inf
ROOT
ATOM      1  C   UNL A   1      32.943  30.495  27.231  1.00  0.00     0.188 C 
ENDROOT
BRANCH   1   2
ATOM      2  C   UNL A   1      31.992  30.481  25.818  1.00  0.00     0.188 C 
BRANCH   2   3
ATOM      3  O   UNL A   1      30.494  31.254  25.257  1.00  0.00    -0.376 OA
BRANCH   3   4
ATOM      4  C   UNL A   1      29.440  31.108  23.827  1.00  0.00     0.202 C 
BRANCH   4   5
ATOM      5  C   UNL A   1      29.538  29.959  22.304  1.00  0.00     0.261 C 
BRANCH   5   6
ATOM      6  O   UNL A   1      30.693  28.626  22.006  1.00  0.00    -0.463 OA
BRANCH   6   7
ATOM      7  C   UNL A   1      31.642  27.744  22.615  1.00  0.00     0.310 C 
ATOM      8  O   UNL A   1      32.764  27.427  22.211  1.00  0.00    -0.252 OA
BRANCH   7   9
ATOM      9  C   UNL A   1      31.462  27.242  24.088  1.00  0.00     0.115 C 
ATOM     10  C   UNL A   1      32.060  25.791  24.318  1.00  0.00     0.098 C 
ATOM     11  C   UNL A   1      30.876  25.021  24.956  1.00  0.00     0.003 C 
ATOM     12  C   UNL A   1      29.811  24.763  23.868  1.00  0.00     0.005 C 
ATOM     13  C   UNL A   1      30.179  26.099  25.778  1.00  0.00     0.009 C 
ATOM     14  C   UNL A   1      30.005  27.052  24.582  1.00  0.00     0.004 C 
ATOM     15  C   UNL A   1      29.173  26.146  23.676  1.00  0.00     0.005 C 
BRANCH  10  16
ATOM     16  C   UNL A   1      33.394  25.522  25.056  1.00  0.00     0.242 C 
ATOM     17  N   UNL A   1      33.696  24.435  25.829  1.00  0.00    -0.267 N 
ATOM     18  H   UNL A   1      34.554  24.474  26.311  1.00  0.00     0.191 HD
ATOM     19  O   UNL A   1      34.318  26.343  24.913  1.00  0.00    -0.273 OA
BRANCH  17  20
ATOM     20  N   UNL A   1      32.954  23.301  26.015  1.00  0.00    -0.264 N 
ATOM     21  C   UNL A   1      33.071  22.088  25.414  1.00  0.00     0.279 C 
ATOM     22  O   UNL A   1      32.250  21.241  25.803  1.00  0.00    -0.269 OA
ATOM     23  H   UNL A   1      32.231  23.373  26.680  1.00  0.00     0.191 HD
BRANCH  21  24
ATOM     24  C   UNL A   1      34.040  21.725  24.248  1.00  0.00     0.260 C 
ATOM     25  C   UNL A   1      33.739  22.625  23.036  1.00  0.00     0.064 C 
BRANCH  24  26
ATOM     26  O   UNL A   1      35.384  21.292  24.315  1.00  0.00    -0.481 OA
BRANCH  26  27
ATOM     27  C   UNL A   1      36.425  21.989  24.833  1.00  0.00     0.120 A 
ATOM     28  C   UNL A   1      39.829  20.872  26.172  1.00  0.00     0.044 C 
ATOM     29  C   UNL A   1      38.657  21.729  25.801  1.00  0.00    -0.047 A 
ATOM     30  C   UNL A   1      38.615  23.062  26.210  1.00  0.00     0.003 A 
ATOM     31  C   UNL A   1      37.559  21.209  25.106  1.00  0.00     0.049 A 
ATOM     32  C   UNL A   1      37.521  23.863  25.883  1.00  0.00     0.004 A 
ATOM     33  C   UNL A   1      36.435  23.332  25.181  1.00  0.00     0.046 A 
ENDBRANCH  26  27
ENDBRANCH  24  26
ENDBRANCH  21  24
ENDBRANCH  17  20
ENDBRANCH  10  16
ENDBRANCH   7   9
ENDBRANCH   6   7
ENDBRANCH   5   6
ENDBRANCH   4   5
ENDBRANCH   3   4
ENDBRANCH   2   3
ENDBRANCH   1   2
BRANCH   1  34
ATOM     34  O   UNL A   1      34.349  30.635  27.536  1.00  0.00    -0.377 OA
BRANCH  34  35
ATOM     35  C   UNL A   1      35.090  31.747  28.042  1.00  0.00     0.188 C 
BRANCH  35  36
ATOM     36  C   UNL A   1      35.185  31.864  29.531  1.00  0.00     0.188 C 
BRANCH  36  37
ATOM     37  O   UNL A   1      36.524  31.535  29.858  1.00  0.00    -0.376 OA
BRANCH  37  38
ATOM     38  C   UNL A   1      36.652  30.635  30.929  1.00  0.00     0.202 C 
BRANCH  38  39
ATOM     39  C   UNL A   1      38.089  30.610  31.431  1.00  0.00     0.261 C 
BRANCH  39  40
ATOM     40  O   UNL A   1      38.527  29.237  31.541  1.00  0.00    -0.460 OA
BRANCH  40  41
ATOM     41  C   UNL A   1      39.530  28.883  30.669  1.00  0.00     0.338 C 
ATOM     42  O   UNL A   1      39.357  28.282  29.636  1.00  0.00    -0.246 OA
BRANCH  41  43
ATOM     43  C   UNL A   1      40.859  29.208  31.277  1.00  0.00     0.060 A 
ATOM     44  C   UNL A   1      41.973  29.521  30.514  1.00  0.00     0.016 A 
ATOM     45  C   UNL A   1      41.088  29.004  32.609  1.00  0.00     0.016 A 
ATOM     46  C   UNL A   1      43.285  29.196  30.987  1.00  0.00     0.010 A 
ATOM     47  C   UNL A   1      42.410  28.775  33.040  1.00  0.00     0.010 A 
ATOM     48  C   UNL A   1      43.534  28.477  32.173  1.00  0.00    -0.014 A 
BRANCH  48  49
ATOM     49  C   UNL A   1      44.903  27.244  32.370  1.00  0.00     0.031 A 
ATOM     50  C   UNL A   1      46.752  27.500  33.023  1.00  0.00     0.074 A 
ATOM     51  C   UNL A   1      44.456  26.101  31.747  1.00  0.00     0.049 A 
ATOM     52  N   UNL A   1      47.793  27.685  32.153  1.00  0.00    -0.248 NA
ATOM     53  C   UNL A   1      47.467  28.206  34.253  1.00  0.00     0.031 C 
ATOM     54  C   UNL A   1      44.821  24.734  31.947  1.00  0.00     0.029 A 
ATOM     55  N   UNL A   1      43.731  25.969  30.557  1.00  0.00    -0.354 N 
ATOM     56  C   UNL A   1      48.987  28.225  32.555  1.00  0.00     0.074 A 
ATOM     57  C   UNL A   1      48.657  28.703  33.845  1.00  0.00     0.031 C 
ATOM     58  C   UNL A   1      44.848  24.053  30.789  1.00  0.00     0.029 A 
ATOM     59  C   UNL A   1      44.340  24.961  29.802  1.00  0.00     0.049 A 
ATOM     60  H   UNL A   1      42.938  26.491  30.299  1.00  0.00     0.167 HD
ATOM     61  C   UNL A   1      50.159  28.186  31.830  1.00  0.00     0.034 A 
ATOM     62  C   UNL A   1      44.201  24.631  28.509  1.00  0.00     0.034 A 
ATOM     63  C   UNL A   1      50.189  27.190  30.743  1.00  0.00     0.049 A 
ATOM     64  C   UNL A   1      45.554  24.751  27.835  1.00  0.00     0.074 A 
ATOM     65  C   UNL A   1      50.721  25.908  30.741  1.00  0.00     0.029 A 
ATOM     66  N   UNL A   1      49.517  27.298  29.531  1.00  0.00    -0.354 N 
ATOM     67  N   UNL A   1      46.651  25.254  28.364  1.00  0.00    -0.248 NA
ATOM     68  C   UNL A   1      45.774  24.221  26.496  1.00  0.00     0.031 C 
ATOM     69  C   UNL A   1      50.150  25.174  29.679  1.00  0.00     0.029 A 
ATOM     70  C   UNL A   1      49.405  26.049  28.911  1.00  0.00     0.049 A 
ATOM     71  H   UNL A   1      49.166  28.140  29.159  1.00  0.00     0.167 HD
ATOM     72  C   UNL A   1      47.666  25.246  27.415  1.00  0.00     0.074 A 
ATOM     73  C   UNL A   1      47.072  24.504  26.309  1.00  0.00     0.031 C 
ATOM     74  C   UNL A   1      48.904  25.840  27.554  1.00  0.00     0.034 A 
BRANCH  61  75
ATOM     75  C   UNL A   1      51.451  28.726  32.444  1.00  0.00     0.023 A 
ATOM     76  C   UNL A   1      52.021  29.931  31.979  1.00  0.00     0.031 A 
ATOM     77  C   UNL A   1      52.183  28.060  33.443  1.00  0.00     0.131 A 
ATOM     78  C   UNL A   1      53.313  30.337  32.355  1.00  0.00     0.055 A 
ATOM     79  C   UNL A   1      53.479  28.458  33.819  1.00  0.00     0.041 A 
ATOM     80  F   UNL A   1      51.670  26.991  34.074  1.00  0.00    -0.206 F 
ATOM     81  C   UNL A   1      54.066  29.583  33.247  1.00  0.00     0.022 A 
BRANCH  78  82
ATOM     82  S   UNL A   1      54.005  31.846  31.614  1.00  0.00     0.124 S 
ATOM     83  O   UNL A   1      55.271  31.993  32.325  1.00  0.00    -0.237 OA
ATOM     84  O   UNL A   1      54.097  31.490  30.203  1.00  0.00    -0.237 OA
ATOM     85  O   UNL A   1      53.004  32.868  31.926  1.00  0.00    -0.744 OA
ENDBRANCH  78  82
ENDBRANCH  61  75
BRANCH  62  86
ATOM     86  C   UNL A   1      42.800  24.918  28.078  1.00  0.00     0.023 A 
ATOM     87  C   UNL A   1      42.581  26.308  27.848  1.00  0.00     0.031 A 
ATOM     88  C   UNL A   1      42.075  24.007  27.301  1.00  0.00     0.131 A 
ATOM     89  C   UNL A   1      41.898  26.733  26.697  1.00  0.00     0.055 A 
ATOM     90  C   UNL A   1      41.308  24.448  26.208  1.00  0.00     0.041 A 
ATOM     91  F   UNL A   1      42.262  22.687  27.448  1.00  0.00    -0.206 F 
ATOM     92  C   UNL A   1      41.268  25.805  25.867  1.00  0.00     0.022 A 
BRANCH  89  93
ATOM     93  S   UNL A   1      42.205  28.425  26.062  1.00  0.00     0.124 S 
ATOM     94  O   UNL A   1      42.282  28.203  24.624  1.00  0.00    -0.237 OA
ATOM     95  O   UNL A   1      41.042  29.167  26.540  1.00  0.00    -0.237 OA
ATOM     96  O   UNL A   1      43.455  28.799  26.723  1.00  0.00    -0.744 OA
ENDBRANCH  89  93
ENDBRANCH  62  86
BRANCH  74  97
ATOM     97  C   UNL A   1      49.933  26.090  26.438  1.00  0.00     0.023 A 
ATOM     98  C   UNL A   1      51.184  25.472  26.369  1.00  0.00     0.031 A 
ATOM     99  C   UNL A   1      49.653  26.968  25.350  1.00  0.00     0.131 A 
ATOM    100  C   UNL A   1      52.115  25.791  25.360  1.00  0.00     0.055 A 
ATOM    101  C   UNL A   1      50.555  27.247  24.320  1.00  0.00     0.041 A 
ATOM    102  F   UNL A   1      48.472  27.581  25.202  1.00  0.00    -0.206 F 
ATOM    103  C   UNL A   1      51.807  26.668  24.327  1.00  0.00     0.022 A 
BRANCH 100 104
ATOM    104  S   UNL A   1      53.759  25.043  25.459  1.00  0.00     0.124 S 
ATOM    105  O   UNL A   1      54.225  25.515  26.760  1.00  0.00    -0.237 OA
ATOM    106  O   UNL A   1      53.456  23.617  25.376  1.00  0.00    -0.237 OA
ATOM    107  O   UNL A   1      54.461  25.597  24.304  1.00  0.00    -0.744 OA
ENDBRANCH 100 104
ENDBRANCH  74  97
ENDBRANCH  48  49
ENDBRANCH  41  43
ENDBRANCH  40  41
ENDBRANCH  39  40
ENDBRANCH  38  39
ENDBRANCH  37  38
ENDBRANCH  36  37
ENDBRANCH  35  36
ENDBRANCH  34  35
ENDBRANCH   1  34
TORSDOF 28
ENDMDL
MODEL 3
REMARK VINA RESULT:      -9.6      5.323      8.646
REMARK SMILES Cc1cccc(O[C@H](C)C(=O)NNC(=O)[C@H]2[C@@H]3CC[C@@H](C3)[C@@H]2C(=O)OCCOCCOCCOCCOC(=O)c2ccc(-c3c4nc(c(-c5cc(S(=O)(=O)[O-])ccc5F)c5ccc([nH]5)c(-c5cc(S(=O)(=O)[O-])ccc5F)c5nc(c(-c6cc(S(=O)(=O)[O-])ccc6F)c6ccc3[nH]6)C=C5)C=C4)cc2)c1
REMARK SMILES IDX 30 1 29 2 28 3 27 4 26 5 25 6 23 7 24 8 22 9 16 10 17 11
REMARK SMILES IDX 18 12 21 13 20 14 19 15 14 16 13 17 15 19 12 20 10 21 11 22
REMARK SMILES IDX 8 24 9 25 7 26 6 27 1 28 2 29 3 30 103 31 4 32 5 33 31 34
REMARK SMILES IDX 32 35 33 36 34 37 35 38 36 39 37 40 38 41 39 42 40 43 41 44
REMARK SMILES IDX 102 45 42 46 101 47 43 48 44 49 45 50 95 51 46 52 100 53
REMARK SMILES IDX 94 54 96 55 47 56 99 57 93 58 92 59 48 61 80 62 60 63 79 64
REMARK SMILES IDX 61 65 64 66 78 67 97 68 62 69 63 70 77 72 98 73 65 74 49 75
REMARK SMILES IDX 50 76 58 77 51 78 57 79 59 80 56 81 52 82 53 83 54 84 55 85
REMARK SMILES IDX 81 86 82 87 90 88 83 89 89 90 91 91 88 92 84 93 85 94 86 95
REMARK SMILES IDX 87 96 66 97 67 98 75 99 68 100 74 101 76 102 73 103 69 104
REMARK SMILES IDX 70 105 71 106 72 107
REMARK H PARENT 13 18 12 23 96 60 64 71
REMARK Flexibility Score: inf
ROOT
ATOM      1  C   UNL A   1      33.674  29.727  27.033  1.00  0.00     0.188 C 
ENDROOT
BRANCH   1   2
ATOM      2  C   UNL A   1      32.644  29.823  25.679  1.00  0.00     0.188 C 
BRANCH   2   3
ATOM      3  O   UNL A   1      31.121  30.640  25.265  1.00  0.00    -0.376 OA
BRANCH   3   4
ATOM      4  C   UNL A   1      29.880  30.461  23.998  1.00  0.00     0.202 C 
BRANCH   4   5
ATOM      5  C   UNL A   1      29.419  28.975  22.890  1.00  0.00     0.261 C 
BRANCH   5   6
ATOM      6  O   UNL A   1      30.510  27.730  22.212  1.00  0.00    -0.463 OA
BRANCH   6   7
ATOM      7  C   UNL A   1      31.298  26.575  22.517  1.00  0.00     0.310 C 
ATOM      8  O   UNL A   1      31.653  25.665  21.763  1.00  0.00    -0.252 OA
BRANCH   7   9
ATOM      9  C   UNL A   1      32.070  26.450  23.875  1.00  0.00     0.115 C 
ATOM     10  C   UNL A   1      32.535  24.964  24.181  1.00  0.00     0.098 C 
ATOM     11  C   UNL A   1      31.981  24.710  25.605  1.00  0.00     0.003 C 
ATOM     12  C   UNL A   1      30.447  24.558  25.520  1.00  0.00     0.005 C 
ATOM     13  C   UNL A   1      32.089  26.083  26.257  1.00  0.00     0.009 C 
ATOM     14  C   UNL A   1      31.271  26.789  25.160  1.00  0.00     0.004 C 
ATOM     15  C   UNL A   1      29.971  25.999  25.289  1.00  0.00     0.005 C 
BRANCH  10  16
ATOM     16  C   UNL A   1      33.996  24.476  24.028  1.00  0.00     0.242 C 
ATOM     17  N   UNL A   1      34.753  23.853  24.982  1.00  0.00    -0.267 N 
ATOM     18  H   UNL A   1      35.699  23.705  24.751  1.00  0.00     0.191 HD
ATOM     19  O   UNL A   1      34.547  24.613  22.922  1.00  0.00    -0.273 OA
BRANCH  17  20
ATOM     20  N   UNL A   1      34.359  23.412  26.215  1.00  0.00    -0.264 N 
ATOM     21  C   UNL A   1      34.058  22.151  26.621  1.00  0.00     0.279 C 
ATOM     22  O   UNL A   1      33.739  22.059  27.819  1.00  0.00    -0.269 OA
ATOM     23  H   UNL A   1      34.283  24.107  26.908  1.00  0.00     0.191 HD
BRANCH  21  24
ATOM     24  C   UNL A   1      33.977  20.883  25.717  1.00  0.00     0.260 C 
ATOM     25  C   UNL A   1      35.375  20.569  25.154  1.00  0.00     0.064 C 
BRANCH  24  26
ATOM     26  O   UNL A   1      33.152  19.745  25.858  1.00  0.00    -0.481 OA
BRANCH  26  27
ATOM     27  C   UNL A   1      33.189  18.629  25.089  1.00  0.00     0.120 A 
ATOM     28  C   UNL A   1      32.415  14.966  25.870  1.00  0.00     0.044 C 
ATOM     29  C   UNL A   1      32.840  16.208  25.147  1.00  0.00    -0.047 A 
ATOM     30  C   UNL A   1      33.440  16.109  23.891  1.00  0.00     0.003 A 
ATOM     31  C   UNL A   1      32.713  17.475  25.729  1.00  0.00     0.049 A 
ATOM     32  C   UNL A   1      33.854  17.259  23.219  1.00  0.00     0.004 A 
ATOM     33  C   UNL A   1      33.713  18.518  23.809  1.00  0.00     0.046 A 
ENDBRANCH  26  27
ENDBRANCH  24  26
ENDBRANCH  21  24
ENDBRANCH  17  20
ENDBRANCH  10  16
ENDBRANCH   7   9
ENDBRANCH   6   7
ENDBRANCH   5   6
ENDBRANCH   4   5
ENDBRANCH   3   4
ENDBRANCH   2   3
ENDBRANCH   1   2
BRANCH   1  34
ATOM     34  O   UNL A   1      34.987  29.188  27.304  1.00  0.00    -0.377 OA
BRANCH  34  35
ATOM     35  C   UNL A   1      36.234  29.842  27.546  1.00  0.00     0.188 C 
BRANCH  35  36
ATOM     36  C   UNL A   1      36.169  31.170  28.234  1.00  0.00     0.188 C 
BRANCH  36  37
ATOM     37  O   UNL A   1      37.210  31.156  29.195  1.00  0.00    -0.376 OA
BRANCH  37  38
ATOM     38  C   UNL A   1      37.500  29.882  29.712  1.00  0.00     0.202 C 
BRANCH  38  39
ATOM     39  C   UNL A   1      37.530  29.923  31.234  1.00  0.00     0.261 C 
BRANCH  39  40
ATOM     40  O   UNL A   1      38.648  29.137  31.705  1.00  0.00    -0.460 OA
BRANCH  40  41
ATOM     41  C   UNL A   1      39.453  28.631  30.711  1.00  0.00     0.338 C 
ATOM     42  O   UNL A   1      39.343  27.525  30.240  1.00  0.00    -0.246 OA
BRANCH  41  43
ATOM     43  C   UNL A   1      40.569  29.590  30.435  1.00  0.00     0.060 A 
ATOM     44  C   UNL A   1      41.384  29.484  29.318  1.00  0.00     0.016 A 
ATOM     45  C   UNL A   1      40.970  30.490  31.381  1.00  0.00     0.016 A 
ATOM     46  C   UNL A   1      42.745  29.926  29.376  1.00  0.00     0.010 A 
ATOM     47  C   UNL A   1      42.297  30.963  31.345  1.00  0.00     0.010 A 
ATOM     48  C   UNL A   1      43.368  30.394  30.550  1.00  0.00    -0.014 A 
BRANCH  48  49
ATOM     49  C   UNL A   1      45.138  30.065  30.988  1.00  0.00     0.031 A 
ATOM     50  C   UNL A   1      46.719  31.242  30.833  1.00  0.00     0.074 A 
ATOM     51  C   UNL A   1      45.203  28.715  31.250  1.00  0.00     0.049 A 
ATOM     52  N   UNL A   1      47.554  31.171  29.749  1.00  0.00    -0.248 NA
ATOM     53  C   UNL A   1      47.102  32.736  31.210  1.00  0.00     0.031 C 
ATOM     54  C   UNL A   1      46.124  27.971  32.051  1.00  0.00     0.029 A 
ATOM     55  N   UNL A   1      44.567  27.656  30.594  1.00  0.00    -0.354 N 
ATOM     56  C   UNL A   1      48.414  32.189  29.429  1.00  0.00     0.074 A 
ATOM     57  C   UNL A   1      47.952  33.222  30.276  1.00  0.00     0.031 C 
ATOM     58  C   UNL A   1      46.402  26.776  31.505  1.00  0.00     0.029 A 
ATOM     59  C   UNL A   1      45.524  26.659  30.378  1.00  0.00     0.049 A 
ATOM     60  H   UNL A   1      43.619  27.619  30.333  1.00  0.00     0.167 HD
ATOM     61  C   UNL A   1      49.467  32.088  28.544  1.00  0.00     0.034 A 
ATOM     62  C   UNL A   1      45.499  25.580  29.580  1.00  0.00     0.034 A 
ATOM     63  C   UNL A   1      49.886  30.711  28.225  1.00  0.00     0.049 A 
ATOM     64  C   UNL A   1      46.649  25.683  28.597  1.00  0.00     0.074 A 
ATOM     65  C   UNL A   1      50.914  29.956  28.773  1.00  0.00     0.029 A 
ATOM     66  N   UNL A   1      49.194  29.826  27.405  1.00  0.00    -0.354 N 
ATOM     67  N   UNL A   1      47.443  26.721  28.424  1.00  0.00    -0.248 NA
ATOM     68  C   UNL A   1      47.033  24.546  27.770  1.00  0.00     0.031 C 
ATOM     69  C   UNL A   1      50.679  28.591  28.502  1.00  0.00     0.029 A 
ATOM     70  C   UNL A   1      49.608  28.509  27.632  1.00  0.00     0.049 A 
ATOM     71  H   UNL A   1      48.506  30.091  26.752  1.00  0.00     0.167 HD
ATOM     72  C   UNL A   1      48.333  26.454  27.392  1.00  0.00     0.074 A 
ATOM     73  C   UNL A   1      48.079  25.049  27.097  1.00  0.00     0.031 C 
ATOM     74  C   UNL A   1      49.202  27.362  26.822  1.00  0.00     0.034 A 
BRANCH  61  75
ATOM     75  C   UNL A   1      50.423  33.268  28.362  1.00  0.00     0.023 A 
ATOM     76  C   UNL A   1      50.452  33.990  27.150  1.00  0.00     0.031 A 
ATOM     77  C   UNL A   1      51.359  33.674  29.330  1.00  0.00     0.131 A 
ATOM     78  C   UNL A   1      51.463  34.924  26.865  1.00  0.00     0.055 A 
ATOM     79  C   UNL A   1      52.377  34.604  29.048  1.00  0.00     0.041 A 
ATOM     80  F   UNL A   1      51.326  33.171  30.574  1.00  0.00    -0.206 F 
ATOM     81  C   UNL A   1      52.455  35.208  27.796  1.00  0.00     0.022 A 
BRANCH  78  82
ATOM     82  S   UNL A   1      51.481  35.721  25.231  1.00  0.00     0.124 S 
ATOM     83  O   UNL A   1      50.943  37.046  25.522  1.00  0.00    -0.237 OA
ATOM     84  O   UNL A   1      52.892  35.664  24.868  1.00  0.00    -0.237 OA
ATOM     85  O   UNL A   1      50.605  34.867  24.427  1.00  0.00    -0.744 OA
ENDBRANCH  78  82
ENDBRANCH  61  75
BRANCH  62  86
ATOM     86  C   UNL A   1      44.098  25.073  29.485  1.00  0.00     0.023 A 
ATOM     87  C   UNL A   1      43.489  25.404  28.238  1.00  0.00     0.031 A 
ATOM     88  C   UNL A   1      43.710  23.878  30.102  1.00  0.00     0.131 A 
ATOM     89  C   UNL A   1      42.765  24.434  27.528  1.00  0.00     0.055 A 
ATOM     90  C   UNL A   1      42.898  22.951  29.424  1.00  0.00     0.041 A 
ATOM     91  F   UNL A   1      44.271  23.497  31.259  1.00  0.00    -0.206 F 
ATOM     92  C   UNL A   1      42.476  23.201  28.113  1.00  0.00     0.022 A 
BRANCH  89  93
ATOM     93  S   UNL A   1      42.587  24.617  25.712  1.00  0.00     0.124 S 
ATOM     94  O   UNL A   1      43.757  25.415  25.370  1.00  0.00    -0.237 OA
ATOM     95  O   UNL A   1      42.589  23.234  25.245  1.00  0.00    -0.237 OA
ATOM     96  O   UNL A   1      41.293  25.283  25.578  1.00  0.00    -0.744 OA
ENDBRANCH  89  93
ENDBRANCH  62  86
BRANCH  74  97
ATOM     97  C   UNL A   1      49.990  27.183  25.514  1.00  0.00     0.023 A 
ATOM     98  C   UNL A   1      51.312  26.736  25.446  1.00  0.00     0.031 A 
ATOM     99  C   UNL A   1      49.392  27.435  24.244  1.00  0.00     0.131 A 
ATOM    100  C   UNL A   1      52.007  26.656  24.223  1.00  0.00     0.055 A 
ATOM    101  C   UNL A   1      50.063  27.307  23.025  1.00  0.00     0.041 A 
ATOM    102  F   UNL A   1      48.107  27.786  24.107  1.00  0.00    -0.206 F 
ATOM    103  C   UNL A   1      51.390  26.929  23.007  1.00  0.00     0.022 A 
BRANCH 100 104
ATOM    104  S   UNL A   1      53.760  26.213  24.273  1.00  0.00     0.124 S 
ATOM    105  O   UNL A   1      54.089  26.127  22.854  1.00  0.00    -0.237 OA
ATOM    106  O   UNL A   1      54.345  27.342  24.990  1.00  0.00    -0.237 OA
ATOM    107  O   UNL A   1      53.775  24.944  24.997  1.00  0.00    -0.744 OA
ENDBRANCH 100 104
ENDBRANCH  74  97
ENDBRANCH  48  49
ENDBRANCH  41  43
ENDBRANCH  40  41
ENDBRANCH  39  40
ENDBRANCH  38  39
ENDBRANCH  37  38
ENDBRANCH  36  37
ENDBRANCH  35  36
ENDBRANCH  34  35
ENDBRANCH   1  34
TORSDOF 28
ENDMDL
