MODEL 1
REMARK VINA RESULT:      -9.4      0.000      0.000
REMARK SMILES C[C@@H](C(=O)OCCOCCOCCOCCOC(=O)c1ccc(-c2c3nc(c(-c4cc(S(=O)(=O)[O-])ccc4F)c4ccc([nH]4)c(-c4cc(S(=O)(=O)[O-])ccc4F)c4nc(c(-c5cc(S(=O)(=O)[O-])ccc5F)c5ccc2[nH]5)C=C4)C=C3)cc1)c1ccc(-c2ccccc2)c(F)c1
REMARK SMILES IDX 12 1 11 2 10 3 9 4 8 5 7 6 6 7 5 8 3 9 4 10 2 11 1 12 83 13
REMARK SMILES IDX 84 14 95 15 85 16 93 17 86 18 94 19 87 20 88 21 92 22 89 23
REMARK SMILES IDX 91 24 90 25 13 26 14 27 15 28 16 29 17 30 18 31 19 32 20 33
REMARK SMILES IDX 21 34 82 35 22 36 81 37 23 38 24 39 25 40 75 41 26 42 80 43
REMARK SMILES IDX 74 44 76 45 27 46 79 47 73 48 72 49 28 51 60 52 40 53 59 54
REMARK SMILES IDX 41 55 44 56 58 57 77 58 42 59 43 60 57 62 78 63 45 64 29 65
REMARK SMILES IDX 30 66 38 67 31 68 37 69 39 70 36 71 32 72 33 73 34 74 35 75
REMARK SMILES IDX 61 76 62 77 70 78 63 79 69 80 71 81 68 82 64 83 65 84 66 85
REMARK SMILES IDX 67 86 46 87 47 88 55 89 48 90 54 91 56 92 53 93 49 94 50 95
REMARK SMILES IDX 51 96 52 97
REMARK H PARENT 76 50 44 61
REMARK Flexibility Score: inf
ROOT
ATOM      1  C   UNL A   1      41.114  21.975  25.985  1.00  0.00     0.188 C 
ENDROOT
BRANCH   1   2
ATOM      2  O   UNL A   1      40.761  23.135  26.725  1.00  0.00    -0.377 OA
BRANCH   2   3
ATOM      3  C   UNL A   1      39.422  23.238  27.159  1.00  0.00     0.188 C 
BRANCH   3   4
ATOM      4  C   UNL A   1      38.547  24.221  26.362  1.00  0.00     0.188 C 
BRANCH   4   5
ATOM      5  O   UNL A   1      37.967  23.843  25.122  1.00  0.00    -0.376 OA
BRANCH   5   6
ATOM      6  C   UNL A   1      36.828  22.996  25.079  1.00  0.00     0.202 C 
BRANCH   6   7
ATOM      7  C   UNL A   1      35.800  22.935  26.225  1.00  0.00     0.261 C 
BRANCH   7   8
ATOM      8  O   UNL A   1      34.417  23.052  25.849  1.00  0.00    -0.463 OA
BRANCH   8   9
ATOM      9  C   UNL A   1      33.623  21.991  26.123  1.00  0.00     0.313 C 
ATOM     10  O   UNL A   1      33.800  21.237  27.077  1.00  0.00    -0.252 OA
BRANCH   9  11
ATOM     11  C   UNL A   1      32.429  21.834  25.158  1.00  0.00     0.126 C 
ATOM     12  C   UNL A   1      32.649  20.953  23.919  1.00  0.00     0.025 C 
BRANCH  11  13
ATOM     13  C   UNL A   1      31.722  23.176  24.935  1.00  0.00    -0.031 A 
ATOM     14  C   UNL A   1      31.986  23.853  23.732  1.00  0.00     0.005 A 
ATOM     15  C   UNL A   1      30.799  23.768  25.810  1.00  0.00     0.044 A 
ATOM     16  C   UNL A   1      31.366  25.062  23.415  1.00  0.00     0.012 A 
ATOM     17  C   UNL A   1      30.183  24.989  25.488  1.00  0.00     0.131 A 
ATOM     18  C   UNL A   1      30.458  25.666  24.293  1.00  0.00     0.017 A 
ATOM     19  F   UNL A   1      29.307  25.504  26.368  1.00  0.00    -0.206 F 
BRANCH  18  20
ATOM     20  C   UNL A   1      29.891  26.982  23.955  1.00  0.00    -0.015 A 
ATOM     21  C   UNL A   1      28.538  27.119  23.593  1.00  0.00     0.009 A 
ATOM     22  C   UNL A   1      30.708  28.121  23.881  1.00  0.00     0.009 A 
ATOM     23  C   UNL A   1      28.032  28.339  23.138  1.00  0.00     0.001 A 
ATOM     24  C   UNL A   1      30.204  29.342  23.423  1.00  0.00     0.001 A 
ATOM     25  C   UNL A   1      28.868  29.448  23.044  1.00  0.00     0.000 A 
ENDBRANCH  18  20
ENDBRANCH  11  13
ENDBRANCH   9  11
ENDBRANCH   8   9
ENDBRANCH   7   8
ENDBRANCH   6   7
ENDBRANCH   5   6
ENDBRANCH   4   5
ENDBRANCH   3   4
ENDBRANCH   2   3
ENDBRANCH   1   2
BRANCH   1  26
ATOM     26  C   UNL A   1      42.399  21.222  26.382  1.00  0.00     0.188 C 
BRANCH  26  27
ATOM     27  O   UNL A   1      43.180  20.783  25.276  1.00  0.00    -0.376 OA
BRANCH  27  28
ATOM     28  C   UNL A   1      44.409  21.445  25.010  1.00  0.00     0.202 C 
BRANCH  28  29
ATOM     29  C   UNL A   1      44.343  22.832  24.345  1.00  0.00     0.261 C 
BRANCH  29  30
ATOM     30  O   UNL A   1      43.988  23.938  25.190  1.00  0.00    -0.460 OA
BRANCH  30  31
ATOM     31  C   UNL A   1      44.901  24.917  25.366  1.00  0.00     0.338 C 
ATOM     32  O   UNL A   1      45.773  25.248  24.578  1.00  0.00    -0.246 OA
BRANCH  31  33
ATOM     33  C   UNL A   1      44.535  25.667  26.587  1.00  0.00     0.060 A 
ATOM     34  C   UNL A   1      43.729  25.042  27.548  1.00  0.00     0.016 A 
ATOM     35  C   UNL A   1      44.990  26.972  26.789  1.00  0.00     0.016 A 
ATOM     36  C   UNL A   1      43.343  25.735  28.696  1.00  0.00     0.010 A 
ATOM     37  C   UNL A   1      44.582  27.674  27.929  1.00  0.00     0.010 A 
ATOM     38  C   UNL A   1      43.727  27.070  28.870  1.00  0.00    -0.014 A 
BRANCH  38  39
ATOM     39  C   UNL A   1      43.063  27.896  29.911  1.00  0.00     0.031 A 
ATOM     40  C   UNL A   1      43.747  28.037  31.245  1.00  0.00     0.074 A 
ATOM     41  C   UNL A   1      41.902  28.533  29.675  1.00  0.00     0.049 A 
ATOM     42  N   UNL A   1      43.343  28.645  32.330  1.00  0.00    -0.248 NA
ATOM     43  C   UNL A   1      45.067  27.397  31.368  1.00  0.00     0.031 C 
ATOM     44  C   UNL A   1      41.176  28.522  28.406  1.00  0.00     0.029 A 
ATOM     45  N   UNL A   1      41.126  29.309  30.501  1.00  0.00    -0.354 N 
ATOM     46  C   UNL A   1      44.356  28.459  33.265  1.00  0.00     0.074 A 
ATOM     47  C   UNL A   1      45.370  27.644  32.632  1.00  0.00     0.031 C 
ATOM     48  C   UNL A   1      40.052  29.247  28.544  1.00  0.00     0.029 A 
ATOM     49  C   UNL A   1      39.955  29.736  29.919  1.00  0.00     0.049 A 
ATOM     50  H   UNL A   1      41.384  29.538  31.423  1.00  0.00     0.167 HD
ATOM     51  C   UNL A   1      44.437  28.933  34.534  1.00  0.00     0.034 A 
ATOM     52  C   UNL A   1      38.915  30.414  30.446  1.00  0.00     0.034 A 
ATOM     53  C   UNL A   1      43.409  29.729  35.156  1.00  0.00     0.049 A 
ATOM     54  C   UNL A   1      38.975  30.840  31.896  1.00  0.00     0.074 A 
ATOM     55  C   UNL A   1      43.386  30.261  36.433  1.00  0.00     0.029 A 
ATOM     56  N   UNL A   1      42.211  30.096  34.553  1.00  0.00    -0.354 N 
ATOM     57  N   UNL A   1      39.936  30.656  32.775  1.00  0.00    -0.248 NA
ATOM     58  C   UNL A   1      37.814  31.569  32.424  1.00  0.00     0.031 C 
ATOM     59  C   UNL A   1      42.145  30.875  36.630  1.00  0.00     0.029 A 
ATOM     60  C   UNL A   1      41.430  30.814  35.445  1.00  0.00     0.049 A 
ATOM     61  H   UNL A   1      41.956  29.878  33.627  1.00  0.00     0.167 HD
ATOM     62  C   UNL A   1      39.508  31.281  33.944  1.00  0.00     0.074 A 
ATOM     63  C   UNL A   1      38.211  31.856  33.655  1.00  0.00     0.031 C 
ATOM     64  C   UNL A   1      40.132  31.378  35.148  1.00  0.00     0.034 A 
BRANCH  51  65
ATOM     65  C   UNL A   1      45.653  28.548  35.341  1.00  0.00     0.023 A 
ATOM     66  C   UNL A   1      45.718  27.340  36.056  1.00  0.00     0.031 A 
ATOM     67  C   UNL A   1      46.754  29.419  35.422  1.00  0.00     0.131 A 
ATOM     68  C   UNL A   1      46.823  27.071  36.879  1.00  0.00     0.055 A 
ATOM     69  C   UNL A   1      47.889  29.106  36.173  1.00  0.00     0.041 A 
ATOM     70  F   UNL A   1      46.741  30.600  34.785  1.00  0.00    -0.206 F 
ATOM     71  C   UNL A   1      47.921  27.932  36.919  1.00  0.00     0.022 A 
BRANCH  68  72
ATOM     72  S   UNL A   1      46.735  25.659  38.013  1.00  0.00     0.124 S 
ATOM     73  O   UNL A   1      45.538  24.970  37.535  1.00  0.00    -0.237 OA
ATOM     74  O   UNL A   1      48.002  24.980  37.772  1.00  0.00    -0.237 OA
ATOM     75  O   UNL A   1      46.601  26.283  39.328  1.00  0.00    -0.744 OA
ENDBRANCH  68  72
ENDBRANCH  51  65
BRANCH  52  76
ATOM     76  C   UNL A   1      37.697  30.692  29.627  1.00  0.00     0.023 A 
ATOM     77  C   UNL A   1      37.246  32.004  29.409  1.00  0.00     0.031 A 
ATOM     78  C   UNL A   1      36.924  29.638  29.105  1.00  0.00     0.131 A 
ATOM     79  C   UNL A   1      36.034  32.226  28.735  1.00  0.00     0.055 A 
ATOM     80  C   UNL A   1      35.753  29.867  28.381  1.00  0.00     0.041 A 
ATOM     81  F   UNL A   1      37.300  28.362  29.291  1.00  0.00    -0.206 F 
ATOM     82  C   UNL A   1      35.293  31.168  28.204  1.00  0.00     0.022 A 
BRANCH  79  83
ATOM     83  S   UNL A   1      35.383  33.918  28.649  1.00  0.00     0.124 S 
ATOM     84  O   UNL A   1      36.531  34.698  29.100  1.00  0.00    -0.237 OA
ATOM     85  O   UNL A   1      35.040  34.038  27.236  1.00  0.00    -0.237 OA
ATOM     86  O   UNL A   1      34.246  33.891  29.566  1.00  0.00    -0.744 OA
ENDBRANCH  79  83
ENDBRANCH  52  76
BRANCH  64  87
ATOM     87  C   UNL A   1      39.444  32.184  36.226  1.00  0.00     0.023 A 
ATOM     88  C   UNL A   1      39.814  33.508  36.519  1.00  0.00     0.031 A 
ATOM     89  C   UNL A   1      38.399  31.612  36.974  1.00  0.00     0.131 A 
ATOM     90  C   UNL A   1      39.185  34.194  37.570  1.00  0.00     0.055 A 
ATOM     91  C   UNL A   1      37.728  32.323  37.969  1.00  0.00     0.041 A 
ATOM     92  F   UNL A   1      38.004  30.348  36.742  1.00  0.00    -0.206 F 
ATOM     93  C   UNL A   1      38.131  33.617  38.282  1.00  0.00     0.022 A 
BRANCH  90  94
ATOM     94  S   UNL A   1      39.832  35.814  38.064  1.00  0.00     0.124 S 
ATOM     95  O   UNL A   1      38.907  36.198  39.125  1.00  0.00    -0.237 OA
ATOM     96  O   UNL A   1      41.191  35.493  38.488  1.00  0.00    -0.237 OA
ATOM     97  O   UNL A   1      39.737  36.611  36.841  1.00  0.00    -0.744 OA
ENDBRANCH  90  94
ENDBRANCH  64  87
ENDBRANCH  38  39
ENDBRANCH  31  33
ENDBRANCH  30  31
ENDBRANCH  29  30
ENDBRANCH  28  29
ENDBRANCH  27  28
ENDBRANCH  26  27
ENDBRANCH   1  26
TORSDOF 25
ENDMDL
MODEL 2
REMARK VINA RESULT:      -9.1      2.027      2.373
REMARK SMILES C[C@@H](C(=O)OCCOCCOCCOCCOC(=O)c1ccc(-c2c3nc(c(-c4cc(S(=O)(=O)[O-])ccc4F)c4ccc([nH]4)c(-c4cc(S(=O)(=O)[O-])ccc4F)c4nc(c(-c5cc(S(=O)(=O)[O-])ccc5F)c5ccc2[nH]5)C=C4)C=C3)cc1)c1ccc(-c2ccccc2)c(F)c1
REMARK SMILES IDX 12 1 11 2 10 3 9 4 8 5 7 6 6 7 5 8 3 9 4 10 2 11 1 12 83 13
REMARK SMILES IDX 84 14 95 15 85 16 93 17 86 18 94 19 87 20 88 21 92 22 89 23
REMARK SMILES IDX 91 24 90 25 13 26 14 27 15 28 16 29 17 30 18 31 19 32 20 33
REMARK SMILES IDX 21 34 82 35 22 36 81 37 23 38 24 39 25 40 75 41 26 42 80 43
REMARK SMILES IDX 74 44 76 45 27 46 79 47 73 48 72 49 28 51 60 52 40 53 59 54
REMARK SMILES IDX 41 55 44 56 58 57 77 58 42 59 43 60 57 62 78 63 45 64 29 65
REMARK SMILES IDX 30 66 38 67 31 68 37 69 39 70 36 71 32 72 33 73 34 74 35 75
REMARK SMILES IDX 61 76 62 77 70 78 63 79 69 80 71 81 68 82 64 83 65 84 66 85
REMARK SMILES IDX 67 86 46 87 47 88 55 89 48 90 54 91 56 92 53 93 49 94 50 95
REMARK SMILES IDX 51 96 52 97
REMARK H PARENT 76 50 44 61
REMARK Flexibility Score: inf
ROOT
ATOM      1  C   UNL A   1      41.161  22.006  26.029  1.00  0.00     0.188 C 
ENDROOT
BRANCH   1   2
ATOM      2  O   UNL A   1      40.801  23.006  26.972  1.00  0.00    -0.377 OA
BRANCH   2   3
ATOM      3  C   UNL A   1      39.428  23.139  27.274  1.00  0.00     0.188 C 
BRANCH   3   4
ATOM      4  C   UNL A   1      38.667  24.174  26.427  1.00  0.00     0.188 C 
BRANCH   4   5
ATOM      5  O   UNL A   1      38.086  23.813  25.183  1.00  0.00    -0.376 OA
BRANCH   5   6
ATOM      6  C   UNL A   1      36.780  23.259  25.123  1.00  0.00     0.202 C 
BRANCH   6   7
ATOM      7  C   UNL A   1      35.676  23.632  26.131  1.00  0.00     0.261 C 
BRANCH   7   8
ATOM      8  O   UNL A   1      34.515  24.288  25.595  1.00  0.00    -0.463 OA
BRANCH   8   9
ATOM      9  C   UNL A   1      33.317  23.729  25.881  1.00  0.00     0.313 C 
ATOM     10  O   UNL A   1      32.962  23.424  27.017  1.00  0.00    -0.252 OA
BRANCH   9  11
ATOM     11  C   UNL A   1      32.397  23.551  24.654  1.00  0.00     0.126 C 
ATOM     12  C   UNL A   1      32.946  22.714  23.489  1.00  0.00     0.025 C 
BRANCH  11  13
ATOM     13  C   UNL A   1      31.705  24.871  24.290  1.00  0.00    -0.031 A 
ATOM     14  C   UNL A   1      30.388  25.054  24.742  1.00  0.00     0.005 A 
ATOM     15  C   UNL A   1      32.290  25.929  23.579  1.00  0.00     0.044 A 
ATOM     16  C   UNL A   1      29.682  26.233  24.497  1.00  0.00     0.012 A 
ATOM     17  C   UNL A   1      31.571  27.111  23.330  1.00  0.00     0.131 A 
ATOM     18  C   UNL A   1      30.255  27.287  23.773  1.00  0.00     0.017 A 
ATOM     19  F   UNL A   1      32.188  28.089  22.645  1.00  0.00    -0.206 F 
BRANCH  18  20
ATOM     20  C   UNL A   1      29.445  28.478  23.467  1.00  0.00    -0.015 A 
ATOM     21  C   UNL A   1      29.949  29.774  23.684  1.00  0.00     0.009 A 
ATOM     22  C   UNL A   1      28.110  28.354  23.049  1.00  0.00     0.009 A 
ATOM     23  C   UNL A   1      29.137  30.900  23.527  1.00  0.00     0.001 A 
ATOM     24  C   UNL A   1      27.296  29.480  22.895  1.00  0.00     0.001 A 
ATOM     25  C   UNL A   1      27.808  30.752  23.142  1.00  0.00     0.000 A 
ENDBRANCH  18  20
ENDBRANCH  11  13
ENDBRANCH   9  11
ENDBRANCH   8   9
ENDBRANCH   7   8
ENDBRANCH   6   7
ENDBRANCH   5   6
ENDBRANCH   4   5
ENDBRANCH   3   4
ENDBRANCH   2   3
ENDBRANCH   1   2
BRANCH   1  26
ATOM     26  C   UNL A   1      42.448  21.197  26.284  1.00  0.00     0.188 C 
BRANCH  26  27
ATOM     27  O   UNL A   1      43.189  20.897  25.106  1.00  0.00    -0.376 OA
BRANCH  27  28
ATOM     28  C   UNL A   1      44.430  21.557  24.900  1.00  0.00     0.202 C 
BRANCH  28  29
ATOM     29  C   UNL A   1      44.391  23.045  24.509  1.00  0.00     0.261 C 
BRANCH  29  30
ATOM     30  O   UNL A   1      44.215  23.990  25.576  1.00  0.00    -0.460 OA
BRANCH  30  31
ATOM     31  C   UNL A   1      45.086  25.018  25.660  1.00  0.00     0.338 C 
ATOM     32  O   UNL A   1      45.913  25.340  24.821  1.00  0.00    -0.246 OA
BRANCH  31  33
ATOM     33  C   UNL A   1      44.730  25.821  26.848  1.00  0.00     0.060 A 
ATOM     34  C   UNL A   1      44.120  25.184  27.938  1.00  0.00     0.016 A 
ATOM     35  C   UNL A   1      45.001  27.192  26.895  1.00  0.00     0.016 A 
ATOM     36  C   UNL A   1      43.745  25.922  29.062  1.00  0.00     0.010 A 
ATOM     37  C   UNL A   1      44.602  27.934  28.012  1.00  0.00     0.010 A 
ATOM     38  C   UNL A   1      43.940  27.308  29.085  1.00  0.00    -0.014 A 
BRANCH  38  39
ATOM     39  C   UNL A   1      43.261  28.128  30.121  1.00  0.00     0.031 A 
ATOM     40  C   UNL A   1      43.963  28.327  31.439  1.00  0.00     0.074 A 
ATOM     41  C   UNL A   1      42.070  28.711  29.895  1.00  0.00     0.049 A 
ATOM     42  N   UNL A   1      43.555  28.941  32.518  1.00  0.00    -0.248 NA
ATOM     43  C   UNL A   1      45.311  27.746  31.549  1.00  0.00     0.031 C 
ATOM     44  C   UNL A   1      41.321  28.641  28.641  1.00  0.00     0.029 A 
ATOM     45  N   UNL A   1      41.278  29.471  30.720  1.00  0.00    -0.354 N 
ATOM     46  C   UNL A   1      44.592  28.817  33.437  1.00  0.00     0.074 A 
ATOM     47  C   UNL A   1      45.627  28.032  32.801  1.00  0.00     0.031 C 
ATOM     48  C   UNL A   1      40.171  29.322  28.785  1.00  0.00     0.029 A 
ATOM     49  C   UNL A   1      40.079  29.836  30.152  1.00  0.00     0.049 A 
ATOM     50  H   UNL A   1      41.543  29.731  31.631  1.00  0.00     0.167 HD
ATOM     51  C   UNL A   1      44.676  29.321  34.693  1.00  0.00     0.034 A 
ATOM     52  C   UNL A   1      39.020  30.481  30.685  1.00  0.00     0.034 A 
ATOM     53  C   UNL A   1      43.627  30.087  35.319  1.00  0.00     0.049 A 
ATOM     54  C   UNL A   1      39.090  30.940  32.125  1.00  0.00     0.074 A 
ATOM     55  C   UNL A   1      43.606  30.646  36.585  1.00  0.00     0.029 A 
ATOM     56  N   UNL A   1      42.404  30.391  34.732  1.00  0.00    -0.354 N 
ATOM     57  N   UNL A   1      40.074  30.816  32.988  1.00  0.00    -0.248 NA
ATOM     58  C   UNL A   1      37.909  31.632  32.660  1.00  0.00     0.031 C 
ATOM     59  C   UNL A   1      42.343  31.211  36.794  1.00  0.00     0.029 A 
ATOM     60  C   UNL A   1      41.609  31.095  35.624  1.00  0.00     0.049 A 
ATOM     61  H   UNL A   1      42.141  30.142  33.816  1.00  0.00     0.167 HD
ATOM     62  C   UNL A   1      39.642  31.447  34.152  1.00  0.00     0.074 A 
ATOM     63  C   UNL A   1      38.317  31.962  33.877  1.00  0.00     0.031 C 
ATOM     64  C   UNL A   1      40.284  31.597  35.341  1.00  0.00     0.034 A 
BRANCH  51  65
ATOM     65  C   UNL A   1      45.923  29.005  35.484  1.00  0.00     0.023 A 
ATOM     66  C   UNL A   1      47.041  29.857  35.479  1.00  0.00     0.031 A 
ATOM     67  C   UNL A   1      46.006  27.816  36.230  1.00  0.00     0.131 A 
ATOM     68  C   UNL A   1      48.217  29.473  36.142  1.00  0.00     0.055 A 
ATOM     69  C   UNL A   1      47.149  27.481  36.959  1.00  0.00     0.041 A 
ATOM     70  F   UNL A   1      44.982  26.948  36.251  1.00  0.00    -0.206 F 
ATOM     71  C   UNL A   1      48.269  28.305  36.905  1.00  0.00     0.022 A 
BRANCH  68  72
ATOM     72  S   UNL A   1      49.724  30.442  35.862  1.00  0.00     0.124 S 
ATOM     73  O   UNL A   1      50.294  30.495  37.207  1.00  0.00    -0.237 OA
ATOM     74  O   UNL A   1      50.448  29.628  34.893  1.00  0.00    -0.237 OA
ATOM     75  O   UNL A   1      49.223  31.718  35.355  1.00  0.00    -0.744 OA
ENDBRANCH  68  72
ENDBRANCH  51  65
BRANCH  52  76
ATOM     76  C   UNL A   1      37.777  30.690  29.884  1.00  0.00     0.023 A 
ATOM     77  C   UNL A   1      37.307  31.980  29.587  1.00  0.00     0.031 A 
ATOM     78  C   UNL A   1      37.000  29.595  29.461  1.00  0.00     0.131 A 
ATOM     79  C   UNL A   1      36.074  32.143  28.935  1.00  0.00     0.055 A 
ATOM     80  C   UNL A   1      35.806  29.762  28.758  1.00  0.00     0.041 A 
ATOM     81  F   UNL A   1      37.394  28.339  29.727  1.00  0.00    -0.206 F 
ATOM     82  C   UNL A   1      35.328  31.043  28.503  1.00  0.00     0.022 A 
BRANCH  79  83
ATOM     83  S   UNL A   1      35.403  33.819  28.747  1.00  0.00     0.124 S 
ATOM     84  O   UNL A   1      36.573  34.639  29.047  1.00  0.00    -0.237 OA
ATOM     85  O   UNL A   1      34.961  33.815  27.358  1.00  0.00    -0.237 OA
ATOM     86  O   UNL A   1      34.333  33.870  29.741  1.00  0.00    -0.744 OA
ENDBRANCH  79  83
ENDBRANCH  52  76
BRANCH  64  87
ATOM     87  C   UNL A   1      39.583  32.396  36.415  1.00  0.00     0.023 A 
ATOM     88  C   UNL A   1      38.696  31.801  37.329  1.00  0.00     0.031 A 
ATOM     89  C   UNL A   1      39.809  33.781  36.523  1.00  0.00     0.131 A 
ATOM     90  C   UNL A   1      38.024  32.597  38.270  1.00  0.00     0.055 A 
ATOM     91  C   UNL A   1      39.193  34.554  37.508  1.00  0.00     0.041 A 
ATOM     92  F   UNL A   1      40.643  34.406  35.676  1.00  0.00    -0.206 F 
ATOM     93  C   UNL A   1      38.283  33.965  38.379  1.00  0.00     0.022 A 
BRANCH  90  94
ATOM     94  S   UNL A   1      36.726  31.838  39.285  1.00  0.00     0.124 S 
ATOM     95  O   UNL A   1      36.752  30.454  38.824  1.00  0.00    -0.237 OA
ATOM     96  O   UNL A   1      37.215  32.067  40.641  1.00  0.00    -0.237 OA
ATOM     97  O   UNL A   1      35.524  32.589  38.925  1.00  0.00    -0.744 OA
ENDBRANCH  90  94
ENDBRANCH  64  87
ENDBRANCH  38  39
ENDBRANCH  31  33
ENDBRANCH  30  31
ENDBRANCH  29  30
ENDBRANCH  28  29
ENDBRANCH  27  28
ENDBRANCH  26  27
ENDBRANCH   1  26
TORSDOF 25
ENDMDL
MODEL 3
REMARK VINA RESULT:      -9.0      2.359      3.827
REMARK SMILES C[C@@H](C(=O)OCCOCCOCCOCCOC(=O)c1ccc(-c2c3nc(c(-c4cc(S(=O)(=O)[O-])ccc4F)c4ccc([nH]4)c(-c4cc(S(=O)(=O)[O-])ccc4F)c4nc(c(-c5cc(S(=O)(=O)[O-])ccc5F)c5ccc2[nH]5)C=C4)C=C3)cc1)c1ccc(-c2ccccc2)c(F)c1
REMARK SMILES IDX 12 1 11 2 10 3 9 4 8 5 7 6 6 7 5 8 3 9 4 10 2 11 1 12 83 13
REMARK SMILES IDX 84 14 95 15 85 16 93 17 86 18 94 19 87 20 88 21 92 22 89 23
REMARK SMILES IDX 91 24 90 25 13 26 14 27 15 28 16 29 17 30 18 31 19 32 20 33
REMARK SMILES IDX 21 34 82 35 22 36 81 37 23 38 24 39 25 40 75 41 26 42 80 43
REMARK SMILES IDX 74 44 76 45 27 46 79 47 73 48 72 49 28 51 60 52 40 53 59 54
REMARK SMILES IDX 41 55 44 56 58 57 77 58 42 59 43 60 57 62 78 63 45 64 29 65
REMARK SMILES IDX 30 66 38 67 31 68 37 69 39 70 36 71 32 72 33 73 34 74 35 75
REMARK SMILES IDX 61 76 62 77 70 78 63 79 69 80 71 81 68 82 64 83 65 84 66 85
REMARK SMILES IDX 67 86 46 87 47 88 55 89 48 90 54 91 56 92 53 93 49 94 50 95
REMARK SMILES IDX 51 96 52 97
REMARK H PARENT 76 50 44 61
REMARK Flexibility Score: inf
ROOT
ATOM      1  C   UNL A   1      41.070  22.032  26.063  1.00  0.00     0.188 C 
ENDROOT
BRANCH   1   2
ATOM      2  O   UNL A   1      40.820  23.119  26.942  1.00  0.00    -0.377 OA
BRANCH   2   3
ATOM      3  C   UNL A   1      39.472  23.383  27.269  1.00  0.00     0.188 C 
BRANCH   3   4
ATOM      4  C   UNL A   1      38.669  24.130  26.190  1.00  0.00     0.188 C 
BRANCH   4   5
ATOM      5  O   UNL A   1      37.758  23.438  25.347  1.00  0.00    -0.376 OA
BRANCH   5   6
ATOM      6  C   UNL A   1      36.360  23.491  25.588  1.00  0.00     0.202 C 
BRANCH   6   7
ATOM      7  C   UNL A   1      35.634  24.798  25.960  1.00  0.00     0.261 C 
BRANCH   7   8
ATOM      8  O   UNL A   1      34.621  25.250  25.044  1.00  0.00    -0.463 OA
BRANCH   8   9
ATOM      9  C   UNL A   1      33.492  25.756  25.591  1.00  0.00     0.313 C 
ATOM     10  O   UNL A   1      33.470  26.756  26.304  1.00  0.00    -0.252 OA
BRANCH   9  11
ATOM     11  C   UNL A   1      32.208  24.996  25.196  1.00  0.00     0.126 C 
ATOM     12  C   UNL A   1      30.923  25.363  25.955  1.00  0.00     0.025 C 
BRANCH  11  13
ATOM     13  C   UNL A   1      32.491  23.502  25.000  1.00  0.00    -0.031 A 
ATOM     14  C   UNL A   1      32.482  23.010  23.684  1.00  0.00     0.005 A 
ATOM     15  C   UNL A   1      32.799  22.589  26.020  1.00  0.00     0.044 A 
ATOM     16  C   UNL A   1      32.764  21.675  23.394  1.00  0.00     0.012 A 
ATOM     17  C   UNL A   1      33.075  21.244  25.721  1.00  0.00     0.131 A 
ATOM     18  C   UNL A   1      33.055  20.756  24.409  1.00  0.00     0.017 A 
ATOM     19  F   UNL A   1      33.366  20.420  26.742  1.00  0.00    -0.206 F 
BRANCH  18  20
ATOM     20  C   UNL A   1      33.265  19.339  24.065  1.00  0.00    -0.015 A 
ATOM     21  C   UNL A   1      34.317  18.600  24.637  1.00  0.00     0.009 A 
ATOM     22  C   UNL A   1      32.486  18.716  23.077  1.00  0.00     0.009 A 
ATOM     23  C   UNL A   1      34.603  17.302  24.210  1.00  0.00     0.001 A 
ATOM     24  C   UNL A   1      32.773  17.417  22.646  1.00  0.00     0.001 A 
ATOM     25  C   UNL A   1      33.837  16.714  23.207  1.00  0.00     0.000 A 
ENDBRANCH  18  20
ENDBRANCH  11  13
ENDBRANCH   9  11
ENDBRANCH   8   9
ENDBRANCH   7   8
ENDBRANCH   6   7
ENDBRANCH   5   6
ENDBRANCH   4   5
ENDBRANCH   3   4
ENDBRANCH   2   3
ENDBRANCH   1   2
BRANCH   1  26
ATOM     26  C   UNL A   1      42.342  21.190  26.292  1.00  0.00     0.188 C 
BRANCH  26  27
ATOM     27  O   UNL A   1      43.046  20.866  25.099  1.00  0.00    -0.376 OA
BRANCH  27  28
ATOM     28  C   UNL A   1      44.264  21.545  24.825  1.00  0.00     0.202 C 
BRANCH  28  29
ATOM     29  C   UNL A   1      44.185  23.044  24.485  1.00  0.00     0.261 C 
BRANCH  29  30
ATOM     30  O   UNL A   1      44.091  23.955  25.592  1.00  0.00    -0.460 OA
BRANCH  30  31
ATOM     31  C   UNL A   1      44.953  24.994  25.629  1.00  0.00     0.338 C 
ATOM     32  O   UNL A   1      45.754  25.306  24.762  1.00  0.00    -0.246 OA
BRANCH  31  33
ATOM     33  C   UNL A   1      44.617  25.821  26.807  1.00  0.00     0.060 A 
ATOM     34  C   UNL A   1      44.071  25.198  27.938  1.00  0.00     0.016 A 
ATOM     35  C   UNL A   1      44.846  27.200  26.804  1.00  0.00     0.016 A 
ATOM     36  C   UNL A   1      43.716  25.958  29.054  1.00  0.00     0.010 A 
ATOM     37  C   UNL A   1      44.467  27.963  27.914  1.00  0.00     0.010 A 
ATOM     38  C   UNL A   1      43.868  27.350  29.030  1.00  0.00    -0.014 A 
BRANCH  38  39
ATOM     39  C   UNL A   1      43.204  28.179  30.068  1.00  0.00     0.031 A 
ATOM     40  C   UNL A   1      43.921  28.381  31.377  1.00  0.00     0.074 A 
ATOM     41  C   UNL A   1      42.014  28.767  29.851  1.00  0.00     0.049 A 
ATOM     42  N   UNL A   1      43.526  29.004  32.457  1.00  0.00    -0.248 NA
ATOM     43  C   UNL A   1      45.267  27.794  31.477  1.00  0.00     0.031 C 
ATOM     44  C   UNL A   1      41.252  28.694  28.605  1.00  0.00     0.029 A 
ATOM     45  N   UNL A   1      41.234  29.536  30.679  1.00  0.00    -0.354 N 
ATOM     46  C   UNL A   1      44.572  28.880  33.366  1.00  0.00     0.074 A 
ATOM     47  C   UNL A   1      45.597  28.085  32.724  1.00  0.00     0.031 C 
ATOM     48  C   UNL A   1      40.106  29.382  28.757  1.00  0.00     0.029 A 
ATOM     49  C   UNL A   1      40.031  29.904  30.122  1.00  0.00     0.049 A 
ATOM     50  H   UNL A   1      41.510  29.800  31.586  1.00  0.00     0.167 HD
ATOM     51  C   UNL A   1      44.672  29.390  34.619  1.00  0.00     0.034 A 
ATOM     52  C   UNL A   1      38.982  30.558  30.662  1.00  0.00     0.034 A 
ATOM     53  C   UNL A   1      43.633  30.165  35.250  1.00  0.00     0.049 A 
ATOM     54  C   UNL A   1      39.069  31.025  32.098  1.00  0.00     0.074 A 
ATOM     55  C   UNL A   1      43.628  30.731  36.513  1.00  0.00     0.029 A 
ATOM     56  N   UNL A   1      42.406  30.472  34.674  1.00  0.00    -0.354 N 
ATOM     57  N   UNL A   1      40.061  30.900  32.951  1.00  0.00    -0.248 NA
ATOM     58  C   UNL A   1      37.897  31.726  32.641  1.00  0.00     0.031 C 
ATOM     59  C   UNL A   1      42.371  31.304  36.732  1.00  0.00     0.029 A 
ATOM     60  C   UNL A   1      41.624  31.186  35.571  1.00  0.00     0.049 A 
ATOM     61  H   UNL A   1      42.132  30.220  33.763  1.00  0.00     0.167 HD
ATOM     62  C   UNL A   1      39.644  31.541  34.117  1.00  0.00     0.074 A 
ATOM     63  C   UNL A   1      38.319  32.060  33.852  1.00  0.00     0.031 C 
ATOM     64  C   UNL A   1      40.299  31.693  35.298  1.00  0.00     0.034 A 
BRANCH  51  65
ATOM     65  C   UNL A   1      45.925  29.072  35.399  1.00  0.00     0.023 A 
ATOM     66  C   UNL A   1      47.015  29.958  35.445  1.00  0.00     0.031 A 
ATOM     67  C   UNL A   1      46.044  27.848  36.080  1.00  0.00     0.131 A 
ATOM     68  C   UNL A   1      48.200  29.576  36.093  1.00  0.00     0.055 A 
ATOM     69  C   UNL A   1      47.193  27.511  36.797  1.00  0.00     0.041 A 
ATOM     70  F   UNL A   1      45.048  26.948  36.050  1.00  0.00    -0.206 F 
ATOM     71  C   UNL A   1      48.287  28.372  36.793  1.00  0.00     0.022 A 
BRANCH  68  72
ATOM     72  S   UNL A   1      49.677  30.606  35.874  1.00  0.00     0.124 S 
ATOM     73  O   UNL A   1      50.240  30.605  37.222  1.00  0.00    -0.237 OA
ATOM     74  O   UNL A   1      50.430  29.869  34.866  1.00  0.00    -0.237 OA
ATOM     75  O   UNL A   1      49.137  31.891  35.434  1.00  0.00    -0.744 OA
ENDBRANCH  68  72
ENDBRANCH  51  65
BRANCH  52  76
ATOM     76  C   UNL A   1      37.731  30.769  29.872  1.00  0.00     0.023 A 
ATOM     77  C   UNL A   1      37.241  32.059  29.610  1.00  0.00     0.031 A 
ATOM     78  C   UNL A   1      36.968  29.674  29.425  1.00  0.00     0.131 A 
ATOM     79  C   UNL A   1      36.002  32.220  28.968  1.00  0.00     0.055 A 
ATOM     80  C   UNL A   1      35.768  29.842  28.732  1.00  0.00     0.041 A 
ATOM     81  F   UNL A   1      37.382  28.418  29.657  1.00  0.00    -0.206 F 
ATOM     82  C   UNL A   1      35.271  31.122  28.512  1.00  0.00     0.022 A 
BRANCH  79  83
ATOM     83  S   UNL A   1      35.307  33.891  28.827  1.00  0.00     0.124 S 
ATOM     84  O   UNL A   1      36.494  34.720  29.011  1.00  0.00    -0.237 OA
ATOM     85  O   UNL A   1      34.740  33.870  27.483  1.00  0.00    -0.237 OA
ATOM     86  O   UNL A   1      34.332  33.946  29.914  1.00  0.00    -0.744 OA
ENDBRANCH  79  83
ENDBRANCH  52  76
BRANCH  64  87
ATOM     87  C   UNL A   1      39.613  32.503  36.375  1.00  0.00     0.023 A 
ATOM     88  C   UNL A   1      38.725  31.919  37.295  1.00  0.00     0.031 A 
ATOM     89  C   UNL A   1      39.856  33.885  36.479  1.00  0.00     0.131 A 
ATOM     90  C   UNL A   1      38.067  32.724  38.238  1.00  0.00     0.055 A 
ATOM     91  C   UNL A   1      39.254  34.667  37.465  1.00  0.00     0.041 A 
ATOM     92  F   UNL A   1      40.692  34.499  35.625  1.00  0.00    -0.206 F 
ATOM     93  C   UNL A   1      38.342  34.090  38.343  1.00  0.00     0.022 A 
BRANCH  90  94
ATOM     94  S   UNL A   1      36.767  31.982  39.262  1.00  0.00     0.124 S 
ATOM     95  O   UNL A   1      36.824  30.582  38.855  1.00  0.00    -0.237 OA
ATOM     96  O   UNL A   1      37.230  32.272  40.615  1.00  0.00    -0.237 OA
ATOM     97  O   UNL A   1      35.558  32.697  38.855  1.00  0.00    -0.744 OA
ENDBRANCH  90  94
ENDBRANCH  64  87
ENDBRANCH  38  39
ENDBRANCH  31  33
ENDBRANCH  30  31
ENDBRANCH  29  30
ENDBRANCH  28  29
ENDBRANCH  27  28
ENDBRANCH  26  27
ENDBRANCH   1  26
TORSDOF 25
ENDMDL
