MODEL 1
REMARK VINA RESULT:      -8.3      0.000      0.000
REMARK SMILES C[C@@H]1SCCC[C@]1(CC(=O)OCCOCCOCCOCCOC(=O)c1ccc(-c2c3nc(c(-c4cc(S(=O)(=O)[O-])ccc4F)c4ccc([nH]4)c(-c4cc(S(=O)(=O)[O-])ccc4F)c4nc(c(-c5cc(S(=O)(=O)[O-])ccc5F)c5ccc2[nH]5)C=C4)C=C3)cc1)C(C)(C)[NH3+]
REMARK SMILES IDX 17 1 16 2 15 3 14 4 13 5 12 6 11 7 9 8 10 9 8 10 7 11 1 12
REMARK SMILES IDX 2 13 3 14 4 15 6 16 5 17 89 18 90 19 91 20 92 21 18 25 19 26
REMARK SMILES IDX 20 27 21 28 22 29 23 30 24 31 25 32 26 33 27 34 88 35 28 36
REMARK SMILES IDX 87 37 29 38 30 39 31 40 81 41 32 42 86 43 80 44 82 45 33 46
REMARK SMILES IDX 85 47 79 48 78 49 34 51 66 52 46 53 65 54 47 55 50 56 64 57
REMARK SMILES IDX 83 58 48 59 49 60 63 62 84 63 51 64 35 65 36 66 44 67 37 68
REMARK SMILES IDX 43 69 45 70 42 71 38 72 39 73 40 74 41 75 67 76 68 77 76 78
REMARK SMILES IDX 69 79 75 80 77 81 74 82 70 83 71 84 72 85 73 86 52 87 53 88
REMARK SMILES IDX 61 89 54 90 60 91 62 92 59 93 55 94 56 95 57 96 58 97
REMARK H PARENT 92 22 92 23 92 24 82 50 50 61
REMARK Flexibility Score: inf
ROOT
ATOM      1  O   UNL A   1      39.796  19.599  25.321  1.00  0.00    -0.377 OA
ENDROOT
BRANCH   1   2
ATOM      2  C   UNL A   1      38.561  20.294  25.454  1.00  0.00     0.188 C 
BRANCH   2   3
ATOM      3  C   UNL A   1      38.774  21.754  25.864  1.00  0.00     0.188 C 
BRANCH   3   4
ATOM      4  O   UNL A   1      37.580  22.530  25.977  1.00  0.00    -0.376 OA
BRANCH   4   5
ATOM      5  C   UNL A   1      37.198  23.296  24.833  1.00  0.00     0.202 C 
BRANCH   5   6
ATOM      6  C   UNL A   1      35.691  23.540  24.660  1.00  0.00     0.261 C 
BRANCH   6   7
ATOM      7  O   UNL A   1      34.940  23.296  25.871  1.00  0.00    -0.463 OA
BRANCH   7   8
ATOM      8  C   UNL A   1      33.650  23.722  25.858  1.00  0.00     0.306 C 
ATOM      9  O   UNL A   1      32.842  23.524  26.760  1.00  0.00    -0.252 OA
BRANCH   8  10
ATOM     10  C   UNL A   1      33.348  24.692  24.720  1.00  0.00     0.137 C 
BRANCH  10  11
ATOM     11  C   UNL A   1      32.181  25.773  24.749  1.00  0.00     0.046 C 
ATOM     12  C   UNL A   1      31.095  27.574  26.398  1.00  0.00     0.020 C 
ATOM     13  C   UNL A   1      32.240  26.598  26.106  1.00  0.00     0.056 C 
ATOM     14  S   UNL A   1      33.807  27.553  26.290  1.00  0.00    -0.158 SA
ATOM     15  C   UNL A   1      33.735  28.528  24.774  1.00  0.00     0.070 C 
ATOM     16  C   UNL A   1      32.419  26.740  23.531  1.00  0.00     0.016 C 
ATOM     17  C   UNL A   1      33.673  27.617  23.562  1.00  0.00     0.012 C 
BRANCH  11  18
ATOM     18  C   UNL A   1      30.731  25.070  24.512  1.00  0.00     0.096 C 
ATOM     19  C   UNL A   1      29.617  25.987  23.939  1.00  0.00     0.079 C 
ATOM     20  C   UNL A   1      30.739  23.852  23.550  1.00  0.00     0.079 C 
BRANCH  18  21
ATOM     21  N   UNL A   1      30.241  24.606  25.799  1.00  0.00    -0.353 N 
ATOM     22  H   UNL A   1      29.342  25.043  25.998  1.00  0.00     0.344 HD
ATOM     23  H   UNL A   1      30.910  24.858  26.528  1.00  0.00     0.344 HD
ATOM     24  H   UNL A   1      30.130  23.592  25.776  1.00  0.00     0.344 HD
ENDBRANCH  18  21
ENDBRANCH  11  18
ENDBRANCH  10  11
ENDBRANCH   8  10
ENDBRANCH   7   8
ENDBRANCH   6   7
ENDBRANCH   5   6
ENDBRANCH   4   5
ENDBRANCH   3   4
ENDBRANCH   2   3
ENDBRANCH   1   2
BRANCH   1  25
ATOM     25  C   UNL A   1      40.849  19.883  26.250  1.00  0.00     0.188 C 
BRANCH  25  26
ATOM     26  C   UNL A   1      42.154  19.090  26.137  1.00  0.00     0.188 C 
BRANCH  26  27
ATOM     27  O   UNL A   1      42.968  19.304  24.987  1.00  0.00    -0.376 OA
BRANCH  27  28
ATOM     28  C   UNL A   1      44.193  20.011  25.140  1.00  0.00     0.202 C 
BRANCH  28  29
ATOM     29  C   UNL A   1      44.466  21.174  24.181  1.00  0.00     0.261 C 
BRANCH  29  30
ATOM     30  O   UNL A   1      44.021  22.444  24.687  1.00  0.00    -0.460 OA
BRANCH  30  31
ATOM     31  C   UNL A   1      44.988  23.392  24.751  1.00  0.00     0.338 C 
ATOM     32  O   UNL A   1      46.032  23.411  24.126  1.00  0.00    -0.246 OA
BRANCH  31  33
ATOM     33  C   UNL A   1      44.541  24.527  25.581  1.00  0.00     0.060 A 
ATOM     34  C   UNL A   1      44.041  25.656  24.919  1.00  0.00     0.016 A 
ATOM     35  C   UNL A   1      44.737  24.542  26.964  1.00  0.00     0.016 A 
ATOM     36  C   UNL A   1      43.783  26.823  25.630  1.00  0.00     0.010 A 
ATOM     37  C   UNL A   1      44.493  25.723  27.674  1.00  0.00     0.010 A 
ATOM     38  C   UNL A   1      44.058  26.879  27.001  1.00  0.00    -0.014 A 
BRANCH  38  39
ATOM     39  C   UNL A   1      44.081  28.204  27.668  1.00  0.00     0.031 A 
ATOM     40  C   UNL A   1      42.798  28.737  28.248  1.00  0.00     0.074 A 
ATOM     41  C   UNL A   1      45.232  28.880  27.817  1.00  0.00     0.049 A 
ATOM     42  N   UNL A   1      42.569  29.867  28.865  1.00  0.00    -0.248 NA
ATOM     43  C   UNL A   1      41.613  27.874  28.112  1.00  0.00     0.031 C 
ATOM     44  C   UNL A   1      46.542  28.425  27.354  1.00  0.00     0.029 A 
ATOM     45  N   UNL A   1      45.484  30.095  28.402  1.00  0.00    -0.354 N 
ATOM     46  C   UNL A   1      41.217  29.853  29.191  1.00  0.00     0.074 A 
ATOM     47  C   UNL A   1      40.671  28.618  28.670  1.00  0.00     0.031 C 
ATOM     48  C   UNL A   1      47.461  29.355  27.666  1.00  0.00     0.029 A 
ATOM     49  C   UNL A   1      46.799  30.487  28.313  1.00  0.00     0.049 A 
ATOM     50  H   UNL A   1      44.790  30.635  28.844  1.00  0.00     0.167 HD
ATOM     51  C   UNL A   1      40.499  30.783  29.870  1.00  0.00     0.034 A 
ATOM     52  C   UNL A   1      47.390  31.640  28.686  1.00  0.00     0.034 A 
ATOM     53  C   UNL A   1      41.062  32.017  30.365  1.00  0.00     0.049 A 
ATOM     54  C   UNL A   1      46.550  32.706  29.350  1.00  0.00     0.074 A 
ATOM     55  C   UNL A   1      40.431  33.033  31.063  1.00  0.00     0.029 A 
ATOM     56  N   UNL A   1      42.384  32.409  30.203  1.00  0.00    -0.354 N 
ATOM     57  N   UNL A   1      45.272  32.685  29.651  1.00  0.00    -0.248 NA
ATOM     58  C   UNL A   1      47.238  33.946  29.732  1.00  0.00     0.031 C 
ATOM     59  C   UNL A   1      41.353  34.069  31.253  1.00  0.00     0.029 A 
ATOM     60  C   UNL A   1      42.581  33.666  30.754  1.00  0.00     0.049 A 
ATOM     61  H   UNL A   1      43.081  31.873  29.762  1.00  0.00     0.167 HD
ATOM     62  C   UNL A   1      45.010  33.898  30.285  1.00  0.00     0.074 A 
ATOM     63  C   UNL A   1      46.267  34.615  30.337  1.00  0.00     0.031 C 
ATOM     64  C   UNL A   1      43.841  34.375  30.785  1.00  0.00     0.034 A 
BRANCH  51  65
ATOM     65  C   UNL A   1      39.023  30.522  30.052  1.00  0.00     0.023 A 
ATOM     66  C   UNL A   1      38.057  31.074  29.192  1.00  0.00     0.031 A 
ATOM     67  C   UNL A   1      38.572  29.740  31.130  1.00  0.00     0.131 A 
ATOM     68  C   UNL A   1      36.692  30.894  29.464  1.00  0.00     0.055 A 
ATOM     69  C   UNL A   1      37.215  29.497  31.349  1.00  0.00     0.041 A 
ATOM     70  F   UNL A   1      39.444  29.207  32.000  1.00  0.00    -0.206 F 
ATOM     71  C   UNL A   1      36.265  30.089  30.522  1.00  0.00     0.022 A 
BRANCH  68  72
ATOM     72  S   UNL A   1      35.482  31.848  28.505  1.00  0.00     0.124 S 
ATOM     73  O   UNL A   1      34.524  32.234  29.539  1.00  0.00    -0.237 OA
ATOM     74  O   UNL A   1      36.295  32.924  27.952  1.00  0.00    -0.237 OA
ATOM     75  O   UNL A   1      34.979  30.882  27.531  1.00  0.00    -0.744 OA
ENDBRANCH  68  72
ENDBRANCH  51  65
BRANCH  52  76
ATOM     76  C   UNL A   1      48.836  31.875  28.402  1.00  0.00     0.023 A 
ATOM     77  C   UNL A   1      49.251  32.565  27.253  1.00  0.00     0.031 A 
ATOM     78  C   UNL A   1      49.829  31.358  29.255  1.00  0.00     0.131 A 
ATOM     79  C   UNL A   1      50.621  32.681  26.964  1.00  0.00     0.055 A 
ATOM     80  C   UNL A   1      51.189  31.524  28.993  1.00  0.00     0.041 A 
ATOM     81  F   UNL A   1      49.487  30.684  30.365  1.00  0.00    -0.206 F 
ATOM     82  C   UNL A   1      51.592  32.178  27.833  1.00  0.00     0.022 A 
BRANCH  79  83
ATOM     83  S   UNL A   1      51.116  33.421  25.383  1.00  0.00     0.124 S 
ATOM     84  O   UNL A   1      49.909  34.148  25.005  1.00  0.00    -0.237 OA
ATOM     85  O   UNL A   1      52.259  34.238  25.777  1.00  0.00    -0.237 OA
ATOM     86  O   UNL A   1      51.435  32.265  24.550  1.00  0.00    -0.744 OA
ENDBRANCH  79  83
ENDBRANCH  52  76
BRANCH  64  87
ATOM     87  C   UNL A   1      43.885  35.719  31.473  1.00  0.00     0.023 A 
ATOM     88  C   UNL A   1      43.789  36.923  30.755  1.00  0.00     0.031 A 
ATOM     89  C   UNL A   1      44.039  35.792  32.870  1.00  0.00     0.131 A 
ATOM     90  C   UNL A   1      43.909  38.149  31.427  1.00  0.00     0.055 A 
ATOM     91  C   UNL A   1      44.093  37.015  33.540  1.00  0.00     0.041 A 
ATOM     92  F   UNL A   1      44.140  34.674  33.606  1.00  0.00    -0.206 F 
ATOM     93  C   UNL A   1      44.042  38.202  32.817  1.00  0.00     0.022 A 
BRANCH  90  94
ATOM     94  S   UNL A   1      43.992  39.675  30.449  1.00  0.00     0.124 S 
ATOM     95  O   UNL A   1      45.412  40.003  30.520  1.00  0.00    -0.237 OA
ATOM     96  O   UNL A   1      43.504  39.236  29.146  1.00  0.00    -0.237 OA
ATOM     97  O   UNL A   1      43.107  40.591  31.166  1.00  0.00    -0.744 OA
ENDBRANCH  90  94
ENDBRANCH  64  87
ENDBRANCH  38  39
ENDBRANCH  31  33
ENDBRANCH  30  31
ENDBRANCH  29  30
ENDBRANCH  28  29
ENDBRANCH  27  28
ENDBRANCH  26  27
ENDBRANCH  25  26
ENDBRANCH   1  25
TORSDOF 26
ENDMDL
MODEL 2
REMARK VINA RESULT:      -8.2      3.972      6.948
REMARK SMILES C[C@@H]1SCCC[C@]1(CC(=O)OCCOCCOCCOCCOC(=O)c1ccc(-c2c3nc(c(-c4cc(S(=O)(=O)[O-])ccc4F)c4ccc([nH]4)c(-c4cc(S(=O)(=O)[O-])ccc4F)c4nc(c(-c5cc(S(=O)(=O)[O-])ccc5F)c5ccc2[nH]5)C=C4)C=C3)cc1)C(C)(C)[NH3+]
REMARK SMILES IDX 17 1 16 2 15 3 14 4 13 5 12 6 11 7 9 8 10 9 8 10 7 11 1 12
REMARK SMILES IDX 2 13 3 14 4 15 6 16 5 17 89 18 90 19 91 20 92 21 18 25 19 26
REMARK SMILES IDX 20 27 21 28 22 29 23 30 24 31 25 32 26 33 27 34 88 35 28 36
REMARK SMILES IDX 87 37 29 38 30 39 31 40 81 41 32 42 86 43 80 44 82 45 33 46
REMARK SMILES IDX 85 47 79 48 78 49 34 51 66 52 46 53 65 54 47 55 50 56 64 57
REMARK SMILES IDX 83 58 48 59 49 60 63 62 84 63 51 64 35 65 36 66 44 67 37 68
REMARK SMILES IDX 43 69 45 70 42 71 38 72 39 73 40 74 41 75 67 76 68 77 76 78
REMARK SMILES IDX 69 79 75 80 77 81 74 82 70 83 71 84 72 85 73 86 52 87 53 88
REMARK SMILES IDX 61 89 54 90 60 91 62 92 59 93 55 94 56 95 57 96 58 97
REMARK H PARENT 92 22 92 23 92 24 82 50 50 61
REMARK Flexibility Score: inf
ROOT
ATOM      1  O   UNL A   1      37.408  22.410  25.897  1.00  0.00    -0.377 OA
ENDROOT
BRANCH   1   2
ATOM      2  C   UNL A   1      36.744  21.522  25.005  1.00  0.00     0.188 C 
BRANCH   2   3
ATOM      3  C   UNL A   1      35.255  21.393  25.339  1.00  0.00     0.188 C 
BRANCH   3   4
ATOM      4  O   UNL A   1      34.397  21.210  24.212  1.00  0.00    -0.376 OA
BRANCH   4   5
ATOM      5  C   UNL A   1      33.518  22.289  23.888  1.00  0.00     0.202 C 
BRANCH   5   6
ATOM      6  C   UNL A   1      34.072  23.340  22.915  1.00  0.00     0.261 C 
BRANCH   6   7
ATOM      7  O   UNL A   1      33.889  24.694  23.388  1.00  0.00    -0.463 OA
BRANCH   7   8
ATOM      8  C   UNL A   1      33.194  25.516  22.559  1.00  0.00     0.306 C 
ATOM      9  O   UNL A   1      33.647  26.015  21.534  1.00  0.00    -0.252 OA
BRANCH   8  10
ATOM     10  C   UNL A   1      31.705  25.578  22.883  1.00  0.00     0.137 C 
BRANCH  10  11
ATOM     11  C   UNL A   1      31.101  26.213  24.211  1.00  0.00     0.046 C 
ATOM     12  C   UNL A   1      31.727  27.999  26.098  1.00  0.00     0.020 C 
ATOM     13  C   UNL A   1      32.049  27.376  24.735  1.00  0.00     0.056 C 
ATOM     14  S   UNL A   1      32.193  28.770  23.537  1.00  0.00    -0.158 SA
ATOM     15  C   UNL A   1      30.447  29.191  23.366  1.00  0.00     0.070 C 
ATOM     16  C   UNL A   1      29.693  26.807  23.838  1.00  0.00     0.016 C 
ATOM     17  C   UNL A   1      29.661  27.991  22.869  1.00  0.00     0.012 C 
BRANCH  11  18
ATOM     18  C   UNL A   1      30.842  25.066  25.338  1.00  0.00     0.096 C 
ATOM     19  C   UNL A   1      32.027  24.775  26.297  1.00  0.00     0.079 C 
ATOM     20  C   UNL A   1      29.651  25.341  26.294  1.00  0.00     0.079 C 
BRANCH  18  21
ATOM     21  N   UNL A   1      30.570  23.815  24.651  1.00  0.00    -0.353 N 
ATOM     22  H   UNL A   1      29.865  23.969  23.930  1.00  0.00     0.344 HD
ATOM     23  H   UNL A   1      30.226  23.127  25.321  1.00  0.00     0.344 HD
ATOM     24  H   UNL A   1      31.428  23.470  24.220  1.00  0.00     0.344 HD
ENDBRANCH  18  21
ENDBRANCH  11  18
ENDBRANCH  10  11
ENDBRANCH   8  10
ENDBRANCH   7   8
ENDBRANCH   6   7
ENDBRANCH   5   6
ENDBRANCH   4   5
ENDBRANCH   3   4
ENDBRANCH   2   3
ENDBRANCH   1   2
BRANCH   1  25
ATOM     25  C   UNL A   1      38.810  22.231  26.131  1.00  0.00     0.188 C 
BRANCH  25  26
ATOM     26  C   UNL A   1      39.412  20.840  25.917  1.00  0.00     0.188 C 
BRANCH  26  27
ATOM     27  O   UNL A   1      40.753  20.619  26.347  1.00  0.00    -0.376 OA
BRANCH  27  28
ATOM     28  C   UNL A   1      41.185  21.210  27.566  1.00  0.00     0.202 C 
BRANCH  28  29
ATOM     29  C   UNL A   1      42.149  22.397  27.477  1.00  0.00     0.261 C 
BRANCH  29  30
ATOM     30  O   UNL A   1      41.569  23.634  27.926  1.00  0.00    -0.460 OA
BRANCH  30  31
ATOM     31  C   UNL A   1      41.540  24.612  26.988  1.00  0.00     0.338 C 
ATOM     32  O   UNL A   1      40.555  25.057  26.428  1.00  0.00    -0.246 OA
BRANCH  31  33
ATOM     33  C   UNL A   1      42.878  25.213  26.830  1.00  0.00     0.060 A 
ATOM     34  C   UNL A   1      43.556  25.600  27.992  1.00  0.00     0.016 A 
ATOM     35  C   UNL A   1      43.397  25.518  25.568  1.00  0.00     0.016 A 
ATOM     36  C   UNL A   1      44.730  26.341  27.901  1.00  0.00     0.010 A 
ATOM     37  C   UNL A   1      44.569  26.278  25.479  1.00  0.00     0.010 A 
ATOM     38  C   UNL A   1      45.214  26.729  26.646  1.00  0.00    -0.014 A 
BRANCH  38  39
ATOM     39  C   UNL A   1      46.268  27.769  26.580  1.00  0.00     0.031 A 
ATOM     40  C   UNL A   1      45.856  29.214  26.662  1.00  0.00     0.074 A 
ATOM     41  C   UNL A   1      47.567  27.431  26.523  1.00  0.00     0.049 A 
ATOM     42  N   UNL A   1      46.591  30.295  26.617  1.00  0.00    -0.248 NA
ATOM     43  C   UNL A   1      44.415  29.473  26.817  1.00  0.00     0.031 C 
ATOM     44  C   UNL A   1      48.081  26.062  26.509  1.00  0.00     0.029 A 
ATOM     45  N   UNL A   1      48.691  28.214  26.469  1.00  0.00    -0.354 N 
ATOM     46  C   UNL A   1      45.706  31.361  26.737  1.00  0.00     0.074 A 
ATOM     47  C   UNL A   1      44.376  30.796  26.819  1.00  0.00     0.031 C 
ATOM     48  C   UNL A   1      49.423  26.102  26.440  1.00  0.00     0.029 A 
ATOM     49  C   UNL A   1      49.859  27.496  26.365  1.00  0.00     0.049 A 
ATOM     50  H   UNL A   1      48.666  29.198  26.501  1.00  0.00     0.167 HD
ATOM     51  C   UNL A   1      45.979  32.689  26.781  1.00  0.00     0.034 A 
ATOM     52  C   UNL A   1      51.129  27.918  26.200  1.00  0.00     0.034 A 
ATOM     53  C   UNL A   1      47.314  33.231  26.679  1.00  0.00     0.049 A 
ATOM     54  C   UNL A   1      51.400  29.403  26.150  1.00  0.00     0.074 A 
ATOM     55  C   UNL A   1      47.711  34.557  26.708  1.00  0.00     0.029 A 
ATOM     56  N   UNL A   1      48.467  32.475  26.512  1.00  0.00    -0.354 N 
ATOM     57  N   UNL A   1      50.556  30.404  26.261  1.00  0.00    -0.248 NA
ATOM     58  C   UNL A   1      52.798  29.814  25.963  1.00  0.00     0.031 C 
ATOM     59  C   UNL A   1      49.091  34.605  26.483  1.00  0.00     0.029 A 
ATOM     60  C   UNL A   1      49.571  33.307  26.401  1.00  0.00     0.049 A 
ATOM     61  H   UNL A   1      48.498  31.492  26.479  1.00  0.00     0.167 HD
ATOM     62  C   UNL A   1      51.327  31.562  26.186  1.00  0.00     0.074 A 
ATOM     63  C   UNL A   1      52.703  31.133  26.038  1.00  0.00     0.031 C 
ATOM     64  C   UNL A   1      50.937  32.862  26.240  1.00  0.00     0.034 A 
BRANCH  51  65
ATOM     65  C   UNL A   1      44.807  33.636  26.881  1.00  0.00     0.023 A 
ATOM     66  C   UNL A   1      44.298  34.064  28.120  1.00  0.00     0.031 A 
ATOM     67  C   UNL A   1      44.162  34.086  25.715  1.00  0.00     0.131 A 
ATOM     68  C   UNL A   1      43.140  34.856  28.166  1.00  0.00     0.055 A 
ATOM     69  C   UNL A   1      43.058  34.939  25.765  1.00  0.00     0.041 A 
ATOM     70  F   UNL A   1      44.584  33.691  24.504  1.00  0.00    -0.206 F 
ATOM     71  C   UNL A   1      42.532  35.317  26.997  1.00  0.00     0.022 A 
BRANCH  68  72
ATOM     72  S   UNL A   1      42.354  35.152  29.774  1.00  0.00     0.124 S 
ATOM     73  O   UNL A   1      43.141  36.271  30.287  1.00  0.00    -0.237 OA
ATOM     74  O   UNL A   1      40.978  35.457  29.401  1.00  0.00    -0.237 OA
ATOM     75  O   UNL A   1      42.542  33.890  30.486  1.00  0.00    -0.744 OA
ENDBRANCH  68  72
ENDBRANCH  51  65
BRANCH  52  76
ATOM     76  C   UNL A   1      52.236  26.934  26.020  1.00  0.00     0.023 A 
ATOM     77  C   UNL A   1      53.118  26.628  27.067  1.00  0.00     0.031 A 
ATOM     78  C   UNL A   1      52.461  26.326  24.771  1.00  0.00     0.131 A 
ATOM     79  C   UNL A   1      54.210  25.775  26.835  1.00  0.00     0.055 A 
ATOM     80  C   UNL A   1      53.514  25.437  24.560  1.00  0.00     0.041 A 
ATOM     81  F   UNL A   1      51.651  26.589  23.732  1.00  0.00    -0.206 F 
ATOM     82  C   UNL A   1      54.405  25.167  25.593  1.00  0.00     0.022 A 
BRANCH  79  83
ATOM     83  S   UNL A   1      55.429  25.543  28.160  1.00  0.00     0.124 S 
ATOM     84  O   UNL A   1      55.615  24.097  28.141  1.00  0.00    -0.237 OA
ATOM     85  O   UNL A   1      56.552  26.341  27.679  1.00  0.00    -0.237 OA
ATOM     86  O   UNL A   1      54.753  26.071  29.342  1.00  0.00    -0.744 OA
ENDBRANCH  79  83
ENDBRANCH  52  76
BRANCH  64  87
ATOM     87  C   UNL A   1      52.025  33.908  26.186  1.00  0.00     0.023 A 
ATOM     88  C   UNL A   1      52.541  34.380  24.967  1.00  0.00     0.031 A 
ATOM     89  C   UNL A   1      52.562  34.431  27.377  1.00  0.00     0.131 A 
ATOM     90  C   UNL A   1      53.602  35.298  24.965  1.00  0.00     0.055 A 
ATOM     91  C   UNL A   1      53.573  35.393  27.368  1.00  0.00     0.041 A 
ATOM     92  F   UNL A   1      52.110  34.016  28.571  1.00  0.00    -0.206 F 
ATOM     93  C   UNL A   1      54.109  35.820  26.158  1.00  0.00     0.022 A 
BRANCH  90  94
ATOM     94  S   UNL A   1      54.384  35.724  23.383  1.00  0.00     0.124 S 
ATOM     95  O   UNL A   1      53.976  34.610  22.534  1.00  0.00    -0.237 OA
ATOM     96  O   UNL A   1      53.778  37.015  23.075  1.00  0.00    -0.237 OA
ATOM     97  O   UNL A   1      55.809  35.769  23.706  1.00  0.00    -0.744 OA
ENDBRANCH  90  94
ENDBRANCH  64  87
ENDBRANCH  38  39
ENDBRANCH  31  33
ENDBRANCH  30  31
ENDBRANCH  29  30
ENDBRANCH  28  29
ENDBRANCH  27  28
ENDBRANCH  26  27
ENDBRANCH  25  26
ENDBRANCH   1  25
TORSDOF 26
ENDMDL
MODEL 3
REMARK VINA RESULT:      -7.9      4.264      7.010
REMARK SMILES C[C@@H]1SCCC[C@]1(CC(=O)OCCOCCOCCOCCOC(=O)c1ccc(-c2c3nc(c(-c4cc(S(=O)(=O)[O-])ccc4F)c4ccc([nH]4)c(-c4cc(S(=O)(=O)[O-])ccc4F)c4nc(c(-c5cc(S(=O)(=O)[O-])ccc5F)c5ccc2[nH]5)C=C4)C=C3)cc1)C(C)(C)[NH3+]
REMARK SMILES IDX 17 1 16 2 15 3 14 4 13 5 12 6 11 7 9 8 10 9 8 10 7 11 1 12
REMARK SMILES IDX 2 13 3 14 4 15 6 16 5 17 89 18 90 19 91 20 92 21 18 25 19 26
REMARK SMILES IDX 20 27 21 28 22 29 23 30 24 31 25 32 26 33 27 34 88 35 28 36
REMARK SMILES IDX 87 37 29 38 30 39 31 40 81 41 32 42 86 43 80 44 82 45 33 46
REMARK SMILES IDX 85 47 79 48 78 49 34 51 66 52 46 53 65 54 47 55 50 56 64 57
REMARK SMILES IDX 83 58 48 59 49 60 63 62 84 63 51 64 35 65 36 66 44 67 37 68
REMARK SMILES IDX 43 69 45 70 42 71 38 72 39 73 40 74 41 75 67 76 68 77 76 78
REMARK SMILES IDX 69 79 75 80 77 81 74 82 70 83 71 84 72 85 73 86 52 87 53 88
REMARK SMILES IDX 61 89 54 90 60 91 62 92 59 93 55 94 56 95 57 96 58 97
REMARK H PARENT 92 22 92 23 92 24 82 50 50 61
REMARK Flexibility Score: inf
ROOT
ATOM      1  O   UNL A   1      37.398  22.600  25.834  1.00  0.00    -0.377 OA
ENDROOT
BRANCH   1   2
ATOM      2  C   UNL A   1      36.855  21.687  24.886  1.00  0.00     0.188 C 
BRANCH   2   3
ATOM      3  C   UNL A   1      35.353  21.478  25.099  1.00  0.00     0.188 C 
BRANCH   3   4
ATOM      4  O   UNL A   1      34.579  21.394  23.901  1.00  0.00    -0.376 OA
BRANCH   4   5
ATOM      5  C   UNL A   1      33.474  22.291  23.782  1.00  0.00     0.202 C 
BRANCH   5   6
ATOM      6  C   UNL A   1      33.464  23.185  22.533  1.00  0.00     0.261 C 
BRANCH   6   7
ATOM      7  O   UNL A   1      34.340  24.330  22.655  1.00  0.00    -0.463 OA
BRANCH   7   8
ATOM      8  C   UNL A   1      33.755  25.540  22.460  1.00  0.00     0.306 C 
ATOM      9  O   UNL A   1      33.284  25.922  21.393  1.00  0.00    -0.252 OA
BRANCH   8  10
ATOM     10  C   UNL A   1      33.509  26.306  23.756  1.00  0.00     0.137 C 
BRANCH  10  11
ATOM     11  C   UNL A   1      32.189  27.136  24.071  1.00  0.00     0.046 C 
ATOM     12  C   UNL A   1      29.567  27.094  23.552  1.00  0.00     0.020 C 
ATOM     13  C   UNL A   1      30.919  26.372  23.497  1.00  0.00     0.056 C 
ATOM     14  S   UNL A   1      30.668  24.722  24.281  1.00  0.00    -0.158 SA
ATOM     15  C   UNL A   1      30.571  25.230  26.009  1.00  0.00     0.070 C 
ATOM     16  C   UNL A   1      32.077  27.246  25.637  1.00  0.00     0.016 C 
ATOM     17  C   UNL A   1      31.841  25.952  26.419  1.00  0.00     0.012 C 
BRANCH  11  18
ATOM     18  C   UNL A   1      32.309  28.657  23.502  1.00  0.00     0.096 C 
ATOM     19  C   UNL A   1      33.730  29.114  23.077  1.00  0.00     0.079 C 
ATOM     20  C   UNL A   1      31.433  28.966  22.259  1.00  0.00     0.079 C 
BRANCH  18  21
ATOM     21  N   UNL A   1      31.900  29.565  24.561  1.00  0.00    -0.353 N 
ATOM     22  H   UNL A   1      31.916  30.523  24.213  1.00  0.00     0.344 HD
ATOM     23  H   UNL A   1      32.543  29.479  25.349  1.00  0.00     0.344 HD
ATOM     24  H   UNL A   1      30.956  29.329  24.866  1.00  0.00     0.344 HD
ENDBRANCH  18  21
ENDBRANCH  11  18
ENDBRANCH  10  11
ENDBRANCH   8  10
ENDBRANCH   7   8
ENDBRANCH   6   7
ENDBRANCH   5   6
ENDBRANCH   4   5
ENDBRANCH   3   4
ENDBRANCH   2   3
ENDBRANCH   1   2
BRANCH   1  25
ATOM     25  C   UNL A   1      38.777  22.475  26.199  1.00  0.00     0.188 C 
BRANCH  25  26
ATOM     26  C   UNL A   1      39.458  21.116  26.019  1.00  0.00     0.188 C 
BRANCH  26  27
ATOM     27  O   UNL A   1      40.696  20.894  26.690  1.00  0.00    -0.376 OA
BRANCH  27  28
ATOM     28  C   UNL A   1      40.921  21.541  27.936  1.00  0.00     0.202 C 
BRANCH  28  29
ATOM     29  C   UNL A   1      41.998  22.628  27.988  1.00  0.00     0.261 C 
BRANCH  29  30
ATOM     30  O   UNL A   1      41.522  23.874  28.525  1.00  0.00    -0.460 OA
BRANCH  30  31
ATOM     31  C   UNL A   1      41.478  24.890  27.629  1.00  0.00     0.338 C 
ATOM     32  O   UNL A   1      40.480  25.385  27.136  1.00  0.00    -0.246 OA
BRANCH  31  33
ATOM     33  C   UNL A   1      42.824  25.459  27.428  1.00  0.00     0.060 A 
ATOM     34  C   UNL A   1      43.478  25.986  28.548  1.00  0.00     0.016 A 
ATOM     35  C   UNL A   1      43.374  25.598  26.151  1.00  0.00     0.016 A 
ATOM     36  C   UNL A   1      44.660  26.702  28.391  1.00  0.00     0.010 A 
ATOM     37  C   UNL A   1      44.554  26.334  25.994  1.00  0.00     0.010 A 
ATOM     38  C   UNL A   1      45.176  26.925  27.109  1.00  0.00    -0.014 A 
BRANCH  38  39
ATOM     39  C   UNL A   1      46.241  27.943  26.938  1.00  0.00     0.031 A 
ATOM     40  C   UNL A   1      45.840  29.391  26.842  1.00  0.00     0.074 A 
ATOM     41  C   UNL A   1      47.537  27.591  26.941  1.00  0.00     0.049 A 
ATOM     42  N   UNL A   1      46.586  30.453  26.681  1.00  0.00    -0.248 NA
ATOM     43  C   UNL A   1      44.400  29.676  26.944  1.00  0.00     0.031 C 
ATOM     44  C   UNL A   1      48.039  26.226  27.096  1.00  0.00     0.029 A 
ATOM     45  N   UNL A   1      48.669  28.354  26.812  1.00  0.00    -0.354 N 
ATOM     46  C   UNL A   1      45.709  31.532  26.661  1.00  0.00     0.074 A 
ATOM     47  C   UNL A   1      44.373  30.990  26.789  1.00  0.00     0.031 C 
ATOM     48  C   UNL A   1      49.382  26.248  27.043  1.00  0.00     0.029 A 
ATOM     49  C   UNL A   1      49.832  27.620  26.811  1.00  0.00     0.049 A 
ATOM     50  H   UNL A   1      48.652  29.335  26.728  1.00  0.00     0.167 HD
ATOM     51  C   UNL A   1      45.994  32.854  26.553  1.00  0.00     0.034 A 
ATOM     52  C   UNL A   1      51.108  28.010  26.617  1.00  0.00     0.034 A 
ATOM     53  C   UNL A   1      47.334  33.370  26.408  1.00  0.00     0.049 A 
ATOM     54  C   UNL A   1      51.393  29.477  26.397  1.00  0.00     0.074 A 
ATOM     55  C   UNL A   1      47.743  34.687  26.287  1.00  0.00     0.029 A 
ATOM     56  N   UNL A   1      48.483  32.592  26.349  1.00  0.00    -0.354 N 
ATOM     57  N   UNL A   1      50.556  30.490  26.376  1.00  0.00    -0.248 NA
ATOM     58  C   UNL A   1      52.797  29.853  26.184  1.00  0.00     0.031 C 
ATOM     59  C   UNL A   1      49.127  34.698  26.079  1.00  0.00     0.029 A 
ATOM     60  C   UNL A   1      49.596  33.397  26.158  1.00  0.00     0.049 A 
ATOM     61  H   UNL A   1      48.505  31.612  26.433  1.00  0.00     0.167 HD
ATOM     62  C   UNL A   1      51.339  31.626  26.177  1.00  0.00     0.074 A 
ATOM     63  C   UNL A   1      52.712  31.172  26.102  1.00  0.00     0.031 C 
ATOM     64  C   UNL A   1      50.960  32.926  26.071  1.00  0.00     0.034 A 
BRANCH  51  65
ATOM     65  C   UNL A   1      44.829  33.814  26.523  1.00  0.00     0.023 A 
ATOM     66  C   UNL A   1      44.443  34.554  27.654  1.00  0.00     0.031 A 
ATOM     67  C   UNL A   1      44.066  33.962  25.350  1.00  0.00     0.131 A 
ATOM     68  C   UNL A   1      43.288  35.351  27.611  1.00  0.00     0.055 A 
ATOM     69  C   UNL A   1      42.965  34.819  25.289  1.00  0.00     0.041 A 
ATOM     70  F   UNL A   1      44.369  33.264  24.245  1.00  0.00    -0.206 F 
ATOM     71  C   UNL A   1      42.561  35.507  26.429  1.00  0.00     0.022 A 
BRANCH  68  72
ATOM     72  S   UNL A   1      42.663  36.062  29.159  1.00  0.00     0.124 S 
ATOM     73  O   UNL A   1      42.253  37.396  28.727  1.00  0.00    -0.237 OA
ATOM     74  O   UNL A   1      41.587  35.146  29.515  1.00  0.00    -0.237 OA
ATOM     75  O   UNL A   1      43.826  36.033  30.043  1.00  0.00    -0.744 OA
ENDBRANCH  68  72
ENDBRANCH  51  65
BRANCH  52  76
ATOM     76  C   UNL A   1      52.208  27.004  26.572  1.00  0.00     0.023 A 
ATOM     77  C   UNL A   1      53.138  26.891  27.617  1.00  0.00     0.031 A 
ATOM     78  C   UNL A   1      52.378  26.176  25.447  1.00  0.00     0.131 A 
ATOM     79  C   UNL A   1      54.220  26.004  27.496  1.00  0.00     0.055 A 
ATOM     80  C   UNL A   1      53.423  25.257  25.355  1.00  0.00     0.041 A 
ATOM     81  F   UNL A   1      51.521  26.247  24.415  1.00  0.00    -0.206 F 
ATOM     82  C   UNL A   1      54.361  25.177  26.380  1.00  0.00     0.022 A 
BRANCH  79  83
ATOM     83  S   UNL A   1      55.499  26.013  28.784  1.00  0.00     0.124 S 
ATOM     84  O   UNL A   1      56.519  25.153  28.195  1.00  0.00    -0.237 OA
ATOM     85  O   UNL A   1      55.829  27.432  28.871  1.00  0.00    -0.237 OA
ATOM     86  O   UNL A   1      54.813  25.462  29.950  1.00  0.00    -0.744 OA
ENDBRANCH  79  83
ENDBRANCH  52  76
BRANCH  64  87
ATOM     87  C   UNL A   1      52.058  33.951  25.911  1.00  0.00     0.023 A 
ATOM     88  C   UNL A   1      52.658  34.575  27.018  1.00  0.00     0.031 A 
ATOM     89  C   UNL A   1      52.501  34.317  24.626  1.00  0.00     0.131 A 
ATOM     90  C   UNL A   1      53.622  35.574  26.820  1.00  0.00     0.055 A 
ATOM     91  C   UNL A   1      53.507  35.265  24.438  1.00  0.00     0.041 A 
ATOM     92  F   UNL A   1      51.962  33.756  23.532  1.00  0.00    -0.206 F 
ATOM     93  C   UNL A   1      54.063  35.911  25.537  1.00  0.00     0.022 A 
BRANCH  90  94
ATOM     94  S   UNL A   1      54.221  36.506  28.258  1.00  0.00     0.124 S 
ATOM     95  O   UNL A   1      52.989  37.099  28.768  1.00  0.00    -0.237 OA
ATOM     96  O   UNL A   1      54.813  35.458  29.083  1.00  0.00    -0.237 OA
ATOM     97  O   UNL A   1      55.173  37.452  27.681  1.00  0.00    -0.744 OA
ENDBRANCH  90  94
ENDBRANCH  64  87
ENDBRANCH  38  39
ENDBRANCH  31  33
ENDBRANCH  30  31
ENDBRANCH  29  30
ENDBRANCH  28  29
ENDBRANCH  27  28
ENDBRANCH  26  27
ENDBRANCH  25  26
ENDBRANCH   1  25
TORSDOF 26
ENDMDL
