MODEL 1
REMARK VINA RESULT:      -8.6      0.000      0.000
REMARK SMILES COc1cccc(CC(=O)N[C@@](C)(C(=O)OCCOCCOCCOCCOC(=O)c2ccc(-c3c4nc(c(-c5cc(S(=O)(=O)[O-])ccc5F)c5ccc([nH]5)c(-c5cc(S(=O)(=O)[O-])ccc5F)c5nc(c(-c6cc(S(=O)(=O)[O-])ccc6F)c6ccc3[nH]6)C=C5)C=C4)cc2)C(F)(F)F)c1
REMARK SMILES IDX 21 1 20 2 19 3 18 4 17 5 16 6 14 7 15 8 12 9 13 10 11 11
REMARK SMILES IDX 9 12 10 13 8 15 7 16 3 17 4 18 98 19 5 20 6 21 2 22 1 23
REMARK SMILES IDX 94 24 95 25 96 26 97 27 22 28 23 29 24 30 25 31 26 32 27 33
REMARK SMILES IDX 28 34 29 35 30 36 31 37 32 38 93 39 33 40 92 41 34 42 35 43
REMARK SMILES IDX 36 44 86 45 37 46 91 47 85 48 87 49 38 50 90 51 84 52 83 53
REMARK SMILES IDX 39 55 71 56 51 57 70 58 52 59 55 60 69 61 88 62 53 63 54 64
REMARK SMILES IDX 68 66 89 67 56 68 40 69 41 70 49 71 42 72 48 73 50 74 47 75
REMARK SMILES IDX 43 76 44 77 45 78 46 79 72 80 73 81 81 82 74 83 80 84 82 85
REMARK SMILES IDX 79 86 75 87 76 88 77 89 78 90 57 91 58 92 66 93 59 94 65 95
REMARK SMILES IDX 67 96 64 97 60 98 61 99 62 100 63 101
REMARK H PARENT 11 14 87 54 55 65
REMARK Flexibility Score: inf
ROOT
ATOM      1  C   UNL A   1      38.374  21.364  25.426  1.00  0.00     0.188 C 
ENDROOT
BRANCH   1   2
ATOM      2  C   UNL A   1      37.078  22.133  25.713  1.00  0.00     0.188 C 
BRANCH   2   3
ATOM      3  O   UNL A   1      35.915  21.443  26.136  1.00  0.00    -0.376 OA
BRANCH   3   4
ATOM      4  C   UNL A   1      35.158  20.642  25.238  1.00  0.00     0.202 C 
BRANCH   4   5
ATOM      5  C   UNL A   1      33.808  21.073  24.629  1.00  0.00     0.261 C 
BRANCH   5   6
ATOM      6  O   UNL A   1      33.679  22.469  24.315  1.00  0.00    -0.461 OA
BRANCH   6   7
ATOM      7  C   UNL A   1      32.448  23.003  24.426  1.00  0.00     0.341 C 
ATOM      8  O   UNL A   1      31.466  22.355  24.776  1.00  0.00    -0.249 OA
BRANCH   7   9
ATOM      9  C   UNL A   1      32.395  24.511  24.104  1.00  0.00     0.231 C 
ATOM     10  C   UNL A   1      30.891  24.815  24.029  1.00  0.00     0.058 C 
BRANCH   9  11
ATOM     11  N   UNL A   1      32.960  24.934  22.752  1.00  0.00    -0.333 N 
ATOM     12  C   UNL A   1      33.164  26.084  22.044  1.00  0.00     0.225 C 
ATOM     13  O   UNL A   1      33.273  25.946  20.818  1.00  0.00    -0.275 OA
ATOM     14  H   UNL A   1      33.270  24.150  22.242  1.00  0.00     0.164 HD
BRANCH  12  15
ATOM     15  C   UNL A   1      33.413  27.472  22.636  1.00  0.00     0.135 C 
BRANCH  15  16
ATOM     16  C   UNL A   1      32.187  28.177  23.151  1.00  0.00    -0.035 A 
ATOM     17  C   UNL A   1      30.001  29.104  22.663  1.00  0.00     0.119 A 
ATOM     18  C   UNL A   1      30.104  29.899  23.807  1.00  0.00     0.046 A 
ATOM     19  C   UNL A   1      31.005  28.175  22.389  1.00  0.00     0.050 A 
ATOM     20  C   UNL A   1      31.197  29.770  24.667  1.00  0.00     0.004 A 
ATOM     21  C   UNL A   1      32.238  28.910  24.339  1.00  0.00     0.004 A 
BRANCH  17  22
ATOM     22  O   UNL A   1      28.941  29.390  21.846  1.00  0.00    -0.497 OA
ATOM     23  C   UNL A   1      27.637  29.300  22.417  1.00  0.00     0.278 C 
ENDBRANCH  17  22
ENDBRANCH  15  16
ENDBRANCH  12  15
ENDBRANCH   9  11
BRANCH   9  24
ATOM     24  C   UNL A   1      33.015  25.125  25.363  1.00  0.00     0.422 C 
ATOM     25  F   UNL A   1      32.968  24.270  26.411  1.00  0.00    -0.168 F 
ATOM     26  F   UNL A   1      34.302  25.442  25.122  1.00  0.00    -0.168 F 
ATOM     27  F   UNL A   1      32.454  26.269  25.803  1.00  0.00    -0.168 F 
ENDBRANCH   9  24
ENDBRANCH   7   9
ENDBRANCH   6   7
ENDBRANCH   5   6
ENDBRANCH   4   5
ENDBRANCH   3   4
ENDBRANCH   2   3
ENDBRANCH   1   2
BRANCH   1  28
ATOM     28  O   UNL A   1      39.421  21.596  26.344  1.00  0.00    -0.377 OA
BRANCH  28  29
ATOM     29  C   UNL A   1      40.567  20.764  26.243  1.00  0.00     0.188 C 
BRANCH  29  30
ATOM     30  C   UNL A   1      41.325  20.385  27.532  1.00  0.00     0.188 C 
BRANCH  30  31
ATOM     31  O   UNL A   1      42.385  21.265  27.885  1.00  0.00    -0.376 OA
BRANCH  31  32
ATOM     32  C   UNL A   1      42.647  22.391  27.057  1.00  0.00     0.202 C 
BRANCH  32  33
ATOM     33  C   UNL A   1      44.072  22.573  26.500  1.00  0.00     0.261 C 
BRANCH  33  34
ATOM     34  O   UNL A   1      44.501  23.921  26.257  1.00  0.00    -0.460 OA
BRANCH  34  35
ATOM     35  C   UNL A   1      45.779  24.232  26.572  1.00  0.00     0.338 C 
ATOM     36  O   UNL A   1      46.746  23.507  26.469  1.00  0.00    -0.246 OA
BRANCH  35  37
ATOM     37  C   UNL A   1      45.845  25.687  26.845  1.00  0.00     0.060 A 
ATOM     38  C   UNL A   1      46.151  26.100  28.146  1.00  0.00     0.016 A 
ATOM     39  C   UNL A   1      45.603  26.629  25.842  1.00  0.00     0.016 A 
ATOM     40  C   UNL A   1      46.157  27.455  28.464  1.00  0.00     0.010 A 
ATOM     41  C   UNL A   1      45.587  27.992  26.168  1.00  0.00     0.010 A 
ATOM     42  C   UNL A   1      45.820  28.406  27.491  1.00  0.00    -0.014 A 
BRANCH  42  43
ATOM     43  C   UNL A   1      45.508  29.788  27.936  1.00  0.00     0.031 A 
ATOM     44  C   UNL A   1      46.501  30.879  27.628  1.00  0.00     0.074 A 
ATOM     45  C   UNL A   1      44.325  30.086  28.504  1.00  0.00     0.049 A 
ATOM     46  N   UNL A   1      46.419  32.166  27.847  1.00  0.00    -0.248 NA
ATOM     47  C   UNL A   1      47.753  30.459  26.979  1.00  0.00     0.031 C 
ATOM     48  C   UNL A   1      43.267  29.123  28.804  1.00  0.00     0.029 A 
ATOM     49  N   UNL A   1      43.809  31.290  28.912  1.00  0.00    -0.354 N 
ATOM     50  C   UNL A   1      47.602  32.709  27.356  1.00  0.00     0.074 A 
ATOM     51  C   UNL A   1      48.404  31.606  26.875  1.00  0.00     0.031 C 
ATOM     52  C   UNL A   1      42.222  29.776  29.339  1.00  0.00     0.029 A 
ATOM     53  C   UNL A   1      42.546  31.197  29.451  1.00  0.00     0.049 A 
ATOM     54  H   UNL A   1      44.295  32.141  28.827  1.00  0.00     0.167 HD
ATOM     55  C   UNL A   1      47.978  34.011  27.294  1.00  0.00     0.034 A 
ATOM     56  C   UNL A   1      41.753  32.149  29.983  1.00  0.00     0.034 A 
ATOM     57  C   UNL A   1      47.174  35.101  27.794  1.00  0.00     0.049 A 
ATOM     58  C   UNL A   1      42.236  33.582  29.986  1.00  0.00     0.074 A 
ATOM     59  C   UNL A   1      47.460  36.455  27.789  1.00  0.00     0.029 A 
ATOM     60  N   UNL A   1      45.931  34.961  28.399  1.00  0.00    -0.354 N 
ATOM     61  N   UNL A   1      43.352  34.083  29.508  1.00  0.00    -0.248 NA
ATOM     62  C   UNL A   1      41.338  34.578  30.585  1.00  0.00     0.031 C 
ATOM     63  C   UNL A   1      46.431  37.123  28.461  1.00  0.00     0.029 A 
ATOM     64  C   UNL A   1      45.455  36.201  28.802  1.00  0.00     0.049 A 
ATOM     65  H   UNL A   1      45.458  34.108  28.524  1.00  0.00     0.167 HD
ATOM     66  C   UNL A   1      43.272  35.460  29.720  1.00  0.00     0.074 A 
ATOM     67  C   UNL A   1      41.985  35.705  30.338  1.00  0.00     0.031 C 
ATOM     68  C   UNL A   1      44.177  36.432  29.434  1.00  0.00     0.034 A 
BRANCH  55  69
ATOM     69  C   UNL A   1      49.339  34.315  26.713  1.00  0.00     0.023 A 
ATOM     70  C   UNL A   1      50.518  34.176  27.469  1.00  0.00     0.031 A 
ATOM     71  C   UNL A   1      49.458  34.770  25.388  1.00  0.00     0.131 A 
ATOM     72  C   UNL A   1      51.753  34.546  26.916  1.00  0.00     0.055 A 
ATOM     73  C   UNL A   1      50.699  35.060  24.817  1.00  0.00     0.041 A 
ATOM     74  F   UNL A   1      48.368  34.951  24.628  1.00  0.00    -0.206 F 
ATOM     75  C   UNL A   1      51.855  34.961  25.586  1.00  0.00     0.022 A 
BRANCH  72  76
ATOM     76  S   UNL A   1      53.206  34.614  27.999  1.00  0.00     0.124 S 
ATOM     77  O   UNL A   1      53.189  33.281  28.598  1.00  0.00    -0.237 OA
ATOM     78  O   UNL A   1      54.289  34.878  27.059  1.00  0.00    -0.237 OA
ATOM     79  O   UNL A   1      52.897  35.706  28.919  1.00  0.00    -0.744 OA
ENDBRANCH  72  76
ENDBRANCH  55  69
BRANCH  56  80
ATOM     80  C   UNL A   1      40.433  31.796  30.587  1.00  0.00     0.023 A 
ATOM     81  C   UNL A   1      39.235  31.954  29.871  1.00  0.00     0.031 A 
ATOM     82  C   UNL A   1      40.346  31.375  31.927  1.00  0.00     0.131 A 
ATOM     83  C   UNL A   1      38.003  31.755  30.515  1.00  0.00     0.055 A 
ATOM     84  C   UNL A   1      39.120  31.115  32.543  1.00  0.00     0.041 A 
ATOM     85  F   UNL A   1      41.457  31.213  32.663  1.00  0.00    -0.206 F 
ATOM     86  C   UNL A   1      37.938  31.321  31.840  1.00  0.00     0.022 A 
BRANCH  83  87
ATOM     87  S   UNL A   1      36.480  32.184  29.626  1.00  0.00     0.124 S 
ATOM     88  O   UNL A   1      36.744  31.632  28.303  1.00  0.00    -0.237 OA
ATOM     89  O   UNL A   1      35.465  31.497  30.418  1.00  0.00    -0.237 OA
ATOM     90  O   UNL A   1      36.443  33.643  29.700  1.00  0.00    -0.744 OA
ENDBRANCH  83  87
ENDBRANCH  56  80
BRANCH  68  91
ATOM     91  C   UNL A   1      43.774  37.856  29.751  1.00  0.00     0.023 A 
ATOM     92  C   UNL A   1      43.952  38.406  31.034  1.00  0.00     0.031 A 
ATOM     93  C   UNL A   1      43.152  38.655  28.776  1.00  0.00     0.131 A 
ATOM     94  C   UNL A   1      43.426  39.672  31.332  1.00  0.00     0.055 A 
ATOM     95  C   UNL A   1      42.708  39.949  29.055  1.00  0.00     0.041 A 
ATOM     96  F   UNL A   1      42.952  38.188  27.533  1.00  0.00    -0.206 F 
ATOM     97  C   UNL A   1      42.824  40.455  30.346  1.00  0.00     0.022 A 
BRANCH  94  98
ATOM     98  S   UNL A   1      43.400  40.212  33.064  1.00  0.00     0.124 S 
ATOM     99  O   UNL A   1      44.723  40.810  33.214  1.00  0.00    -0.237 OA
ATOM    100  O   UNL A   1      42.275  41.141  33.084  1.00  0.00    -0.237 OA
ATOM    101  O   UNL A   1      43.193  38.970  33.806  1.00  0.00    -0.744 OA
ENDBRANCH  94  98
ENDBRANCH  68  91
ENDBRANCH  42  43
ENDBRANCH  35  37
ENDBRANCH  34  35
ENDBRANCH  33  34
ENDBRANCH  32  33
ENDBRANCH  31  32
ENDBRANCH  30  31
ENDBRANCH  29  30
ENDBRANCH  28  29
ENDBRANCH   1  28
TORSDOF 28
ENDMDL
MODEL 2
REMARK VINA RESULT:      -8.3      5.689     11.861
REMARK SMILES COc1cccc(CC(=O)N[C@@](C)(C(=O)OCCOCCOCCOCCOC(=O)c2ccc(-c3c4nc(c(-c5cc(S(=O)(=O)[O-])ccc5F)c5ccc([nH]5)c(-c5cc(S(=O)(=O)[O-])ccc5F)c5nc(c(-c6cc(S(=O)(=O)[O-])ccc6F)c6ccc3[nH]6)C=C5)C=C4)cc2)C(F)(F)F)c1
REMARK SMILES IDX 21 1 20 2 19 3 18 4 17 5 16 6 14 7 15 8 12 9 13 10 11 11
REMARK SMILES IDX 9 12 10 13 8 15 7 16 3 17 4 18 98 19 5 20 6 21 2 22 1 23
REMARK SMILES IDX 94 24 95 25 96 26 97 27 22 28 23 29 24 30 25 31 26 32 27 33
REMARK SMILES IDX 28 34 29 35 30 36 31 37 32 38 93 39 33 40 92 41 34 42 35 43
REMARK SMILES IDX 36 44 86 45 37 46 91 47 85 48 87 49 38 50 90 51 84 52 83 53
REMARK SMILES IDX 39 55 71 56 51 57 70 58 52 59 55 60 69 61 88 62 53 63 54 64
REMARK SMILES IDX 68 66 89 67 56 68 40 69 41 70 49 71 42 72 48 73 50 74 47 75
REMARK SMILES IDX 43 76 44 77 45 78 46 79 72 80 73 81 81 82 74 83 80 84 82 85
REMARK SMILES IDX 79 86 75 87 76 88 77 89 78 90 57 91 58 92 66 93 59 94 65 95
REMARK SMILES IDX 67 96 64 97 60 98 61 99 62 100 63 101
REMARK H PARENT 11 14 87 54 55 65
REMARK Flexibility Score: inf
ROOT
ATOM      1  C   UNL A   1      38.325  30.022  28.226  1.00  0.00     0.188 C 
ENDROOT
BRANCH   1   2
ATOM      2  C   UNL A   1      38.883  28.628  28.540  1.00  0.00     0.188 C 
BRANCH   2   3
ATOM      3  O   UNL A   1      40.206  28.285  28.168  1.00  0.00    -0.376 OA
BRANCH   3   4
ATOM      4  C   UNL A   1      40.582  28.150  26.803  1.00  0.00     0.202 C 
BRANCH   4   5
ATOM      5  C   UNL A   1      41.104  26.840  26.179  1.00  0.00     0.261 C 
BRANCH   5   6
ATOM      6  O   UNL A   1      42.155  26.177  26.900  1.00  0.00    -0.461 OA
BRANCH   6   7
ATOM      7  C   UNL A   1      42.910  25.305  26.205  1.00  0.00     0.341 C 
ATOM      8  O   UNL A   1      42.458  24.280  25.702  1.00  0.00    -0.249 OA
BRANCH   7   9
ATOM      9  C   UNL A   1      44.387  25.731  26.074  1.00  0.00     0.231 C 
ATOM     10  C   UNL A   1      44.303  27.198  25.625  1.00  0.00     0.058 C 
BRANCH   9  11
ATOM     11  N   UNL A   1      45.202  25.024  24.997  1.00  0.00    -0.333 N 
ATOM     12  C   UNL A   1      46.103  24.001  24.903  1.00  0.00     0.225 C 
ATOM     13  O   UNL A   1      46.832  24.019  23.901  1.00  0.00    -0.275 OA
ATOM     14  H   UNL A   1      45.028  25.419  24.112  1.00  0.00     0.164 HD
BRANCH  12  15
ATOM     15  C   UNL A   1      46.183  22.786  25.829  1.00  0.00     0.135 C 
BRANCH  15  16
ATOM     16  C   UNL A   1      45.568  21.526  25.285  1.00  0.00    -0.035 A 
ATOM     17  C   UNL A   1      43.699  19.982  25.308  1.00  0.00     0.119 A 
ATOM     18  C   UNL A   1      44.532  18.996  24.773  1.00  0.00     0.046 A 
ATOM     19  C   UNL A   1      44.197  21.275  25.474  1.00  0.00     0.050 A 
ATOM     20  C   UNL A   1      45.847  19.294  24.412  1.00  0.00     0.004 A 
ATOM     21  C   UNL A   1      46.366  20.559  24.667  1.00  0.00     0.004 A 
BRANCH  17  22
ATOM     22  O   UNL A   1      42.467  19.549  25.717  1.00  0.00    -0.497 OA
ATOM     23  C   UNL A   1      42.413  18.306  26.415  1.00  0.00     0.278 C 
ENDBRANCH  17  22
ENDBRANCH  15  16
ENDBRANCH  12  15
ENDBRANCH   9  11
BRANCH   9  24
ATOM     24  C   UNL A   1      44.873  25.630  27.523  1.00  0.00     0.422 C 
ATOM     25  F   UNL A   1      44.357  24.549  28.150  1.00  0.00    -0.168 F 
ATOM     26  F   UNL A   1      46.218  25.538  27.540  1.00  0.00    -0.168 F 
ATOM     27  F   UNL A   1      44.589  26.681  28.319  1.00  0.00    -0.168 F 
ENDBRANCH   9  24
ENDBRANCH   7   9
ENDBRANCH   6   7
ENDBRANCH   5   6
ENDBRANCH   4   5
ENDBRANCH   3   4
ENDBRANCH   2   3
ENDBRANCH   1   2
BRANCH   1  28
ATOM     28  O   UNL A   1      37.943  30.779  29.353  1.00  0.00    -0.377 OA
BRANCH  28  29
ATOM     29  C   UNL A   1      36.551  30.921  29.596  1.00  0.00     0.188 C 
BRANCH  29  30
ATOM     30  C   UNL A   1      35.977  32.335  29.824  1.00  0.00     0.188 C 
BRANCH  30  31
ATOM     31  O   UNL A   1      34.986  32.424  30.840  1.00  0.00    -0.376 OA
BRANCH  31  32
ATOM     32  C   UNL A   1      35.077  33.471  31.797  1.00  0.00     0.202 C 
BRANCH  32  33
ATOM     33  C   UNL A   1      35.079  33.098  33.292  1.00  0.00     0.261 C 
BRANCH  33  34
ATOM     34  O   UNL A   1      35.995  32.070  33.698  1.00  0.00    -0.460 OA
BRANCH  34  35
ATOM     35  C   UNL A   1      37.021  32.434  34.501  1.00  0.00     0.338 C 
ATOM     36  O   UNL A   1      36.937  33.024  35.558  1.00  0.00    -0.246 OA
BRANCH  35  37
ATOM     37  C   UNL A   1      38.254  31.788  33.995  1.00  0.00     0.060 A 
ATOM     38  C   UNL A   1      39.467  32.105  34.616  1.00  0.00     0.016 A 
ATOM     39  C   UNL A   1      38.221  30.890  32.925  1.00  0.00     0.016 A 
ATOM     40  C   UNL A   1      40.659  31.575  34.131  1.00  0.00     0.010 A 
ATOM     41  C   UNL A   1      39.424  30.375  32.423  1.00  0.00     0.010 A 
ATOM     42  C   UNL A   1      40.650  30.752  32.997  1.00  0.00    -0.014 A 
BRANCH  42  43
ATOM     43  C   UNL A   1      41.941  30.483  32.313  1.00  0.00     0.031 A 
ATOM     44  C   UNL A   1      42.628  29.167  32.575  1.00  0.00     0.074 A 
ATOM     45  C   UNL A   1      42.435  31.338  31.399  1.00  0.00     0.049 A 
ATOM     46  N   UNL A   1      43.717  28.676  32.043  1.00  0.00    -0.248 NA
ATOM     47  C   UNL A   1      41.995  28.287  33.569  1.00  0.00     0.031 C 
ATOM     48  C   UNL A   1      41.830  32.616  31.026  1.00  0.00     0.029 A 
ATOM     49  N   UNL A   1      43.551  31.250  30.605  1.00  0.00    -0.354 N 
ATOM     50  C   UNL A   1      43.895  27.427  32.630  1.00  0.00     0.074 A 
ATOM     51  C   UNL A   1      42.830  27.260  33.594  1.00  0.00     0.031 C 
ATOM     52  C   UNL A   1      42.578  33.188  30.067  1.00  0.00     0.029 A 
ATOM     53  C   UNL A   1      43.732  32.336  29.780  1.00  0.00     0.049 A 
ATOM     54  H   UNL A   1      44.166  30.482  30.625  1.00  0.00     0.167 HD
ATOM     55  C   UNL A   1      44.849  26.497  32.375  1.00  0.00     0.034 A 
ATOM     56  C   UNL A   1      44.719  32.612  28.905  1.00  0.00     0.034 A 
ATOM     57  C   UNL A   1      45.915  26.685  31.421  1.00  0.00     0.049 A 
ATOM     58  C   UNL A   1      45.822  31.596  28.707  1.00  0.00     0.074 A 
ATOM     59  C   UNL A   1      46.937  25.812  31.090  1.00  0.00     0.029 A 
ATOM     60  N   UNL A   1      46.107  27.828  30.655  1.00  0.00    -0.354 N 
ATOM     61  N   UNL A   1      45.971  30.414  29.261  1.00  0.00    -0.248 NA
ATOM     62  C   UNL A   1      46.878  31.949  27.750  1.00  0.00     0.031 C 
ATOM     63  C   UNL A   1      47.789  26.457  30.186  1.00  0.00     0.029 A 
ATOM     64  C   UNL A   1      47.249  27.695  29.878  1.00  0.00     0.049 A 
ATOM     65  H   UNL A   1      45.518  28.616  30.663  1.00  0.00     0.167 HD
ATOM     66  C   UNL A   1      47.123  29.870  28.690  1.00  0.00     0.074 A 
ATOM     67  C   UNL A   1      47.603  30.842  27.729  1.00  0.00     0.031 C 
ATOM     68  C   UNL A   1      47.729  28.680  28.936  1.00  0.00     0.034 A 
BRANCH  55  69
ATOM     69  C   UNL A   1      44.805  25.219  33.179  1.00  0.00     0.023 A 
ATOM     70  C   UNL A   1      45.268  25.160  34.507  1.00  0.00     0.031 A 
ATOM     71  C   UNL A   1      44.312  24.035  32.603  1.00  0.00     0.131 A 
ATOM     72  C   UNL A   1      45.284  23.934  35.190  1.00  0.00     0.055 A 
ATOM     73  C   UNL A   1      44.255  22.836  33.316  1.00  0.00     0.041 A 
ATOM     74  F   UNL A   1      43.884  24.022  31.331  1.00  0.00    -0.206 F 
ATOM     75  C   UNL A   1      44.755  22.778  34.613  1.00  0.00     0.022 A 
BRANCH  72  76
ATOM     76  S   UNL A   1      46.135  23.841  36.790  1.00  0.00     0.124 S 
ATOM     77  O   UNL A   1      45.735  25.102  37.409  1.00  0.00    -0.237 OA
ATOM     78  O   UNL A   1      45.570  22.633  37.378  1.00  0.00    -0.237 OA
ATOM     79  O   UNL A   1      47.547  23.757  36.422  1.00  0.00    -0.744 OA
ENDBRANCH  72  76
ENDBRANCH  55  69
BRANCH  56  80
ATOM     80  C   UNL A   1      44.745  33.909  28.163  1.00  0.00     0.023 A 
ATOM     81  C   UNL A   1      45.241  35.081  28.756  1.00  0.00     0.031 A 
ATOM     82  C   UNL A   1      44.190  34.010  26.873  1.00  0.00     0.131 A 
ATOM     83  C   UNL A   1      45.115  36.310  28.090  1.00  0.00     0.055 A 
ATOM     84  C   UNL A   1      44.128  35.224  26.188  1.00  0.00     0.041 A 
ATOM     85  F   UNL A   1      43.695  32.924  26.259  1.00  0.00    -0.206 F 
ATOM     86  C   UNL A   1      44.577  36.387  26.804  1.00  0.00     0.022 A 
BRANCH  83  87
ATOM     87  S   UNL A   1      45.562  37.829  28.977  1.00  0.00     0.124 S 
ATOM     88  O   UNL A   1      44.500  38.737  28.563  1.00  0.00    -0.237 OA
ATOM     89  O   UNL A   1      45.524  37.388  30.368  1.00  0.00    -0.237 OA
ATOM     90  O   UNL A   1      46.893  38.144  28.461  1.00  0.00    -0.744 OA
ENDBRANCH  83  87
ENDBRANCH  56  80
BRANCH  68  91
ATOM     91  C   UNL A   1      48.957  28.355  28.113  1.00  0.00     0.023 A 
ATOM     92  C   UNL A   1      50.256  28.618  28.587  1.00  0.00     0.031 A 
ATOM     93  C   UNL A   1      48.827  27.827  26.816  1.00  0.00     0.131 A 
ATOM     94  C   UNL A   1      51.358  28.449  27.736  1.00  0.00     0.055 A 
ATOM     95  C   UNL A   1      49.936  27.579  26.006  1.00  0.00     0.041 A 
ATOM     96  F   UNL A   1      47.615  27.555  26.306  1.00  0.00    -0.206 F 
ATOM     97  C   UNL A   1      51.210  27.912  26.457  1.00  0.00     0.022 A 
BRANCH  94  98
ATOM     98  S   UNL A   1      52.969  29.090  28.271  1.00  0.00     0.124 S 
ATOM     99  O   UNL A   1      53.584  29.461  27.000  1.00  0.00    -0.237 OA
ATOM    100  O   UNL A   1      52.590  30.198  29.142  1.00  0.00    -0.237 OA
ATOM    101  O   UNL A   1      53.584  27.950  28.949  1.00  0.00    -0.744 OA
ENDBRANCH  94  98
ENDBRANCH  68  91
ENDBRANCH  42  43
ENDBRANCH  35  37
ENDBRANCH  34  35
ENDBRANCH  33  34
ENDBRANCH  32  33
ENDBRANCH  31  32
ENDBRANCH  30  31
ENDBRANCH  29  30
ENDBRANCH  28  29
ENDBRANCH   1  28
TORSDOF 28
ENDMDL
MODEL 3
REMARK VINA RESULT:      -8.0      4.842      7.865
REMARK SMILES COc1cccc(CC(=O)N[C@@](C)(C(=O)OCCOCCOCCOCCOC(=O)c2ccc(-c3c4nc(c(-c5cc(S(=O)(=O)[O-])ccc5F)c5ccc([nH]5)c(-c5cc(S(=O)(=O)[O-])ccc5F)c5nc(c(-c6cc(S(=O)(=O)[O-])ccc6F)c6ccc3[nH]6)C=C5)C=C4)cc2)C(F)(F)F)c1
REMARK SMILES IDX 21 1 20 2 19 3 18 4 17 5 16 6 14 7 15 8 12 9 13 10 11 11
REMARK SMILES IDX 9 12 10 13 8 15 7 16 3 17 4 18 98 19 5 20 6 21 2 22 1 23
REMARK SMILES IDX 94 24 95 25 96 26 97 27 22 28 23 29 24 30 25 31 26 32 27 33
REMARK SMILES IDX 28 34 29 35 30 36 31 37 32 38 93 39 33 40 92 41 34 42 35 43
REMARK SMILES IDX 36 44 86 45 37 46 91 47 85 48 87 49 38 50 90 51 84 52 83 53
REMARK SMILES IDX 39 55 71 56 51 57 70 58 52 59 55 60 69 61 88 62 53 63 54 64
REMARK SMILES IDX 68 66 89 67 56 68 40 69 41 70 49 71 42 72 48 73 50 74 47 75
REMARK SMILES IDX 43 76 44 77 45 78 46 79 72 80 73 81 81 82 74 83 80 84 82 85
REMARK SMILES IDX 79 86 75 87 76 88 77 89 78 90 57 91 58 92 66 93 59 94 65 95
REMARK SMILES IDX 67 96 64 97 60 98 61 99 62 100 63 101
REMARK H PARENT 11 14 87 54 55 65
REMARK Flexibility Score: inf
ROOT
ATOM      1  C   UNL A   1      38.466  21.097  25.305  1.00  0.00     0.188 C 
ENDROOT
BRANCH   1   2
ATOM      2  C   UNL A   1      37.233  21.947  25.642  1.00  0.00     0.188 C 
BRANCH   2   3
ATOM      3  O   UNL A   1      36.043  21.332  26.103  1.00  0.00    -0.376 OA
BRANCH   3   4
ATOM      4  C   UNL A   1      35.340  20.385  25.309  1.00  0.00     0.202 C 
BRANCH   4   5
ATOM      5  C   UNL A   1      33.966  20.654  24.662  1.00  0.00     0.261 C 
BRANCH   5   6
ATOM      6  O   UNL A   1      33.571  22.033  24.583  1.00  0.00    -0.461 OA
BRANCH   6   7
ATOM      7  C   UNL A   1      32.248  22.281  24.516  1.00  0.00     0.341 C 
ATOM      8  O   UNL A   1      31.404  21.393  24.434  1.00  0.00    -0.249 OA
BRANCH   7   9
ATOM      9  C   UNL A   1      31.895  23.781  24.584  1.00  0.00     0.231 C 
ATOM     10  C   UNL A   1      33.103  24.407  25.298  1.00  0.00     0.058 C 
BRANCH   9  11
ATOM     11  N   UNL A   1      30.685  24.154  25.433  1.00  0.00    -0.333 N 
ATOM     12  C   UNL A   1      29.984  25.274  25.777  1.00  0.00     0.225 C 
ATOM     13  O   UNL A   1      29.315  25.189  26.817  1.00  0.00    -0.275 OA
ATOM     14  H   UNL A   1      30.295  23.354  25.855  1.00  0.00     0.164 HD
BRANCH  12  15
ATOM     15  C   UNL A   1      29.839  26.539  24.930  1.00  0.00     0.135 C 
BRANCH  15  16
ATOM     16  C   UNL A   1      31.011  27.481  24.983  1.00  0.00    -0.035 A 
ATOM     17  C   UNL A   1      32.337  29.030  26.294  1.00  0.00     0.119 A 
ATOM     18  C   UNL A   1      32.796  29.610  25.109  1.00  0.00     0.046 A 
ATOM     19  C   UNL A   1      31.517  27.904  26.225  1.00  0.00     0.050 A 
ATOM     20  C   UNL A   1      32.439  29.076  23.869  1.00  0.00     0.004 A 
ATOM     21  C   UNL A   1      31.546  28.011  23.806  1.00  0.00     0.004 A 
BRANCH  17  22
ATOM     22  O   UNL A   1      32.669  29.700  27.440  1.00  0.00    -0.497 OA
ATOM     23  C   UNL A   1      33.548  30.816  27.310  1.00  0.00     0.278 C 
ENDBRANCH  17  22
ENDBRANCH  15  16
ENDBRANCH  12  15
ENDBRANCH   9  11
BRANCH   9  24
ATOM     24  C   UNL A   1      31.877  24.168  23.102  1.00  0.00     0.422 C 
ATOM     25  F   UNL A   1      32.382  23.185  22.322  1.00  0.00    -0.168 F 
ATOM     26  F   UNL A   1      30.609  24.415  22.717  1.00  0.00    -0.168 F 
ATOM     27  F   UNL A   1      32.561  25.281  22.771  1.00  0.00    -0.168 F 
ENDBRANCH   9  24
ENDBRANCH   7   9
ENDBRANCH   6   7
ENDBRANCH   5   6
ENDBRANCH   4   5
ENDBRANCH   3   4
ENDBRANCH   2   3
ENDBRANCH   1   2
BRANCH   1  28
ATOM     28  O   UNL A   1      39.461  21.069  26.305  1.00  0.00    -0.377 OA
BRANCH  28  29
ATOM     29  C   UNL A   1      40.452  20.057  26.202  1.00  0.00     0.188 C 
BRANCH  29  30
ATOM     30  C   UNL A   1      41.565  19.998  27.270  1.00  0.00     0.188 C 
BRANCH  30  31
ATOM     31  O   UNL A   1      42.693  20.824  27.006  1.00  0.00    -0.376 OA
BRANCH  31  32
ATOM     32  C   UNL A   1      42.649  21.712  25.896  1.00  0.00     0.202 C 
BRANCH  32  33
ATOM     33  C   UNL A   1      43.905  21.841  25.014  1.00  0.00     0.261 C 
BRANCH  33  34
ATOM     34  O   UNL A   1      44.097  23.098  24.347  1.00  0.00    -0.460 OA
BRANCH  34  35
ATOM     35  C   UNL A   1      45.231  23.781  24.625  1.00  0.00     0.338 C 
ATOM     36  O   UNL A   1      46.279  23.720  24.017  1.00  0.00    -0.246 OA
BRANCH  35  37
ATOM     37  C   UNL A   1      44.916  24.797  25.656  1.00  0.00     0.060 A 
ATOM     38  C   UNL A   1      45.981  25.456  26.279  1.00  0.00     0.016 A 
ATOM     39  C   UNL A   1      43.597  25.092  26.011  1.00  0.00     0.016 A 
ATOM     40  C   UNL A   1      45.736  26.369  27.301  1.00  0.00     0.010 A 
ATOM     41  C   UNL A   1      43.352  25.994  27.055  1.00  0.00     0.010 A 
ATOM     42  C   UNL A   1      44.423  26.600  27.733  1.00  0.00    -0.014 A 
BRANCH  42  43
ATOM     43  C   UNL A   1      44.222  27.306  29.024  1.00  0.00     0.031 A 
ATOM     44  C   UNL A   1      44.448  26.538  30.301  1.00  0.00     0.074 A 
ATOM     45  C   UNL A   1      43.952  28.624  29.062  1.00  0.00     0.049 A 
ATOM     46  N   UNL A   1      44.408  26.954  31.541  1.00  0.00    -0.248 NA
ATOM     47  C   UNL A   1      44.769  25.110  30.157  1.00  0.00     0.031 C 
ATOM     48  C   UNL A   1      43.763  29.480  27.892  1.00  0.00     0.029 A 
ATOM     49  N   UNL A   1      43.807  29.476  30.128  1.00  0.00    -0.354 N 
ATOM     50  C   UNL A   1      44.706  25.842  32.323  1.00  0.00     0.074 A 
ATOM     51  C   UNL A   1      44.874  24.725  31.419  1.00  0.00     0.031 C 
ATOM     52  C   UNL A   1      43.537  30.739  28.304  1.00  0.00     0.029 A 
ATOM     53  C   UNL A   1      43.533  30.775  29.766  1.00  0.00     0.049 A 
ATOM     54  H   UNL A   1      43.892  29.186  31.064  1.00  0.00     0.167 HD
ATOM     55  C   UNL A   1      44.845  25.763  33.670  1.00  0.00     0.034 A 
ATOM     56  C   UNL A   1      43.296  31.861  30.529  1.00  0.00     0.034 A 
ATOM     57  C   UNL A   1      44.658  26.883  34.561  1.00  0.00     0.049 A 
ATOM     58  C   UNL A   1      43.366  31.724  32.033  1.00  0.00     0.074 A 
ATOM     59  C   UNL A   1      44.767  26.913  35.940  1.00  0.00     0.029 A 
ATOM     60  N   UNL A   1      44.309  28.168  34.163  1.00  0.00    -0.354 N 
ATOM     61  N   UNL A   1      43.660  30.669  32.758  1.00  0.00    -0.248 NA
ATOM     62  C   UNL A   1      43.090  32.934  32.817  1.00  0.00     0.031 C 
ATOM     63  C   UNL A   1      44.407  28.192  36.381  1.00  0.00     0.029 A 
ATOM     64  C   UNL A   1      44.167  28.988  35.273  1.00  0.00     0.049 A 
ATOM     65  H   UNL A   1      44.183  28.454  33.230  1.00  0.00     0.167 HD
ATOM     66  C   UNL A   1      43.636  31.101  34.085  1.00  0.00     0.074 A 
ATOM     67  C   UNL A   1      43.332  32.517  34.049  1.00  0.00     0.031 C 
ATOM     68  C   UNL A   1      43.845  30.396  35.227  1.00  0.00     0.034 A 
BRANCH  55  69
ATOM     69  C   UNL A   1      45.165  24.409  34.257  1.00  0.00     0.023 A 
ATOM     70  C   UNL A   1      46.489  23.991  34.485  1.00  0.00     0.031 A 
ATOM     71  C   UNL A   1      44.129  23.513  34.577  1.00  0.00     0.131 A 
ATOM     72  C   UNL A   1      46.744  22.694  34.956  1.00  0.00     0.055 A 
ATOM     73  C   UNL A   1      44.388  22.253  35.124  1.00  0.00     0.041 A 
ATOM     74  F   UNL A   1      42.848  23.843  34.356  1.00  0.00    -0.206 F 
ATOM     75  C   UNL A   1      45.701  21.833  35.303  1.00  0.00     0.022 A 
BRANCH  72  76
ATOM     76  S   UNL A   1      48.457  22.097  34.977  1.00  0.00     0.124 S 
ATOM     77  O   UNL A   1      49.179  23.256  34.458  1.00  0.00    -0.237 OA
ATOM     78  O   UNL A   1      48.668  21.792  36.387  1.00  0.00    -0.237 OA
ATOM     79  O   UNL A   1      48.428  20.941  34.084  1.00  0.00    -0.744 OA
ENDBRANCH  72  76
ENDBRANCH  55  69
BRANCH  56  80
ATOM     80  C   UNL A   1      42.939  33.171  29.905  1.00  0.00     0.023 A 
ATOM     81  C   UNL A   1      43.923  34.019  29.371  1.00  0.00     0.031 A 
ATOM     82  C   UNL A   1      41.609  33.633  29.915  1.00  0.00     0.131 A 
ATOM     83  C   UNL A   1      43.574  35.305  28.928  1.00  0.00     0.055 A 
ATOM     84  C   UNL A   1      41.258  34.887  29.412  1.00  0.00     0.041 A 
ATOM     85  F   UNL A   1      40.628  32.869  30.419  1.00  0.00    -0.206 F 
ATOM     86  C   UNL A   1      42.247  35.738  28.930  1.00  0.00     0.022 A 
BRANCH  83  87
ATOM     87  S   UNL A   1      44.900  36.449  28.454  1.00  0.00     0.124 S 
ATOM     88  O   UNL A   1      45.159  37.140  29.712  1.00  0.00    -0.237 OA
ATOM     89  O   UNL A   1      45.940  35.533  27.998  1.00  0.00    -0.237 OA
ATOM     90  O   UNL A   1      44.287  37.265  27.407  1.00  0.00    -0.744 OA
ENDBRANCH  83  87
ENDBRANCH  56  80
BRANCH  68  91
ATOM     91  C   UNL A   1      43.791  31.168  36.527  1.00  0.00     0.023 A 
ATOM     92  C   UNL A   1      44.957  31.654  37.148  1.00  0.00     0.031 A 
ATOM     93  C   UNL A   1      42.565  31.371  37.185  1.00  0.00     0.131 A 
ATOM     94  C   UNL A   1      44.883  32.227  38.426  1.00  0.00     0.055 A 
ATOM     95  C   UNL A   1      42.488  32.020  38.418  1.00  0.00     0.041 A 
ATOM     96  F   UNL A   1      41.417  30.931  36.646  1.00  0.00    -0.206 F 
ATOM     97  C   UNL A   1      43.655  32.432  39.057  1.00  0.00     0.022 A 
BRANCH  94  98
ATOM     98  S   UNL A   1      46.429  32.553  39.318  1.00  0.00     0.124 S 
ATOM     99  O   UNL A   1      47.231  31.384  38.970  1.00  0.00    -0.237 OA
ATOM    100  O   UNL A   1      46.862  33.819  38.737  1.00  0.00    -0.237 OA
ATOM    101  O   UNL A   1      46.009  32.623  40.717  1.00  0.00    -0.744 OA
ENDBRANCH  94  98
ENDBRANCH  68  91
ENDBRANCH  42  43
ENDBRANCH  35  37
ENDBRANCH  34  35
ENDBRANCH  33  34
ENDBRANCH  32  33
ENDBRANCH  31  32
ENDBRANCH  30  31
ENDBRANCH  29  30
ENDBRANCH  28  29
ENDBRANCH   1  28
TORSDOF 28
ENDMDL
