MODEL 1
REMARK VINA RESULT:      -8.8      0.000      0.000
REMARK SMILES C[C@@H]1CCC[C@H](C)[N@H+]1Cc1cc2c(cc1Cl)C=C(C(=O)OCCOCCOCCOCCOC(=O)c1ccc(-c3c4nc(c(-c5cc(S(=O)(=O)[O-])ccc5F)c5ccc([nH]5)c(-c5cc(S(=O)(=O)[O-])ccc5F)c5nc(c(-c6cc(S(=O)(=O)[O-])ccc6F)c6ccc3[nH]6)C=C5)C=C4)cc1)[C@@H](C(F)(F)F)O2
REMARK SMILES IDX 28 1 27 2 26 3 25 4 24 5 23 6 22 7 21 8 19 9 20 10 18 11
REMARK SMILES IDX 10 12 11 13 15 14 12 15 14 16 16 17 13 18 104 19 17 20 99 21
REMARK SMILES IDX 9 22 8 23 7 24 6 25 5 26 4 27 2 28 3 30 1 31 100 32 101 33
REMARK SMILES IDX 102 34 103 35 29 36 30 37 31 38 32 39 33 40 34 41 35 42
REMARK SMILES IDX 36 43 37 44 98 45 38 46 97 47 39 48 40 49 41 50 91 51 42 52
REMARK SMILES IDX 96 53 90 54 92 55 43 56 95 57 89 58 88 59 44 61 76 62 56 63
REMARK SMILES IDX 75 64 57 65 60 66 74 67 93 68 58 69 59 70 73 72 94 73 61 74
REMARK SMILES IDX 45 75 46 76 54 77 47 78 53 79 55 80 52 81 48 82 49 83 50 84
REMARK SMILES IDX 51 85 77 86 78 87 86 88 79 89 85 90 87 91 84 92 80 93 81 94
REMARK SMILES IDX 82 95 83 96 62 97 63 98 71 99 64 100 70 101 72 102 69 103
REMARK SMILES IDX 65 104 66 105 67 106 68 107
REMARK H PARENT 8 29 92 60 60 71
REMARK Flexibility Score: inf
ROOT
ATOM      1  C   UNL A   1      34.265  31.952  27.707  1.00  0.00     0.188 C 
ENDROOT
BRANCH   1   2
ATOM      2  O   UNL A   1      33.823  30.637  28.045  1.00  0.00    -0.377 OA
BRANCH   2   3
ATOM      3  C   UNL A   1      33.889  29.644  27.035  1.00  0.00     0.188 C 
BRANCH   3   4
ATOM      4  C   UNL A   1      32.514  29.021  26.730  1.00  0.00     0.188 C 
BRANCH   4   5
ATOM      5  O   UNL A   1      32.002  29.396  25.457  1.00  0.00    -0.376 OA
BRANCH   5   6
ATOM      6  C   UNL A   1      31.211  30.574  25.361  1.00  0.00     0.202 C 
BRANCH   6   7
ATOM      7  C   UNL A   1      30.182  30.716  24.224  1.00  0.00     0.261 C 
BRANCH   7   8
ATOM      8  O   UNL A   1      29.633  29.488  23.719  1.00  0.00    -0.460 OA
BRANCH   8   9
ATOM      9  C   UNL A   1      30.074  29.062  22.525  1.00  0.00     0.338 C 
ATOM     10  O   UNL A   1      30.106  29.707  21.490  1.00  0.00    -0.246 OA
BRANCH   9  11
ATOM     11  C   UNL A   1      30.693  27.727  22.693  1.00  0.00     0.087 C 
ATOM     12  C   UNL A   1      31.842  23.076  24.265  1.00  0.00     0.029 A 
ATOM     13  C   UNL A   1      32.333  23.923  23.245  1.00  0.00     0.058 A 
ATOM     14  C   UNL A   1      30.810  23.571  25.082  1.00  0.00     0.050 A 
ATOM     15  C   UNL A   1      31.770  25.185  23.014  1.00  0.00     0.128 A 
ATOM     16  C   UNL A   1      30.204  24.798  24.804  1.00  0.00     0.033 A 
ATOM     17  Cl  UNL A   1      30.240  22.751  26.493  1.00  0.00    -0.084 Cl
ATOM     18  C   UNL A   1      30.680  25.603  23.772  1.00  0.00     0.019 A 
ATOM     19  O   UNL A   1      32.311  25.944  22.014  1.00  0.00    -0.475 OA
ATOM     20  C   UNL A   1      30.059  26.887  23.519  1.00  0.00     0.027 C 
ATOM     21  C   UNL A   1      31.961  27.365  21.960  1.00  0.00     0.316 C 
BRANCH  12  22
ATOM     22  C   UNL A   1      32.441  21.693  24.446  1.00  0.00     0.301 C 
BRANCH  22  23
ATOM     23  N   UNL A   1      33.690  21.573  25.230  1.00  0.00    -0.327 N 
ATOM     24  C   UNL A   1      34.356  21.633  27.609  1.00  0.00     0.075 C 
ATOM     25  C   UNL A   1      33.754  22.416  26.431  1.00  0.00     0.181 C 
ATOM     26  C   UNL A   1      34.488  23.752  26.226  1.00  0.00     0.065 C 
ATOM     27  C   UNL A   1      35.801  23.619  25.464  1.00  0.00     0.012 C 
ATOM     28  C   UNL A   1      34.924  21.458  24.440  1.00  0.00     0.181 C 
ATOM     29  H   UNL A   1      33.626  20.638  25.634  1.00  0.00     0.348 HD
ATOM     30  C   UNL A   1      35.619  22.805  24.190  1.00  0.00     0.065 C 
ATOM     31  C   UNL A   1      35.904  20.444  25.050  1.00  0.00     0.075 C 
ENDBRANCH  22  23
ENDBRANCH  12  22
BRANCH  21  32
ATOM     32  C   UNL A   1      33.140  28.215  22.451  1.00  0.00     0.430 C 
ATOM     33  F   UNL A   1      33.553  27.830  23.679  1.00  0.00    -0.167 F 
ATOM     34  F   UNL A   1      34.206  28.114  21.622  1.00  0.00    -0.167 F 
ATOM     35  F   UNL A   1      32.813  29.526  22.526  1.00  0.00    -0.167 F 
ENDBRANCH  21  32
ENDBRANCH   9  11
ENDBRANCH   8   9
ENDBRANCH   7   8
ENDBRANCH   6   7
ENDBRANCH   5   6
ENDBRANCH   4   5
ENDBRANCH   3   4
ENDBRANCH   2   3
ENDBRANCH   1   2
BRANCH   1  36
ATOM     36  C   UNL A   1      34.174  33.118  28.721  1.00  0.00     0.188 C 
BRANCH  36  37
ATOM     37  O   UNL A   1      35.373  33.885  28.822  1.00  0.00    -0.376 OA
BRANCH  37  38
ATOM     38  C   UNL A   1      36.462  33.276  29.505  1.00  0.00     0.202 C 
BRANCH  38  39
ATOM     39  C   UNL A   1      36.073  32.614  30.833  1.00  0.00     0.261 C 
BRANCH  39  40
ATOM     40  O   UNL A   1      35.013  33.258  31.555  1.00  0.00    -0.460 OA
BRANCH  40  41
ATOM     41  C   UNL A   1      35.271  34.459  32.123  1.00  0.00     0.338 C 
ATOM     42  O   UNL A   1      34.624  35.484  31.993  1.00  0.00    -0.246 OA
BRANCH  41  43
ATOM     43  C   UNL A   1      36.358  34.252  33.105  1.00  0.00     0.060 A 
ATOM     44  C   UNL A   1      36.091  33.634  34.330  1.00  0.00     0.016 A 
ATOM     45  C   UNL A   1      37.644  34.726  32.816  1.00  0.00     0.016 A 
ATOM     46  C   UNL A   1      37.120  33.466  35.256  1.00  0.00     0.010 A 
ATOM     47  C   UNL A   1      38.673  34.562  33.748  1.00  0.00     0.010 A 
ATOM     48  C   UNL A   1      38.423  33.910  34.964  1.00  0.00    -0.014 A 
BRANCH  48  49
ATOM     49  C   UNL A   1      39.544  33.494  35.841  1.00  0.00     0.031 A 
ATOM     50  C   UNL A   1      40.305  32.223  35.627  1.00  0.00     0.074 A 
ATOM     51  C   UNL A   1      39.867  34.313  36.859  1.00  0.00     0.049 A 
ATOM     52  N   UNL A   1      41.375  31.800  36.249  1.00  0.00    -0.248 NA
ATOM     53  C   UNL A   1      39.805  31.305  34.594  1.00  0.00     0.031 C 
ATOM     54  C   UNL A   1      39.161  35.556  37.176  1.00  0.00     0.029 A 
ATOM     55  N   UNL A   1      40.858  34.241  37.804  1.00  0.00    -0.354 N 
ATOM     56  C   UNL A   1      41.698  30.578  35.672  1.00  0.00     0.074 A 
ATOM     57  C   UNL A   1      40.676  30.305  34.681  1.00  0.00     0.031 C 
ATOM     58  C   UNL A   1      39.754  36.141  38.225  1.00  0.00     0.029 A 
ATOM     59  C   UNL A   1      40.865  35.304  38.676  1.00  0.00     0.049 A 
ATOM     60  H   UNL A   1      41.503  33.498  37.854  1.00  0.00     0.167 HD
ATOM     61  C   UNL A   1      42.759  29.778  35.939  1.00  0.00     0.034 A 
ATOM     62  C   UNL A   1      41.674  35.586  39.718  1.00  0.00     0.034 A 
ATOM     63  C   UNL A   1      43.754  30.068  36.945  1.00  0.00     0.049 A 
ATOM     64  C   UNL A   1      42.832  34.669  40.006  1.00  0.00     0.074 A 
ATOM     65  C   UNL A   1      44.898  29.347  37.245  1.00  0.00     0.029 A 
ATOM     66  N   UNL A   1      43.726  31.145  37.821  1.00  0.00    -0.354 N 
ATOM     67  N   UNL A   1      43.199  33.581  39.368  1.00  0.00    -0.248 NA
ATOM     68  C   UNL A   1      43.701  35.020  41.136  1.00  0.00     0.031 C 
ATOM     69  C   UNL A   1      45.514  29.940  38.348  1.00  0.00     0.029 A 
ATOM     70  C   UNL A   1      44.808  31.083  38.686  1.00  0.00     0.049 A 
ATOM     71  H   UNL A   1      43.038  31.848  37.827  1.00  0.00     0.167 HD
ATOM     72  C   UNL A   1      44.352  33.133  40.003  1.00  0.00     0.074 A 
ATOM     73  C   UNL A   1      44.638  34.083  41.059  1.00  0.00     0.031 C 
ATOM     74  C   UNL A   1      45.101  32.034  39.735  1.00  0.00     0.034 A 
BRANCH  61  75
ATOM     75  C   UNL A   1      42.949  28.520  35.125  1.00  0.00     0.023 A 
ATOM     76  C   UNL A   1      42.609  27.264  35.668  1.00  0.00     0.031 A 
ATOM     77  C   UNL A   1      43.624  28.547  33.891  1.00  0.00     0.131 A 
ATOM     78  C   UNL A   1      42.983  26.091  35.000  1.00  0.00     0.055 A 
ATOM     79  C   UNL A   1      43.957  27.375  33.209  1.00  0.00     0.041 A 
ATOM     80  F   UNL A   1      43.980  29.716  33.335  1.00  0.00    -0.206 F 
ATOM     81  C   UNL A   1      43.650  26.139  33.771  1.00  0.00     0.022 A 
BRANCH  78  82
ATOM     82  S   UNL A   1      42.693  24.457  35.734  1.00  0.00     0.124 S 
ATOM     83  O   UNL A   1      42.837  23.579  34.575  1.00  0.00    -0.237 OA
ATOM     84  O   UNL A   1      43.766  24.370  36.719  1.00  0.00    -0.237 OA
ATOM     85  O   UNL A   1      41.343  24.552  36.277  1.00  0.00    -0.744 OA
ENDBRANCH  78  82
ENDBRANCH  61  75
BRANCH  62  86
ATOM     86  C   UNL A   1      41.437  36.838  40.491  1.00  0.00     0.023 A 
ATOM     87  C   UNL A   1      41.976  38.064  40.059  1.00  0.00     0.031 A 
ATOM     88  C   UNL A   1      40.787  36.803  41.736  1.00  0.00     0.131 A 
ATOM     89  C   UNL A   1      41.922  39.184  40.899  1.00  0.00     0.055 A 
ATOM     90  C   UNL A   1      40.669  37.941  42.536  1.00  0.00     0.041 A 
ATOM     91  F   UNL A   1      40.275  35.653  42.199  1.00  0.00    -0.206 F 
ATOM     92  C   UNL A   1      41.256  39.134  42.127  1.00  0.00     0.022 A 
BRANCH  89  93
ATOM     93  S   UNL A   1      42.842  40.694  40.493  1.00  0.00     0.124 S 
ATOM     94  O   UNL A   1      43.469  41.021  41.770  1.00  0.00    -0.237 OA
ATOM     95  O   UNL A   1      43.746  40.220  39.448  1.00  0.00    -0.237 OA
ATOM     96  O   UNL A   1      41.806  41.618  40.044  1.00  0.00    -0.744 OA
ENDBRANCH  89  93
ENDBRANCH  62  86
BRANCH  74  97
ATOM     97  C   UNL A   1      46.320  31.761  40.587  1.00  0.00     0.023 A 
ATOM     98  C   UNL A   1      46.195  31.025  41.782  1.00  0.00     0.031 A 
ATOM     99  C   UNL A   1      47.562  32.355  40.303  1.00  0.00     0.131 A 
ATOM    100  C   UNL A   1      47.276  30.944  42.670  1.00  0.00     0.055 A 
ATOM    101  C   UNL A   1      48.653  32.225  41.165  1.00  0.00     0.041 A 
ATOM    102  F   UNL A   1      47.733  33.075  39.182  1.00  0.00    -0.206 F 
ATOM    103  C   UNL A   1      48.507  31.532  42.363  1.00  0.00     0.022 A 
BRANCH 100 104
ATOM    104  S   UNL A   1      47.098  30.158  44.295  1.00  0.00     0.124 S 
ATOM    105  O   UNL A   1      47.924  28.961  44.144  1.00  0.00    -0.237 OA
ATOM    106  O   UNL A   1      47.636  31.178  45.191  1.00  0.00    -0.237 OA
ATOM    107  O   UNL A   1      45.665  29.910  44.413  1.00  0.00    -0.744 OA
ENDBRANCH 100 104
ENDBRANCH  74  97
ENDBRANCH  48  49
ENDBRANCH  41  43
ENDBRANCH  40  41
ENDBRANCH  39  40
ENDBRANCH  38  39
ENDBRANCH  37  38
ENDBRANCH  36  37
ENDBRANCH   1  36
TORSDOF 26
ENDMDL
MODEL 2
REMARK VINA RESULT:      -8.7      4.892      9.268
REMARK SMILES C[C@@H]1CCC[C@H](C)[N@H+]1Cc1cc2c(cc1Cl)C=C(C(=O)OCCOCCOCCOCCOC(=O)c1ccc(-c3c4nc(c(-c5cc(S(=O)(=O)[O-])ccc5F)c5ccc([nH]5)c(-c5cc(S(=O)(=O)[O-])ccc5F)c5nc(c(-c6cc(S(=O)(=O)[O-])ccc6F)c6ccc3[nH]6)C=C5)C=C4)cc1)[C@@H](C(F)(F)F)O2
REMARK SMILES IDX 28 1 27 2 26 3 25 4 24 5 23 6 22 7 21 8 19 9 20 10 18 11
REMARK SMILES IDX 10 12 11 13 15 14 12 15 14 16 16 17 13 18 104 19 17 20 99 21
REMARK SMILES IDX 9 22 8 23 7 24 6 25 5 26 4 27 2 28 3 30 1 31 100 32 101 33
REMARK SMILES IDX 102 34 103 35 29 36 30 37 31 38 32 39 33 40 34 41 35 42
REMARK SMILES IDX 36 43 37 44 98 45 38 46 97 47 39 48 40 49 41 50 91 51 42 52
REMARK SMILES IDX 96 53 90 54 92 55 43 56 95 57 89 58 88 59 44 61 76 62 56 63
REMARK SMILES IDX 75 64 57 65 60 66 74 67 93 68 58 69 59 70 73 72 94 73 61 74
REMARK SMILES IDX 45 75 46 76 54 77 47 78 53 79 55 80 52 81 48 82 49 83 50 84
REMARK SMILES IDX 51 85 77 86 78 87 86 88 79 89 85 90 87 91 84 92 80 93 81 94
REMARK SMILES IDX 82 95 83 96 62 97 63 98 71 99 64 100 70 101 72 102 69 103
REMARK SMILES IDX 65 104 66 105 67 106 68 107
REMARK H PARENT 8 29 92 60 60 71
REMARK Flexibility Score: inf
ROOT
ATOM      1  C   UNL A   1      29.657  29.811  24.333  1.00  0.00     0.188 C 
ENDROOT
BRANCH   1   2
ATOM      2  O   UNL A   1      29.308  29.748  22.950  1.00  0.00    -0.377 OA
BRANCH   2   3
ATOM      3  C   UNL A   1      30.366  29.707  22.007  1.00  0.00     0.188 C 
BRANCH   3   4
ATOM      4  C   UNL A   1      30.767  28.269  21.633  1.00  0.00     0.188 C 
BRANCH   4   5
ATOM      5  O   UNL A   1      30.955  27.429  22.766  1.00  0.00    -0.376 OA
BRANCH   5   6
ATOM      6  C   UNL A   1      31.349  26.079  22.554  1.00  0.00     0.202 C 
BRANCH   6   7
ATOM      7  C   UNL A   1      32.536  25.765  21.624  1.00  0.00     0.261 C 
BRANCH   7   8
ATOM      8  O   UNL A   1      32.997  24.404  21.632  1.00  0.00    -0.460 OA
BRANCH   8   9
ATOM      9  C   UNL A   1      32.748  23.678  22.733  1.00  0.00     0.338 C 
ATOM     10  O   UNL A   1      31.746  23.019  22.958  1.00  0.00    -0.246 OA
BRANCH   9  11
ATOM     11  C   UNL A   1      33.967  23.651  23.572  1.00  0.00     0.087 C 
ATOM     12  C   UNL A   1      38.267  22.315  25.842  1.00  0.00     0.029 A 
ATOM     13  C   UNL A   1      37.453  23.470  25.871  1.00  0.00     0.058 A 
ATOM     14  C   UNL A   1      37.848  21.243  25.034  1.00  0.00     0.050 A 
ATOM     15  C   UNL A   1      36.303  23.570  25.077  1.00  0.00     0.128 A 
ATOM     16  C   UNL A   1      36.742  21.373  24.190  1.00  0.00     0.033 A 
ATOM     17  Cl  UNL A   1      38.612  19.692  25.041  1.00  0.00    -0.084 Cl
ATOM     18  C   UNL A   1      35.972  22.533  24.210  1.00  0.00     0.019 A 
ATOM     19  O   UNL A   1      35.567  24.718  25.174  1.00  0.00    -0.475 OA
ATOM     20  C   UNL A   1      34.810  22.637  23.350  1.00  0.00     0.027 C 
ATOM     21  C   UNL A   1      34.216  24.721  24.608  1.00  0.00     0.316 C 
BRANCH  12  22
ATOM     22  C   UNL A   1      39.536  22.268  26.674  1.00  0.00     0.301 C 
BRANCH  22  23
ATOM     23  N   UNL A   1      40.565  23.303  26.432  1.00  0.00    -0.327 N 
ATOM     24  C   UNL A   1      42.786  23.441  25.358  1.00  0.00     0.075 C 
ATOM     25  C   UNL A   1      41.953  22.826  26.494  1.00  0.00     0.181 C 
ATOM     26  C   UNL A   1      42.634  23.044  27.856  1.00  0.00     0.065 C 
ATOM     27  C   UNL A   1      42.406  24.432  28.441  1.00  0.00     0.012 C 
ATOM     28  C   UNL A   1      40.293  24.618  27.030  1.00  0.00     0.181 C 
ATOM     29  H   UNL A   1      40.460  23.512  25.439  1.00  0.00     0.348 HD
ATOM     30  C   UNL A   1      40.929  24.804  28.416  1.00  0.00     0.065 C 
ATOM     31  C   UNL A   1      40.687  25.769  26.091  1.00  0.00     0.075 C 
ENDBRANCH  22  23
ENDBRANCH  12  22
BRANCH  21  32
ATOM     32  C   UNL A   1      33.176  24.650  25.732  1.00  0.00     0.430 C 
ATOM     33  F   UNL A   1      32.106  25.434  25.470  1.00  0.00    -0.167 F 
ATOM     34  F   UNL A   1      32.715  23.389  25.905  1.00  0.00    -0.167 F 
ATOM     35  F   UNL A   1      33.693  25.054  26.917  1.00  0.00    -0.167 F 
ENDBRANCH  21  32
ENDBRANCH   9  11
ENDBRANCH   8   9
ENDBRANCH   7   8
ENDBRANCH   6   7
ENDBRANCH   5   6
ENDBRANCH   4   5
ENDBRANCH   3   4
ENDBRANCH   2   3
ENDBRANCH   1   2
BRANCH   1  36
ATOM     36  C   UNL A   1      31.041  30.330  24.792  1.00  0.00     0.188 C 
BRANCH  36  37
ATOM     37  O   UNL A   1      31.879  29.317  25.347  1.00  0.00    -0.376 OA
BRANCH  37  38
ATOM     38  C   UNL A   1      33.281  29.544  25.278  1.00  0.00     0.202 C 
BRANCH  38  39
ATOM     39  C   UNL A   1      34.127  28.384  25.817  1.00  0.00     0.261 C 
BRANCH  39  40
ATOM     40  O   UNL A   1      34.669  28.577  27.133  1.00  0.00    -0.460 OA
BRANCH  40  41
ATOM     41  C   UNL A   1      34.945  29.841  27.526  1.00  0.00     0.338 C 
ATOM     42  O   UNL A   1      34.215  30.812  27.433  1.00  0.00    -0.246 OA
BRANCH  41  43
ATOM     43  C   UNL A   1      36.213  29.794  28.288  1.00  0.00     0.060 A 
ATOM     44  C   UNL A   1      37.427  30.066  27.649  1.00  0.00     0.016 A 
ATOM     45  C   UNL A   1      36.190  29.427  29.639  1.00  0.00     0.016 A 
ATOM     46  C   UNL A   1      38.616  29.996  28.373  1.00  0.00     0.010 A 
ATOM     47  C   UNL A   1      37.384  29.351  30.361  1.00  0.00     0.010 A 
ATOM     48  C   UNL A   1      38.603  29.659  29.739  1.00  0.00    -0.014 A 
BRANCH  48  49
ATOM     49  C   UNL A   1      39.835  29.842  30.544  1.00  0.00     0.031 A 
ATOM     50  C   UNL A   1      39.855  30.623  31.820  1.00  0.00     0.074 A 
ATOM     51  C   UNL A   1      40.963  29.269  30.082  1.00  0.00     0.049 A 
ATOM     52  N   UNL A   1      40.836  30.763  32.674  1.00  0.00    -0.248 NA
ATOM     53  C   UNL A   1      38.628  31.344  32.186  1.00  0.00     0.031 C 
ATOM     54  C   UNL A   1      41.056  28.520  28.828  1.00  0.00     0.029 A 
ATOM     55  N   UNL A   1      42.232  29.216  30.600  1.00  0.00    -0.354 N 
ATOM     56  C   UNL A   1      40.345  31.567  33.695  1.00  0.00     0.074 A 
ATOM     57  C   UNL A   1      38.991  31.926  33.325  1.00  0.00     0.031 C 
ATOM     58  C   UNL A   1      42.308  28.063  28.684  1.00  0.00     0.029 A 
ATOM     59  C   UNL A   1      43.115  28.507  29.819  1.00  0.00     0.049 A 
ATOM     60  H   UNL A   1      42.486  29.644  31.449  1.00  0.00     0.167 HD
ATOM     61  C   UNL A   1      40.969  31.948  34.837  1.00  0.00     0.034 A 
ATOM     62  C   UNL A   1      44.423  28.234  29.992  1.00  0.00     0.034 A 
ATOM     63  C   UNL A   1      42.328  31.588  35.171  1.00  0.00     0.049 A 
ATOM     64  C   UNL A   1      45.098  28.688  31.260  1.00  0.00     0.074 A 
ATOM     65  C   UNL A   1      43.024  31.877  36.333  1.00  0.00     0.029 A 
ATOM     66  N   UNL A   1      43.200  30.882  34.354  1.00  0.00    -0.354 N 
ATOM     67  N   UNL A   1      44.584  29.341  32.276  1.00  0.00    -0.248 NA
ATOM     68  C   UNL A   1      46.519  28.355  31.420  1.00  0.00     0.031 C 
ATOM     69  C   UNL A   1      44.334  31.418  36.186  1.00  0.00     0.029 A 
ATOM     70  C   UNL A   1      44.437  30.763  34.969  1.00  0.00     0.049 A 
ATOM     71  H   UNL A   1      42.973  30.520  33.468  1.00  0.00     0.167 HD
ATOM     72  C   UNL A   1      45.610  29.475  33.206  1.00  0.00     0.074 A 
ATOM     73  C   UNL A   1      46.768  28.811  32.642  1.00  0.00     0.031 C 
ATOM     74  C   UNL A   1      45.592  30.094  34.413  1.00  0.00     0.034 A 
BRANCH  61  75
ATOM     75  C   UNL A   1      40.205  32.770  35.848  1.00  0.00     0.023 A 
ATOM     76  C   UNL A   1      39.361  32.140  36.783  1.00  0.00     0.031 A 
ATOM     77  C   UNL A   1      40.179  34.175  35.772  1.00  0.00     0.131 A 
ATOM     78  C   UNL A   1      38.495  32.910  37.572  1.00  0.00     0.055 A 
ATOM     79  C   UNL A   1      39.345  34.939  36.590  1.00  0.00     0.041 A 
ATOM     80  F   UNL A   1      40.956  34.824  34.891  1.00  0.00    -0.206 F 
ATOM     81  C   UNL A   1      38.487  34.306  37.485  1.00  0.00     0.022 A 
BRANCH  78  82
ATOM     82  S   UNL A   1      37.291  32.131  38.683  1.00  0.00     0.124 S 
ATOM     83  O   UNL A   1      36.063  32.843  38.340  1.00  0.00    -0.237 OA
ATOM     84  O   UNL A   1      37.342  30.735  38.258  1.00  0.00    -0.237 OA
ATOM     85  O   UNL A   1      37.816  32.404  40.016  1.00  0.00    -0.744 OA
ENDBRANCH  78  82
ENDBRANCH  61  75
BRANCH  62  86
ATOM     86  C   UNL A   1      45.130  27.424  28.960  1.00  0.00     0.023 A 
ATOM     87  C   UNL A   1      45.386  27.951  27.681  1.00  0.00     0.031 A 
ATOM     88  C   UNL A   1      45.438  26.073  29.193  1.00  0.00     0.131 A 
ATOM     89  C   UNL A   1      45.860  27.113  26.664  1.00  0.00     0.055 A 
ATOM     90  C   UNL A   1      45.983  25.261  28.197  1.00  0.00     0.041 A 
ATOM     91  F   UNL A   1      45.194  25.521  30.391  1.00  0.00    -0.206 F 
ATOM     92  C   UNL A   1      46.178  25.775  26.919  1.00  0.00     0.022 A 
BRANCH  89  93
ATOM     93  S   UNL A   1      45.938  27.690  24.945  1.00  0.00     0.124 S 
ATOM     94  O   UNL A   1      46.572  28.996  25.091  1.00  0.00    -0.237 OA
ATOM     95  O   UNL A   1      46.758  26.655  24.321  1.00  0.00    -0.237 OA
ATOM     96  O   UNL A   1      44.541  27.710  24.525  1.00  0.00    -0.744 OA
ENDBRANCH  89  93
ENDBRANCH  62  86
BRANCH  74  97
ATOM     97  C   UNL A   1      46.856  30.107  35.241  1.00  0.00     0.023 A 
ATOM     98  C   UNL A   1      47.838  31.092  35.015  1.00  0.00     0.031 A 
ATOM     99  C   UNL A   1      47.160  29.064  36.134  1.00  0.00     0.131 A 
ATOM    100  C   UNL A   1      49.090  30.988  35.635  1.00  0.00     0.055 A 
ATOM    101  C   UNL A   1      48.390  28.994  36.791  1.00  0.00     0.041 A 
ATOM    102  F   UNL A   1      46.264  28.093  36.378  1.00  0.00    -0.206 F 
ATOM    103  C   UNL A   1      49.367  29.950  36.529  1.00  0.00     0.022 A 
BRANCH 100 104
ATOM    104  S   UNL A   1      50.434  32.138  35.233  1.00  0.00     0.124 S 
ATOM    105  O   UNL A   1      49.913  32.808  34.043  1.00  0.00    -0.237 OA
ATOM    106  O   UNL A   1      50.501  32.965  36.435  1.00  0.00    -0.237 OA
ATOM    107  O   UNL A   1      51.584  31.270  35.002  1.00  0.00    -0.744 OA
ENDBRANCH 100 104
ENDBRANCH  74  97
ENDBRANCH  48  49
ENDBRANCH  41  43
ENDBRANCH  40  41
ENDBRANCH  39  40
ENDBRANCH  38  39
ENDBRANCH  37  38
ENDBRANCH  36  37
ENDBRANCH   1  36
TORSDOF 26
ENDMDL
MODEL 3
REMARK VINA RESULT:      -8.6      8.940     12.004
REMARK SMILES C[C@@H]1CCC[C@H](C)[N@H+]1Cc1cc2c(cc1Cl)C=C(C(=O)OCCOCCOCCOCCOC(=O)c1ccc(-c3c4nc(c(-c5cc(S(=O)(=O)[O-])ccc5F)c5ccc([nH]5)c(-c5cc(S(=O)(=O)[O-])ccc5F)c5nc(c(-c6cc(S(=O)(=O)[O-])ccc6F)c6ccc3[nH]6)C=C5)C=C4)cc1)[C@@H](C(F)(F)F)O2
REMARK SMILES IDX 28 1 27 2 26 3 25 4 24 5 23 6 22 7 21 8 19 9 20 10 18 11
REMARK SMILES IDX 10 12 11 13 15 14 12 15 14 16 16 17 13 18 104 19 17 20 99 21
REMARK SMILES IDX 9 22 8 23 7 24 6 25 5 26 4 27 2 28 3 30 1 31 100 32 101 33
REMARK SMILES IDX 102 34 103 35 29 36 30 37 31 38 32 39 33 40 34 41 35 42
REMARK SMILES IDX 36 43 37 44 98 45 38 46 97 47 39 48 40 49 41 50 91 51 42 52
REMARK SMILES IDX 96 53 90 54 92 55 43 56 95 57 89 58 88 59 44 61 76 62 56 63
REMARK SMILES IDX 75 64 57 65 60 66 74 67 93 68 58 69 59 70 73 72 94 73 61 74
REMARK SMILES IDX 45 75 46 76 54 77 47 78 53 79 55 80 52 81 48 82 49 83 50 84
REMARK SMILES IDX 51 85 77 86 78 87 86 88 79 89 85 90 87 91 84 92 80 93 81 94
REMARK SMILES IDX 82 95 83 96 62 97 63 98 71 99 64 100 70 101 72 102 69 103
REMARK SMILES IDX 65 104 66 105 67 106 68 107
REMARK H PARENT 8 29 92 60 60 71
REMARK Flexibility Score: inf
ROOT
ATOM      1  C   UNL A   1      39.356  28.439  27.917  1.00  0.00     0.188 C 
ENDROOT
BRANCH   1   2
ATOM      2  O   UNL A   1      38.879  28.597  29.255  1.00  0.00    -0.377 OA
BRANCH   2   3
ATOM      3  C   UNL A   1      37.561  29.090  29.427  1.00  0.00     0.188 C 
BRANCH   3   4
ATOM      4  C   UNL A   1      37.173  30.122  28.353  1.00  0.00     0.188 C 
BRANCH   4   5
ATOM      5  O   UNL A   1      35.794  30.073  28.005  1.00  0.00    -0.376 OA
BRANCH   5   6
ATOM      6  C   UNL A   1      35.320  28.962  27.254  1.00  0.00     0.202 C 
BRANCH   6   7
ATOM      7  C   UNL A   1      33.806  28.755  27.065  1.00  0.00     0.261 C 
BRANCH   7   8
ATOM      8  O   UNL A   1      33.424  27.668  26.206  1.00  0.00    -0.460 OA
BRANCH   8   9
ATOM      9  C   UNL A   1      32.373  26.925  26.587  1.00  0.00     0.338 C 
ATOM     10  O   UNL A   1      31.262  27.334  26.880  1.00  0.00    -0.246 OA
BRANCH   9  11
ATOM     11  C   UNL A   1      32.717  25.494  26.425  1.00  0.00     0.087 C 
ATOM     12  C   UNL A   1      34.985  21.157  25.213  1.00  0.00     0.029 A 
ATOM     13  C   UNL A   1      33.814  21.492  25.929  1.00  0.00     0.058 A 
ATOM     14  C   UNL A   1      35.740  22.211  24.669  1.00  0.00     0.050 A 
ATOM     15  C   UNL A   1      33.450  22.827  26.144  1.00  0.00     0.128 A 
ATOM     16  C   UNL A   1      35.414  23.541  24.945  1.00  0.00     0.033 A 
ATOM     17  Cl  UNL A   1      37.078  21.970  23.600  1.00  0.00    -0.084 Cl
ATOM     18  C   UNL A   1      34.273  23.850  25.682  1.00  0.00     0.019 A 
ATOM     19  O   UNL A   1      32.296  23.062  26.838  1.00  0.00    -0.475 OA
ATOM     20  C   UNL A   1      33.934  25.236  25.932  1.00  0.00     0.027 C 
ATOM     21  C   UNL A   1      31.733  24.414  26.804  1.00  0.00     0.316 C 
BRANCH  12  22
ATOM     22  C   UNL A   1      35.377  19.699  25.050  1.00  0.00     0.301 C 
BRANCH  22  23
ATOM     23  N   UNL A   1      34.421  18.794  24.376  1.00  0.00    -0.327 N 
ATOM     24  C   UNL A   1      32.114  18.913  23.497  1.00  0.00     0.075 C 
ATOM     25  C   UNL A   1      33.012  18.991  24.742  1.00  0.00     0.181 C 
ATOM     26  C   UNL A   1      32.508  18.043  25.844  1.00  0.00     0.065 C 
ATOM     27  C   UNL A   1      32.920  16.591  25.638  1.00  0.00     0.012 C 
ATOM     28  C   UNL A   1      34.871  17.404  24.216  1.00  0.00     0.181 C 
ATOM     29  H   UNL A   1      34.432  19.117  23.408  1.00  0.00     0.348 HD
ATOM     30  C   UNL A   1      34.412  16.477  25.351  1.00  0.00     0.065 C 
ATOM     31  C   UNL A   1      34.476  16.826  22.848  1.00  0.00     0.075 C 
ENDBRANCH  22  23
ENDBRANCH  12  22
BRANCH  21  32
ATOM     32  C   UNL A   1      30.503  24.447  25.889  1.00  0.00     0.430 C 
ATOM     33  F   UNL A   1      29.551  25.282  26.365  1.00  0.00    -0.167 F 
ATOM     34  F   UNL A   1      30.820  24.872  24.643  1.00  0.00    -0.167 F 
ATOM     35  F   UNL A   1      29.940  23.221  25.764  1.00  0.00    -0.167 F 
ENDBRANCH  21  32
ENDBRANCH   9  11
ENDBRANCH   8   9
ENDBRANCH   7   8
ENDBRANCH   6   7
ENDBRANCH   5   6
ENDBRANCH   4   5
ENDBRANCH   3   4
ENDBRANCH   2   3
ENDBRANCH   1   2
BRANCH   1  36
ATOM     36  C   UNL A   1      39.610  27.037  27.314  1.00  0.00     0.188 C 
BRANCH  36  37
ATOM     37  O   UNL A   1      39.961  26.050  28.283  1.00  0.00    -0.376 OA
BRANCH  37  38
ATOM     38  C   UNL A   1      39.275  24.807  28.201  1.00  0.00     0.202 C 
BRANCH  38  39
ATOM     39  C   UNL A   1      39.783  23.886  27.086  1.00  0.00     0.261 C 
BRANCH  39  40
ATOM     40  O   UNL A   1      40.932  24.362  26.369  1.00  0.00    -0.460 OA
BRANCH  40  41
ATOM     41  C   UNL A   1      42.039  23.586  26.359  1.00  0.00     0.338 C 
ATOM     42  O   UNL A   1      42.096  22.395  26.104  1.00  0.00    -0.246 OA
BRANCH  41  43
ATOM     43  C   UNL A   1      43.205  24.486  26.504  1.00  0.00     0.060 A 
ATOM     44  C   UNL A   1      43.718  25.156  25.388  1.00  0.00     0.016 A 
ATOM     45  C   UNL A   1      43.817  24.622  27.755  1.00  0.00     0.016 A 
ATOM     46  C   UNL A   1      44.830  25.983  25.534  1.00  0.00     0.010 A 
ATOM     47  C   UNL A   1      44.936  25.448  27.898  1.00  0.00     0.010 A 
ATOM     48  C   UNL A   1      45.436  26.153  26.793  1.00  0.00    -0.014 A 
BRANCH  48  49
ATOM     49  C   UNL A   1      46.443  27.225  26.975  1.00  0.00     0.031 A 
ATOM     50  C   UNL A   1      47.907  27.000  26.762  1.00  0.00     0.074 A 
ATOM     51  C   UNL A   1      45.991  28.439  27.345  1.00  0.00     0.049 A 
ATOM     52  N   UNL A   1      48.877  27.878  26.776  1.00  0.00    -0.248 NA
ATOM     53  C   UNL A   1      48.345  25.620  26.507  1.00  0.00     0.031 C 
ATOM     54  C   UNL A   1      44.586  28.750  27.616  1.00  0.00     0.029 A 
ATOM     55  N   UNL A   1      46.644  29.627  27.551  1.00  0.00    -0.354 N 
ATOM     56  C   UNL A   1      50.041  27.169  26.509  1.00  0.00     0.074 A 
ATOM     57  C   UNL A   1      49.660  25.776  26.387  1.00  0.00     0.031 C 
ATOM     58  C   UNL A   1      44.480  30.048  27.930  1.00  0.00     0.029 A 
ATOM     59  C   UNL A   1      45.808  30.658  27.911  1.00  0.00     0.049 A 
ATOM     60  H   UNL A   1      47.618  29.731  27.451  1.00  0.00     0.167 HD
ATOM     61  C   UNL A   1      51.301  27.648  26.363  1.00  0.00     0.034 A 
ATOM     62  C   UNL A   1      46.071  31.951  28.188  1.00  0.00     0.034 A 
ATOM     63  C   UNL A   1      51.655  29.041  26.508  1.00  0.00     0.049 A 
ATOM     64  C   UNL A   1      47.483  32.452  28.040  1.00  0.00     0.074 A 
ATOM     65  C   UNL A   1      52.894  29.630  26.319  1.00  0.00     0.029 A 
ATOM     66  N   UNL A   1      50.789  30.058  26.887  1.00  0.00    -0.354 N 
ATOM     67  N   UNL A   1      48.554  31.794  27.662  1.00  0.00    -0.248 NA
ATOM     68  C   UNL A   1      47.725  33.871  28.332  1.00  0.00     0.031 C 
ATOM     69  C   UNL A   1      52.796  30.980  26.659  1.00  0.00     0.029 A 
ATOM     70  C   UNL A   1      51.476  31.259  26.976  1.00  0.00     0.049 A 
ATOM     71  H   UNL A   1      49.828  29.943  27.065  1.00  0.00     0.167 HD
ATOM     72  C   UNL A   1      49.590  32.722  27.647  1.00  0.00     0.074 A 
ATOM     73  C   UNL A   1      49.012  33.994  28.028  1.00  0.00     0.031 C 
ATOM     74  C   UNL A   1      50.901  32.532  27.348  1.00  0.00     0.034 A 
BRANCH  61  75
ATOM     75  C   UNL A   1      52.410  26.690  25.996  1.00  0.00     0.023 A 
ATOM     76  C   UNL A   1      53.342  26.277  26.969  1.00  0.00     0.031 A 
ATOM     77  C   UNL A   1      52.645  26.328  24.658  1.00  0.00     0.131 A 
ATOM     78  C   UNL A   1      54.486  25.566  26.582  1.00  0.00     0.055 A 
ATOM     79  C   UNL A   1      53.764  25.583  24.284  1.00  0.00     0.041 A 
ATOM     80  F   UNL A   1      51.793  26.704  23.691  1.00  0.00    -0.206 F 
ATOM     81  C   UNL A   1      54.699  25.212  25.246  1.00  0.00     0.022 A 
BRANCH  78  82
ATOM     82  S   UNL A   1      55.781  25.142  27.780  1.00  0.00     0.124 S 
ATOM     83  O   UNL A   1      56.894  25.969  27.322  1.00  0.00    -0.237 OA
ATOM     84  O   UNL A   1      55.176  25.556  29.043  1.00  0.00    -0.237 OA
ATOM     85  O   UNL A   1      55.961  23.705  27.608  1.00  0.00    -0.744 OA
ENDBRANCH  78  82
ENDBRANCH  61  75
BRANCH  62  86
ATOM     86  C   UNL A   1      44.940  32.851  28.551  1.00  0.00     0.023 A 
ATOM     87  C   UNL A   1      44.295  33.627  27.570  1.00  0.00     0.031 A 
ATOM     88  C   UNL A   1      44.579  33.048  29.894  1.00  0.00     0.131 A 
ATOM     89  C   UNL A   1      43.380  34.616  27.955  1.00  0.00     0.055 A 
ATOM     90  C   UNL A   1      43.611  33.982  30.266  1.00  0.00     0.041 A 
ATOM     91  F   UNL A   1      45.181  32.345  30.866  1.00  0.00    -0.206 F 
ATOM     92  C   UNL A   1      43.020  34.785  29.296  1.00  0.00     0.022 A 
BRANCH  89  93
ATOM     93  S   UNL A   1      42.742  35.812  26.748  1.00  0.00     0.124 S 
ATOM     94  O   UNL A   1      42.809  35.053  25.504  1.00  0.00    -0.237 OA
ATOM     95  O   UNL A   1      41.399  36.065  27.264  1.00  0.00    -0.237 OA
ATOM     96  O   UNL A   1      43.668  36.934  26.853  1.00  0.00    -0.744 OA
ENDBRANCH  89  93
ENDBRANCH  62  86
BRANCH  74  97
ATOM     97  C   UNL A   1      51.838  33.716  27.414  1.00  0.00     0.023 A 
ATOM     98  C   UNL A   1      52.103  34.472  26.254  1.00  0.00     0.031 A 
ATOM     99  C   UNL A   1      52.585  33.998  28.572  1.00  0.00     0.131 A 
ATOM    100  C   UNL A   1      53.120  35.436  26.265  1.00  0.00     0.055 A 
ATOM    101  C   UNL A   1      53.559  34.997  28.592  1.00  0.00     0.041 A 
ATOM    102  F   UNL A   1      52.380  33.300  29.701  1.00  0.00    -0.206 F 
ATOM    103  C   UNL A   1      53.842  35.710  27.430  1.00  0.00     0.022 A 
BRANCH 100 104
ATOM    104  S   UNL A   1      53.606  36.303  24.747  1.00  0.00     0.124 S 
ATOM    105  O   UNL A   1      52.310  36.597  24.138  1.00  0.00    -0.237 OA
ATOM    106  O   UNL A   1      54.325  37.461  25.272  1.00  0.00    -0.237 OA
ATOM    107  O   UNL A   1      54.421  35.329  24.030  1.00  0.00    -0.744 OA
ENDBRANCH 100 104
ENDBRANCH  74  97
ENDBRANCH  48  49
ENDBRANCH  41  43
ENDBRANCH  40  41
ENDBRANCH  39  40
ENDBRANCH  38  39
ENDBRANCH  37  38
ENDBRANCH  36  37
ENDBRANCH   1  36
TORSDOF 26
ENDMDL
