MODEL 1
REMARK VINA RESULT:      -6.9      0.000      0.000
REMARK SMILES COc1cc2c(CC(=O)OCCOCCOCCOCCOC(=O)c3ccc(-c4c5nc(c(-c6cc(S(=O)(=O)[O-])ccc6F)c6ccc([nH]6)c(-c6cc(S(=O)(=O)[O-])ccc6F)c6nc(c(-c7cc(S(=O)(=O)[O-])ccc7F)c7ccc4[nH]7)C=C6)C=C5)cc3)c(C)n(C(=O)c3ccc(Cl)cc3)c2cc1Cl
REMARK SMILES IDX 16 1 15 2 14 3 13 4 12 5 11 6 10 7 8 8 9 9 7 10 6 11 3 12
REMARK SMILES IDX 4 13 102 14 5 15 101 16 103 17 100 18 88 19 90 20 89 21 2 22
REMARK SMILES IDX 1 23 91 24 92 25 93 26 94 27 99 28 95 29 98 30 96 31 97 32
REMARK SMILES IDX 17 33 18 34 19 35 20 36 21 37 22 38 23 39 24 40 25 41 26 42
REMARK SMILES IDX 87 43 27 44 86 45 28 46 29 47 30 48 80 49 31 50 85 51 79 52
REMARK SMILES IDX 81 53 32 54 84 55 78 56 77 57 33 59 65 60 45 61 64 62 46 63
REMARK SMILES IDX 49 64 63 65 82 66 47 67 48 68 62 70 83 71 50 72 34 73 35 74
REMARK SMILES IDX 43 75 36 76 42 77 44 78 41 79 37 80 38 81 39 82 40 83 66 84
REMARK SMILES IDX 67 85 75 86 68 87 74 88 76 89 73 90 69 91 70 92 71 93 72 94
REMARK SMILES IDX 51 95 52 96 60 97 53 98 59 99 61 100 58 101 54 102 55 103
REMARK SMILES IDX 56 104 57 105
REMARK H PARENT 81 58 49 69
REMARK Flexibility Score: inf
ROOT
ATOM      1  O   UNL A   1      47.603  33.531  27.200  1.00  0.00    -0.377 OA
ENDROOT
BRANCH   1   2
ATOM      2  C   UNL A   1      47.800  34.074  28.478  1.00  0.00     0.188 C 
BRANCH   2   3
ATOM      3  C   UNL A   1      46.689  34.601  29.378  1.00  0.00     0.188 C 
BRANCH   3   4
ATOM      4  O   UNL A   1      46.877  34.333  30.745  1.00  0.00    -0.376 OA
BRANCH   4   5
ATOM      5  C   UNL A   1      46.376  35.211  31.736  1.00  0.00     0.202 C 
BRANCH   5   6
ATOM      6  C   UNL A   1      46.550  36.750  31.685  1.00  0.00     0.261 C 
BRANCH   6   7
ATOM      7  O   UNL A   1      47.859  37.330  31.878  1.00  0.00    -0.463 OA
BRANCH   7   8
ATOM      8  C   UNL A   1      48.392  38.039  30.854  1.00  0.00     0.310 C 
ATOM      9  O   UNL A   1      48.861  37.506  29.850  1.00  0.00    -0.252 OA
BRANCH   8  10
ATOM     10  C   UNL A   1      48.306  39.569  30.949  1.00  0.00     0.160 C 
BRANCH  10  11
ATOM     11  C   UNL A   1      47.283  40.398  30.174  1.00  0.00    -0.008 A 
ATOM     12  C   UNL A   1      43.652  40.309  31.543  1.00  0.00     0.138 A 
ATOM     13  C   UNL A   1      44.992  39.893  31.379  1.00  0.00     0.058 A 
ATOM     14  C   UNL A   1      43.128  41.202  30.619  1.00  0.00     0.085 A 
ATOM     15  C   UNL A   1      45.865  40.474  30.417  1.00  0.00     0.008 A 
ATOM     16  C   UNL A   1      43.938  41.689  29.583  1.00  0.00     0.051 A 
ATOM     17  Cl  UNL A   1      41.491  41.767  30.575  1.00  0.00    -0.080 Cl
ATOM     18  C   UNL A   1      45.312  41.364  29.495  1.00  0.00     0.058 A 
ATOM     19  C   UNL A   1      47.511  41.117  29.001  1.00  0.00     0.028 A 
ATOM     20  N   UNL A   1      46.318  41.740  28.584  1.00  0.00    -0.280 N 
ATOM     21  C   UNL A   1      48.828  41.220  28.292  1.00  0.00     0.065 C 
BRANCH  12  22
ATOM     22  O   UNL A   1      43.064  39.744  32.644  1.00  0.00    -0.495 OA
ATOM     23  C   UNL A   1      43.089  40.421  33.894  1.00  0.00     0.278 C 
ENDBRANCH  12  22
BRANCH  20  24
ATOM     24  C   UNL A   1      46.122  42.558  27.426  1.00  0.00     0.262 C 
ATOM     25  O   UNL A   1      45.272  42.248  26.594  1.00  0.00    -0.268 OA
BRANCH  24  26
ATOM     26  C   UNL A   1      46.820  43.831  27.157  1.00  0.00     0.040 A 
ATOM     27  C   UNL A   1      47.821  43.898  26.181  1.00  0.00     0.015 A 
ATOM     28  C   UNL A   1      46.509  44.950  27.941  1.00  0.00     0.015 A 
ATOM     29  C   UNL A   1      48.566  45.074  26.043  1.00  0.00     0.021 A 
ATOM     30  C   UNL A   1      47.255  46.123  27.795  1.00  0.00     0.021 A 
ATOM     31  C   UNL A   1      48.290  46.173  26.859  1.00  0.00     0.041 A 
ATOM     32  Cl  UNL A   1      49.250  47.597  26.733  1.00  0.00    -0.084 Cl
ENDBRANCH  24  26
ENDBRANCH  20  24
ENDBRANCH  10  11
ENDBRANCH   8  10
ENDBRANCH   7   8
ENDBRANCH   6   7
ENDBRANCH   5   6
ENDBRANCH   4   5
ENDBRANCH   3   4
ENDBRANCH   2   3
ENDBRANCH   1   2
BRANCH   1  33
ATOM     33  C   UNL A   1      46.418  33.855  26.529  1.00  0.00     0.188 C 
BRANCH  33  34
ATOM     34  C   UNL A   1      46.542  35.087  25.626  1.00  0.00     0.188 C 
BRANCH  34  35
ATOM     35  O   UNL A   1      47.652  35.977  25.741  1.00  0.00    -0.376 OA
BRANCH  35  36
ATOM     36  C   UNL A   1      47.460  37.382  25.696  1.00  0.00     0.202 C 
BRANCH  36  37
ATOM     37  C   UNL A   1      47.117  38.181  26.972  1.00  0.00     0.261 C 
BRANCH  37  38
ATOM     38  O   UNL A   1      45.991  37.702  27.713  1.00  0.00    -0.460 OA
BRANCH  38  39
ATOM     39  C   UNL A   1      44.785  38.319  27.525  1.00  0.00     0.338 C 
ATOM     40  O   UNL A   1      44.556  39.275  26.848  1.00  0.00    -0.246 OA
BRANCH  39  41
ATOM     41  C   UNL A   1      43.764  37.374  28.077  1.00  0.00     0.060 A 
ATOM     42  C   UNL A   1      43.608  37.195  29.453  1.00  0.00     0.016 A 
ATOM     43  C   UNL A   1      43.242  36.432  27.177  1.00  0.00     0.016 A 
ATOM     44  C   UNL A   1      43.097  35.982  29.917  1.00  0.00     0.010 A 
ATOM     45  C   UNL A   1      42.736  35.215  27.648  1.00  0.00     0.010 A 
ATOM     46  C   UNL A   1      42.715  34.959  29.019  1.00  0.00    -0.014 A 
BRANCH  46  47
ATOM     47  C   UNL A   1      42.050  33.773  29.593  1.00  0.00     0.031 A 
ATOM     48  C   UNL A   1      40.706  34.129  30.124  1.00  0.00     0.074 A 
ATOM     49  C   UNL A   1      42.395  32.466  29.563  1.00  0.00     0.049 A 
ATOM     50  N   UNL A   1      40.303  34.135  31.352  1.00  0.00    -0.248 NA
ATOM     51  C   UNL A   1      39.772  34.742  29.168  1.00  0.00     0.031 C 
ATOM     52  C   UNL A   1      43.464  31.814  28.807  1.00  0.00     0.029 A 
ATOM     53  N   UNL A   1      41.757  31.407  30.161  1.00  0.00    -0.354 N 
ATOM     54  C   UNL A   1      38.995  34.611  31.310  1.00  0.00     0.074 A 
ATOM     55  C   UNL A   1      38.795  35.132  29.981  1.00  0.00     0.031 C 
ATOM     56  C   UNL A   1      43.259  30.472  28.810  1.00  0.00     0.029 A 
ATOM     57  C   UNL A   1      42.134  30.158  29.679  1.00  0.00     0.049 A 
ATOM     58  H   UNL A   1      41.087  31.522  30.874  1.00  0.00     0.167 HD
ATOM     59  C   UNL A   1      38.098  34.384  32.307  1.00  0.00     0.034 A 
ATOM     60  C   UNL A   1      41.524  28.967  29.919  1.00  0.00     0.034 A 
ATOM     61  C   UNL A   1      38.738  33.912  33.501  1.00  0.00     0.049 A 
ATOM     62  C   UNL A   1      40.658  29.101  31.112  1.00  0.00     0.074 A 
ATOM     63  C   UNL A   1      39.625  34.441  34.413  1.00  0.00     0.029 A 
ATOM     64  N   UNL A   1      38.718  32.559  33.724  1.00  0.00    -0.354 N 
ATOM     65  N   UNL A   1      41.089  29.214  32.333  1.00  0.00    -0.248 NA
ATOM     66  C   UNL A   1      39.263  29.455  30.903  1.00  0.00     0.031 C 
ATOM     67  C   UNL A   1      40.412  33.339  34.853  1.00  0.00     0.029 A 
ATOM     68  C   UNL A   1      39.945  32.191  34.209  1.00  0.00     0.049 A 
ATOM     69  H   UNL A   1      37.956  31.957  33.563  1.00  0.00     0.167 HD
ATOM     70  C   UNL A   1      40.187  30.075  32.934  1.00  0.00     0.074 A 
ATOM     71  C   UNL A   1      39.020  30.075  32.057  1.00  0.00     0.031 C 
ATOM     72  C   UNL A   1      40.583  30.920  33.929  1.00  0.00     0.034 A 
BRANCH  59  73
ATOM     73  C   UNL A   1      36.611  34.272  32.078  1.00  0.00     0.023 A 
ATOM     74  C   UNL A   1      35.719  35.323  32.359  1.00  0.00     0.031 A 
ATOM     75  C   UNL A   1      36.073  33.187  31.361  1.00  0.00     0.131 A 
ATOM     76  C   UNL A   1      34.373  35.272  31.981  1.00  0.00     0.055 A 
ATOM     77  C   UNL A   1      34.745  33.167  30.914  1.00  0.00     0.041 A 
ATOM     78  F   UNL A   1      36.837  32.136  31.020  1.00  0.00    -0.206 F 
ATOM     79  C   UNL A   1      33.885  34.212  31.227  1.00  0.00     0.022 A 
BRANCH  76  80
ATOM     80  S   UNL A   1      33.241  36.603  32.466  1.00  0.00     0.124 S 
ATOM     81  O   UNL A   1      33.058  37.314  31.206  1.00  0.00    -0.237 OA
ATOM     82  O   UNL A   1      32.086  35.848  32.944  1.00  0.00    -0.237 OA
ATOM     83  O   UNL A   1      33.980  37.320  33.501  1.00  0.00    -0.744 OA
ENDBRANCH  76  80
ENDBRANCH  59  73
BRANCH  60  84
ATOM     84  C   UNL A   1      41.318  27.826  28.992  1.00  0.00     0.023 A 
ATOM     85  C   UNL A   1      42.109  26.674  29.142  1.00  0.00     0.031 A 
ATOM     86  C   UNL A   1      40.636  27.985  27.769  1.00  0.00     0.131 A 
ATOM     87  C   UNL A   1      42.253  25.767  28.083  1.00  0.00     0.055 A 
ATOM     88  C   UNL A   1      40.765  27.066  26.719  1.00  0.00     0.041 A 
ATOM     89  F   UNL A   1      39.894  29.080  27.538  1.00  0.00    -0.206 F 
ATOM     90  C   UNL A   1      41.593  25.958  26.867  1.00  0.00     0.022 A 
BRANCH  87  91
ATOM     91  S   UNL A   1      43.398  24.369  28.231  1.00  0.00     0.124 S 
ATOM     92  O   UNL A   1      44.312  24.829  29.275  1.00  0.00    -0.237 OA
ATOM     93  O   UNL A   1      42.497  23.288  28.615  1.00  0.00    -0.237 OA
ATOM     94  O   UNL A   1      43.985  24.267  26.898  1.00  0.00    -0.744 OA
ENDBRANCH  87  91
ENDBRANCH  60  84
BRANCH  72  95
ATOM     95  C   UNL A   1      41.901  30.665  34.622  1.00  0.00     0.023 A 
ATOM     96  C   UNL A   1      43.053  31.162  33.985  1.00  0.00     0.031 A 
ATOM     97  C   UNL A   1      42.086  29.818  35.731  1.00  0.00     0.131 A 
ATOM     98  C   UNL A   1      44.324  30.776  34.415  1.00  0.00     0.055 A 
ATOM     99  C   UNL A   1      43.362  29.509  36.215  1.00  0.00     0.041 A 
ATOM    100  F   UNL A   1      41.058  29.193  36.324  1.00  0.00    -0.206 F 
ATOM    101  C   UNL A   1      44.490  29.968  35.542  1.00  0.00     0.022 A 
BRANCH  98 102
ATOM    102  S   UNL A   1      45.783  31.173  33.418  1.00  0.00     0.124 S 
ATOM    103  O   UNL A   1      46.697  30.086  33.759  1.00  0.00    -0.237 OA
ATOM    104  O   UNL A   1      45.245  31.137  32.060  1.00  0.00    -0.237 OA
ATOM    105  O   UNL A   1      46.183  32.496  33.887  1.00  0.00    -0.744 OA
ENDBRANCH  98 102
ENDBRANCH  72  95
ENDBRANCH  46  47
ENDBRANCH  39  41
ENDBRANCH  38  39
ENDBRANCH  37  38
ENDBRANCH  36  37
ENDBRANCH  35  36
ENDBRANCH  34  35
ENDBRANCH  33  34
ENDBRANCH   1  33
TORSDOF 27
ENDMDL
MODEL 2
REMARK VINA RESULT:      -6.9      4.105      7.076
REMARK SMILES COc1cc2c(CC(=O)OCCOCCOCCOCCOC(=O)c3ccc(-c4c5nc(c(-c6cc(S(=O)(=O)[O-])ccc6F)c6ccc([nH]6)c(-c6cc(S(=O)(=O)[O-])ccc6F)c6nc(c(-c7cc(S(=O)(=O)[O-])ccc7F)c7ccc4[nH]7)C=C6)C=C5)cc3)c(C)n(C(=O)c3ccc(Cl)cc3)c2cc1Cl
REMARK SMILES IDX 16 1 15 2 14 3 13 4 12 5 11 6 10 7 8 8 9 9 7 10 6 11 3 12
REMARK SMILES IDX 4 13 102 14 5 15 101 16 103 17 100 18 88 19 90 20 89 21 2 22
REMARK SMILES IDX 1 23 91 24 92 25 93 26 94 27 99 28 95 29 98 30 96 31 97 32
REMARK SMILES IDX 17 33 18 34 19 35 20 36 21 37 22 38 23 39 24 40 25 41 26 42
REMARK SMILES IDX 87 43 27 44 86 45 28 46 29 47 30 48 80 49 31 50 85 51 79 52
REMARK SMILES IDX 81 53 32 54 84 55 78 56 77 57 33 59 65 60 45 61 64 62 46 63
REMARK SMILES IDX 49 64 63 65 82 66 47 67 48 68 62 70 83 71 50 72 34 73 35 74
REMARK SMILES IDX 43 75 36 76 42 77 44 78 41 79 37 80 38 81 39 82 40 83 66 84
REMARK SMILES IDX 67 85 75 86 68 87 74 88 76 89 73 90 69 91 70 92 71 93 72 94
REMARK SMILES IDX 51 95 52 96 60 97 53 98 59 99 61 100 58 101 54 102 55 103
REMARK SMILES IDX 56 104 57 105
REMARK H PARENT 81 58 49 69
REMARK Flexibility Score: inf
ROOT
ATOM      1  O   UNL A   1      43.406  38.719  26.693  1.00  0.00    -0.377 OA
ENDROOT
BRANCH   1   2
ATOM      2  C   UNL A   1      43.679  40.001  26.192  1.00  0.00     0.188 C 
BRANCH   2   3
ATOM      3  C   UNL A   1      43.247  41.303  26.854  1.00  0.00     0.188 C 
BRANCH   3   4
ATOM      4  O   UNL A   1      44.288  42.228  27.044  1.00  0.00    -0.376 OA
BRANCH   4   5
ATOM      5  C   UNL A   1      44.541  42.789  28.319  1.00  0.00     0.202 C 
BRANCH   5   6
ATOM      6  C   UNL A   1      45.153  44.197  28.530  1.00  0.00     0.261 C 
BRANCH   6   7
ATOM      7  O   UNL A   1      46.512  44.458  28.115  1.00  0.00    -0.463 OA
BRANCH   7   8
ATOM      8  C   UNL A   1      46.737  45.549  27.344  1.00  0.00     0.310 C 
ATOM      9  O   UNL A   1      46.508  46.694  27.730  1.00  0.00    -0.252 OA
BRANCH   8  10
ATOM     10  C   UNL A   1      47.390  45.309  25.976  1.00  0.00     0.160 C 
BRANCH  10  11
ATOM     11  C   UNL A   1      47.042  44.121  25.080  1.00  0.00    -0.008 A 
ATOM     12  C   UNL A   1      47.607  40.611  26.638  1.00  0.00     0.138 A 
ATOM     13  C   UNL A   1      47.733  42.012  26.504  1.00  0.00     0.058 A 
ATOM     14  C   UNL A   1      47.123  39.893  25.553  1.00  0.00     0.085 A 
ATOM     15  C   UNL A   1      47.233  42.725  25.379  1.00  0.00     0.008 A 
ATOM     16  C   UNL A   1      46.744  40.568  24.384  1.00  0.00     0.051 A 
ATOM     17  Cl  UNL A   1      46.977  38.169  25.466  1.00  0.00    -0.080 Cl
ATOM     18  C   UNL A   1      46.758  41.979  24.299  1.00  0.00     0.058 A 
ATOM     19  C   UNL A   1      46.612  44.175  23.754  1.00  0.00     0.028 A 
ATOM     20  N   UNL A   1      46.406  42.870  23.267  1.00  0.00    -0.280 N 
ATOM     21  C   UNL A   1      46.395  45.432  22.966  1.00  0.00     0.065 C 
BRANCH  12  22
ATOM     22  O   UNL A   1      47.992  40.171  27.876  1.00  0.00    -0.495 OA
ATOM     23  C   UNL A   1      47.136  40.352  28.997  1.00  0.00     0.278 C 
ENDBRANCH  12  22
BRANCH  20  24
ATOM     24  C   UNL A   1      45.977  42.489  21.955  1.00  0.00     0.262 C 
ATOM     25  O   UNL A   1      46.657  41.711  21.291  1.00  0.00    -0.268 OA
BRANCH  24  26
ATOM     26  C   UNL A   1      44.706  42.900  21.324  1.00  0.00     0.040 A 
ATOM     27  C   UNL A   1      43.481  42.567  21.914  1.00  0.00     0.015 A 
ATOM     28  C   UNL A   1      44.749  43.569  20.094  1.00  0.00     0.015 A 
ATOM     29  C   UNL A   1      42.294  42.841  21.227  1.00  0.00     0.021 A 
ATOM     30  C   UNL A   1      43.559  43.843  19.416  1.00  0.00     0.021 A 
ATOM     31  C   UNL A   1      42.339  43.463  19.978  1.00  0.00     0.041 A 
ATOM     32  Cl  UNL A   1      40.880  43.740  19.107  1.00  0.00    -0.084 Cl
ENDBRANCH  24  26
ENDBRANCH  20  24
ENDBRANCH  10  11
ENDBRANCH   8  10
ENDBRANCH   7   8
ENDBRANCH   6   7
ENDBRANCH   5   6
ENDBRANCH   4   5
ENDBRANCH   3   4
ENDBRANCH   2   3
ENDBRANCH   1   2
BRANCH   1  33
ATOM     33  C   UNL A   1      42.581  38.623  27.820  1.00  0.00     0.188 C 
BRANCH  33  34
ATOM     34  C   UNL A   1      43.285  38.032  29.047  1.00  0.00     0.188 C 
BRANCH  34  35
ATOM     35  O   UNL A   1      43.607  38.844  30.176  1.00  0.00    -0.376 OA
BRANCH  35  36
ATOM     36  C   UNL A   1      43.001  40.115  30.349  1.00  0.00     0.202 C 
BRANCH  36  37
ATOM     37  C   UNL A   1      43.604  41.161  31.312  1.00  0.00     0.261 C 
BRANCH  37  38
ATOM     38  O   UNL A   1      43.959  40.670  32.608  1.00  0.00    -0.460 OA
BRANCH  38  39
ATOM     39  C   UNL A   1      45.122  39.961  32.733  1.00  0.00     0.338 C 
ATOM     40  O   UNL A   1      46.237  40.364  32.589  1.00  0.00    -0.246 OA
BRANCH  39  41
ATOM     41  C   UNL A   1      44.736  38.674  33.392  1.00  0.00     0.060 A 
ATOM     42  C   UNL A   1      45.399  37.481  33.101  1.00  0.00     0.016 A 
ATOM     43  C   UNL A   1      43.478  38.651  34.016  1.00  0.00     0.016 A 
ATOM     44  C   UNL A   1      44.714  36.276  33.265  1.00  0.00     0.010 A 
ATOM     45  C   UNL A   1      42.794  37.440  34.174  1.00  0.00     0.010 A 
ATOM     46  C   UNL A   1      43.384  36.252  33.745  1.00  0.00    -0.014 A 
BRANCH  46  47
ATOM     47  C   UNL A   1      42.795  34.929  34.026  1.00  0.00     0.031 A 
ATOM     48  C   UNL A   1      41.779  34.576  32.997  1.00  0.00     0.074 A 
ATOM     49  C   UNL A   1      43.137  33.983  34.930  1.00  0.00     0.049 A 
ATOM     50  N   UNL A   1      40.501  34.445  33.141  1.00  0.00    -0.248 NA
ATOM     51  C   UNL A   1      42.243  34.567  31.602  1.00  0.00     0.031 C 
ATOM     52  C   UNL A   1      44.308  33.928  35.805  1.00  0.00     0.029 A 
ATOM     53  N   UNL A   1      42.516  32.783  35.179  1.00  0.00    -0.354 N 
ATOM     54  C   UNL A   1      40.010  34.181  31.865  1.00  0.00     0.074 A 
ATOM     55  C   UNL A   1      41.091  34.448  30.951  1.00  0.00     0.031 C 
ATOM     56  C   UNL A   1      44.432  32.673  36.308  1.00  0.00     0.029 A 
ATOM     57  C   UNL A   1      43.279  31.878  35.909  1.00  0.00     0.049 A 
ATOM     58  H   UNL A   1      41.605  32.580  34.865  1.00  0.00     0.167 HD
ATOM     59  C   UNL A   1      38.807  33.584  31.650  1.00  0.00     0.034 A 
ATOM     60  C   UNL A   1      43.019  30.559  36.109  1.00  0.00     0.034 A 
ATOM     61  C   UNL A   1      37.997  33.576  32.835  1.00  0.00     0.049 A 
ATOM     62  C   UNL A   1      41.593  30.299  35.814  1.00  0.00     0.074 A 
ATOM     63  C   UNL A   1      37.388  34.537  33.613  1.00  0.00     0.029 A 
ATOM     64  N   UNL A   1      37.984  32.420  33.571  1.00  0.00    -0.354 N 
ATOM     65  N   UNL A   1      40.598  30.687  36.556  1.00  0.00    -0.248 NA
ATOM     66  C   UNL A   1      41.243  29.876  34.467  1.00  0.00     0.031 C 
ATOM     67  C   UNL A   1      37.421  34.021  34.939  1.00  0.00     0.029 A 
ATOM     68  C   UNL A   1      38.021  32.760  34.897  1.00  0.00     0.049 A 
ATOM     69  H   UNL A   1      37.954  31.504  33.211  1.00  0.00     0.167 HD
ATOM     70  C   UNL A   1      39.598  30.997  35.651  1.00  0.00     0.074 A 
ATOM     71  C   UNL A   1      39.999  30.350  34.406  1.00  0.00     0.031 C 
ATOM     72  C   UNL A   1      38.693  31.982  35.919  1.00  0.00     0.034 A 
BRANCH  59  73
ATOM     73  C   UNL A   1      38.511  32.713  30.454  1.00  0.00     0.023 A 
ATOM     74  C   UNL A   1      39.090  31.443  30.278  1.00  0.00     0.031 A 
ATOM     75  C   UNL A   1      37.467  33.039  29.568  1.00  0.00     0.131 A 
ATOM     76  C   UNL A   1      38.677  30.576  29.262  1.00  0.00     0.055 A 
ATOM     77  C   UNL A   1      36.999  32.142  28.598  1.00  0.00     0.041 A 
ATOM     78  F   UNL A   1      36.828  34.217  29.655  1.00  0.00    -0.206 F 
ATOM     79  C   UNL A   1      37.608  30.904  28.437  1.00  0.00     0.022 A 
BRANCH  76  80
ATOM     80  S   UNL A   1      39.532  28.997  29.010  1.00  0.00     0.124 S 
ATOM     81  O   UNL A   1      40.912  29.429  28.825  1.00  0.00    -0.237 OA
ATOM     82  O   UNL A   1      39.244  28.303  30.263  1.00  0.00    -0.237 OA
ATOM     83  O   UNL A   1      38.875  28.437  27.832  1.00  0.00    -0.744 OA
ENDBRANCH  76  80
ENDBRANCH  59  73
BRANCH  60  84
ATOM     84  C   UNL A   1      43.973  29.422  36.162  1.00  0.00     0.023 A 
ATOM     85  C   UNL A   1      43.901  28.426  35.173  1.00  0.00     0.031 A 
ATOM     86  C   UNL A   1      44.689  29.115  37.336  1.00  0.00     0.131 A 
ATOM     87  C   UNL A   1      44.467  27.162  35.395  1.00  0.00     0.055 A 
ATOM     88  C   UNL A   1      45.273  27.859  37.546  1.00  0.00     0.041 A 
ATOM     89  F   UNL A   1      44.767  30.003  38.340  1.00  0.00    -0.206 F 
ATOM     90  C   UNL A   1      45.147  26.867  36.578  1.00  0.00     0.022 A 
BRANCH  87  91
ATOM     91  S   UNL A   1      44.233  25.835  34.182  1.00  0.00     0.124 S 
ATOM     92  O   UNL A   1      44.069  26.582  32.936  1.00  0.00    -0.237 OA
ATOM     93  O   UNL A   1      45.482  25.093  34.310  1.00  0.00    -0.237 OA
ATOM     94  O   UNL A   1      43.033  25.151  34.654  1.00  0.00    -0.744 OA
ENDBRANCH  87  91
ENDBRANCH  60  84
BRANCH  72  95
ATOM     95  C   UNL A   1      38.553  32.479  37.339  1.00  0.00     0.023 A 
ATOM     96  C   UNL A   1      37.534  31.894  38.113  1.00  0.00     0.031 A 
ATOM     97  C   UNL A   1      39.219  33.596  37.879  1.00  0.00     0.131 A 
ATOM     98  C   UNL A   1      37.171  32.447  39.343  1.00  0.00     0.055 A 
ATOM     99  C   UNL A   1      38.916  34.088  39.153  1.00  0.00     0.041 A 
ATOM    100  F   UNL A   1      40.113  34.299  37.168  1.00  0.00    -0.206 F 
ATOM    101  C   UNL A   1      37.870  33.529  39.882  1.00  0.00     0.022 A 
BRANCH  98 102
ATOM    102  S   UNL A   1      35.675  31.880  40.190  1.00  0.00     0.124 S 
ATOM    103  O   UNL A   1      35.345  30.662  39.455  1.00  0.00    -0.237 OA
ATOM    104  O   UNL A   1      36.153  31.679  41.557  1.00  0.00    -0.237 OA
ATOM    105  O   UNL A   1      34.734  32.984  40.024  1.00  0.00    -0.744 OA
ENDBRANCH  98 102
ENDBRANCH  72  95
ENDBRANCH  46  47
ENDBRANCH  39  41
ENDBRANCH  38  39
ENDBRANCH  37  38
ENDBRANCH  36  37
ENDBRANCH  35  36
ENDBRANCH  34  35
ENDBRANCH  33  34
ENDBRANCH   1  33
TORSDOF 27
ENDMDL
MODEL 3
REMARK VINA RESULT:      -6.2      7.632     14.279
REMARK SMILES COc1cc2c(CC(=O)OCCOCCOCCOCCOC(=O)c3ccc(-c4c5nc(c(-c6cc(S(=O)(=O)[O-])ccc6F)c6ccc([nH]6)c(-c6cc(S(=O)(=O)[O-])ccc6F)c6nc(c(-c7cc(S(=O)(=O)[O-])ccc7F)c7ccc4[nH]7)C=C6)C=C5)cc3)c(C)n(C(=O)c3ccc(Cl)cc3)c2cc1Cl
REMARK SMILES IDX 16 1 15 2 14 3 13 4 12 5 11 6 10 7 8 8 9 9 7 10 6 11 3 12
REMARK SMILES IDX 4 13 102 14 5 15 101 16 103 17 100 18 88 19 90 20 89 21 2 22
REMARK SMILES IDX 1 23 91 24 92 25 93 26 94 27 99 28 95 29 98 30 96 31 97 32
REMARK SMILES IDX 17 33 18 34 19 35 20 36 21 37 22 38 23 39 24 40 25 41 26 42
REMARK SMILES IDX 87 43 27 44 86 45 28 46 29 47 30 48 80 49 31 50 85 51 79 52
REMARK SMILES IDX 81 53 32 54 84 55 78 56 77 57 33 59 65 60 45 61 64 62 46 63
REMARK SMILES IDX 49 64 63 65 82 66 47 67 48 68 62 70 83 71 50 72 34 73 35 74
REMARK SMILES IDX 43 75 36 76 42 77 44 78 41 79 37 80 38 81 39 82 40 83 66 84
REMARK SMILES IDX 67 85 75 86 68 87 74 88 76 89 73 90 69 91 70 92 71 93 72 94
REMARK SMILES IDX 51 95 52 96 60 97 53 98 59 99 61 100 58 101 54 102 55 103
REMARK SMILES IDX 56 104 57 105
REMARK H PARENT 81 58 49 69
REMARK Flexibility Score: inf
ROOT
ATOM      1  O   UNL A   1      37.913  33.355  35.995  1.00  0.00    -0.377 OA
ENDROOT
BRANCH   1   2
ATOM      2  C   UNL A   1      36.723  33.857  35.448  1.00  0.00     0.188 C 
BRANCH   2   3
ATOM      3  C   UNL A   1      36.260  33.625  34.015  1.00  0.00     0.188 C 
BRANCH   3   4
ATOM      4  O   UNL A   1      35.228  34.482  33.594  1.00  0.00    -0.376 OA
BRANCH   4   5
ATOM      5  C   UNL A   1      34.301  34.076  32.605  1.00  0.00     0.202 C 
BRANCH   5   6
ATOM      6  C   UNL A   1      34.713  33.557  31.205  1.00  0.00     0.261 C 
BRANCH   6   7
ATOM      7  O   UNL A   1      34.677  34.450  30.070  1.00  0.00    -0.463 OA
BRANCH   7   8
ATOM      8  C   UNL A   1      33.595  34.394  29.257  1.00  0.00     0.310 C 
ATOM      9  O   UNL A   1      32.534  34.956  29.523  1.00  0.00    -0.252 OA
BRANCH   8  10
ATOM     10  C   UNL A   1      33.770  33.665  27.917  1.00  0.00     0.160 C 
BRANCH  10  11
ATOM     11  C   UNL A   1      34.057  32.168  27.810  1.00  0.00    -0.008 A 
ATOM     12  C   UNL A   1      37.623  31.055  28.865  1.00  0.00     0.138 A 
ATOM     13  C   UNL A   1      36.599  31.948  28.475  1.00  0.00     0.058 A 
ATOM     14  C   UNL A   1      37.411  29.697  28.676  1.00  0.00     0.085 A 
ATOM     15  C   UNL A   1      35.312  31.507  28.058  1.00  0.00     0.008 A 
ATOM     16  C   UNL A   1      36.193  29.249  28.145  1.00  0.00     0.051 A 
ATOM     17  Cl  UNL A   1      38.561  28.440  28.994  1.00  0.00    -0.080 Cl
ATOM     18  C   UNL A   1      35.127  30.136  27.869  1.00  0.00     0.058 A 
ATOM     19  C   UNL A   1      33.197  31.189  27.314  1.00  0.00     0.028 A 
ATOM     20  N   UNL A   1      33.828  29.930  27.369  1.00  0.00    -0.280 N 
ATOM     21  C   UNL A   1      31.808  31.434  26.806  1.00  0.00     0.065 C 
BRANCH  12  22
ATOM     22  O   UNL A   1      38.703  31.706  29.400  1.00  0.00    -0.495 OA
ATOM     23  C   UNL A   1      38.752  31.984  30.794  1.00  0.00     0.278 C 
ENDBRANCH  12  22
BRANCH  20  24
ATOM     24  C   UNL A   1      33.294  28.671  26.946  1.00  0.00     0.262 C 
ATOM     25  O   UNL A   1      32.623  27.998  27.726  1.00  0.00    -0.268 OA
BRANCH  24  26
ATOM     26  C   UNL A   1      33.414  28.110  25.585  1.00  0.00     0.040 A 
ATOM     27  C   UNL A   1      33.403  28.953  24.468  1.00  0.00     0.015 A 
ATOM     28  C   UNL A   1      33.474  26.718  25.432  1.00  0.00     0.015 A 
ATOM     29  C   UNL A   1      33.374  28.391  23.187  1.00  0.00     0.021 A 
ATOM     30  C   UNL A   1      33.449  26.165  24.149  1.00  0.00     0.021 A 
ATOM     31  C   UNL A   1      33.382  27.003  23.034  1.00  0.00     0.041 A 
ATOM     32  Cl  UNL A   1      33.282  26.314  21.460  1.00  0.00    -0.084 Cl
ENDBRANCH  24  26
ENDBRANCH  20  24
ENDBRANCH  10  11
ENDBRANCH   8  10
ENDBRANCH   7   8
ENDBRANCH   6   7
ENDBRANCH   5   6
ENDBRANCH   4   5
ENDBRANCH   3   4
ENDBRANCH   2   3
ENDBRANCH   1   2
BRANCH   1  33
ATOM     33  C   UNL A   1      37.860  32.115  36.643  1.00  0.00     0.188 C 
BRANCH  33  34
ATOM     34  C   UNL A   1      38.394  30.956  35.793  1.00  0.00     0.188 C 
BRANCH  34  35
ATOM     35  O   UNL A   1      38.969  31.189  34.507  1.00  0.00    -0.376 OA
BRANCH  35  36
ATOM     36  C   UNL A   1      40.294  30.774  34.221  1.00  0.00     0.202 C 
BRANCH  36  37
ATOM     37  C   UNL A   1      40.837  29.424  34.739  1.00  0.00     0.261 C 
BRANCH  37  38
ATOM     38  O   UNL A   1      41.824  28.800  33.911  1.00  0.00    -0.460 OA
BRANCH  38  39
ATOM     39  C   UNL A   1      41.496  28.522  32.613  1.00  0.00     0.338 C 
ATOM     40  O   UNL A   1      40.402  28.401  32.150  1.00  0.00    -0.246 OA
BRANCH  39  41
ATOM     41  C   UNL A   1      42.759  28.712  31.833  1.00  0.00     0.060 A 
ATOM     42  C   UNL A   1      42.984  28.029  30.637  1.00  0.00     0.016 A 
ATOM     43  C   UNL A   1      43.829  29.305  32.522  1.00  0.00     0.016 A 
ATOM     44  C   UNL A   1      44.300  27.785  30.243  1.00  0.00     0.010 A 
ATOM     45  C   UNL A   1      45.147  29.052  32.125  1.00  0.00     0.010 A 
ATOM     46  C   UNL A   1      45.391  28.242  31.017  1.00  0.00    -0.014 A 
BRANCH  46  47
ATOM     47  C   UNL A   1      46.741  28.067  30.446  1.00  0.00     0.031 A 
ATOM     48  C   UNL A   1      47.592  27.245  31.350  1.00  0.00     0.074 A 
ATOM     49  C   UNL A   1      47.233  28.385  29.228  1.00  0.00     0.049 A 
ATOM     50  N   UNL A   1      48.638  27.608  32.018  1.00  0.00    -0.248 NA
ATOM     51  C   UNL A   1      47.078  25.911  31.691  1.00  0.00     0.031 C 
ATOM     52  C   UNL A   1      46.519  28.864  28.043  1.00  0.00     0.029 A 
ATOM     53  N   UNL A   1      48.519  28.240  28.768  1.00  0.00    -0.354 N 
ATOM     54  C   UNL A   1      49.012  26.488  32.756  1.00  0.00     0.074 A 
ATOM     55  C   UNL A   1      47.922  25.551  32.653  1.00  0.00     0.031 C 
ATOM     56  C   UNL A   1      47.327  28.750  26.958  1.00  0.00     0.029 A 
ATOM     57  C   UNL A   1      48.653  28.328  27.386  1.00  0.00     0.049 A 
ATOM     58  H   UNL A   1      49.285  28.087  29.368  1.00  0.00     0.167 HD
ATOM     59  C   UNL A   1      50.267  26.322  33.253  1.00  0.00     0.034 A 
ATOM     60  C   UNL A   1      49.747  28.008  26.645  1.00  0.00     0.034 A 
ATOM     61  C   UNL A   1      51.019  27.544  33.219  1.00  0.00     0.049 A 
ATOM     62  C   UNL A   1      50.932  27.964  27.531  1.00  0.00     0.074 A 
ATOM     63  C   UNL A   1      50.927  28.769  33.842  1.00  0.00     0.029 A 
ATOM     64  N   UNL A   1      51.891  27.707  32.174  1.00  0.00    -0.354 N 
ATOM     65  N   UNL A   1      51.501  29.006  28.063  1.00  0.00    -0.248 NA
ATOM     66  C   UNL A   1      51.299  26.683  28.113  1.00  0.00     0.031 C 
ATOM     67  C   UNL A   1      51.416  29.710  32.892  1.00  0.00     0.029 A 
ATOM     68  C   UNL A   1      51.807  29.007  31.750  1.00  0.00     0.049 A 
ATOM     69  H   UNL A   1      52.476  27.013  31.794  1.00  0.00     0.167 HD
ATOM     70  C   UNL A   1      51.915  28.568  29.309  1.00  0.00     0.074 A 
ATOM     71  C   UNL A   1      51.892  27.111  29.227  1.00  0.00     0.031 C 
ATOM     72  C   UNL A   1      51.961  29.424  30.370  1.00  0.00     0.034 A 
BRANCH  59  73
ATOM     73  C   UNL A   1      50.910  24.972  33.455  1.00  0.00     0.023 A 
ATOM     74  C   UNL A   1      51.122  24.416  34.730  1.00  0.00     0.031 A 
ATOM     75  C   UNL A   1      51.124  24.107  32.365  1.00  0.00     0.131 A 
ATOM     76  C   UNL A   1      51.556  23.097  34.899  1.00  0.00     0.055 A 
ATOM     77  C   UNL A   1      51.484  22.764  32.533  1.00  0.00     0.041 A 
ATOM     78  F   UNL A   1      50.934  24.525  31.103  1.00  0.00    -0.206 F 
ATOM     79  C   UNL A   1      51.707  22.252  33.806  1.00  0.00     0.022 A 
BRANCH  76  80
ATOM     80  S   UNL A   1      51.921  22.464  36.558  1.00  0.00     0.124 S 
ATOM     81  O   UNL A   1      52.948  21.468  36.280  1.00  0.00    -0.237 OA
ATOM     82  O   UNL A   1      52.376  23.673  37.240  1.00  0.00    -0.237 OA
ATOM     83  O   UNL A   1      50.636  21.946  37.016  1.00  0.00    -0.744 OA
ENDBRANCH  76  80
ENDBRANCH  59  73
BRANCH  60  84
ATOM     84  C   UNL A   1      49.808  27.359  25.311  1.00  0.00     0.023 A 
ATOM     85  C   UNL A   1      50.513  27.995  24.276  1.00  0.00     0.031 A 
ATOM     86  C   UNL A   1      48.905  26.340  24.947  1.00  0.00     0.131 A 
ATOM     87  C   UNL A   1      50.264  27.661  22.937  1.00  0.00     0.055 A 
ATOM     88  C   UNL A   1      48.674  25.993  23.609  1.00  0.00     0.041 A 
ATOM     89  F   UNL A   1      48.168  25.715  25.878  1.00  0.00    -0.206 F 
ATOM     90  C   UNL A   1      49.343  26.669  22.594  1.00  0.00     0.022 A 
BRANCH  87  91
ATOM     91  S   UNL A   1      51.061  28.595  21.602  1.00  0.00     0.124 S 
ATOM     92  O   UNL A   1      50.239  28.241  20.446  1.00  0.00    -0.237 OA
ATOM     93  O   UNL A   1      50.921  29.968  22.076  1.00  0.00    -0.237 OA
ATOM     94  O   UNL A   1      52.420  28.063  21.580  1.00  0.00    -0.744 OA
ENDBRANCH  87  91
ENDBRANCH  60  84
BRANCH  72  95
ATOM     95  C   UNL A   1      51.914  30.912  30.112  1.00  0.00     0.023 A 
ATOM     96  C   UNL A   1      53.138  31.602  30.189  1.00  0.00     0.031 A 
ATOM     97  C   UNL A   1      50.740  31.680  29.996  1.00  0.00     0.131 A 
ATOM     98  C   UNL A   1      53.165  32.999  30.205  1.00  0.00     0.055 A 
ATOM     99  C   UNL A   1      50.781  33.077  29.917  1.00  0.00     0.041 A 
ATOM    100  F   UNL A   1      49.521  31.124  30.045  1.00  0.00    -0.206 F 
ATOM    101  C   UNL A   1      51.995  33.745  30.047  1.00  0.00     0.022 A 
BRANCH  98 102
ATOM    102  S   UNL A   1      54.698  33.875  30.602  1.00  0.00     0.124 S 
ATOM    103  O   UNL A   1      54.331  34.611  31.809  1.00  0.00    -0.237 OA
ATOM    104  O   UNL A   1      55.638  32.774  30.801  1.00  0.00    -0.237 OA
ATOM    105  O   UNL A   1      54.953  34.697  29.423  1.00  0.00    -0.744 OA
ENDBRANCH  98 102
ENDBRANCH  72  95
ENDBRANCH  46  47
ENDBRANCH  39  41
ENDBRANCH  38  39
ENDBRANCH  37  38
ENDBRANCH  36  37
ENDBRANCH  35  36
ENDBRANCH  34  35
ENDBRANCH  33  34
ENDBRANCH   1  33
TORSDOF 27
ENDMDL
