MODEL 1
REMARK VINA RESULT:      -8.3      0.000      0.000
REMARK SMILES CCN(Cc1cn(CC)nc1C)C(=O)c1ccn([C@@H](C)C(=O)OCCOCCOCCOCCOC(=O)c2ccc(-c3c4nc(c(-c5cc(S(=O)(=O)[O-])ccc5F)c5ccc([nH]5)c(-c5cc(S(=O)(=O)[O-])ccc5F)c5nc(c(-c6cc(S(=O)(=O)[O-])ccc6F)c6ccc3[nH]6)C=C5)C=C4)cc2)n1
REMARK SMILES IDX 27 1 26 2 25 3 24 4 23 5 21 6 22 7 19 8 20 9 18 10 15 11
REMARK SMILES IDX 16 12 101 13 17 14 13 15 14 16 3 17 2 18 1 19 4 20 5 21 6 22
REMARK SMILES IDX 11 23 7 24 10 25 12 26 8 27 9 28 28 29 29 30 30 31 31 32
REMARK SMILES IDX 32 33 33 34 34 35 35 36 36 37 37 38 38 39 39 40 100 41 40 42
REMARK SMILES IDX 99 43 41 44 42 45 43 46 93 47 44 48 98 49 92 50 94 51 45 52
REMARK SMILES IDX 97 53 91 54 90 55 46 57 78 58 58 59 77 60 59 61 62 62 76 63
REMARK SMILES IDX 95 64 60 65 61 66 75 68 96 69 63 70 47 71 48 72 56 73 49 74
REMARK SMILES IDX 55 75 57 76 54 77 50 78 51 79 52 80 53 81 79 82 80 83 88 84
REMARK SMILES IDX 81 85 87 86 89 87 86 88 82 89 83 90 84 91 85 92 64 93 65 94
REMARK SMILES IDX 73 95 66 96 72 97 74 98 71 99 67 100 68 101 69 102 70 103
REMARK H PARENT 94 56 62 67
REMARK Flexibility Score: inf
ROOT
ATOM      1  C   UNL A   1      36.498  22.798  23.951  1.00  0.00     0.188 C 
ENDROOT
BRANCH   1   2
ATOM      2  O   UNL A   1      36.723  21.404  24.123  1.00  0.00    -0.376 OA
BRANCH   2   3
ATOM      3  C   UNL A   1      36.126  20.704  25.201  1.00  0.00     0.202 C 
BRANCH   3   4
ATOM      4  C   UNL A   1      34.792  19.979  24.964  1.00  0.00     0.261 C 
BRANCH   4   5
ATOM      5  O   UNL A   1      33.604  20.798  24.958  1.00  0.00    -0.462 OA
BRANCH   5   6
ATOM      6  C   UNL A   1      32.493  20.282  24.381  1.00  0.00     0.330 C 
ATOM      7  O   UNL A   1      32.051  19.168  24.657  1.00  0.00    -0.250 OA
BRANCH   6   8
ATOM      8  C   UNL A   1      31.854  21.126  23.287  1.00  0.00     0.213 C 
ATOM      9  C   UNL A   1      31.933  20.374  21.967  1.00  0.00     0.046 C 
BRANCH   8  10
ATOM     10  N   UNL A   1      32.268  22.525  23.118  1.00  0.00    -0.258 N 
ATOM     11  C   UNL A   1      32.301  24.620  23.580  1.00  0.00     0.150 A 
ATOM     12  C   UNL A   1      33.360  24.370  22.678  1.00  0.00     0.056 A 
ATOM     13  N   UNL A   1      31.615  23.485  23.833  1.00  0.00    -0.167 NA
ATOM     14  C   UNL A   1      33.226  23.055  22.304  1.00  0.00     0.110 A 
BRANCH  11  15
ATOM     15  C   UNL A   1      31.989  25.918  24.203  1.00  0.00     0.274 C 
ATOM     16  O   UNL A   1      31.688  25.981  25.395  1.00  0.00    -0.267 OA
BRANCH  15  17
ATOM     17  N   UNL A   1      32.106  27.070  23.403  1.00  0.00    -0.333 N 
BRANCH  17  18
ATOM     18  C   UNL A   1      32.944  28.166  23.889  1.00  0.00     0.117 C 
ATOM     19  C   UNL A   1      34.117  28.476  22.964  1.00  0.00     0.027 C 
ENDBRANCH  17  18
BRANCH  17  20
ATOM     20  C   UNL A   1      31.287  27.316  22.213  1.00  0.00     0.159 C 
BRANCH  20  21
ATOM     21  C   UNL A   1      30.190  28.305  22.457  1.00  0.00     0.012 A 
ATOM     22  C   UNL A   1      30.121  29.642  22.103  1.00  0.00     0.114 A 
ATOM     23  C   UNL A   1      28.955  28.071  23.139  1.00  0.00     0.064 A 
ATOM     24  N   UNL A   1      28.903  30.095  22.523  1.00  0.00    -0.272 N 
ATOM     25  N   UNL A   1      28.189  29.165  23.176  1.00  0.00    -0.178 NA
ATOM     26  C   UNL A   1      28.423  26.820  23.737  1.00  0.00     0.069 C 
BRANCH  24  27
ATOM     27  C   UNL A   1      28.318  31.406  22.322  1.00  0.00     0.141 C 
ATOM     28  C   UNL A   1      28.124  31.713  20.848  1.00  0.00     0.029 C 
ENDBRANCH  24  27
ENDBRANCH  20  21
ENDBRANCH  17  20
ENDBRANCH  15  17
ENDBRANCH  11  15
ENDBRANCH   8  10
ENDBRANCH   6   8
ENDBRANCH   5   6
ENDBRANCH   4   5
ENDBRANCH   3   4
ENDBRANCH   2   3
ENDBRANCH   1   2
BRANCH   1  29
ATOM     29  C   UNL A   1      36.254  23.737  25.145  1.00  0.00     0.188 C 
BRANCH  29  30
ATOM     30  O   UNL A   1      37.076  23.536  26.280  1.00  0.00    -0.377 OA
BRANCH  30  31
ATOM     31  C   UNL A   1      38.475  23.458  26.021  1.00  0.00     0.188 C 
BRANCH  31  32
ATOM     32  C   UNL A   1      39.188  22.176  26.503  1.00  0.00     0.188 C 
BRANCH  32  33
ATOM     33  O   UNL A   1      40.313  22.397  27.352  1.00  0.00    -0.376 OA
BRANCH  33  34
ATOM     34  C   UNL A   1      41.517  22.967  26.853  1.00  0.00     0.202 C 
BRANCH  34  35
ATOM     35  C   UNL A   1      42.814  22.162  26.970  1.00  0.00     0.261 C 
BRANCH  35  36
ATOM     36  O   UNL A   1      43.981  22.874  26.607  1.00  0.00    -0.460 OA
BRANCH  36  37
ATOM     37  C   UNL A   1      44.046  24.150  27.014  1.00  0.00     0.338 C 
ATOM     38  O   UNL A   1      43.740  25.156  26.378  1.00  0.00    -0.246 OA
BRANCH  37  39
ATOM     39  C   UNL A   1      44.647  24.177  28.341  1.00  0.00     0.060 A 
ATOM     40  C   UNL A   1      43.842  23.734  29.391  1.00  0.00     0.016 A 
ATOM     41  C   UNL A   1      45.768  24.997  28.530  1.00  0.00     0.016 A 
ATOM     42  C   UNL A   1      43.982  24.367  30.600  1.00  0.00     0.010 A 
ATOM     43  C   UNL A   1      45.879  25.650  29.724  1.00  0.00     0.010 A 
ATOM     44  C   UNL A   1      44.918  25.399  30.698  1.00  0.00    -0.014 A 
BRANCH  44  45
ATOM     45  C   UNL A   1      44.945  26.197  31.898  1.00  0.00     0.031 A 
ATOM     46  C   UNL A   1      45.145  25.366  33.096  1.00  0.00     0.074 A 
ATOM     47  C   UNL A   1      44.962  27.542  31.865  1.00  0.00     0.049 A 
ATOM     48  N   UNL A   1      44.263  25.000  33.963  1.00  0.00    -0.248 NA
ATOM     49  C   UNL A   1      46.415  24.628  33.190  1.00  0.00     0.031 C 
ATOM     50  C   UNL A   1      45.060  28.427  30.702  1.00  0.00     0.029 A 
ATOM     51  N   UNL A   1      45.003  28.406  32.908  1.00  0.00    -0.354 N 
ATOM     52  C   UNL A   1      44.964  24.217  34.870  1.00  0.00     0.074 A 
ATOM     53  C   UNL A   1      46.140  23.779  34.179  1.00  0.00     0.031 C 
ATOM     54  C   UNL A   1      45.375  29.676  31.119  1.00  0.00     0.029 A 
ATOM     55  C   UNL A   1      45.373  29.704  32.574  1.00  0.00     0.049 A 
ATOM     56  H   UNL A   1      44.787  28.136  33.829  1.00  0.00     0.167 HD
ATOM     57  C   UNL A   1      44.698  24.294  36.202  1.00  0.00     0.034 A 
ATOM     58  C   UNL A   1      45.716  30.691  33.447  1.00  0.00     0.034 A 
ATOM     59  C   UNL A   1      43.413  24.924  36.427  1.00  0.00     0.049 A 
ATOM     60  C   UNL A   1      45.168  30.298  34.773  1.00  0.00     0.074 A 
ATOM     61  C   UNL A   1      42.123  24.653  36.011  1.00  0.00     0.029 A 
ATOM     62  N   UNL A   1      43.402  26.245  36.826  1.00  0.00    -0.354 N 
ATOM     63  N   UNL A   1      43.888  30.216  35.018  1.00  0.00    -0.248 NA
ATOM     64  C   UNL A   1      46.012  29.502  35.656  1.00  0.00     0.031 C 
ATOM     65  C   UNL A   1      41.557  25.928  35.711  1.00  0.00     0.029 A 
ATOM     66  C   UNL A   1      42.483  26.915  36.053  1.00  0.00     0.049 A 
ATOM     67  H   UNL A   1      43.957  26.639  37.538  1.00  0.00     0.167 HD
ATOM     68  C   UNL A   1      43.734  29.055  35.764  1.00  0.00     0.074 A 
ATOM     69  C   UNL A   1      45.083  28.715  36.212  1.00  0.00     0.031 C 
ATOM     70  C   UNL A   1      42.584  28.319  35.692  1.00  0.00     0.034 A 
BRANCH  57  71
ATOM     71  C   UNL A   1      45.754  24.191  37.284  1.00  0.00     0.023 A 
ATOM     72  C   UNL A   1      46.125  22.891  37.671  1.00  0.00     0.031 A 
ATOM     73  C   UNL A   1      46.205  25.231  38.134  1.00  0.00     0.131 A 
ATOM     74  C   UNL A   1      46.782  22.661  38.890  1.00  0.00     0.055 A 
ATOM     75  C   UNL A   1      46.919  24.999  39.312  1.00  0.00     0.041 A 
ATOM     76  F   UNL A   1      45.922  26.523  37.938  1.00  0.00    -0.206 F 
ATOM     77  C   UNL A   1      47.180  23.706  39.717  1.00  0.00     0.022 A 
BRANCH  74  78
ATOM     78  S   UNL A   1      46.936  20.952  39.459  1.00  0.00     0.124 S 
ATOM     79  O   UNL A   1      48.155  21.022  40.257  1.00  0.00    -0.237 OA
ATOM     80  O   UNL A   1      45.689  20.770  40.194  1.00  0.00    -0.237 OA
ATOM     81  O   UNL A   1      47.045  20.193  38.215  1.00  0.00    -0.744 OA
ENDBRANCH  74  78
ENDBRANCH  57  71
BRANCH  58  82
ATOM     82  C   UNL A   1      46.753  31.747  33.268  1.00  0.00     0.023 A 
ATOM     83  C   UNL A   1      48.114  31.548  33.593  1.00  0.00     0.031 A 
ATOM     84  C   UNL A   1      46.445  32.911  32.529  1.00  0.00     0.131 A 
ATOM     85  C   UNL A   1      49.091  32.486  33.178  1.00  0.00     0.055 A 
ATOM     86  C   UNL A   1      47.413  33.833  32.125  1.00  0.00     0.041 A 
ATOM     87  F   UNL A   1      45.198  33.147  32.091  1.00  0.00    -0.206 F 
ATOM     88  C   UNL A   1      48.745  33.619  32.440  1.00  0.00     0.022 A 
BRANCH  85  89
ATOM     89  S   UNL A   1      50.861  32.197  33.518  1.00  0.00     0.124 S 
ATOM     90  O   UNL A   1      51.024  30.796  33.150  1.00  0.00    -0.237 OA
ATOM     91  O   UNL A   1      51.510  33.178  32.655  1.00  0.00    -0.237 OA
ATOM     92  O   UNL A   1      50.982  32.474  34.951  1.00  0.00    -0.744 OA
ENDBRANCH  85  89
ENDBRANCH  58  82
BRANCH  70  93
ATOM     93  C   UNL A   1      41.376  28.942  35.012  1.00  0.00     0.023 A 
ATOM     94  C   UNL A   1      40.530  29.920  35.586  1.00  0.00     0.031 A 
ATOM     95  C   UNL A   1      41.149  28.598  33.667  1.00  0.00     0.131 A 
ATOM     96  C   UNL A   1      39.497  30.499  34.819  1.00  0.00     0.055 A 
ATOM     97  C   UNL A   1      40.144  29.191  32.905  1.00  0.00     0.041 A 
ATOM     98  F   UNL A   1      41.934  27.695  33.054  1.00  0.00    -0.206 F 
ATOM     99  C   UNL A   1      39.309  30.140  33.481  1.00  0.00     0.022 A 
BRANCH  96 100
ATOM    100  S   UNL A   1      38.357  31.719  35.554  1.00  0.00     0.124 S 
ATOM    101  O   UNL A   1      37.648  30.955  36.573  1.00  0.00    -0.237 OA
ATOM    102  O   UNL A   1      39.271  32.747  36.046  1.00  0.00    -0.237 OA
ATOM    103  O   UNL A   1      37.530  32.135  34.419  1.00  0.00    -0.744 OA
ENDBRANCH  96 100
ENDBRANCH  70  93
ENDBRANCH  44  45
ENDBRANCH  37  39
ENDBRANCH  36  37
ENDBRANCH  35  36
ENDBRANCH  34  35
ENDBRANCH  33  34
ENDBRANCH  32  33
ENDBRANCH  31  32
ENDBRANCH  30  31
ENDBRANCH  29  30
ENDBRANCH   1  29
TORSDOF 30
ENDMDL
MODEL 2
REMARK VINA RESULT:      -8.2      3.837      4.930
REMARK SMILES CCN(Cc1cn(CC)nc1C)C(=O)c1ccn([C@@H](C)C(=O)OCCOCCOCCOCCOC(=O)c2ccc(-c3c4nc(c(-c5cc(S(=O)(=O)[O-])ccc5F)c5ccc([nH]5)c(-c5cc(S(=O)(=O)[O-])ccc5F)c5nc(c(-c6cc(S(=O)(=O)[O-])ccc6F)c6ccc3[nH]6)C=C5)C=C4)cc2)n1
REMARK SMILES IDX 27 1 26 2 25 3 24 4 23 5 21 6 22 7 19 8 20 9 18 10 15 11
REMARK SMILES IDX 16 12 101 13 17 14 13 15 14 16 3 17 2 18 1 19 4 20 5 21 6 22
REMARK SMILES IDX 11 23 7 24 10 25 12 26 8 27 9 28 28 29 29 30 30 31 31 32
REMARK SMILES IDX 32 33 33 34 34 35 35 36 36 37 37 38 38 39 39 40 100 41 40 42
REMARK SMILES IDX 99 43 41 44 42 45 43 46 93 47 44 48 98 49 92 50 94 51 45 52
REMARK SMILES IDX 97 53 91 54 90 55 46 57 78 58 58 59 77 60 59 61 62 62 76 63
REMARK SMILES IDX 95 64 60 65 61 66 75 68 96 69 63 70 47 71 48 72 56 73 49 74
REMARK SMILES IDX 55 75 57 76 54 77 50 78 51 79 52 80 53 81 79 82 80 83 88 84
REMARK SMILES IDX 81 85 87 86 89 87 86 88 82 89 83 90 84 91 85 92 64 93 65 94
REMARK SMILES IDX 73 95 66 96 72 97 74 98 71 99 67 100 68 101 69 102 70 103
REMARK H PARENT 94 56 62 67
REMARK Flexibility Score: inf
ROOT
ATOM      1  C   UNL A   1      36.797  23.057  24.053  1.00  0.00     0.188 C 
ENDROOT
BRANCH   1   2
ATOM      2  O   UNL A   1      37.037  21.656  24.123  1.00  0.00    -0.376 OA
BRANCH   2   3
ATOM      3  C   UNL A   1      36.474  20.880  25.166  1.00  0.00     0.202 C 
BRANCH   3   4
ATOM      4  C   UNL A   1      35.047  20.336  24.997  1.00  0.00     0.261 C 
BRANCH   4   5
ATOM      5  O   UNL A   1      33.970  21.266  25.228  1.00  0.00    -0.462 OA
BRANCH   5   6
ATOM      6  C   UNL A   1      32.732  20.902  24.819  1.00  0.00     0.330 C 
ATOM      7  O   UNL A   1      32.215  19.828  25.125  1.00  0.00    -0.250 OA
BRANCH   6   8
ATOM      8  C   UNL A   1      32.029  21.864  23.872  1.00  0.00     0.213 C 
ATOM      9  C   UNL A   1      32.196  21.367  22.444  1.00  0.00     0.046 C 
BRANCH   8  10
ATOM     10  N   UNL A   1      32.310  23.302  23.962  1.00  0.00    -0.258 N 
ATOM     11  C   UNL A   1      32.163  25.271  24.802  1.00  0.00     0.150 A 
ATOM     12  C   UNL A   1      33.221  25.290  23.865  1.00  0.00     0.056 A 
ATOM     13  N   UNL A   1      31.589  24.050  24.845  1.00  0.00    -0.167 NA
ATOM     14  C   UNL A   1      33.198  24.059  23.255  1.00  0.00     0.110 A 
BRANCH  11  15
ATOM     15  C   UNL A   1      31.749  26.398  25.656  1.00  0.00     0.274 C 
ATOM     16  O   UNL A   1      31.454  26.210  26.836  1.00  0.00    -0.267 OA
BRANCH  15  17
ATOM     17  N   UNL A   1      31.762  27.685  25.088  1.00  0.00    -0.333 N 
BRANCH  17  18
ATOM     18  C   UNL A   1      31.753  28.837  25.989  1.00  0.00     0.117 C 
ATOM     19  C   UNL A   1      32.971  29.739  25.818  1.00  0.00     0.027 C 
ENDBRANCH  17  18
BRANCH  17  20
ATOM     20  C   UNL A   1      31.587  27.940  23.656  1.00  0.00     0.159 C 
BRANCH  20  21
ATOM     21  C   UNL A   1      30.240  28.502  23.326  1.00  0.00     0.012 A 
ATOM     22  C   UNL A   1      29.904  29.769  22.878  1.00  0.00     0.114 A 
ATOM     23  C   UNL A   1      28.979  27.833  23.422  1.00  0.00     0.064 A 
ATOM     24  N   UNL A   1      28.551  29.773  22.695  1.00  0.00    -0.272 N 
ATOM     25  N   UNL A   1      27.966  28.617  23.043  1.00  0.00    -0.178 NA
ATOM     26  C   UNL A   1      28.675  26.436  23.824  1.00  0.00     0.069 C 
BRANCH  24  27
ATOM     27  C   UNL A   1      27.723  30.837  22.162  1.00  0.00     0.141 C 
ATOM     28  C   UNL A   1      28.080  32.182  22.769  1.00  0.00     0.029 C 
ENDBRANCH  24  27
ENDBRANCH  20  21
ENDBRANCH  17  20
ENDBRANCH  15  17
ENDBRANCH  11  15
ENDBRANCH   8  10
ENDBRANCH   6   8
ENDBRANCH   5   6
ENDBRANCH   4   5
ENDBRANCH   3   4
ENDBRANCH   2   3
ENDBRANCH   1   2
BRANCH   1  29
ATOM     29  C   UNL A   1      36.404  23.879  25.291  1.00  0.00     0.188 C 
BRANCH  29  30
ATOM     30  O   UNL A   1      37.213  23.709  26.440  1.00  0.00    -0.377 OA
BRANCH  30  31
ATOM     31  C   UNL A   1      38.596  24.005  26.269  1.00  0.00     0.188 C 
BRANCH  31  32
ATOM     32  C   UNL A   1      39.589  22.916  26.732  1.00  0.00     0.188 C 
BRANCH  32  33
ATOM     33  O   UNL A   1      40.549  23.348  27.695  1.00  0.00    -0.376 OA
BRANCH  33  34
ATOM     34  C   UNL A   1      41.650  24.170  27.327  1.00  0.00     0.202 C 
BRANCH  34  35
ATOM     35  C   UNL A   1      43.024  23.868  27.928  1.00  0.00     0.261 C 
BRANCH  35  36
ATOM     36  O   UNL A   1      44.036  24.790  27.571  1.00  0.00    -0.460 OA
BRANCH  36  37
ATOM     37  C   UNL A   1      43.672  26.080  27.526  1.00  0.00     0.338 C 
ATOM     38  O   UNL A   1      43.205  26.693  26.569  1.00  0.00    -0.246 OA
BRANCH  37  39
ATOM     39  C   UNL A   1      44.015  26.697  28.800  1.00  0.00     0.060 A 
ATOM     40  C   UNL A   1      43.091  26.536  29.832  1.00  0.00     0.016 A 
ATOM     41  C   UNL A   1      44.981  27.713  28.790  1.00  0.00     0.016 A 
ATOM     42  C   UNL A   1      42.935  27.581  30.706  1.00  0.00     0.010 A 
ATOM     43  C   UNL A   1      44.798  28.767  29.639  1.00  0.00     0.010 A 
ATOM     44  C   UNL A   1      43.712  28.726  30.508  1.00  0.00    -0.014 A 
BRANCH  44  45
ATOM     45  C   UNL A   1      43.429  29.899  31.294  1.00  0.00     0.031 A 
ATOM     46  C   UNL A   1      43.868  29.734  32.690  1.00  0.00     0.074 A 
ATOM     47  C   UNL A   1      42.983  31.042  30.743  1.00  0.00     0.049 A 
ATOM     48  N   UNL A   1      43.140  29.481  33.724  1.00  0.00    -0.248 NA
ATOM     49  C   UNL A   1      45.310  29.553  32.917  1.00  0.00     0.031 C 
ATOM     50  C   UNL A   1      42.804  31.365  29.326  1.00  0.00     0.029 A 
ATOM     51  N   UNL A   1      42.694  32.215  31.359  1.00  0.00    -0.354 N 
ATOM     52  C   UNL A   1      44.041  29.405  34.778  1.00  0.00     0.074 A 
ATOM     53  C   UNL A   1      45.316  29.135  34.181  1.00  0.00     0.031 C 
ATOM     54  C   UNL A   1      42.658  32.704  29.189  1.00  0.00     0.029 A 
ATOM     55  C   UNL A   1      42.605  33.312  30.510  1.00  0.00     0.049 A 
ATOM     56  H   UNL A   1      42.558  32.283  32.331  1.00  0.00     0.167 HD
ATOM     57  C   UNL A   1      43.728  29.918  35.998  1.00  0.00     0.034 A 
ATOM     58  C   UNL A   1      42.563  34.619  30.889  1.00  0.00     0.034 A 
ATOM     59  C   UNL A   1      42.298  30.129  36.106  1.00  0.00     0.049 A 
ATOM     60  C   UNL A   1      42.145  34.637  32.317  1.00  0.00     0.074 A 
ATOM     61  C   UNL A   1      41.192  29.310  35.976  1.00  0.00     0.029 A 
ATOM     62  N   UNL A   1      41.823  31.417  35.962  1.00  0.00    -0.354 N 
ATOM     63  N   UNL A   1      40.965  34.247  32.718  1.00  0.00    -0.248 NA
ATOM     64  C   UNL A   1      43.185  34.585  33.337  1.00  0.00     0.031 C 
ATOM     65  C   UNL A   1      40.231  30.096  35.274  1.00  0.00     0.029 A 
ATOM     66  C   UNL A   1      40.752  31.380  35.101  1.00  0.00     0.049 A 
ATOM     67  H   UNL A   1      42.187  32.220  36.398  1.00  0.00     0.167 HD
ATOM     68  C   UNL A   1      41.198  33.504  33.866  1.00  0.00     0.074 A 
ATOM     69  C   UNL A   1      42.569  33.832  34.256  1.00  0.00     0.031 C 
ATOM     70  C   UNL A   1      40.374  32.470  34.216  1.00  0.00     0.034 A 
BRANCH  57  71
ATOM     71  C   UNL A   1      44.723  30.609  36.908  1.00  0.00     0.023 A 
ATOM     72  C   UNL A   1      44.711  30.215  38.257  1.00  0.00     0.031 A 
ATOM     73  C   UNL A   1      45.464  31.782  36.623  1.00  0.00     0.131 A 
ATOM     74  C   UNL A   1      45.288  31.021  39.251  1.00  0.00     0.055 A 
ATOM     75  C   UNL A   1      46.096  32.544  37.609  1.00  0.00     0.041 A 
ATOM     76  F   UNL A   1      45.560  32.320  35.404  1.00  0.00    -0.206 F 
ATOM     77  C   UNL A   1      45.980  32.187  38.938  1.00  0.00     0.022 A 
BRANCH  74  78
ATOM     78  S   UNL A   1      44.953  30.608  40.978  1.00  0.00     0.124 S 
ATOM     79  O   UNL A   1      45.182  29.168  40.980  1.00  0.00    -0.237 OA
ATOM     80  O   UNL A   1      45.943  31.422  41.676  1.00  0.00    -0.237 OA
ATOM     81  O   UNL A   1      43.564  31.022  41.158  1.00  0.00    -0.744 OA
ENDBRANCH  74  78
ENDBRANCH  57  71
BRANCH  58  82
ATOM     82  C   UNL A   1      43.178  35.789  30.200  1.00  0.00     0.023 A 
ATOM     83  C   UNL A   1      44.489  36.239  30.476  1.00  0.00     0.031 A 
ATOM     84  C   UNL A   1      42.550  36.338  29.059  1.00  0.00     0.131 A 
ATOM     85  C   UNL A   1      45.110  37.190  29.629  1.00  0.00     0.055 A 
ATOM     86  C   UNL A   1      43.168  37.276  28.229  1.00  0.00     0.041 A 
ATOM     87  F   UNL A   1      41.343  35.910  28.657  1.00  0.00    -0.206 F 
ATOM     88  C   UNL A   1      44.458  37.699  28.506  1.00  0.00     0.022 A 
BRANCH  85  89
ATOM     89  S   UNL A   1      46.832  37.715  29.927  1.00  0.00     0.124 S 
ATOM     90  O   UNL A   1      47.242  38.200  28.615  1.00  0.00    -0.237 OA
ATOM     91  O   UNL A   1      46.677  38.719  30.974  1.00  0.00    -0.237 OA
ATOM     92  O   UNL A   1      47.495  36.483  30.359  1.00  0.00    -0.744 OA
ENDBRANCH  85  89
ENDBRANCH  58  82
BRANCH  70  93
ATOM     93  C   UNL A   1      39.046  32.337  33.489  1.00  0.00     0.023 A 
ATOM     94  C   UNL A   1      38.852  31.666  32.258  1.00  0.00     0.031 A 
ATOM     95  C   UNL A   1      37.903  32.825  34.148  1.00  0.00     0.131 A 
ATOM     96  C   UNL A   1      37.552  31.521  31.730  1.00  0.00     0.055 A 
ATOM     97  C   UNL A   1      36.618  32.657  33.635  1.00  0.00     0.041 A 
ATOM     98  F   UNL A   1      38.016  33.448  35.334  1.00  0.00    -0.206 F 
ATOM     99  C   UNL A   1      36.438  32.010  32.419  1.00  0.00     0.022 A 
BRANCH  96 100
ATOM    100  S   UNL A   1      37.283  30.713  30.117  1.00  0.00     0.124 S 
ATOM    101  O   UNL A   1      36.422  31.648  29.404  1.00  0.00    -0.237 OA
ATOM    102  O   UNL A   1      38.644  30.576  29.603  1.00  0.00    -0.237 OA
ATOM    103  O   UNL A   1      36.641  29.447  30.476  1.00  0.00    -0.744 OA
ENDBRANCH  96 100
ENDBRANCH  70  93
ENDBRANCH  44  45
ENDBRANCH  37  39
ENDBRANCH  36  37
ENDBRANCH  35  36
ENDBRANCH  34  35
ENDBRANCH  33  34
ENDBRANCH  32  33
ENDBRANCH  31  32
ENDBRANCH  30  31
ENDBRANCH  29  30
ENDBRANCH   1  29
TORSDOF 30
ENDMDL
MODEL 3
REMARK VINA RESULT:      -7.9      6.777     14.585
REMARK SMILES CCN(Cc1cn(CC)nc1C)C(=O)c1ccn([C@@H](C)C(=O)OCCOCCOCCOCCOC(=O)c2ccc(-c3c4nc(c(-c5cc(S(=O)(=O)[O-])ccc5F)c5ccc([nH]5)c(-c5cc(S(=O)(=O)[O-])ccc5F)c5nc(c(-c6cc(S(=O)(=O)[O-])ccc6F)c6ccc3[nH]6)C=C5)C=C4)cc2)n1
REMARK SMILES IDX 27 1 26 2 25 3 24 4 23 5 21 6 22 7 19 8 20 9 18 10 15 11
REMARK SMILES IDX 16 12 101 13 17 14 13 15 14 16 3 17 2 18 1 19 4 20 5 21 6 22
REMARK SMILES IDX 11 23 7 24 10 25 12 26 8 27 9 28 28 29 29 30 30 31 31 32
REMARK SMILES IDX 32 33 33 34 34 35 35 36 36 37 37 38 38 39 39 40 100 41 40 42
REMARK SMILES IDX 99 43 41 44 42 45 43 46 93 47 44 48 98 49 92 50 94 51 45 52
REMARK SMILES IDX 97 53 91 54 90 55 46 57 78 58 58 59 77 60 59 61 62 62 76 63
REMARK SMILES IDX 95 64 60 65 61 66 75 68 96 69 63 70 47 71 48 72 56 73 49 74
REMARK SMILES IDX 55 75 57 76 54 77 50 78 51 79 52 80 53 81 79 82 80 83 88 84
REMARK SMILES IDX 81 85 87 86 89 87 86 88 82 89 83 90 84 91 85 92 64 93 65 94
REMARK SMILES IDX 73 95 66 96 72 97 74 98 71 99 67 100 68 101 69 102 70 103
REMARK H PARENT 94 56 62 67
REMARK Flexibility Score: inf
ROOT
ATOM      1  C   UNL A   1      39.725  33.081  37.648  1.00  0.00     0.188 C 
ENDROOT
BRANCH   1   2
ATOM      2  O   UNL A   1      38.951  32.525  38.705  1.00  0.00    -0.376 OA
BRANCH   2   3
ATOM      3  C   UNL A   1      37.593  32.178  38.497  1.00  0.00     0.202 C 
BRANCH   3   4
ATOM      4  C   UNL A   1      36.967  31.082  39.373  1.00  0.00     0.261 C 
BRANCH   4   5
ATOM      5  O   UNL A   1      36.834  31.375  40.778  1.00  0.00    -0.462 OA
BRANCH   5   6
ATOM      6  C   UNL A   1      37.805  30.919  41.605  1.00  0.00     0.330 C 
ATOM      7  O   UNL A   1      38.062  29.723  41.740  1.00  0.00    -0.250 OA
BRANCH   6   8
ATOM      8  C   UNL A   1      38.518  31.970  42.444  1.00  0.00     0.213 C 
ATOM      9  C   UNL A   1      37.686  33.244  42.457  1.00  0.00     0.046 C 
BRANCH   8  10
ATOM     10  N   UNL A   1      39.930  32.270  42.179  1.00  0.00    -0.258 N 
ATOM     11  C   UNL A   1      42.011  31.808  41.933  1.00  0.00     0.150 A 
ATOM     12  C   UNL A   1      41.814  33.127  41.463  1.00  0.00     0.056 A 
ATOM     13  N   UNL A   1      40.853  31.291  42.394  1.00  0.00    -0.167 NA
ATOM     14  C   UNL A   1      40.507  33.433  41.757  1.00  0.00     0.110 A 
BRANCH  11  15
ATOM     15  C   UNL A   1      43.283  31.065  41.902  1.00  0.00     0.274 C 
ATOM     16  O   UNL A   1      43.871  30.882  40.836  1.00  0.00    -0.267 OA
BRANCH  15  17
ATOM     17  N   UNL A   1      43.816  30.632  43.129  1.00  0.00    -0.333 N 
BRANCH  17  18
ATOM     18  C   UNL A   1      43.565  29.252  43.543  1.00  0.00     0.117 C 
ATOM     19  C   UNL A   1      44.366  28.842  44.774  1.00  0.00     0.027 C 
ENDBRANCH  17  18
BRANCH  17  20
ATOM     20  C   UNL A   1      44.438  31.532  44.105  1.00  0.00     0.159 C 
BRANCH  20  21
ATOM     21  C   UNL A   1      43.442  32.390  44.820  1.00  0.00     0.012 A 
ATOM     22  C   UNL A   1      42.426  32.019  45.685  1.00  0.00     0.114 A 
ATOM     23  C   UNL A   1      43.320  33.813  44.746  1.00  0.00     0.064 A 
ATOM     24  N   UNL A   1      41.820  33.173  46.094  1.00  0.00    -0.272 N 
ATOM     25  N   UNL A   1      42.330  34.272  45.518  1.00  0.00    -0.178 NA
ATOM     26  C   UNL A   1      44.141  34.799  43.997  1.00  0.00     0.069 C 
BRANCH  24  27
ATOM     27  C   UNL A   1      40.752  33.328  47.062  1.00  0.00     0.141 C 
ATOM     28  C   UNL A   1      41.043  32.570  48.345  1.00  0.00     0.029 C 
ENDBRANCH  24  27
ENDBRANCH  20  21
ENDBRANCH  17  20
ENDBRANCH  15  17
ENDBRANCH  11  15
ENDBRANCH   8  10
ENDBRANCH   6   8
ENDBRANCH   5   6
ENDBRANCH   4   5
ENDBRANCH   3   4
ENDBRANCH   2   3
ENDBRANCH   1   2
BRANCH   1  29
ATOM     29  C   UNL A   1      39.113  33.418  36.279  1.00  0.00     0.188 C 
BRANCH  29  30
ATOM     30  O   UNL A   1      40.025  33.736  35.244  1.00  0.00    -0.377 OA
BRANCH  30  31
ATOM     31  C   UNL A   1      39.548  34.650  34.261  1.00  0.00     0.188 C 
BRANCH  31  32
ATOM     32  C   UNL A   1      38.384  34.153  33.375  1.00  0.00     0.188 C 
BRANCH  32  33
ATOM     33  O   UNL A   1      38.621  32.914  32.710  1.00  0.00    -0.376 OA
BRANCH  33  34
ATOM     34  C   UNL A   1      37.561  32.007  32.433  1.00  0.00     0.202 C 
BRANCH  34  35
ATOM     35  C   UNL A   1      36.955  31.993  31.028  1.00  0.00     0.261 C 
BRANCH  35  36
ATOM     36  O   UNL A   1      37.555  31.071  30.138  1.00  0.00    -0.460 OA
BRANCH  36  37
ATOM     37  C   UNL A   1      36.986  29.859  30.071  1.00  0.00     0.338 C 
ATOM     38  O   UNL A   1      35.911  29.509  30.553  1.00  0.00    -0.246 OA
BRANCH  37  39
ATOM     39  C   UNL A   1      37.909  28.956  29.398  1.00  0.00     0.060 A 
ATOM     40  C   UNL A   1      38.376  27.879  30.151  1.00  0.00     0.016 A 
ATOM     41  C   UNL A   1      38.567  29.433  28.255  1.00  0.00     0.016 A 
ATOM     42  C   UNL A   1      39.669  27.474  29.935  1.00  0.00     0.010 A 
ATOM     43  C   UNL A   1      39.865  29.051  28.068  1.00  0.00     0.010 A 
ATOM     44  C   UNL A   1      40.422  28.159  28.979  1.00  0.00    -0.014 A 
BRANCH  44  45
ATOM     45  C   UNL A   1      41.831  27.875  28.874  1.00  0.00     0.031 A 
ATOM     46  C   UNL A   1      42.078  26.639  28.112  1.00  0.00     0.074 A 
ATOM     47  C   UNL A   1      42.771  28.747  29.278  1.00  0.00     0.049 A 
ATOM     48  N   UNL A   1      42.391  25.475  28.572  1.00  0.00    -0.248 NA
ATOM     49  C   UNL A   1      41.657  26.630  26.703  1.00  0.00     0.031 C 
ATOM     50  C   UNL A   1      42.597  30.114  29.774  1.00  0.00     0.029 A 
ATOM     51  N   UNL A   1      44.119  28.614  29.224  1.00  0.00    -0.354 N 
ATOM     52  C   UNL A   1      42.487  24.667  27.447  1.00  0.00     0.074 A 
ATOM     53  C   UNL A   1      41.730  25.330  26.426  1.00  0.00     0.031 C 
ATOM     54  C   UNL A   1      43.793  30.749  29.756  1.00  0.00     0.029 A 
ATOM     55  C   UNL A   1      44.828  29.801  29.373  1.00  0.00     0.049 A 
ATOM     56  H   UNL A   1      44.560  27.745  29.089  1.00  0.00     0.167 HD
ATOM     57  C   UNL A   1      43.461  23.723  27.352  1.00  0.00     0.034 A 
ATOM     58  C   UNL A   1      46.155  29.981  29.126  1.00  0.00     0.034 A 
ATOM     59  C   UNL A   1      44.027  23.446  28.658  1.00  0.00     0.049 A 
ATOM     60  C   UNL A   1      46.779  28.630  29.147  1.00  0.00     0.074 A 
ATOM     61  C   UNL A   1      43.499  23.027  29.865  1.00  0.00     0.029 A 
ATOM     62  N   UNL A   1      45.250  24.006  28.963  1.00  0.00    -0.354 N 
ATOM     63  N   UNL A   1      46.849  27.895  30.224  1.00  0.00    -0.248 NA
ATOM     64  C   UNL A   1      46.854  27.888  27.895  1.00  0.00     0.031 C 
ATOM     65  C   UNL A   1      44.184  23.795  30.853  1.00  0.00     0.029 A 
ATOM     66  C   UNL A   1      45.161  24.565  30.216  1.00  0.00     0.049 A 
ATOM     67  H   UNL A   1      46.047  24.006  28.385  1.00  0.00     0.167 HD
ATOM     68  C   UNL A   1      46.533  26.610  29.808  1.00  0.00     0.074 A 
ATOM     69  C   UNL A   1      46.647  26.647  28.351  1.00  0.00     0.031 C 
ATOM     70  C   UNL A   1      45.917  25.727  30.652  1.00  0.00     0.034 A 
BRANCH  57  71
ATOM     71  C   UNL A   1      44.178  23.370  26.064  1.00  0.00     0.023 A 
ATOM     72  C   UNL A   1      44.127  22.021  25.673  1.00  0.00     0.031 A 
ATOM     73  C   UNL A   1      45.110  24.173  25.362  1.00  0.00     0.131 A 
ATOM     74  C   UNL A   1      45.043  21.504  24.743  1.00  0.00     0.055 A 
ATOM     75  C   UNL A   1      45.972  23.666  24.387  1.00  0.00     0.041 A 
ATOM     76  F   UNL A   1      45.314  25.468  25.621  1.00  0.00    -0.206 F 
ATOM     77  C   UNL A   1      45.969  22.316  24.097  1.00  0.00     0.022 A 
BRANCH  74  78
ATOM     78  S   UNL A   1      45.119  19.710  24.536  1.00  0.00     0.124 S 
ATOM     79  O   UNL A   1      44.676  19.560  23.155  1.00  0.00    -0.237 OA
ATOM     80  O   UNL A   1      46.529  19.440  24.798  1.00  0.00    -0.237 OA
ATOM     81  O   UNL A   1      44.189  19.216  25.549  1.00  0.00    -0.744 OA
ENDBRANCH  74  78
ENDBRANCH  57  71
BRANCH  58  82
ATOM     82  C   UNL A   1      46.820  31.183  28.550  1.00  0.00     0.023 A 
ATOM     83  C   UNL A   1      46.200  32.021  27.596  1.00  0.00     0.031 A 
ATOM     84  C   UNL A   1      48.013  31.668  29.133  1.00  0.00     0.131 A 
ATOM     85  C   UNL A   1      46.771  33.275  27.269  1.00  0.00     0.055 A 
ATOM     86  C   UNL A   1      48.572  32.905  28.805  1.00  0.00     0.041 A 
ATOM     87  F   UNL A   1      48.631  30.992  30.116  1.00  0.00    -0.206 F 
ATOM     88  C   UNL A   1      47.947  33.720  27.876  1.00  0.00     0.022 A 
BRANCH  85  89
ATOM     89  S   UNL A   1      45.935  34.401  26.101  1.00  0.00     0.124 S 
ATOM     90  O   UNL A   1      45.636  35.555  26.941  1.00  0.00    -0.237 OA
ATOM     91  O   UNL A   1      46.948  34.591  25.069  1.00  0.00    -0.237 OA
ATOM     92  O   UNL A   1      44.763  33.636  25.670  1.00  0.00    -0.744 OA
ENDBRANCH  85  89
ENDBRANCH  58  82
BRANCH  70  93
ATOM     93  C   UNL A   1      45.849  26.078  32.129  1.00  0.00     0.023 A 
ATOM     94  C   UNL A   1      44.731  26.648  32.782  1.00  0.00     0.031 A 
ATOM     95  C   UNL A   1      46.945  25.705  32.928  1.00  0.00     0.131 A 
ATOM     96  C   UNL A   1      44.749  26.837  34.180  1.00  0.00     0.055 A 
ATOM     97  C   UNL A   1      46.948  25.870  34.312  1.00  0.00     0.041 A 
ATOM     98  F   UNL A   1      48.028  25.134  32.373  1.00  0.00    -0.206 F 
ATOM     99  C   UNL A   1      45.852  26.444  34.943  1.00  0.00     0.022 A 
BRANCH  96 100
ATOM    100  S   UNL A   1      43.343  27.624  35.036  1.00  0.00     0.124 S 
ATOM    101  O   UNL A   1      42.184  27.176  34.275  1.00  0.00    -0.237 OA
ATOM    102  O   UNL A   1      43.463  27.091  36.391  1.00  0.00    -0.237 OA
ATOM    103  O   UNL A   1      43.633  29.054  34.918  1.00  0.00    -0.744 OA
ENDBRANCH  96 100
ENDBRANCH  70  93
ENDBRANCH  44  45
ENDBRANCH  37  39
ENDBRANCH  36  37
ENDBRANCH  35  36
ENDBRANCH  34  35
ENDBRANCH  33  34
ENDBRANCH  32  33
ENDBRANCH  31  32
ENDBRANCH  30  31
ENDBRANCH  29  30
ENDBRANCH   1  29
TORSDOF 30
ENDMDL
