MODEL 1
REMARK VINA RESULT:     -10.2      0.000      0.000
REMARK SMILES O=C(OCCOCCOCCOCCOC(=O)[C@@H]1CC[C@H](CNc2c(F)c(F)c(F)c(F)c2F)O1)c1ccc(-c2c3nc(c(-c4cc(S(=O)(=O)[O-])ccc4F)c4ccc([nH]4)c(-c4cc(S(=O)(=O)[O-])ccc4F)c4nc(c(-c5cc(S(=O)(=O)[O-])ccc5F)c5ccc2[nH]5)C=C4)C=C3)cc1
REMARK SMILES IDX 9 1 8 2 7 3 6 4 5 5 4 6 3 7 2 8 1 9 36 10 37 11 98 12 38 13
REMARK SMILES IDX 97 14 39 15 40 16 41 17 91 18 42 19 96 20 90 21 92 22 43 23
REMARK SMILES IDX 95 24 89 25 88 26 44 28 76 29 56 30 75 31 57 32 60 33 74 34
REMARK SMILES IDX 93 35 58 36 59 37 73 39 94 40 61 41 45 42 46 43 54 44 47 45
REMARK SMILES IDX 53 46 55 47 52 48 48 49 49 50 50 51 51 52 77 53 78 54 86 55
REMARK SMILES IDX 79 56 85 57 87 58 84 59 80 60 81 61 82 62 83 63 62 64 63 65
REMARK SMILES IDX 71 66 64 67 70 68 72 69 69 70 65 71 66 72 67 73 68 74 10 75
REMARK SMILES IDX 11 76 12 77 13 78 14 79 15 80 16 81 17 82 18 83 19 84 35 85
REMARK SMILES IDX 20 86 21 87 22 88 23 89 24 91 25 92 33 93 26 94 27 95 31 96
REMARK SMILES IDX 34 97 28 98 29 99 32 100 30 101
REMARK H PARENT 92 27 60 38 23 90
REMARK Flexibility Score: inf
ROOT
ATOM      1  O   UNL A   1      30.679  29.538  24.730  1.00  0.00    -0.377 OA
ENDROOT
BRANCH   1   2
ATOM      2  C   UNL A   1      31.798  28.933  25.386  1.00  0.00     0.188 C 
BRANCH   2   3
ATOM      3  C   UNL A   1      32.491  29.794  26.436  1.00  0.00     0.188 C 
BRANCH   3   4
ATOM      4  O   UNL A   1      32.097  31.148  26.228  1.00  0.00    -0.376 OA
BRANCH   4   5
ATOM      5  C   UNL A   1      32.061  31.961  27.399  1.00  0.00     0.202 C 
BRANCH   5   6
ATOM      6  C   UNL A   1      32.365  33.429  27.114  1.00  0.00     0.261 C 
BRANCH   6   7
ATOM      7  O   UNL A   1      32.493  34.193  28.326  1.00  0.00    -0.460 OA
BRANCH   7   8
ATOM      8  C   UNL A   1      33.645  34.631  28.897  1.00  0.00     0.338 C 
ATOM      9  O   UNL A   1      33.737  35.820  29.201  1.00  0.00    -0.246 OA
BRANCH   8  10
ATOM     10  C   UNL A   1      34.799  33.737  29.222  1.00  0.00     0.060 A 
ATOM     11  C   UNL A   1      34.687  32.444  29.731  1.00  0.00     0.016 A 
ATOM     12  C   UNL A   1      36.087  34.214  28.930  1.00  0.00     0.016 A 
ATOM     13  C   UNL A   1      35.795  31.680  30.043  1.00  0.00     0.010 A 
ATOM     14  C   UNL A   1      37.219  33.437  29.207  1.00  0.00     0.010 A 
ATOM     15  C   UNL A   1      37.068  32.180  29.804  1.00  0.00    -0.014 A 
BRANCH  15  16
ATOM     16  C   UNL A   1      38.190  31.442  30.409  1.00  0.00     0.031 A 
ATOM     17  C   UNL A   1      38.413  31.623  31.880  1.00  0.00     0.074 A 
ATOM     18  C   UNL A   1      38.824  30.487  29.705  1.00  0.00     0.049 A 
ATOM     19  N   UNL A   1      39.348  31.136  32.647  1.00  0.00    -0.248 NA
ATOM     20  C   UNL A   1      37.429  32.462  32.586  1.00  0.00     0.031 C 
ATOM     21  C   UNL A   1      38.513  30.116  28.321  1.00  0.00     0.029 A 
ATOM     22  N   UNL A   1      39.818  29.619  30.065  1.00  0.00    -0.354 N 
ATOM     23  C   UNL A   1      39.087  31.641  33.917  1.00  0.00     0.074 A 
ATOM     24  C   UNL A   1      37.912  32.473  33.816  1.00  0.00     0.031 C 
ATOM     25  C   UNL A   1      39.279  29.073  27.965  1.00  0.00     0.029 A 
ATOM     26  C   UNL A   1      40.196  28.765  29.055  1.00  0.00     0.049 A 
ATOM     27  H   UNL A   1      40.224  29.606  30.963  1.00  0.00     0.167 HD
ATOM     28  C   UNL A   1      39.789  31.430  35.056  1.00  0.00     0.034 A 
ATOM     29  C   UNL A   1      41.205  27.873  29.018  1.00  0.00     0.034 A 
ATOM     30  C   UNL A   1      40.962  30.597  35.091  1.00  0.00     0.049 A 
ATOM     31  C   UNL A   1      42.060  27.758  30.257  1.00  0.00     0.074 A 
ATOM     32  C   UNL A   1      41.858  30.388  36.122  1.00  0.00     0.029 A 
ATOM     33  N   UNL A   1      41.401  29.825  34.016  1.00  0.00    -0.354 N 
ATOM     34  N   UNL A   1      41.909  28.352  31.421  1.00  0.00    -0.248 NA
ATOM     35  C   UNL A   1      43.228  26.876  30.174  1.00  0.00     0.031 C 
ATOM     36  C   UNL A   1      42.866  29.536  35.651  1.00  0.00     0.029 A 
ATOM     37  C   UNL A   1      42.563  29.155  34.350  1.00  0.00     0.049 A 
ATOM     38  H   UNL A   1      40.948  29.765  33.144  1.00  0.00     0.167 HD
ATOM     39  C   UNL A   1      42.958  27.907  32.216  1.00  0.00     0.074 A 
ATOM     40  C   UNL A   1      43.716  26.973  31.403  1.00  0.00     0.031 C 
ATOM     41  C   UNL A   1      43.281  28.238  33.494  1.00  0.00     0.034 A 
BRANCH  28  42
ATOM     42  C   UNL A   1      39.358  32.222  36.267  1.00  0.00     0.023 A 
ATOM     43  C   UNL A   1      38.651  31.636  37.333  1.00  0.00     0.031 A 
ATOM     44  C   UNL A   1      39.527  33.619  36.281  1.00  0.00     0.131 A 
ATOM     45  C   UNL A   1      38.052  32.452  38.308  1.00  0.00     0.055 A 
ATOM     46  C   UNL A   1      39.004  34.416  37.302  1.00  0.00     0.041 A 
ATOM     47  F   UNL A   1      40.162  34.241  35.274  1.00  0.00    -0.206 F 
ATOM     48  C   UNL A   1      38.242  33.835  38.311  1.00  0.00     0.022 A 
BRANCH  45  49
ATOM     49  S   UNL A   1      36.867  31.698  39.461  1.00  0.00     0.124 S 
ATOM     50  O   UNL A   1      37.743  31.306  40.568  1.00  0.00    -0.237 OA
ATOM     51  O   UNL A   1      35.946  32.784  39.729  1.00  0.00    -0.237 OA
ATOM     52  O   UNL A   1      36.313  30.576  38.695  1.00  0.00    -0.744 OA
ENDBRANCH  45  49
ENDBRANCH  28  42
BRANCH  29  53
ATOM     53  C   UNL A   1      41.520  27.115  27.769  1.00  0.00     0.023 A 
ATOM     54  C   UNL A   1      41.357  25.721  27.690  1.00  0.00     0.031 A 
ATOM     55  C   UNL A   1      42.046  27.772  26.638  1.00  0.00     0.131 A 
ATOM     56  C   UNL A   1      41.746  25.032  26.527  1.00  0.00     0.055 A 
ATOM     57  C   UNL A   1      42.376  27.091  25.466  1.00  0.00     0.041 A 
ATOM     58  F   UNL A   1      42.242  29.101  26.653  1.00  0.00    -0.206 F 
ATOM     59  C   UNL A   1      42.239  25.710  25.410  1.00  0.00     0.022 A 
BRANCH  56  60
ATOM     60  S   UNL A   1      41.689  23.218  26.525  1.00  0.00     0.124 S 
ATOM     61  O   UNL A   1      42.433  22.894  27.737  1.00  0.00    -0.237 OA
ATOM     62  O   UNL A   1      40.254  22.960  26.564  1.00  0.00    -0.237 OA
ATOM     63  O   UNL A   1      42.351  22.857  25.273  1.00  0.00    -0.744 OA
ENDBRANCH  56  60
ENDBRANCH  29  53
BRANCH  41  64
ATOM     64  C   UNL A   1      44.483  27.544  34.075  1.00  0.00     0.023 A 
ATOM     65  C   UNL A   1      44.384  26.271  34.658  1.00  0.00     0.031 A 
ATOM     66  C   UNL A   1      45.739  28.175  34.052  1.00  0.00     0.131 A 
ATOM     67  C   UNL A   1      45.512  25.690  35.249  1.00  0.00     0.055 A 
ATOM     68  C   UNL A   1      46.871  27.565  34.587  1.00  0.00     0.041 A 
ATOM     69  F   UNL A   1      45.882  29.393  33.505  1.00  0.00    -0.206 F 
ATOM     70  C   UNL A   1      46.759  26.321  35.202  1.00  0.00     0.022 A 
BRANCH  67  71
ATOM     71  S   UNL A   1      45.308  24.138  36.163  1.00  0.00     0.124 S 
ATOM     72  O   UNL A   1      43.888  23.859  35.973  1.00  0.00    -0.237 OA
ATOM     73  O   UNL A   1      46.232  23.245  35.471  1.00  0.00    -0.237 OA
ATOM     74  O   UNL A   1      45.694  24.491  37.528  1.00  0.00    -0.744 OA
ENDBRANCH  67  71
ENDBRANCH  41  64
ENDBRANCH  15  16
ENDBRANCH   8  10
ENDBRANCH   7   8
ENDBRANCH   6   7
ENDBRANCH   5   6
ENDBRANCH   4   5
ENDBRANCH   3   4
ENDBRANCH   2   3
ENDBRANCH   1   2
BRANCH   1  75
ATOM     75  C   UNL A   1      30.539  29.297  23.333  1.00  0.00     0.188 C 
BRANCH  75  76
ATOM     76  C   UNL A   1      31.177  28.052  22.709  1.00  0.00     0.188 C 
BRANCH  76  77
ATOM     77  O   UNL A   1      30.535  26.806  22.895  1.00  0.00    -0.376 OA
BRANCH  77  78
ATOM     78  C   UNL A   1      31.306  25.611  22.813  1.00  0.00     0.202 C 
BRANCH  78  79
ATOM     79  C   UNL A   1      31.993  25.017  24.053  1.00  0.00     0.261 C 
BRANCH  79  80
ATOM     80  O   UNL A   1      33.359  25.444  24.223  1.00  0.00    -0.461 OA
BRANCH  80  81
ATOM     81  C   UNL A   1      34.302  24.593  23.736  1.00  0.00     0.335 C 
ATOM     82  O   UNL A   1      34.493  24.371  22.544  1.00  0.00    -0.249 OA
BRANCH  81  83
ATOM     83  C   UNL A   1      35.102  23.882  24.836  1.00  0.00     0.228 C 
ATOM     84  C   UNL A   1      35.527  22.494  24.406  1.00  0.00     0.047 C 
ATOM     85  O   UNL A   1      34.515  23.714  26.125  1.00  0.00    -0.361 OA
ATOM     86  C   UNL A   1      35.940  21.880  25.720  1.00  0.00     0.037 C 
ATOM     87  C   UNL A   1      34.928  22.461  26.698  1.00  0.00     0.138 C 
BRANCH  87  88
ATOM     88  C   UNL A   1      33.721  21.529  26.992  1.00  0.00     0.145 C 
BRANCH  88  89
ATOM     89  N   UNL A   1      32.815  21.535  25.846  1.00  0.00    -0.378 N 
ATOM     90  H   UNL A   1      32.296  22.359  25.699  1.00  0.00     0.160 HD
BRANCH  89  91
ATOM     91  C   UNL A   1      32.607  20.505  24.944  1.00  0.00     0.113 A 
ATOM     92  C   UNL A   1      32.644  19.135  25.237  1.00  0.00     0.188 A 
ATOM     93  C   UNL A   1      32.385  20.857  23.598  1.00  0.00     0.188 A 
ATOM     94  F   UNL A   1      32.827  18.716  26.498  1.00  0.00    -0.201 F 
ATOM     95  C   UNL A   1      32.460  18.175  24.236  1.00  0.00     0.199 A 
ATOM     96  C   UNL A   1      32.217  19.906  22.598  1.00  0.00     0.199 A 
ATOM     97  F   UNL A   1      32.351  22.160  23.268  1.00  0.00    -0.201 F 
ATOM     98  F   UNL A   1      32.480  16.871  24.546  1.00  0.00    -0.200 F 
ATOM     99  C   UNL A   1      32.253  18.562  22.919  1.00  0.00     0.200 A 
ATOM    100  F   UNL A   1      32.025  20.295  21.329  1.00  0.00    -0.200 F 
ATOM    101  F   UNL A   1      32.084  17.641  21.960  1.00  0.00    -0.200 F 
ENDBRANCH  89  91
ENDBRANCH  88  89
ENDBRANCH  87  88
ENDBRANCH  81  83
ENDBRANCH  80  81
ENDBRANCH  79  80
ENDBRANCH  78  79
ENDBRANCH  77  78
ENDBRANCH  76  77
ENDBRANCH  75  76
ENDBRANCH   1  75
TORSDOF 26
ENDMDL
MODEL 2
REMARK VINA RESULT:      -9.8      3.099      8.392
REMARK SMILES O=C(OCCOCCOCCOCCOC(=O)[C@@H]1CC[C@H](CNc2c(F)c(F)c(F)c(F)c2F)O1)c1ccc(-c2c3nc(c(-c4cc(S(=O)(=O)[O-])ccc4F)c4ccc([nH]4)c(-c4cc(S(=O)(=O)[O-])ccc4F)c4nc(c(-c5cc(S(=O)(=O)[O-])ccc5F)c5ccc2[nH]5)C=C4)C=C3)cc1
REMARK SMILES IDX 9 1 8 2 7 3 6 4 5 5 4 6 3 7 2 8 1 9 36 10 37 11 98 12 38 13
REMARK SMILES IDX 97 14 39 15 40 16 41 17 91 18 42 19 96 20 90 21 92 22 43 23
REMARK SMILES IDX 95 24 89 25 88 26 44 28 76 29 56 30 75 31 57 32 60 33 74 34
REMARK SMILES IDX 93 35 58 36 59 37 73 39 94 40 61 41 45 42 46 43 54 44 47 45
REMARK SMILES IDX 53 46 55 47 52 48 48 49 49 50 50 51 51 52 77 53 78 54 86 55
REMARK SMILES IDX 79 56 85 57 87 58 84 59 80 60 81 61 82 62 83 63 62 64 63 65
REMARK SMILES IDX 71 66 64 67 70 68 72 69 69 70 65 71 66 72 67 73 68 74 10 75
REMARK SMILES IDX 11 76 12 77 13 78 14 79 15 80 16 81 17 82 18 83 19 84 35 85
REMARK SMILES IDX 20 86 21 87 22 88 23 89 24 91 25 92 33 93 26 94 27 95 31 96
REMARK SMILES IDX 34 97 28 98 29 99 32 100 30 101
REMARK H PARENT 92 27 60 38 23 90
REMARK Flexibility Score: inf
ROOT
ATOM      1  O   UNL A   1      31.759  27.911  23.156  1.00  0.00    -0.377 OA
ENDROOT
BRANCH   1   2
ATOM      2  C   UNL A   1      32.682  28.652  23.960  1.00  0.00     0.188 C 
BRANCH   2   3
ATOM      3  C   UNL A   1      32.207  28.985  25.371  1.00  0.00     0.188 C 
BRANCH   3   4
ATOM      4  O   UNL A   1      32.464  30.366  25.610  1.00  0.00    -0.376 OA
BRANCH   4   5
ATOM      5  C   UNL A   1      32.436  30.765  26.978  1.00  0.00     0.202 C 
BRANCH   5   6
ATOM      6  C   UNL A   1      33.594  31.684  27.355  1.00  0.00     0.261 C 
BRANCH   6   7
ATOM      7  O   UNL A   1      33.153  33.034  27.581  1.00  0.00    -0.460 OA
BRANCH   7   8
ATOM      8  C   UNL A   1      33.478  33.833  28.631  1.00  0.00     0.338 C 
ATOM      9  O   UNL A   1      32.796  34.836  28.842  1.00  0.00    -0.246 OA
BRANCH   8  10
ATOM     10  C   UNL A   1      34.595  33.538  29.580  1.00  0.00     0.060 A 
ATOM     11  C   UNL A   1      35.890  34.044  29.470  1.00  0.00     0.016 A 
ATOM     12  C   UNL A   1      34.298  32.745  30.700  1.00  0.00     0.016 A 
ATOM     13  C   UNL A   1      36.888  33.704  30.364  1.00  0.00     0.010 A 
ATOM     14  C   UNL A   1      35.289  32.422  31.635  1.00  0.00     0.010 A 
ATOM     15  C   UNL A   1      36.599  32.874  31.438  1.00  0.00    -0.014 A 
BRANCH  15  16
ATOM     16  C   UNL A   1      37.751  32.334  32.182  1.00  0.00     0.031 A 
ATOM     17  C   UNL A   1      38.612  31.332  31.475  1.00  0.00     0.074 A 
ATOM     18  C   UNL A   1      38.122  32.895  33.347  1.00  0.00     0.049 A 
ATOM     19  N   UNL A   1      39.647  30.669  31.908  1.00  0.00    -0.248 NA
ATOM     20  C   UNL A   1      38.260  31.052  30.072  1.00  0.00     0.031 C 
ATOM     21  C   UNL A   1      37.442  34.022  33.993  1.00  0.00     0.029 A 
ATOM     22  N   UNL A   1      39.188  32.638  34.166  1.00  0.00    -0.354 N 
ATOM     23  C   UNL A   1      40.045  29.864  30.845  1.00  0.00     0.074 A 
ATOM     24  C   UNL A   1      39.140  30.120  29.750  1.00  0.00     0.031 C 
ATOM     25  C   UNL A   1      38.128  34.378  35.090  1.00  0.00     0.029 A 
ATOM     26  C   UNL A   1      39.237  33.450  35.276  1.00  0.00     0.049 A 
ATOM     27  H   UNL A   1      39.855  31.939  33.979  1.00  0.00     0.167 HD
ATOM     28  C   UNL A   1      41.073  28.983  30.809  1.00  0.00     0.034 A 
ATOM     29  C   UNL A   1      40.065  33.403  36.337  1.00  0.00     0.034 A 
ATOM     30  C   UNL A   1      41.935  28.764  31.940  1.00  0.00     0.049 A 
ATOM     31  C   UNL A   1      41.116  32.319  36.335  1.00  0.00     0.074 A 
ATOM     32  C   UNL A   1      42.929  27.820  32.114  1.00  0.00     0.029 A 
ATOM     33  N   UNL A   1      41.895  29.522  33.109  1.00  0.00    -0.354 N 
ATOM     34  N   UNL A   1      41.401  31.448  35.390  1.00  0.00    -0.248 NA
ATOM     35  C   UNL A   1      41.938  32.193  37.542  1.00  0.00     0.031 C 
ATOM     36  C   UNL A   1      43.447  27.972  33.407  1.00  0.00     0.029 A 
ATOM     37  C   UNL A   1      42.829  29.057  34.015  1.00  0.00     0.049 A 
ATOM     38  H   UNL A   1      41.288  30.281  33.266  1.00  0.00     0.167 HD
ATOM     39  C   UNL A   1      42.446  30.677  35.885  1.00  0.00     0.074 A 
ATOM     40  C   UNL A   1      42.755  31.207  37.201  1.00  0.00     0.031 C 
ATOM     41  C   UNL A   1      43.090  29.622  35.319  1.00  0.00     0.034 A 
BRANCH  28  42
ATOM     42  C   UNL A   1      41.188  28.137  29.564  1.00  0.00     0.023 A 
ATOM     43  C   UNL A   1      42.123  28.419  28.550  1.00  0.00     0.031 A 
ATOM     44  C   UNL A   1      40.244  27.122  29.321  1.00  0.00     0.131 A 
ATOM     45  C   UNL A   1      42.025  27.770  27.307  1.00  0.00     0.055 A 
ATOM     46  C   UNL A   1      40.209  26.420  28.114  1.00  0.00     0.041 A 
ATOM     47  F   UNL A   1      39.304  26.831  30.235  1.00  0.00    -0.206 F 
ATOM     48  C   UNL A   1      41.088  26.758  27.091  1.00  0.00     0.022 A 
BRANCH  45  49
ATOM     49  S   UNL A   1      43.014  28.400  25.919  1.00  0.00     0.124 S 
ATOM     50  O   UNL A   1      41.978  28.958  25.049  1.00  0.00    -0.237 OA
ATOM     51  O   UNL A   1      43.893  29.357  26.561  1.00  0.00    -0.237 OA
ATOM     52  O   UNL A   1      43.669  27.197  25.394  1.00  0.00    -0.744 OA
ENDBRANCH  45  49
ENDBRANCH  28  42
BRANCH  29  53
ATOM     53  C   UNL A   1      39.877  34.317  37.504  1.00  0.00     0.023 A 
ATOM     54  C   UNL A   1      39.267  33.882  38.693  1.00  0.00     0.031 A 
ATOM     55  C   UNL A   1      40.263  35.671  37.430  1.00  0.00     0.131 A 
ATOM     56  C   UNL A   1      39.029  34.794  39.737  1.00  0.00     0.055 A 
ATOM     57  C   UNL A   1      40.077  36.558  38.491  1.00  0.00     0.041 A 
ATOM     58  F   UNL A   1      40.836  36.156  36.317  1.00  0.00    -0.206 F 
ATOM     59  C   UNL A   1      39.445  36.125  39.649  1.00  0.00     0.022 A 
BRANCH  56  60
ATOM     60  S   UNL A   1      38.080  34.242  41.182  1.00  0.00     0.124 S 
ATOM     61  O   UNL A   1      37.753  35.509  41.826  1.00  0.00    -0.237 OA
ATOM     62  O   UNL A   1      36.968  33.531  40.562  1.00  0.00    -0.237 OA
ATOM     63  O   UNL A   1      39.027  33.399  41.910  1.00  0.00    -0.744 OA
ENDBRANCH  56  60
ENDBRANCH  29  53
BRANCH  41  64
ATOM     64  C   UNL A   1      44.209  29.019  36.125  1.00  0.00     0.023 A 
ATOM     65  C   UNL A   1      45.505  29.558  36.095  1.00  0.00     0.031 A 
ATOM     66  C   UNL A   1      43.971  27.886  36.921  1.00  0.00     0.131 A 
ATOM     67  C   UNL A   1      46.534  28.926  36.804  1.00  0.00     0.055 A 
ATOM     68  C   UNL A   1      44.986  27.298  37.674  1.00  0.00     0.041 A 
ATOM     69  F   UNL A   1      42.747  27.338  36.981  1.00  0.00    -0.206 F 
ATOM     70  C   UNL A   1      46.279  27.810  37.608  1.00  0.00     0.022 A 
BRANCH  67  71
ATOM     71  S   UNL A   1      48.230  29.527  36.591  1.00  0.00     0.124 S 
ATOM     72  O   UNL A   1      48.345  29.598  35.137  1.00  0.00    -0.237 OA
ATOM     73  O   UNL A   1      48.198  30.807  37.291  1.00  0.00    -0.237 OA
ATOM     74  O   UNL A   1      49.043  28.493  37.228  1.00  0.00    -0.744 OA
ENDBRANCH  67  71
ENDBRANCH  41  64
ENDBRANCH  15  16
ENDBRANCH   8  10
ENDBRANCH   7   8
ENDBRANCH   6   7
ENDBRANCH   5   6
ENDBRANCH   4   5
ENDBRANCH   3   4
ENDBRANCH   2   3
ENDBRANCH   1   2
BRANCH   1  75
ATOM     75  C   UNL A   1      32.307  26.942  22.268  1.00  0.00     0.188 C 
BRANCH  75  76
ATOM     76  C   UNL A   1      33.266  25.874  22.805  1.00  0.00     0.188 C 
BRANCH  76  77
ATOM     77  O   UNL A   1      33.472  24.710  22.030  1.00  0.00    -0.376 OA
BRANCH  77  78
ATOM     78  C   UNL A   1      33.512  23.443  22.682  1.00  0.00     0.202 C 
BRANCH  78  79
ATOM     79  C   UNL A   1      32.245  22.591  22.849  1.00  0.00     0.261 C 
BRANCH  79  80
ATOM     80  O   UNL A   1      32.460  21.363  23.571  1.00  0.00    -0.461 OA
BRANCH  80  81
ATOM     81  C   UNL A   1      32.119  21.391  24.888  1.00  0.00     0.335 C 
ATOM     82  O   UNL A   1      30.968  21.465  25.308  1.00  0.00    -0.249 OA
BRANCH  81  83
ATOM     83  C   UNL A   1      33.331  21.363  25.829  1.00  0.00     0.228 C 
ATOM     84  C   UNL A   1      33.802  22.761  26.170  1.00  0.00     0.047 C 
ATOM     85  O   UNL A   1      34.504  20.656  25.431  1.00  0.00    -0.361 OA
ATOM     86  C   UNL A   1      35.163  22.489  26.760  1.00  0.00     0.037 C 
ATOM     87  C   UNL A   1      35.678  21.338  25.907  1.00  0.00     0.138 C 
BRANCH  87  88
ATOM     88  C   UNL A   1      36.609  21.777  24.743  1.00  0.00     0.145 C 
BRANCH  88  89
ATOM     89  N   UNL A   1      37.770  22.474  25.290  1.00  0.00    -0.378 N 
ATOM     90  H   UNL A   1      37.760  23.457  25.236  1.00  0.00     0.160 HD
BRANCH  89  91
ATOM     91  C   UNL A   1      38.884  21.899  25.877  1.00  0.00     0.113 A 
ATOM     92  C   UNL A   1      39.346  20.592  25.663  1.00  0.00     0.188 A 
ATOM     93  C   UNL A   1      39.599  22.674  26.811  1.00  0.00     0.188 A 
ATOM     94  F   UNL A   1      38.736  19.796  24.772  1.00  0.00    -0.201 F 
ATOM     95  C   UNL A   1      40.464  20.098  26.343  1.00  0.00     0.199 A 
ATOM     96  C   UNL A   1      40.702  22.182  27.500  1.00  0.00     0.199 A 
ATOM     97  F   UNL A   1      39.188  23.931  27.055  1.00  0.00    -0.201 F 
ATOM     98  F   UNL A   1      40.896  18.851  26.105  1.00  0.00    -0.200 F 
ATOM     99  C   UNL A   1      41.135  20.891  27.263  1.00  0.00     0.200 A 
ATOM    100  F   UNL A   1      41.336  22.958  28.391  1.00  0.00    -0.200 F 
ATOM    101  F   UNL A   1      42.203  20.414  27.919  1.00  0.00    -0.200 F 
ENDBRANCH  89  91
ENDBRANCH  88  89
ENDBRANCH  87  88
ENDBRANCH  81  83
ENDBRANCH  80  81
ENDBRANCH  79  80
ENDBRANCH  78  79
ENDBRANCH  77  78
ENDBRANCH  76  77
ENDBRANCH  75  76
ENDBRANCH   1  75
TORSDOF 26
ENDMDL
MODEL 3
REMARK VINA RESULT:      -9.5      3.161      8.446
REMARK SMILES O=C(OCCOCCOCCOCCOC(=O)[C@@H]1CC[C@H](CNc2c(F)c(F)c(F)c(F)c2F)O1)c1ccc(-c2c3nc(c(-c4cc(S(=O)(=O)[O-])ccc4F)c4ccc([nH]4)c(-c4cc(S(=O)(=O)[O-])ccc4F)c4nc(c(-c5cc(S(=O)(=O)[O-])ccc5F)c5ccc2[nH]5)C=C4)C=C3)cc1
REMARK SMILES IDX 9 1 8 2 7 3 6 4 5 5 4 6 3 7 2 8 1 9 36 10 37 11 98 12 38 13
REMARK SMILES IDX 97 14 39 15 40 16 41 17 91 18 42 19 96 20 90 21 92 22 43 23
REMARK SMILES IDX 95 24 89 25 88 26 44 28 76 29 56 30 75 31 57 32 60 33 74 34
REMARK SMILES IDX 93 35 58 36 59 37 73 39 94 40 61 41 45 42 46 43 54 44 47 45
REMARK SMILES IDX 53 46 55 47 52 48 48 49 49 50 50 51 51 52 77 53 78 54 86 55
REMARK SMILES IDX 79 56 85 57 87 58 84 59 80 60 81 61 82 62 83 63 62 64 63 65
REMARK SMILES IDX 71 66 64 67 70 68 72 69 69 70 65 71 66 72 67 73 68 74 10 75
REMARK SMILES IDX 11 76 12 77 13 78 14 79 15 80 16 81 17 82 18 83 19 84 35 85
REMARK SMILES IDX 20 86 21 87 22 88 23 89 24 91 25 92 33 93 26 94 27 95 31 96
REMARK SMILES IDX 34 97 28 98 29 99 32 100 30 101
REMARK H PARENT 92 27 60 38 23 90
REMARK Flexibility Score: inf
ROOT
ATOM      1  O   UNL A   1      32.006  27.896  23.114  1.00  0.00    -0.377 OA
ENDROOT
BRANCH   1   2
ATOM      2  C   UNL A   1      32.954  28.382  24.070  1.00  0.00     0.188 C 
BRANCH   2   3
ATOM      3  C   UNL A   1      32.380  28.774  25.426  1.00  0.00     0.188 C 
BRANCH   3   4
ATOM      4  O   UNL A   1      32.850  30.081  25.745  1.00  0.00    -0.376 OA
BRANCH   4   5
ATOM      5  C   UNL A   1      32.702  30.468  27.109  1.00  0.00     0.202 C 
BRANCH   5   6
ATOM      6  C   UNL A   1      33.858  31.326  27.614  1.00  0.00     0.261 C 
BRANCH   6   7
ATOM      7  O   UNL A   1      33.498  32.716  27.693  1.00  0.00    -0.460 OA
BRANCH   7   8
ATOM      8  C   UNL A   1      33.694  33.551  28.747  1.00  0.00     0.338 C 
ATOM      9  O   UNL A   1      32.924  34.500  28.898  1.00  0.00    -0.246 OA
BRANCH   8  10
ATOM     10  C   UNL A   1      34.768  33.355  29.769  1.00  0.00     0.060 A 
ATOM     11  C   UNL A   1      35.861  34.203  29.950  1.00  0.00     0.016 A 
ATOM     12  C   UNL A   1      34.628  32.273  30.653  1.00  0.00     0.016 A 
ATOM     13  C   UNL A   1      36.839  33.947  30.891  1.00  0.00     0.010 A 
ATOM     14  C   UNL A   1      35.593  32.022  31.637  1.00  0.00     0.010 A 
ATOM     15  C   UNL A   1      36.722  32.843  31.725  1.00  0.00    -0.014 A 
BRANCH  15  16
ATOM     16  C   UNL A   1      37.918  32.476  32.503  1.00  0.00     0.031 A 
ATOM     17  C   UNL A   1      39.043  31.821  31.760  1.00  0.00     0.074 A 
ATOM     18  C   UNL A   1      38.063  32.922  33.764  1.00  0.00     0.049 A 
ATOM     19  N   UNL A   1      40.177  31.357  32.204  1.00  0.00    -0.248 NA
ATOM     20  C   UNL A   1      38.865  31.687  30.304  1.00  0.00     0.031 C 
ATOM     21  C   UNL A   1      37.087  33.748  34.482  1.00  0.00     0.029 A 
ATOM     22  N   UNL A   1      39.101  32.795  34.646  1.00  0.00    -0.354 N 
ATOM     23  C   UNL A   1      40.829  30.840  31.090  1.00  0.00     0.074 A 
ATOM     24  C   UNL A   1      39.965  31.045  29.952  1.00  0.00     0.031 C 
ATOM     25  C   UNL A   1      37.591  34.079  35.681  1.00  0.00     0.029 A 
ATOM     26  C   UNL A   1      38.877  33.415  35.854  1.00  0.00     0.049 A 
ATOM     27  H   UNL A   1      39.930  32.306  34.436  1.00  0.00     0.167 HD
ATOM     28  C   UNL A   1      42.041  30.236  31.041  1.00  0.00     0.034 A 
ATOM     29  C   UNL A   1      39.618  33.398  36.978  1.00  0.00     0.034 A 
ATOM     30  C   UNL A   1      42.853  30.051  32.215  1.00  0.00     0.049 A 
ATOM     31  C   UNL A   1      40.899  32.601  36.939  1.00  0.00     0.074 A 
ATOM     32  C   UNL A   1      44.033  29.347  32.361  1.00  0.00     0.029 A 
ATOM     33  N   UNL A   1      42.551  30.590  33.464  1.00  0.00    -0.354 N 
ATOM     34  N   UNL A   1      41.451  31.976  35.920  1.00  0.00    -0.248 NA
ATOM     35  C   UNL A   1      41.644  32.484  38.195  1.00  0.00     0.031 C 
ATOM     36  C   UNL A   1      44.410  29.414  33.709  1.00  0.00     0.029 A 
ATOM     37  C   UNL A   1      43.507  30.220  34.391  1.00  0.00     0.049 A 
ATOM     38  H   UNL A   1      41.768  31.155  33.659  1.00  0.00     0.167 HD
ATOM     39  C   UNL A   1      42.616  31.400  36.411  1.00  0.00     0.074 A 
ATOM     40  C   UNL A   1      42.698  31.778  37.810  1.00  0.00     0.031 C 
ATOM     41  C   UNL A   1      43.534  30.622  35.778  1.00  0.00     0.034 A 
BRANCH  28  42
ATOM     42  C   UNL A   1      42.442  29.642  29.712  1.00  0.00     0.023 A 
ATOM     43  C   UNL A   1      42.068  28.339  29.331  1.00  0.00     0.031 A 
ATOM     44  C   UNL A   1      43.339  30.337  28.881  1.00  0.00     0.131 A 
ATOM     45  C   UNL A   1      42.670  27.739  28.212  1.00  0.00     0.055 A 
ATOM     46  C   UNL A   1      43.865  29.764  27.721  1.00  0.00     0.041 A 
ATOM     47  F   UNL A   1      43.760  31.569  29.209  1.00  0.00    -0.206 F 
ATOM     48  C   UNL A   1      43.549  28.450  27.393  1.00  0.00     0.022 A 
BRANCH  45  49
ATOM     49  S   UNL A   1      42.432  25.956  27.953  1.00  0.00     0.124 S 
ATOM     50  O   UNL A   1      43.235  25.391  29.038  1.00  0.00    -0.237 OA
ATOM     51  O   UNL A   1      40.996  25.804  28.074  1.00  0.00    -0.237 OA
ATOM     52  O   UNL A   1      42.977  25.731  26.609  1.00  0.00    -0.744 OA
ENDBRANCH  45  49
ENDBRANCH  28  42
BRANCH  29  53
ATOM     53  C   UNL A   1      39.136  34.054  38.232  1.00  0.00     0.023 A 
ATOM     54  C   UNL A   1      39.420  35.401  38.517  1.00  0.00     0.031 A 
ATOM     55  C   UNL A   1      38.420  33.322  39.200  1.00  0.00     0.131 A 
ATOM     56  C   UNL A   1      39.024  35.957  39.746  1.00  0.00     0.055 A 
ATOM     57  C   UNL A   1      37.978  33.896  40.393  1.00  0.00     0.041 A 
ATOM     58  F   UNL A   1      38.130  32.026  38.997  1.00  0.00    -0.206 F 
ATOM     59  C   UNL A   1      38.291  35.219  40.678  1.00  0.00     0.022 A 
BRANCH  56  60
ATOM     60  S   UNL A   1      39.561  37.642  40.157  1.00  0.00     0.124 S 
ATOM     61  O   UNL A   1      38.538  38.449  39.503  1.00  0.00    -0.237 OA
ATOM     62  O   UNL A   1      39.529  37.623  41.616  1.00  0.00    -0.237 OA
ATOM     63  O   UNL A   1      40.895  37.728  39.567  1.00  0.00    -0.744 OA
ENDBRANCH  56  60
ENDBRANCH  29  53
BRANCH  41  64
ATOM     64  C   UNL A   1      44.710  30.178  36.606  1.00  0.00     0.023 A 
ATOM     65  C   UNL A   1      44.695  28.962  37.308  1.00  0.00     0.031 A 
ATOM     66  C   UNL A   1      45.852  30.991  36.697  1.00  0.00     0.131 A 
ATOM     67  C   UNL A   1      45.781  28.619  38.122  1.00  0.00     0.055 A 
ATOM     68  C   UNL A   1      46.956  30.615  37.459  1.00  0.00     0.041 A 
ATOM     69  F   UNL A   1      45.912  32.162  36.042  1.00  0.00    -0.206 F 
ATOM     70  C   UNL A   1      46.919  29.429  38.188  1.00  0.00     0.022 A 
BRANCH  67  71
ATOM     71  S   UNL A   1      45.649  27.143  39.165  1.00  0.00     0.124 S 
ATOM     72  O   UNL A   1      46.328  26.138  38.354  1.00  0.00    -0.237 OA
ATOM     73  O   UNL A   1      46.342  27.557  40.381  1.00  0.00    -0.237 OA
ATOM     74  O   UNL A   1      44.206  26.954  39.309  1.00  0.00    -0.744 OA
ENDBRANCH  67  71
ENDBRANCH  41  64
ENDBRANCH  15  16
ENDBRANCH   8  10
ENDBRANCH   7   8
ENDBRANCH   6   7
ENDBRANCH   5   6
ENDBRANCH   4   5
ENDBRANCH   3   4
ENDBRANCH   2   3
ENDBRANCH   1   2
BRANCH   1  75
ATOM     75  C   UNL A   1      32.446  26.870  22.229  1.00  0.00     0.188 C 
BRANCH  75  76
ATOM     76  C   UNL A   1      33.009  25.564  22.798  1.00  0.00     0.188 C 
BRANCH  76  77
ATOM     77  O   UNL A   1      33.249  24.494  21.906  1.00  0.00    -0.376 OA
BRANCH  77  78
ATOM     78  C   UNL A   1      33.386  23.175  22.429  1.00  0.00     0.202 C 
BRANCH  78  79
ATOM     79  C   UNL A   1      32.173  22.244  22.575  1.00  0.00     0.261 C 
BRANCH  79  80
ATOM     80  O   UNL A   1      32.081  21.605  23.864  1.00  0.00    -0.461 OA
BRANCH  80  81
ATOM     81  C   UNL A   1      31.972  22.447  24.927  1.00  0.00     0.335 C 
ATOM     82  O   UNL A   1      31.054  23.245  25.094  1.00  0.00    -0.249 OA
BRANCH  81  83
ATOM     83  C   UNL A   1      33.150  22.342  25.907  1.00  0.00     0.228 C 
ATOM     84  C   UNL A   1      34.014  23.584  25.872  1.00  0.00     0.047 C 
ATOM     85  O   UNL A   1      34.057  21.248  25.788  1.00  0.00    -0.361 OA
ATOM     86  C   UNL A   1      35.254  23.113  26.591  1.00  0.00     0.037 C 
ATOM     87  C   UNL A   1      35.390  21.671  26.122  1.00  0.00     0.138 C 
BRANCH  87  88
ATOM     88  C   UNL A   1      36.376  21.480  24.937  1.00  0.00     0.145 C 
BRANCH  88  89
ATOM     89  N   UNL A   1      37.623  22.183  25.227  1.00  0.00    -0.378 N 
ATOM     90  H   UNL A   1      37.656  23.138  24.989  1.00  0.00     0.160 HD
BRANCH  89  91
ATOM     91  C   UNL A   1      38.764  21.650  25.802  1.00  0.00     0.113 A 
ATOM     92  C   UNL A   1      39.274  20.364  25.579  1.00  0.00     0.188 A 
ATOM     93  C   UNL A   1      39.455  22.449  26.734  1.00  0.00     0.188 A 
ATOM     94  F   UNL A   1      38.689  19.547  24.690  1.00  0.00    -0.201 F 
ATOM     95  C   UNL A   1      40.417  19.911  26.247  1.00  0.00     0.199 A 
ATOM     96  C   UNL A   1      40.582  21.998  27.412  1.00  0.00     0.199 A 
ATOM     97  F   UNL A   1      38.996  23.688  26.987  1.00  0.00    -0.201 F 
ATOM     98  F   UNL A   1      40.895  18.683  26.001  1.00  0.00    -0.200 F 
ATOM     99  C   UNL A   1      41.064  20.726  27.166  1.00  0.00     0.200 A 
ATOM    100  F   UNL A   1      41.192  22.795  28.301  1.00  0.00    -0.200 F 
ATOM    101  F   UNL A   1      42.154  20.289  27.811  1.00  0.00    -0.200 F 
ENDBRANCH  89  91
ENDBRANCH  88  89
ENDBRANCH  87  88
ENDBRANCH  81  83
ENDBRANCH  80  81
ENDBRANCH  79  80
ENDBRANCH  78  79
ENDBRANCH  77  78
ENDBRANCH  76  77
ENDBRANCH  75  76
ENDBRANCH   1  75
TORSDOF 26
ENDMDL
