MODEL 1
REMARK VINA RESULT:      -7.6      0.000      0.000
REMARK SMILES NC(=O)CC[C@@H](C(=O)OCCOCCOCCOCCOC(=O)c1ccc(-c2c3nc(c(-c4cc(S(=O)(=O)[O-])ccc4F)c4ccc([nH]4)c(-c4cc(S(=O)(=O)[O-])ccc4F)c4nc(c(-c5cc(S(=O)(=O)[O-])ccc5F)c5ccc2[nH]5)C=C4)C=C3)cc1)N1C(=O)/C(=C/c2ccc(C=O)cc2)SC1=S
REMARK SMILES IDX 15 1 14 2 13 3 12 4 11 5 10 6 9 7 7 8 8 9 6 10 5 11 4 12
REMARK SMILES IDX 2 13 1 14 3 17 87 18 88 19 101 20 89 21 90 22 100 23 102 24
REMARK SMILES IDX 91 25 92 26 93 27 99 28 94 29 98 30 95 31 96 32 97 33 16 34
REMARK SMILES IDX 17 35 18 36 19 37 20 38 21 39 22 40 23 41 24 42 25 43 86 44
REMARK SMILES IDX 26 45 85 46 27 47 28 48 29 49 79 50 30 51 84 52 78 53 80 54
REMARK SMILES IDX 31 55 83 56 77 57 76 58 32 60 64 61 44 62 63 63 45 64 48 65
REMARK SMILES IDX 62 66 81 67 46 68 47 69 61 71 82 72 49 73 33 74 34 75 42 76
REMARK SMILES IDX 35 77 41 78 43 79 40 80 36 81 37 82 38 83 39 84 65 85 66 86
REMARK SMILES IDX 74 87 67 88 73 89 75 90 72 91 68 92 69 93 70 94 71 95 50 96
REMARK SMILES IDX 51 97 59 98 52 99 58 100 60 101 57 102 53 103 54 104 55 105
REMARK SMILES IDX 56 106
REMARK H PARENT 1 15 1 16 80 59 48 70
REMARK Flexibility Score: inf
ROOT
ATOM      1  O   UNL A   1      50.487  21.090  34.298  1.00  0.00    -0.377 OA
ENDROOT
BRANCH   1   2
ATOM      2  C   UNL A   1      51.719  20.665  34.857  1.00  0.00     0.188 C 
BRANCH   2   3
ATOM      3  C   UNL A   1      51.669  19.518  35.878  1.00  0.00     0.188 C 
BRANCH   3   4
ATOM      4  O   UNL A   1      50.410  19.371  36.499  1.00  0.00    -0.376 OA
BRANCH   4   5
ATOM      5  C   UNL A   1      50.220  19.881  37.808  1.00  0.00     0.202 C 
BRANCH   5   6
ATOM      6  C   UNL A   1      50.360  21.382  38.139  1.00  0.00     0.261 C 
BRANCH   6   7
ATOM      7  O   UNL A   1      49.633  22.269  37.275  1.00  0.00    -0.462 OA
BRANCH   7   8
ATOM      8  C   UNL A   1      48.601  22.987  37.774  1.00  0.00     0.329 C 
ATOM      9  O   UNL A   1      48.723  23.977  38.485  1.00  0.00    -0.250 OA
BRANCH   8  10
ATOM     10  C   UNL A   1      47.226  22.407  37.349  1.00  0.00     0.202 C 
BRANCH  10  11
ATOM     11  C   UNL A   1      46.165  23.510  37.023  1.00  0.00     0.047 C 
BRANCH  11  12
ATOM     12  C   UNL A   1      44.980  23.187  36.110  1.00  0.00     0.102 C 
BRANCH  12  13
ATOM     13  C   UNL A   1      45.440  22.487  34.859  1.00  0.00     0.217 C 
ATOM     14  N   UNL A   1      46.293  23.194  34.070  1.00  0.00    -0.370 N 
ATOM     15  H   UNL A   1      46.635  22.797  33.237  1.00  0.00     0.159 HD
ATOM     16  H   UNL A   1      46.568  24.101  34.334  1.00  0.00     0.159 HD
ATOM     17  O   UNL A   1      45.138  21.330  34.590  1.00  0.00    -0.275 OA
ENDBRANCH  12  13
ENDBRANCH  11  12
ENDBRANCH  10  11
BRANCH  10  18
ATOM     18  N   UNL A   1      46.683  21.293  38.222  1.00  0.00    -0.278 N 
ATOM     19  C   UNL A   1      46.543  19.997  37.732  1.00  0.00     0.266 C 
ATOM     20  C   UNL A   1      46.069  21.492  39.452  1.00  0.00     0.149 C 
ATOM     21  O   UNL A   1      46.803  19.603  36.605  1.00  0.00    -0.268 OA
ATOM     22  C   UNL A   1      45.911  19.092  38.736  1.00  0.00     0.081 C 
ATOM     23  S   UNL A   1      45.607  19.956  40.176  1.00  0.00    -0.054 SA
ATOM     24  S   UNL A   1      45.679  22.902  40.254  1.00  0.00    -0.052 S 
ATOM     25  C   UNL A   1      45.573  17.820  38.465  1.00  0.00     0.029 C 
BRANCH  25  26
ATOM     26  C   UNL A   1      44.732  16.965  39.320  1.00  0.00    -0.024 A 
ATOM     27  C   UNL A   1      43.747  16.131  38.781  1.00  0.00     0.009 A 
ATOM     28  C   UNL A   1      44.886  17.027  40.714  1.00  0.00     0.009 A 
ATOM     29  C   UNL A   1      42.949  15.347  39.626  1.00  0.00     0.012 A 
ATOM     30  C   UNL A   1      44.098  16.244  41.560  1.00  0.00     0.012 A 
ATOM     31  C   UNL A   1      43.132  15.401  41.011  1.00  0.00     0.014 A 
BRANCH  31  32
ATOM     32  C   UNL A   1      42.309  14.576  41.918  1.00  0.00     0.260 C 
ATOM     33  O   UNL A   1      42.170  13.369  41.765  1.00  0.00    -0.298 OA
ENDBRANCH  31  32
ENDBRANCH  25  26
ENDBRANCH  10  18
ENDBRANCH   8  10
ENDBRANCH   7   8
ENDBRANCH   6   7
ENDBRANCH   5   6
ENDBRANCH   4   5
ENDBRANCH   3   4
ENDBRANCH   2   3
ENDBRANCH   1   2
BRANCH   1  34
ATOM     34  C   UNL A   1      50.389  22.411  33.758  1.00  0.00     0.188 C 
BRANCH  34  35
ATOM     35  C   UNL A   1      51.119  23.612  34.407  1.00  0.00     0.188 C 
BRANCH  35  36
ATOM     36  O   UNL A   1      50.349  24.358  35.338  1.00  0.00    -0.376 OA
BRANCH  36  37
ATOM     37  C   UNL A   1      50.728  25.707  35.572  1.00  0.00     0.202 C 
BRANCH  37  38
ATOM     38  C   UNL A   1      50.637  26.663  34.373  1.00  0.00     0.261 C 
BRANCH  38  39
ATOM     39  O   UNL A   1      49.406  27.391  34.240  1.00  0.00    -0.460 OA
BRANCH  39  40
ATOM     40  C   UNL A   1      48.516  27.299  35.252  1.00  0.00     0.338 C 
ATOM     41  O   UNL A   1      48.749  26.992  36.409  1.00  0.00    -0.246 OA
BRANCH  40  42
ATOM     42  C   UNL A   1      47.229  27.832  34.767  1.00  0.00     0.060 A 
ATOM     43  C   UNL A   1      46.083  27.032  34.851  1.00  0.00     0.016 A 
ATOM     44  C   UNL A   1      47.159  29.120  34.231  1.00  0.00     0.016 A 
ATOM     45  C   UNL A   1      44.866  27.505  34.363  1.00  0.00     0.010 A 
ATOM     46  C   UNL A   1      45.944  29.583  33.721  1.00  0.00     0.010 A 
ATOM     47  C   UNL A   1      44.800  28.764  33.754  1.00  0.00    -0.014 A 
BRANCH  47  48
ATOM     48  C   UNL A   1      43.603  29.133  32.960  1.00  0.00     0.031 A 
ATOM     49  C   UNL A   1      42.557  29.993  33.616  1.00  0.00     0.074 A 
ATOM     50  C   UNL A   1      43.458  28.740  31.682  1.00  0.00     0.049 A 
ATOM     51  N   UNL A   1      41.404  30.400  33.154  1.00  0.00    -0.248 NA
ATOM     52  C   UNL A   1      42.856  30.448  34.982  1.00  0.00     0.031 C 
ATOM     53  C   UNL A   1      44.430  27.955  30.925  1.00  0.00     0.029 A 
ATOM     54  N   UNL A   1      42.428  28.948  30.798  1.00  0.00    -0.354 N 
ATOM     55  C   UNL A   1      40.835  31.156  34.175  1.00  0.00     0.074 A 
ATOM     56  C   UNL A   1      41.755  31.114  35.292  1.00  0.00     0.031 C 
ATOM     57  C   UNL A   1      43.945  27.738  29.689  1.00  0.00     0.029 A 
ATOM     58  C   UNL A   1      42.611  28.330  29.584  1.00  0.00     0.049 A 
ATOM     59  H   UNL A   1      41.635  29.488  31.013  1.00  0.00     0.167 HD
ATOM     60  C   UNL A   1      39.659  31.828  34.176  1.00  0.00     0.034 A 
ATOM     61  C   UNL A   1      41.784  28.230  28.523  1.00  0.00     0.034 A 
ATOM     62  C   UNL A   1      38.746  31.844  33.060  1.00  0.00     0.049 A 
ATOM     63  C   UNL A   1      40.429  28.900  28.584  1.00  0.00     0.074 A 
ATOM     64  C   UNL A   1      37.532  32.497  32.949  1.00  0.00     0.029 A 
ATOM     65  N   UNL A   1      38.938  31.159  31.866  1.00  0.00    -0.354 N 
ATOM     66  N   UNL A   1      39.903  29.616  29.552  1.00  0.00    -0.248 NA
ATOM     67  C   UNL A   1      39.561  28.752  27.408  1.00  0.00     0.031 C 
ATOM     68  C   UNL A   1      36.953  32.140  31.726  1.00  0.00     0.029 A 
ATOM     69  C   UNL A   1      37.846  31.342  31.031  1.00  0.00     0.049 A 
ATOM     70  H   UNL A   1      39.733  30.622  31.645  1.00  0.00     0.167 HD
ATOM     71  C   UNL A   1      38.657  30.032  29.083  1.00  0.00     0.074 A 
ATOM     72  C   UNL A   1      38.519  29.498  27.745  1.00  0.00     0.031 C 
ATOM     73  C   UNL A   1      37.716  30.795  29.700  1.00  0.00     0.034 A 
BRANCH  60  74
ATOM     74  C   UNL A   1      39.274  32.547  35.447  1.00  0.00     0.023 A 
ATOM     75  C   UNL A   1      39.763  33.830  35.754  1.00  0.00     0.031 A 
ATOM     76  C   UNL A   1      38.435  31.923  36.388  1.00  0.00     0.131 A 
ATOM     77  C   UNL A   1      39.474  34.412  36.997  1.00  0.00     0.055 A 
ATOM     78  C   UNL A   1      38.079  32.545  37.586  1.00  0.00     0.041 A 
ATOM     79  F   UNL A   1      37.959  30.688  36.165  1.00  0.00    -0.206 F 
ATOM     80  C   UNL A   1      38.612  33.790  37.904  1.00  0.00     0.022 A 
BRANCH  77  81
ATOM     81  S   UNL A   1      40.364  35.917  37.478  1.00  0.00     0.124 S 
ATOM     82  O   UNL A   1      39.320  36.668  38.172  1.00  0.00    -0.237 OA
ATOM     83  O   UNL A   1      41.438  35.395  38.315  1.00  0.00    -0.237 OA
ATOM     84  O   UNL A   1      40.787  36.487  36.201  1.00  0.00    -0.744 OA
ENDBRANCH  77  81
ENDBRANCH  60  74
BRANCH  61  85
ATOM     85  C   UNL A   1      42.180  27.433  27.325  1.00  0.00     0.023 A 
ATOM     86  C   UNL A   1      42.055  26.035  27.304  1.00  0.00     0.031 A 
ATOM     87  C   UNL A   1      42.749  28.058  26.199  1.00  0.00     0.131 A 
ATOM     88  C   UNL A   1      42.533  25.304  26.204  1.00  0.00     0.055 A 
ATOM     89  C   UNL A   1      43.170  27.332  25.084  1.00  0.00     0.041 A 
ATOM     90  F   UNL A   1      42.898  29.392  26.166  1.00  0.00    -0.206 F 
ATOM     91  C   UNL A   1      43.075  25.945  25.087  1.00  0.00     0.022 A 
BRANCH  88  92
ATOM     92  S   UNL A   1      42.517  23.492  26.290  1.00  0.00     0.124 S 
ATOM     93  O   UNL A   1      43.663  23.227  27.151  1.00  0.00    -0.237 OA
ATOM     94  O   UNL A   1      41.203  23.230  26.869  1.00  0.00    -0.237 OA
ATOM     95  O   UNL A   1      42.673  23.084  24.896  1.00  0.00    -0.744 OA
ENDBRANCH  88  92
ENDBRANCH  61  85
BRANCH  73  96
ATOM     96  C   UNL A   1      36.476  31.141  28.908  1.00  0.00     0.023 A 
ATOM     97  C   UNL A   1      35.588  30.155  28.443  1.00  0.00     0.031 A 
ATOM     98  C   UNL A   1      36.181  32.485  28.612  1.00  0.00     0.131 A 
ATOM     99  C   UNL A   1      34.482  30.523  27.661  1.00  0.00     0.055 A 
ATOM    100  C   UNL A   1      35.042  32.850  27.893  1.00  0.00     0.041 A 
ATOM    101  F   UNL A   1      36.994  33.470  29.025  1.00  0.00    -0.206 F 
ATOM    102  C   UNL A   1      34.192  31.865  27.400  1.00  0.00     0.022 A 
BRANCH  99 103
ATOM    103  S   UNL A   1      33.480  29.217  26.898  1.00  0.00     0.124 S 
ATOM    104  O   UNL A   1      34.484  28.454  26.166  1.00  0.00    -0.237 OA
ATOM    105  O   UNL A   1      32.895  28.554  28.060  1.00  0.00    -0.237 OA
ATOM    106  O   UNL A   1      32.531  29.954  26.065  1.00  0.00    -0.744 OA
ENDBRANCH  99 103
ENDBRANCH  73  96
ENDBRANCH  47  48
ENDBRANCH  40  42
ENDBRANCH  39  40
ENDBRANCH  38  39
ENDBRANCH  37  38
ENDBRANCH  36  37
ENDBRANCH  35  36
ENDBRANCH  34  35
ENDBRANCH   1  34
TORSDOF 29
ENDMDL
MODEL 2
REMARK VINA RESULT:      -7.6      6.812     13.909
REMARK SMILES NC(=O)CC[C@@H](C(=O)OCCOCCOCCOCCOC(=O)c1ccc(-c2c3nc(c(-c4cc(S(=O)(=O)[O-])ccc4F)c4ccc([nH]4)c(-c4cc(S(=O)(=O)[O-])ccc4F)c4nc(c(-c5cc(S(=O)(=O)[O-])ccc5F)c5ccc2[nH]5)C=C4)C=C3)cc1)N1C(=O)/C(=C/c2ccc(C=O)cc2)SC1=S
REMARK SMILES IDX 15 1 14 2 13 3 12 4 11 5 10 6 9 7 7 8 8 9 6 10 5 11 4 12
REMARK SMILES IDX 2 13 1 14 3 17 87 18 88 19 101 20 89 21 90 22 100 23 102 24
REMARK SMILES IDX 91 25 92 26 93 27 99 28 94 29 98 30 95 31 96 32 97 33 16 34
REMARK SMILES IDX 17 35 18 36 19 37 20 38 21 39 22 40 23 41 24 42 25 43 86 44
REMARK SMILES IDX 26 45 85 46 27 47 28 48 29 49 79 50 30 51 84 52 78 53 80 54
REMARK SMILES IDX 31 55 83 56 77 57 76 58 32 60 64 61 44 62 63 63 45 64 48 65
REMARK SMILES IDX 62 66 81 67 46 68 47 69 61 71 82 72 49 73 33 74 34 75 42 76
REMARK SMILES IDX 35 77 41 78 43 79 40 80 36 81 37 82 38 83 39 84 65 85 66 86
REMARK SMILES IDX 74 87 67 88 73 89 75 90 72 91 68 92 69 93 70 94 71 95 50 96
REMARK SMILES IDX 51 97 59 98 52 99 58 100 60 101 57 102 53 103 54 104 55 105
REMARK SMILES IDX 56 106
REMARK H PARENT 1 15 1 16 80 59 48 70
REMARK Flexibility Score: inf
ROOT
ATOM      1  O   UNL A   1      42.021  34.334  33.410  1.00  0.00    -0.377 OA
ENDROOT
BRANCH   1   2
ATOM      2  C   UNL A   1      42.628  35.520  33.899  1.00  0.00     0.188 C 
BRANCH   2   3
ATOM      3  C   UNL A   1      42.166  36.029  35.274  1.00  0.00     0.188 C 
BRANCH   3   4
ATOM      4  O   UNL A   1      42.350  35.091  36.313  1.00  0.00    -0.376 OA
BRANCH   4   5
ATOM      5  C   UNL A   1      41.656  35.268  37.536  1.00  0.00     0.202 C 
BRANCH   5   6
ATOM      6  C   UNL A   1      40.189  35.745  37.594  1.00  0.00     0.261 C 
BRANCH   6   7
ATOM      7  O   UNL A   1      39.241  34.882  36.947  1.00  0.00    -0.462 OA
BRANCH   7   8
ATOM      8  C   UNL A   1      38.581  33.952  37.675  1.00  0.00     0.329 C 
ATOM      9  O   UNL A   1      38.999  33.462  38.718  1.00  0.00    -0.250 OA
BRANCH   8  10
ATOM     10  C   UNL A   1      37.225  33.562  37.033  1.00  0.00     0.202 C 
BRANCH  10  11
ATOM     11  C   UNL A   1      36.178  33.038  38.072  1.00  0.00     0.047 C 
BRANCH  11  12
ATOM     12  C   UNL A   1      36.628  32.655  39.485  1.00  0.00     0.102 C 
BRANCH  12  13
ATOM     13  C   UNL A   1      36.799  31.164  39.609  1.00  0.00     0.217 C 
ATOM     14  N   UNL A   1      37.683  30.752  40.557  1.00  0.00    -0.370 N 
ATOM     15  H   UNL A   1      37.845  29.790  40.694  1.00  0.00     0.159 HD
ATOM     16  H   UNL A   1      38.161  31.415  41.105  1.00  0.00     0.159 HD
ATOM     17  O   UNL A   1      36.140  30.358  38.963  1.00  0.00    -0.275 OA
ENDBRANCH  12  13
ENDBRANCH  11  12
ENDBRANCH  10  11
BRANCH  10  18
ATOM     18  N   UNL A   1      37.309  32.706  35.784  1.00  0.00    -0.278 N 
ATOM     19  C   UNL A   1      38.179  31.620  35.714  1.00  0.00     0.266 C 
ATOM     20  C   UNL A   1      36.746  33.047  34.562  1.00  0.00     0.149 C 
ATOM     21  O   UNL A   1      38.953  31.238  36.579  1.00  0.00    -0.268 OA
ATOM     22  C   UNL A   1      38.156  30.980  34.367  1.00  0.00     0.081 C 
ATOM     23  S   UNL A   1      37.028  31.785  33.368  1.00  0.00    -0.054 SA
ATOM     24  S   UNL A   1      35.944  34.430  34.086  1.00  0.00    -0.052 S 
ATOM     25  C   UNL A   1      38.982  29.980  34.016  1.00  0.00     0.029 C 
BRANCH  25  26
ATOM     26  C   UNL A   1      39.178  29.483  32.644  1.00  0.00    -0.024 A 
ATOM     27  C   UNL A   1      39.851  30.238  31.678  1.00  0.00     0.009 A 
ATOM     28  C   UNL A   1      38.630  28.242  32.281  1.00  0.00     0.009 A 
ATOM     29  C   UNL A   1      40.000  29.743  30.375  1.00  0.00     0.012 A 
ATOM     30  C   UNL A   1      38.781  27.741  30.986  1.00  0.00     0.012 A 
ATOM     31  C   UNL A   1      39.470  28.494  30.035  1.00  0.00     0.014 A 
BRANCH  31  32
ATOM     32  C   UNL A   1      39.625  27.949  28.672  1.00  0.00     0.260 C 
ATOM     33  O   UNL A   1      38.680  27.817  27.905  1.00  0.00    -0.298 OA
ENDBRANCH  31  32
ENDBRANCH  25  26
ENDBRANCH  10  18
ENDBRANCH   8  10
ENDBRANCH   7   8
ENDBRANCH   6   7
ENDBRANCH   5   6
ENDBRANCH   4   5
ENDBRANCH   3   4
ENDBRANCH   2   3
ENDBRANCH   1   2
BRANCH   1  34
ATOM     34  C   UNL A   1      42.842  33.190  33.155  1.00  0.00     0.188 C 
BRANCH  34  35
ATOM     35  C   UNL A   1      44.108  32.893  33.995  1.00  0.00     0.188 C 
BRANCH  35  36
ATOM     36  O   UNL A   1      43.887  32.138  35.177  1.00  0.00    -0.376 OA
BRANCH  36  37
ATOM     37  C   UNL A   1      42.659  31.432  35.286  1.00  0.00     0.202 C 
BRANCH  37  38
ATOM     38  C   UNL A   1      42.717  30.053  35.960  1.00  0.00     0.261 C 
BRANCH  38  39
ATOM     39  O   UNL A   1      41.628  29.164  35.667  1.00  0.00    -0.460 OA
BRANCH  39  40
ATOM     40  C   UNL A   1      41.902  27.842  35.603  1.00  0.00     0.338 C 
ATOM     41  O   UNL A   1      41.464  26.966  36.329  1.00  0.00    -0.246 OA
BRANCH  40  42
ATOM     42  C   UNL A   1      42.672  27.604  34.368  1.00  0.00     0.060 A 
ATOM     43  C   UNL A   1      43.911  26.955  34.450  1.00  0.00     0.016 A 
ATOM     44  C   UNL A   1      42.170  28.022  33.134  1.00  0.00     0.016 A 
ATOM     45  C   UNL A   1      44.670  26.755  33.299  1.00  0.00     0.010 A 
ATOM     46  C   UNL A   1      42.943  27.842  31.984  1.00  0.00     0.010 A 
ATOM     47  C   UNL A   1      44.212  27.239  32.068  1.00  0.00    -0.014 A 
BRANCH  47  48
ATOM     48  C   UNL A   1      45.142  27.313  30.916  1.00  0.00     0.031 A 
ATOM     49  C   UNL A   1      44.965  26.322  29.797  1.00  0.00     0.074 A 
ATOM     50  C   UNL A   1      46.104  28.251  30.847  1.00  0.00     0.049 A 
ATOM     51  N   UNL A   1      45.680  26.147  28.717  1.00  0.00    -0.248 NA
ATOM     52  C   UNL A   1      43.825  25.400  29.923  1.00  0.00     0.031 C 
ATOM     53  C   UNL A   1      46.334  29.297  31.840  1.00  0.00     0.029 A 
ATOM     54  N   UNL A   1      47.070  28.468  29.896  1.00  0.00    -0.354 N 
ATOM     55  C   UNL A   1      45.082  25.092  28.036  1.00  0.00     0.074 A 
ATOM     56  C   UNL A   1      43.970  24.643  28.847  1.00  0.00     0.031 C 
ATOM     57  C   UNL A   1      47.384  30.042  31.451  1.00  0.00     0.029 A 
ATOM     58  C   UNL A   1      47.926  29.498  30.207  1.00  0.00     0.049 A 
ATOM     59  H   UNL A   1      47.142  27.938  29.072  1.00  0.00     0.167 HD
ATOM     60  C   UNL A   1      45.424  24.553  26.840  1.00  0.00     0.034 A 
ATOM     61  C   UNL A   1      49.036  29.930  29.572  1.00  0.00     0.034 A 
ATOM     62  C   UNL A   1      46.546  25.002  26.054  1.00  0.00     0.049 A 
ATOM     63  C   UNL A   1      49.463  29.246  28.292  1.00  0.00     0.074 A 
ATOM     64  C   UNL A   1      46.979  24.533  24.826  1.00  0.00     0.029 A 
ATOM     65  N   UNL A   1      47.427  26.010  26.427  1.00  0.00    -0.354 N 
ATOM     66  N   UNL A   1      48.887  28.252  27.654  1.00  0.00    -0.248 NA
ATOM     67  C   UNL A   1      50.683  29.747  27.647  1.00  0.00     0.031 C 
ATOM     68  C   UNL A   1      48.166  25.199  24.498  1.00  0.00     0.029 A 
ATOM     69  C   UNL A   1      48.423  26.150  25.472  1.00  0.00     0.049 A 
ATOM     70  H   UNL A   1      47.354  26.547  27.249  1.00  0.00     0.167 HD
ATOM     71  C   UNL A   1      49.659  28.035  26.513  1.00  0.00     0.074 A 
ATOM     72  C   UNL A   1      50.730  29.009  26.547  1.00  0.00     0.031 C 
ATOM     73  C   UNL A   1      49.492  27.120  25.522  1.00  0.00     0.034 A 
BRANCH  60  74
ATOM     74  C   UNL A   1      44.607  23.382  26.350  1.00  0.00     0.023 A 
ATOM     75  C   UNL A   1      45.177  22.114  26.136  1.00  0.00     0.031 A 
ATOM     76  C   UNL A   1      43.242  23.546  26.053  1.00  0.00     0.131 A 
ATOM     77  C   UNL A   1      44.409  21.086  25.569  1.00  0.00     0.055 A 
ATOM     78  C   UNL A   1      42.460  22.493  25.572  1.00  0.00     0.041 A 
ATOM     79  F   UNL A   1      42.647  24.739  26.209  1.00  0.00    -0.206 F 
ATOM     80  C   UNL A   1      43.047  21.259  25.312  1.00  0.00     0.022 A 
BRANCH  77  81
ATOM     81  S   UNL A   1      45.249  19.573  25.028  1.00  0.00     0.124 S 
ATOM     82  O   UNL A   1      46.604  19.792  25.530  1.00  0.00    -0.237 OA
ATOM     83  O   UNL A   1      44.482  18.529  25.697  1.00  0.00    -0.237 OA
ATOM     84  O   UNL A   1      45.118  19.610  23.573  1.00  0.00    -0.744 OA
ENDBRANCH  77  81
ENDBRANCH  60  74
BRANCH  61  85
ATOM     85  C   UNL A   1      49.856  31.036  30.148  1.00  0.00     0.023 A 
ATOM     86  C   UNL A   1      49.636  32.374  29.782  1.00  0.00     0.031 A 
ATOM     87  C   UNL A   1      50.917  30.763  31.031  1.00  0.00     0.131 A 
ATOM     88  C   UNL A   1      50.491  33.381  30.259  1.00  0.00     0.055 A 
ATOM     89  C   UNL A   1      51.728  31.774  31.548  1.00  0.00     0.041 A 
ATOM     90  F   UNL A   1      51.176  29.502  31.410  1.00  0.00    -0.206 F 
ATOM     91  C   UNL A   1      51.526  33.092  31.153  1.00  0.00     0.022 A 
BRANCH  88  92
ATOM     92  S   UNL A   1      50.287  35.069  29.626  1.00  0.00     0.124 S 
ATOM     93  O   UNL A   1      51.641  35.388  29.191  1.00  0.00    -0.237 OA
ATOM     94  O   UNL A   1      49.301  34.876  28.568  1.00  0.00    -0.237 OA
ATOM     95  O   UNL A   1      49.811  35.813  30.790  1.00  0.00    -0.744 OA
ENDBRANCH  88  92
ENDBRANCH  61  85
BRANCH  73  96
ATOM     96  C   UNL A   1      50.464  27.166  24.365  1.00  0.00     0.023 A 
ATOM     97  C   UNL A   1      50.207  27.917  23.205  1.00  0.00     0.031 A 
ATOM     98  C   UNL A   1      51.668  26.440  24.426  1.00  0.00     0.131 A 
ATOM     99  C   UNL A   1      51.113  27.880  22.133  1.00  0.00     0.055 A 
ATOM    100  C   UNL A   1      52.598  26.463  23.385  1.00  0.00     0.041 A 
ATOM    101  F   UNL A   1      51.967  25.701  25.507  1.00  0.00    -0.206 F 
ATOM    102  C   UNL A   1      52.316  27.174  22.224  1.00  0.00     0.022 A 
BRANCH  99 103
ATOM    103  S   UNL A   1      50.652  28.683  20.573  1.00  0.00     0.124 S 
ATOM    104  O   UNL A   1      49.926  29.859  21.041  1.00  0.00    -0.237 OA
ATOM    105  O   UNL A   1      51.951  28.938  19.957  1.00  0.00    -0.237 OA
ATOM    106  O   UNL A   1      49.834  27.678  19.897  1.00  0.00    -0.744 OA
ENDBRANCH  99 103
ENDBRANCH  73  96
ENDBRANCH  47  48
ENDBRANCH  40  42
ENDBRANCH  39  40
ENDBRANCH  38  39
ENDBRANCH  37  38
ENDBRANCH  36  37
ENDBRANCH  35  36
ENDBRANCH  34  35
ENDBRANCH   1  34
TORSDOF 29
ENDMDL
MODEL 3
REMARK VINA RESULT:      -7.5      3.444      8.787
REMARK SMILES NC(=O)CC[C@@H](C(=O)OCCOCCOCCOCCOC(=O)c1ccc(-c2c3nc(c(-c4cc(S(=O)(=O)[O-])ccc4F)c4ccc([nH]4)c(-c4cc(S(=O)(=O)[O-])ccc4F)c4nc(c(-c5cc(S(=O)(=O)[O-])ccc5F)c5ccc2[nH]5)C=C4)C=C3)cc1)N1C(=O)/C(=C/c2ccc(C=O)cc2)SC1=S
REMARK SMILES IDX 15 1 14 2 13 3 12 4 11 5 10 6 9 7 7 8 8 9 6 10 5 11 4 12
REMARK SMILES IDX 2 13 1 14 3 17 87 18 88 19 101 20 89 21 90 22 100 23 102 24
REMARK SMILES IDX 91 25 92 26 93 27 99 28 94 29 98 30 95 31 96 32 97 33 16 34
REMARK SMILES IDX 17 35 18 36 19 37 20 38 21 39 22 40 23 41 24 42 25 43 86 44
REMARK SMILES IDX 26 45 85 46 27 47 28 48 29 49 79 50 30 51 84 52 78 53 80 54
REMARK SMILES IDX 31 55 83 56 77 57 76 58 32 60 64 61 44 62 63 63 45 64 48 65
REMARK SMILES IDX 62 66 81 67 46 68 47 69 61 71 82 72 49 73 33 74 34 75 42 76
REMARK SMILES IDX 35 77 41 78 43 79 40 80 36 81 37 82 38 83 39 84 65 85 66 86
REMARK SMILES IDX 74 87 67 88 73 89 75 90 72 91 68 92 69 93 70 94 71 95 50 96
REMARK SMILES IDX 51 97 59 98 52 99 58 100 60 101 57 102 53 103 54 104 55 105
REMARK SMILES IDX 56 106
REMARK H PARENT 1 15 1 16 80 59 48 70
REMARK Flexibility Score: inf
ROOT
ATOM      1  O   UNL A   1      55.197  24.787  33.717  1.00  0.00    -0.377 OA
ENDROOT
BRANCH   1   2
ATOM      2  C   UNL A   1      55.479  23.769  32.770  1.00  0.00     0.188 C 
BRANCH   2   3
ATOM      3  C   UNL A   1      54.482  22.603  32.676  1.00  0.00     0.188 C 
BRANCH   3   4
ATOM      4  O   UNL A   1      54.395  21.839  33.861  1.00  0.00    -0.376 OA
BRANCH   4   5
ATOM      5  C   UNL A   1      53.163  21.784  34.560  1.00  0.00     0.202 C 
BRANCH   5   6
ATOM      6  C   UNL A   1      51.864  22.401  33.998  1.00  0.00     0.261 C 
BRANCH   6   7
ATOM      7  O   UNL A   1      50.739  22.371  34.890  1.00  0.00    -0.462 OA
BRANCH   7   8
ATOM      8  C   UNL A   1      50.111  21.198  35.130  1.00  0.00     0.329 C 
ATOM      9  O   UNL A   1      50.356  20.147  34.549  1.00  0.00    -0.250 OA
BRANCH   8  10
ATOM     10  C   UNL A   1      49.026  21.331  36.231  1.00  0.00     0.202 C 
BRANCH  10  11
ATOM     11  C   UNL A   1      48.303  19.981  36.550  1.00  0.00     0.047 C 
BRANCH  11  12
ATOM     12  C   UNL A   1      47.872  19.664  37.985  1.00  0.00     0.102 C 
BRANCH  12  13
ATOM     13  C   UNL A   1      46.443  19.188  38.025  1.00  0.00     0.217 C 
ATOM     14  N   UNL A   1      45.833  19.059  36.816  1.00  0.00    -0.370 N 
ATOM     15  H   UNL A   1      44.899  18.753  36.767  1.00  0.00     0.159 HD
ATOM     16  H   UNL A   1      46.326  19.273  35.992  1.00  0.00     0.159 HD
ATOM     17  O   UNL A   1      45.875  18.860  39.060  1.00  0.00    -0.275 OA
ENDBRANCH  12  13
ENDBRANCH  11  12
ENDBRANCH  10  11
BRANCH  10  18
ATOM     18  N   UNL A   1      48.072  22.499  36.076  1.00  0.00    -0.278 N 
ATOM     19  C   UNL A   1      47.062  22.482  35.117  1.00  0.00     0.266 C 
ATOM     20  C   UNL A   1      48.253  23.742  36.670  1.00  0.00     0.149 C 
ATOM     21  O   UNL A   1      46.827  21.595  34.310  1.00  0.00    -0.268 OA
ATOM     22  C   UNL A   1      46.305  23.767  35.089  1.00  0.00     0.081 C 
ATOM     23  S   UNL A   1      46.917  24.821  36.284  1.00  0.00    -0.054 SA
ATOM     24  S   UNL A   1      49.514  24.330  37.589  1.00  0.00    -0.052 S 
ATOM     25  C   UNL A   1      45.352  24.036  34.180  1.00  0.00     0.029 C 
BRANCH  25  26
ATOM     26  C   UNL A   1      44.752  25.361  33.946  1.00  0.00    -0.024 A 
ATOM     27  C   UNL A   1      43.453  25.663  34.365  1.00  0.00     0.009 A 
ATOM     28  C   UNL A   1      45.483  26.328  33.238  1.00  0.00     0.009 A 
ATOM     29  C   UNL A   1      42.905  26.927  34.106  1.00  0.00     0.012 A 
ATOM     30  C   UNL A   1      44.945  27.591  32.983  1.00  0.00     0.012 A 
ATOM     31  C   UNL A   1      43.655  27.888  33.422  1.00  0.00     0.014 A 
BRANCH  31  32
ATOM     32  C   UNL A   1      43.101  29.229  33.148  1.00  0.00     0.260 C 
ATOM     33  O   UNL A   1      43.207  30.159  33.938  1.00  0.00    -0.298 OA
ENDBRANCH  31  32
ENDBRANCH  25  26
ENDBRANCH  10  18
ENDBRANCH   8  10
ENDBRANCH   7   8
ENDBRANCH   6   7
ENDBRANCH   5   6
ENDBRANCH   4   5
ENDBRANCH   3   4
ENDBRANCH   2   3
ENDBRANCH   1   2
BRANCH   1  34
ATOM     34  C   UNL A   1      55.344  26.156  33.327  1.00  0.00     0.188 C 
BRANCH  34  35
ATOM     35  C   UNL A   1      54.160  26.969  32.750  1.00  0.00     0.188 C 
BRANCH  35  36
ATOM     36  O   UNL A   1      54.328  28.379  32.768  1.00  0.00    -0.376 OA
BRANCH  36  37
ATOM     37  C   UNL A   1      54.125  29.079  31.549  1.00  0.00     0.202 C 
BRANCH  37  38
ATOM     38  C   UNL A   1      53.135  28.454  30.555  1.00  0.00     0.261 C 
BRANCH  38  39
ATOM     39  O   UNL A   1      51.786  28.945  30.619  1.00  0.00    -0.460 OA
BRANCH  39  40
ATOM     40  C   UNL A   1      50.994  28.730  29.546  1.00  0.00     0.338 C 
ATOM     41  O   UNL A   1      51.251  28.049  28.568  1.00  0.00    -0.246 OA
BRANCH  40  42
ATOM     42  C   UNL A   1      49.667  29.299  29.848  1.00  0.00     0.060 A 
ATOM     43  C   UNL A   1      48.977  28.857  30.984  1.00  0.00     0.016 A 
ATOM     44  C   UNL A   1      49.108  30.266  29.009  1.00  0.00     0.016 A 
ATOM     45  C   UNL A   1      47.706  29.355  31.265  1.00  0.00     0.010 A 
ATOM     46  C   UNL A   1      47.825  30.747  29.280  1.00  0.00     0.010 A 
ATOM     47  C   UNL A   1      47.105  30.267  30.389  1.00  0.00    -0.014 A 
BRANCH  47  48
ATOM     48  C   UNL A   1      45.654  30.551  30.508  1.00  0.00     0.031 A 
ATOM     49  C   UNL A   1      44.690  29.603  29.846  1.00  0.00     0.074 A 
ATOM     50  C   UNL A   1      45.199  31.606  31.206  1.00  0.00     0.049 A 
ATOM     51  N   UNL A   1      43.388  29.665  29.759  1.00  0.00    -0.248 NA
ATOM     52  C   UNL A   1      45.285  28.429  29.190  1.00  0.00     0.031 C 
ATOM     53  C   UNL A   1      46.032  32.559  31.936  1.00  0.00     0.029 A 
ATOM     54  N   UNL A   1      43.917  32.054  31.409  1.00  0.00    -0.354 N 
ATOM     55  C   UNL A   1      43.005  28.541  29.033  1.00  0.00     0.074 A 
ATOM     56  C   UNL A   1      44.219  27.840  28.672  1.00  0.00     0.031 C 
ATOM     57  C   UNL A   1      45.239  33.487  32.500  1.00  0.00     0.029 A 
ATOM     58  C   UNL A   1      43.849  33.219  32.136  1.00  0.00     0.049 A 
ATOM     59  H   UNL A   1      43.123  31.585  31.068  1.00  0.00     0.167 HD
ATOM     60  C   UNL A   1      41.756  28.129  28.706  1.00  0.00     0.034 A 
ATOM     61  C   UNL A   1      42.788  33.993  32.443  1.00  0.00     0.034 A 
ATOM     62  C   UNL A   1      40.559  28.850  29.060  1.00  0.00     0.049 A 
ATOM     63  C   UNL A   1      41.412  33.571  31.978  1.00  0.00     0.074 A 
ATOM     64  C   UNL A   1      39.243  28.521  28.788  1.00  0.00     0.029 A 
ATOM     65  N   UNL A   1      40.531  30.058  29.748  1.00  0.00    -0.354 N 
ATOM     66  N   UNL A   1      41.060  32.504  31.296  1.00  0.00    -0.248 NA
ATOM     67  C   UNL A   1      40.292  34.455  32.329  1.00  0.00     0.031 C 
ATOM     68  C   UNL A   1      38.429  29.568  29.234  1.00  0.00     0.029 A 
ATOM     69  C   UNL A   1      39.224  30.505  29.872  1.00  0.00     0.049 A 
ATOM     70  H   UNL A   1      41.324  30.527  30.095  1.00  0.00     0.167 HD
ATOM     71  C   UNL A   1      39.673  32.574  31.170  1.00  0.00     0.074 A 
ATOM     72  C   UNL A   1      39.255  33.778  31.856  1.00  0.00     0.031 C 
ATOM     73  C   UNL A   1      38.821  31.715  30.551  1.00  0.00     0.034 A 
BRANCH  60  74
ATOM     74  C   UNL A   1      41.637  26.873  27.876  1.00  0.00     0.023 A 
ATOM     75  C   UNL A   1      41.824  25.594  28.431  1.00  0.00     0.031 A 
ATOM     76  C   UNL A   1      41.371  26.958  26.498  1.00  0.00     0.131 A 
ATOM     77  C   UNL A   1      41.819  24.463  27.601  1.00  0.00     0.055 A 
ATOM     78  C   UNL A   1      41.280  25.821  25.693  1.00  0.00     0.041 A 
ATOM     79  F   UNL A   1      41.212  28.152  25.905  1.00  0.00    -0.206 F 
ATOM     80  C   UNL A   1      41.521  24.565  26.240  1.00  0.00     0.022 A 
BRANCH  77  81
ATOM     81  S   UNL A   1      42.363  22.877  28.294  1.00  0.00     0.124 S 
ATOM     82  O   UNL A   1      41.137  22.087  28.220  1.00  0.00    -0.237 OA
ATOM     83  O   UNL A   1      43.432  22.484  27.382  1.00  0.00    -0.237 OA
ATOM     84  O   UNL A   1      42.792  23.224  29.647  1.00  0.00    -0.744 OA
ENDBRANCH  77  81
ENDBRANCH  60  74
BRANCH  61  85
ATOM     85  C   UNL A   1      42.973  35.271  33.192  1.00  0.00     0.023 A 
ATOM     86  C   UNL A   1      43.415  36.438  32.547  1.00  0.00     0.031 A 
ATOM     87  C   UNL A   1      42.769  35.327  34.584  1.00  0.00     0.131 A 
ATOM     88  C   UNL A   1      43.680  37.595  33.297  1.00  0.00     0.055 A 
ATOM     89  C   UNL A   1      42.979  36.497  35.316  1.00  0.00     0.041 A 
ATOM     90  F   UNL A   1      42.353  34.241  35.253  1.00  0.00    -0.206 F 
ATOM     91  C   UNL A   1      43.450  37.638  34.674  1.00  0.00     0.022 A 
BRANCH  88  92
ATOM     92  S   UNL A   1      44.417  39.025  32.457  1.00  0.00     0.124 S 
ATOM     93  O   UNL A   1      45.811  38.615  32.344  1.00  0.00    -0.237 OA
ATOM     94  O   UNL A   1      43.656  39.068  31.213  1.00  0.00    -0.237 OA
ATOM     95  O   UNL A   1      44.161  40.129  33.379  1.00  0.00    -0.744 OA
ENDBRANCH  88  92
ENDBRANCH  61  85
BRANCH  73  96
ATOM     96  C   UNL A   1      37.343  32.023  30.635  1.00  0.00     0.023 A 
ATOM     97  C   UNL A   1      36.629  32.559  29.550  1.00  0.00     0.031 A 
ATOM     98  C   UNL A   1      36.640  31.775  31.829  1.00  0.00     0.131 A 
ATOM     99  C   UNL A   1      35.271  32.883  29.698  1.00  0.00     0.055 A 
ATOM    100  C   UNL A   1      35.273  32.034  31.948  1.00  0.00     0.041 A 
ATOM    101  F   UNL A   1      37.268  31.267  32.901  1.00  0.00    -0.206 F 
ATOM    102  C   UNL A   1      34.584  32.605  30.883  1.00  0.00     0.022 A 
BRANCH  99 103
ATOM    103  S   UNL A   1      34.435  33.771  28.355  1.00  0.00     0.124 S 
ATOM    104  O   UNL A   1      33.444  32.793  27.917  1.00  0.00    -0.237 OA
ATOM    105  O   UNL A   1      33.909  34.949  29.039  1.00  0.00    -0.237 OA
ATOM    106  O   UNL A   1      35.508  34.039  27.399  1.00  0.00    -0.744 OA
ENDBRANCH  99 103
ENDBRANCH  73  96
ENDBRANCH  47  48
ENDBRANCH  40  42
ENDBRANCH  39  40
ENDBRANCH  38  39
ENDBRANCH  37  38
ENDBRANCH  36  37
ENDBRANCH  35  36
ENDBRANCH  34  35
ENDBRANCH   1  34
TORSDOF 29
ENDMDL
