MODEL 1
REMARK VINA RESULT:      -9.3      0.000      0.000
REMARK SMILES CC1(C)CCN(S(=O)(=O)c2ccc(O)c(C(=O)OCCOCCOCCOCCOC(=O)c3ccc(-c4c5nc(c(-c6cc(S(=O)(=O)[O-])ccc6F)c6ccc([nH]6)c(-c6cc(S(=O)(=O)[O-])ccc6F)c6nc(c(-c7cc(S(=O)(=O)[O-])ccc7F)c7ccc4[nH]7)C=C6)C=C5)cc3)c2)C1
REMARK SMILES IDX 25 1 24 2 23 3 22 4 21 5 20 6 19 7 18 8 16 9 17 10 15 11
REMARK SMILES IDX 10 12 11 13 96 14 12 15 13 16 7 17 8 18 9 19 6 20 1 21 2 22
REMARK SMILES IDX 3 23 4 24 97 25 5 26 14 27 26 29 27 30 28 31 29 32 30 33
REMARK SMILES IDX 31 34 32 35 33 36 34 37 95 38 35 39 94 40 36 41 37 42 38 43
REMARK SMILES IDX 88 44 39 45 93 46 87 47 89 48 40 49 92 50 86 51 85 52 41 54
REMARK SMILES IDX 73 55 53 56 72 57 54 58 57 59 71 60 90 61 55 62 56 63 70 65
REMARK SMILES IDX 91 66 58 67 42 68 43 69 51 70 44 71 50 72 52 73 49 74 45 75
REMARK SMILES IDX 46 76 47 77 48 78 74 79 75 80 83 81 76 82 82 83 84 84 81 85
REMARK SMILES IDX 77 86 78 87 79 88 80 89 59 90 60 91 68 92 61 93 67 94 69 95
REMARK SMILES IDX 66 96 62 97 63 98 64 99 65 100
REMARK H PARENT 14 28 89 53 57 64
REMARK Flexibility Score: inf
ROOT
ATOM      1  C   UNL A   1      40.702  20.926  26.557  1.00  0.00     0.188 C 
ENDROOT
BRANCH   1   2
ATOM      2  O   UNL A   1      40.871  21.483  27.858  1.00  0.00    -0.377 OA
BRANCH   2   3
ATOM      3  C   UNL A   1      41.633  22.670  28.025  1.00  0.00     0.188 C 
BRANCH   3   4
ATOM      4  C   UNL A   1      41.184  23.978  27.338  1.00  0.00     0.188 C 
BRANCH   4   5
ATOM      5  O   UNL A   1      39.861  24.377  27.657  1.00  0.00    -0.376 OA
BRANCH   5   6
ATOM      6  C   UNL A   1      38.922  24.470  26.599  1.00  0.00     0.202 C 
BRANCH   6   7
ATOM      7  C   UNL A   1      38.099  23.216  26.280  1.00  0.00     0.261 C 
BRANCH   7   8
ATOM      8  O   UNL A   1      36.806  23.474  25.721  1.00  0.00    -0.460 OA
BRANCH   8   9
ATOM      9  C   UNL A   1      36.341  22.648  24.759  1.00  0.00     0.342 C 
ATOM     10  O   UNL A   1      36.979  22.156  23.844  1.00  0.00    -0.246 OA
BRANCH   9  11
ATOM     11  C   UNL A   1      34.976  22.222  25.158  1.00  0.00     0.103 A 
ATOM     12  C   UNL A   1      32.689  22.865  25.610  1.00  0.00     0.083 A 
ATOM     13  C   UNL A   1      32.293  21.522  25.560  1.00  0.00     0.025 A 
ATOM     14  C   UNL A   1      34.025  23.223  25.406  1.00  0.00     0.041 A 
ATOM     15  C   UNL A   1      33.245  20.525  25.351  1.00  0.00     0.048 A 
ATOM     16  C   UNL A   1      34.580  20.876  25.148  1.00  0.00     0.130 A 
BRANCH  12  17
ATOM     17  S   UNL A   1      31.452  24.123  25.829  1.00  0.00     0.243 S 
ATOM     18  O   UNL A   1      31.040  24.112  27.217  1.00  0.00    -0.207 OA
ATOM     19  O   UNL A   1      30.478  23.988  24.766  1.00  0.00    -0.207 OA
BRANCH  17  20
ATOM     20  N   UNL A   1      32.322  25.558  25.561  1.00  0.00    -0.197 NA
ATOM     21  C   UNL A   1      33.892  28.269  25.661  1.00  0.00     0.012 C 
ATOM     22  C   UNL A   1      32.410  27.936  25.896  1.00  0.00    -0.020 C 
ATOM     23  C   UNL A   1      31.750  29.073  26.677  1.00  0.00     0.012 C 
ATOM     24  C   UNL A   1      31.681  27.652  24.582  1.00  0.00     0.024 C 
ATOM     25  C   UNL A   1      32.249  26.596  26.624  1.00  0.00     0.109 C 
ATOM     26  C   UNL A   1      32.057  26.212  24.249  1.00  0.00     0.103 C 
ENDBRANCH  17  20
ENDBRANCH  12  17
BRANCH  16  27
ATOM     27  O   UNL A   1      35.494  19.882  24.945  1.00  0.00    -0.507 OA
ATOM     28  H   UNL A   1      35.885  19.772  24.100  1.00  0.00     0.293 HD
ENDBRANCH  16  27
ENDBRANCH   9  11
ENDBRANCH   8   9
ENDBRANCH   7   8
ENDBRANCH   6   7
ENDBRANCH   5   6
ENDBRANCH   4   5
ENDBRANCH   3   4
ENDBRANCH   2   3
ENDBRANCH   1   2
BRANCH   1  29
ATOM     29  C   UNL A   1      41.313  19.554  26.189  1.00  0.00     0.188 C 
BRANCH  29  30
ATOM     30  O   UNL A   1      42.323  19.600  25.192  1.00  0.00    -0.376 OA
BRANCH  30  31
ATOM     31  C   UNL A   1      43.664  19.624  25.650  1.00  0.00     0.202 C 
BRANCH  31  32
ATOM     32  C   UNL A   1      44.528  20.765  25.096  1.00  0.00     0.261 C 
BRANCH  32  33
ATOM     33  O   UNL A   1      44.099  22.093  25.434  1.00  0.00    -0.460 OA
BRANCH  33  34
ATOM     34  C   UNL A   1      44.659  23.116  24.749  1.00  0.00     0.338 C 
ATOM     35  O   UNL A   1      45.124  23.079  23.624  1.00  0.00    -0.246 OA
BRANCH  34  36
ATOM     36  C   UNL A   1      44.446  24.345  25.540  1.00  0.00     0.060 A 
ATOM     37  C   UNL A   1      43.871  25.466  24.927  1.00  0.00     0.016 A 
ATOM     38  C   UNL A   1      44.802  24.377  26.890  1.00  0.00     0.016 A 
ATOM     39  C   UNL A   1      43.675  26.636  25.664  1.00  0.00     0.010 A 
ATOM     40  C   UNL A   1      44.622  25.553  27.619  1.00  0.00     0.010 A 
ATOM     41  C   UNL A   1      44.086  26.698  27.002  1.00  0.00    -0.014 A 
BRANCH  41  42
ATOM     42  C   UNL A   1      44.147  28.004  27.704  1.00  0.00     0.031 A 
ATOM     43  C   UNL A   1      42.868  28.567  28.262  1.00  0.00     0.074 A 
ATOM     44  C   UNL A   1      45.304  28.674  27.846  1.00  0.00     0.049 A 
ATOM     45  N   UNL A   1      42.647  29.716  28.844  1.00  0.00    -0.248 NA
ATOM     46  C   UNL A   1      41.675  27.714  28.135  1.00  0.00     0.031 C 
ATOM     47  C   UNL A   1      46.611  28.209  27.389  1.00  0.00     0.029 A 
ATOM     48  N   UNL A   1      45.560  29.901  28.408  1.00  0.00    -0.354 N 
ATOM     49  C   UNL A   1      41.290  29.728  29.150  1.00  0.00     0.074 A 
ATOM     50  C   UNL A   1      40.734  28.490  28.650  1.00  0.00     0.031 C 
ATOM     51  C   UNL A   1      47.532  29.146  27.681  1.00  0.00     0.029 A 
ATOM     52  C   UNL A   1      46.874  30.294  28.304  1.00  0.00     0.049 A 
ATOM     53  H   UNL A   1      44.868  30.448  28.845  1.00  0.00     0.167 HD
ATOM     54  C   UNL A   1      40.576  30.682  29.797  1.00  0.00     0.034 A 
ATOM     55  C   UNL A   1      47.468  31.456  28.646  1.00  0.00     0.034 A 
ATOM     56  C   UNL A   1      41.143  31.920  30.272  1.00  0.00     0.049 A 
ATOM     57  C   UNL A   1      46.634  32.549  29.276  1.00  0.00     0.074 A 
ATOM     58  C   UNL A   1      40.515  32.952  30.946  1.00  0.00     0.029 A 
ATOM     59  N   UNL A   1      42.468  32.302  30.109  1.00  0.00    -0.354 N 
ATOM     60  N   UNL A   1      45.351  32.548  29.566  1.00  0.00    -0.248 NA
ATOM     61  C   UNL A   1      47.326  33.795  29.628  1.00  0.00     0.031 C 
ATOM     62  C   UNL A   1      41.438  33.989  31.117  1.00  0.00     0.029 A 
ATOM     63  C   UNL A   1      42.667  33.569  30.635  1.00  0.00     0.049 A 
ATOM     64  H   UNL A   1      43.165  31.753  29.681  1.00  0.00     0.167 HD
ATOM     65  C   UNL A   1      45.098  33.778  30.173  1.00  0.00     0.074 A 
ATOM     66  C   UNL A   1      46.358  34.488  30.210  1.00  0.00     0.031 C 
ATOM     67  C   UNL A   1      43.930  34.272  30.662  1.00  0.00     0.034 A 
BRANCH  54  68
ATOM     68  C   UNL A   1      39.095  30.440  29.969  1.00  0.00     0.023 A 
ATOM     69  C   UNL A   1      38.144  31.023  29.112  1.00  0.00     0.031 A 
ATOM     70  C   UNL A   1      38.626  29.646  31.029  1.00  0.00     0.131 A 
ATOM     71  C   UNL A   1      36.774  30.865  29.376  1.00  0.00     0.055 A 
ATOM     72  C   UNL A   1      37.263  29.423  31.236  1.00  0.00     0.041 A 
ATOM     73  F   UNL A   1      39.484  29.086  31.897  1.00  0.00    -0.206 F 
ATOM     74  C   UNL A   1      36.328  30.047  30.416  1.00  0.00     0.022 A 
BRANCH  71  75
ATOM     75  S   UNL A   1      35.590  31.868  28.438  1.00  0.00     0.124 S 
ATOM     76  O   UNL A   1      36.422  32.995  28.021  1.00  0.00    -0.237 OA
ATOM     77  O   UNL A   1      35.172  30.956  27.380  1.00  0.00    -0.237 OA
ATOM     78  O   UNL A   1      34.561  32.195  29.423  1.00  0.00    -0.744 OA
ENDBRANCH  71  75
ENDBRANCH  54  68
BRANCH  55  79
ATOM     79  C   UNL A   1      48.918  31.679  28.366  1.00  0.00     0.023 A 
ATOM     80  C   UNL A   1      49.341  32.374  27.222  1.00  0.00     0.031 A 
ATOM     81  C   UNL A   1      49.906  31.144  29.213  1.00  0.00     0.131 A 
ATOM     82  C   UNL A   1      50.710  32.473  26.929  1.00  0.00     0.055 A 
ATOM     83  C   UNL A   1      51.268  31.296  28.947  1.00  0.00     0.041 A 
ATOM     84  F   UNL A   1      49.559  30.465  30.318  1.00  0.00    -0.206 F 
ATOM     85  C   UNL A   1      51.677  31.954  27.792  1.00  0.00     0.022 A 
BRANCH  82  86
ATOM     86  S   UNL A   1      51.211  33.214  25.349  1.00  0.00     0.124 S 
ATOM     87  O   UNL A   1      50.081  34.091  25.063  1.00  0.00    -0.237 OA
ATOM     88  O   UNL A   1      52.462  33.874  25.708  1.00  0.00    -0.237 OA
ATOM     89  O   UNL A   1      51.349  32.062  24.461  1.00  0.00    -0.744 OA
ENDBRANCH  82  86
ENDBRANCH  55  79
BRANCH  67  90
ATOM     90  C   UNL A   1      43.975  35.623  31.336  1.00  0.00     0.023 A 
ATOM     91  C   UNL A   1      43.933  36.824  30.607  1.00  0.00     0.031 A 
ATOM     92  C   UNL A   1      44.055  35.706  32.739  1.00  0.00     0.131 A 
ATOM     93  C   UNL A   1      44.022  38.053  31.279  1.00  0.00     0.055 A 
ATOM     94  C   UNL A   1      44.079  36.931  33.405  1.00  0.00     0.041 A 
ATOM     95  F   UNL A   1      44.102  34.592  33.487  1.00  0.00    -0.206 F 
ATOM     96  C   UNL A   1      44.076  38.114  32.674  1.00  0.00     0.022 A 
BRANCH  93  97
ATOM     97  S   UNL A   1      44.162  39.575  30.301  1.00  0.00     0.124 S 
ATOM     98  O   UNL A   1      45.238  39.242  29.374  1.00  0.00    -0.237 OA
ATOM     99  O   UNL A   1      42.830  39.693  29.715  1.00  0.00    -0.237 OA
ATOM    100  O   UNL A   1      44.492  40.594  31.295  1.00  0.00    -0.744 OA
ENDBRANCH  93  97
ENDBRANCH  67  90
ENDBRANCH  41  42
ENDBRANCH  34  36
ENDBRANCH  33  34
ENDBRANCH  32  33
ENDBRANCH  31  32
ENDBRANCH  30  31
ENDBRANCH  29  30
ENDBRANCH   1  29
TORSDOF 26
ENDMDL
MODEL 2
REMARK VINA RESULT:      -8.7      3.198      4.656
REMARK SMILES CC1(C)CCN(S(=O)(=O)c2ccc(O)c(C(=O)OCCOCCOCCOCCOC(=O)c3ccc(-c4c5nc(c(-c6cc(S(=O)(=O)[O-])ccc6F)c6ccc([nH]6)c(-c6cc(S(=O)(=O)[O-])ccc6F)c6nc(c(-c7cc(S(=O)(=O)[O-])ccc7F)c7ccc4[nH]7)C=C6)C=C5)cc3)c2)C1
REMARK SMILES IDX 25 1 24 2 23 3 22 4 21 5 20 6 19 7 18 8 16 9 17 10 15 11
REMARK SMILES IDX 10 12 11 13 96 14 12 15 13 16 7 17 8 18 9 19 6 20 1 21 2 22
REMARK SMILES IDX 3 23 4 24 97 25 5 26 14 27 26 29 27 30 28 31 29 32 30 33
REMARK SMILES IDX 31 34 32 35 33 36 34 37 95 38 35 39 94 40 36 41 37 42 38 43
REMARK SMILES IDX 88 44 39 45 93 46 87 47 89 48 40 49 92 50 86 51 85 52 41 54
REMARK SMILES IDX 73 55 53 56 72 57 54 58 57 59 71 60 90 61 55 62 56 63 70 65
REMARK SMILES IDX 91 66 58 67 42 68 43 69 51 70 44 71 50 72 52 73 49 74 45 75
REMARK SMILES IDX 46 76 47 77 48 78 74 79 75 80 83 81 76 82 82 83 84 84 81 85
REMARK SMILES IDX 77 86 78 87 79 88 80 89 59 90 60 91 68 92 61 93 67 94 69 95
REMARK SMILES IDX 66 96 62 97 63 98 64 99 65 100
REMARK H PARENT 14 28 89 53 57 64
REMARK Flexibility Score: inf
ROOT
ATOM      1  C   UNL A   1      41.302  21.520  26.471  1.00  0.00     0.188 C 
ENDROOT
BRANCH   1   2
ATOM      2  O   UNL A   1      40.371  22.492  26.004  1.00  0.00    -0.377 OA
BRANCH   2   3
ATOM      3  C   UNL A   1      39.320  22.929  26.853  1.00  0.00     0.188 C 
BRANCH   3   4
ATOM      4  C   UNL A   1      38.320  23.996  26.357  1.00  0.00     0.188 C 
BRANCH   4   5
ATOM      5  O   UNL A   1      37.883  23.805  25.021  1.00  0.00    -0.376 OA
BRANCH   5   6
ATOM      6  C   UNL A   1      36.507  23.544  24.803  1.00  0.00     0.202 C 
BRANCH   6   7
ATOM      7  C   UNL A   1      35.658  23.186  26.029  1.00  0.00     0.261 C 
BRANCH   7   8
ATOM      8  O   UNL A   1      34.416  23.892  26.123  1.00  0.00    -0.460 OA
BRANCH   8   9
ATOM      9  C   UNL A   1      33.427  23.362  26.875  1.00  0.00     0.342 C 
ATOM     10  O   UNL A   1      33.546  22.544  27.771  1.00  0.00    -0.246 OA
BRANCH   9  11
ATOM     11  C   UNL A   1      32.195  24.145  26.608  1.00  0.00     0.103 A 
ATOM     12  C   UNL A   1      31.180  26.033  25.487  1.00  0.00     0.083 A 
ATOM     13  C   UNL A   1      29.906  25.509  25.743  1.00  0.00     0.025 A 
ATOM     14  C   UNL A   1      32.328  25.356  25.913  1.00  0.00     0.041 A 
ATOM     15  C   UNL A   1      29.774  24.325  26.467  1.00  0.00     0.048 A 
ATOM     16  C   UNL A   1      30.915  23.646  26.895  1.00  0.00     0.130 A 
BRANCH  12  17
ATOM     17  S   UNL A   1      31.327  27.517  24.521  1.00  0.00     0.243 S 
ATOM     18  O   UNL A   1      32.341  28.352  25.129  1.00  0.00    -0.207 OA
ATOM     19  O   UNL A   1      29.994  28.030  24.277  1.00  0.00    -0.207 OA
BRANCH  17  20
ATOM     20  N   UNL A   1      31.945  26.946  23.045  1.00  0.00    -0.197 NA
ATOM     21  C   UNL A   1      32.654  25.479  20.367  1.00  0.00     0.012 C 
ATOM     22  C   UNL A   1      32.818  25.062  21.837  1.00  0.00    -0.020 C 
ATOM     23  C   UNL A   1      32.984  23.543  21.919  1.00  0.00     0.012 C 
ATOM     24  C   UNL A   1      33.980  25.796  22.507  1.00  0.00     0.024 C 
ATOM     25  C   UNL A   1      31.633  25.536  22.686  1.00  0.00     0.109 C 
ATOM     26  C   UNL A   1      33.407  27.165  22.854  1.00  0.00     0.103 C 
ENDBRANCH  17  20
ENDBRANCH  12  17
BRANCH  16  27
ATOM     27  O   UNL A   1      30.762  22.488  27.602  1.00  0.00    -0.507 OA
ATOM     28  H   UNL A   1      31.494  21.919  27.733  1.00  0.00     0.293 HD
ENDBRANCH  16  27
ENDBRANCH   9  11
ENDBRANCH   8   9
ENDBRANCH   7   8
ENDBRANCH   6   7
ENDBRANCH   5   6
ENDBRANCH   4   5
ENDBRANCH   3   4
ENDBRANCH   2   3
ENDBRANCH   1   2
BRANCH   1  29
ATOM     29  C   UNL A   1      40.974  20.009  26.422  1.00  0.00     0.188 C 
BRANCH  29  30
ATOM     30  O   UNL A   1      41.737  19.265  25.483  1.00  0.00    -0.376 OA
BRANCH  30  31
ATOM     31  C   UNL A   1      42.666  18.336  26.014  1.00  0.00     0.202 C 
BRANCH  31  32
ATOM     32  C   UNL A   1      44.097  18.455  25.475  1.00  0.00     0.261 C 
BRANCH  32  33
ATOM     33  O   UNL A   1      44.718  19.740  25.631  1.00  0.00    -0.460 OA
BRANCH  33  34
ATOM     34  C   UNL A   1      44.919  20.468  24.509  1.00  0.00     0.338 C 
ATOM     35  O   UNL A   1      44.591  20.175  23.374  1.00  0.00    -0.246 OA
BRANCH  34  36
ATOM     36  C   UNL A   1      45.453  21.781  24.926  1.00  0.00     0.060 A 
ATOM     37  C   UNL A   1      45.550  22.082  26.291  1.00  0.00     0.016 A 
ATOM     38  C   UNL A   1      45.873  22.702  23.964  1.00  0.00     0.016 A 
ATOM     39  C   UNL A   1      46.044  23.324  26.695  1.00  0.00     0.010 A 
ATOM     40  C   UNL A   1      46.349  23.949  24.369  1.00  0.00     0.010 A 
ATOM     41  C   UNL A   1      46.408  24.278  25.735  1.00  0.00    -0.014 A 
BRANCH  41  42
ATOM     42  C   UNL A   1      46.660  25.684  26.139  1.00  0.00     0.031 A 
ATOM     43  C   UNL A   1      45.481  26.524  26.548  1.00  0.00     0.074 A 
ATOM     44  C   UNL A   1      47.900  26.204  26.146  1.00  0.00     0.049 A 
ATOM     45  N   UNL A   1      45.429  27.790  26.866  1.00  0.00    -0.248 NA
ATOM     46  C   UNL A   1      44.181  25.836  26.595  1.00  0.00     0.031 C 
ATOM     47  C   UNL A   1      49.123  25.476  25.816  1.00  0.00     0.029 A 
ATOM     48  N   UNL A   1      48.332  27.475  26.433  1.00  0.00    -0.354 N 
ATOM     49  C   UNL A   1      44.093  28.055  27.147  1.00  0.00     0.074 A 
ATOM     50  C   UNL A   1      43.364  26.826  26.919  1.00  0.00     0.031 C 
ATOM     51  C   UNL A   1      50.169  26.318  25.909  1.00  0.00     0.029 A 
ATOM     52  C   UNL A   1      49.685  27.652  26.262  1.00  0.00     0.049 A 
ATOM     53  H   UNL A   1      47.730  28.194  26.734  1.00  0.00     0.167 HD
ATOM     54  C   UNL A   1      43.527  29.214  27.563  1.00  0.00     0.034 A 
ATOM     55  C   UNL A   1      50.439  28.769  26.351  1.00  0.00     0.034 A 
ATOM     56  C   UNL A   1      44.267  30.436  27.767  1.00  0.00     0.049 A 
ATOM     57  C   UNL A   1      49.773  30.075  26.721  1.00  0.00     0.074 A 
ATOM     58  C   UNL A   1      43.799  31.665  28.195  1.00  0.00     0.029 A 
ATOM     59  N   UNL A   1      45.629  30.588  27.540  1.00  0.00    -0.354 N 
ATOM     60  N   UNL A   1      48.508  30.313  26.990  1.00  0.00    -0.248 NA
ATOM     61  C   UNL A   1      50.635  31.261  26.804  1.00  0.00     0.031 C 
ATOM     62  C   UNL A   1      44.857  32.577  28.148  1.00  0.00     0.029 A 
ATOM     63  C   UNL A   1      46.009  31.899  27.783  1.00  0.00     0.049 A 
ATOM     64  H   UNL A   1      46.236  29.869  27.248  1.00  0.00     0.167 HD
ATOM     65  C   UNL A   1      48.436  31.668  27.314  1.00  0.00     0.074 A 
ATOM     66  C   UNL A   1      49.782  32.190  27.212  1.00  0.00     0.031 C 
ATOM     67  C   UNL A   1      47.356  32.410  27.671  1.00  0.00     0.034 A 
BRANCH  54  68
ATOM     68  C   UNL A   1      42.031  29.221  27.766  1.00  0.00     0.023 A 
ATOM     69  C   UNL A   1      41.456  29.209  29.050  1.00  0.00     0.031 A 
ATOM     70  C   UNL A   1      41.166  29.200  26.658  1.00  0.00     0.131 A 
ATOM     71  C   UNL A   1      40.064  29.101  29.192  1.00  0.00     0.055 A 
ATOM     72  C   UNL A   1      39.778  29.178  26.808  1.00  0.00     0.041 A 
ATOM     73  F   UNL A   1      41.656  29.182  25.408  1.00  0.00    -0.206 F 
ATOM     74  C   UNL A   1      39.220  29.112  28.080  1.00  0.00     0.022 A 
BRANCH  71  75
ATOM     75  S   UNL A   1      39.385  28.787  30.844  1.00  0.00     0.124 S 
ATOM     76  O   UNL A   1      38.375  29.839  30.953  1.00  0.00    -0.237 OA
ATOM     77  O   UNL A   1      38.879  27.425  30.725  1.00  0.00    -0.237 OA
ATOM     78  O   UNL A   1      40.538  28.951  31.727  1.00  0.00    -0.744 OA
ENDBRANCH  71  75
ENDBRANCH  54  68
BRANCH  55  79
ATOM     79  C   UNL A   1      51.900  28.724  26.047  1.00  0.00     0.023 A 
ATOM     80  C   UNL A   1      52.850  28.535  27.063  1.00  0.00     0.031 A 
ATOM     81  C   UNL A   1      52.369  28.933  24.737  1.00  0.00     0.131 A 
ATOM     82  C   UNL A   1      54.220  28.607  26.762  1.00  0.00     0.055 A 
ATOM     83  C   UNL A   1      53.732  28.945  24.434  1.00  0.00     0.041 A 
ATOM     84  F   UNL A   1      51.506  29.125  23.727  1.00  0.00    -0.206 F 
ATOM     85  C   UNL A   1      54.668  28.794  25.453  1.00  0.00     0.022 A 
BRANCH  82  86
ATOM     86  S   UNL A   1      55.414  28.544  28.127  1.00  0.00     0.124 S 
ATOM     87  O   UNL A   1      54.984  29.669  28.949  1.00  0.00    -0.237 OA
ATOM     88  O   UNL A   1      55.173  27.214  28.679  1.00  0.00    -0.237 OA
ATOM     89  O   UNL A   1      56.703  28.714  27.459  1.00  0.00    -0.744 OA
ENDBRANCH  82  86
ENDBRANCH  55  79
BRANCH  67  90
ATOM     90  C   UNL A   1      47.597  33.856  28.039  1.00  0.00     0.023 A 
ATOM     91  C   UNL A   1      47.606  34.880  27.076  1.00  0.00     0.031 A 
ATOM     92  C   UNL A   1      47.816  34.212  29.382  1.00  0.00     0.131 A 
ATOM     93  C   UNL A   1      47.880  36.202  27.464  1.00  0.00     0.055 A 
ATOM     94  C   UNL A   1      48.023  35.536  29.770  1.00  0.00     0.041 A 
ATOM     95  F   UNL A   1      47.822  33.277  30.345  1.00  0.00    -0.206 F 
ATOM     96  C   UNL A   1      48.069  36.538  28.806  1.00  0.00     0.022 A 
BRANCH  93  97
ATOM     97  S   UNL A   1      48.078  37.466  26.177  1.00  0.00     0.124 S 
ATOM     98  O   UNL A   1      49.065  36.851  25.296  1.00  0.00    -0.237 OA
ATOM     99  O   UNL A   1      46.725  37.578  25.639  1.00  0.00    -0.237 OA
ATOM    100  O   UNL A   1      48.549  38.637  26.915  1.00  0.00    -0.744 OA
ENDBRANCH  93  97
ENDBRANCH  67  90
ENDBRANCH  41  42
ENDBRANCH  34  36
ENDBRANCH  33  34
ENDBRANCH  32  33
ENDBRANCH  31  32
ENDBRANCH  30  31
ENDBRANCH  29  30
ENDBRANCH   1  29
TORSDOF 26
ENDMDL
MODEL 3
REMARK VINA RESULT:      -8.4      2.343      7.857
REMARK SMILES CC1(C)CCN(S(=O)(=O)c2ccc(O)c(C(=O)OCCOCCOCCOCCOC(=O)c3ccc(-c4c5nc(c(-c6cc(S(=O)(=O)[O-])ccc6F)c6ccc([nH]6)c(-c6cc(S(=O)(=O)[O-])ccc6F)c6nc(c(-c7cc(S(=O)(=O)[O-])ccc7F)c7ccc4[nH]7)C=C6)C=C5)cc3)c2)C1
REMARK SMILES IDX 25 1 24 2 23 3 22 4 21 5 20 6 19 7 18 8 16 9 17 10 15 11
REMARK SMILES IDX 10 12 11 13 96 14 12 15 13 16 7 17 8 18 9 19 6 20 1 21 2 22
REMARK SMILES IDX 3 23 4 24 97 25 5 26 14 27 26 29 27 30 28 31 29 32 30 33
REMARK SMILES IDX 31 34 32 35 33 36 34 37 95 38 35 39 94 40 36 41 37 42 38 43
REMARK SMILES IDX 88 44 39 45 93 46 87 47 89 48 40 49 92 50 86 51 85 52 41 54
REMARK SMILES IDX 73 55 53 56 72 57 54 58 57 59 71 60 90 61 55 62 56 63 70 65
REMARK SMILES IDX 91 66 58 67 42 68 43 69 51 70 44 71 50 72 52 73 49 74 45 75
REMARK SMILES IDX 46 76 47 77 48 78 74 79 75 80 83 81 76 82 82 83 84 84 81 85
REMARK SMILES IDX 77 86 78 87 79 88 80 89 59 90 60 91 68 92 61 93 67 94 69 95
REMARK SMILES IDX 66 96 62 97 63 98 64 99 65 100
REMARK H PARENT 14 28 89 53 57 64
REMARK Flexibility Score: inf
ROOT
ATOM      1  C   UNL A   1      41.339  21.456  26.476  1.00  0.00     0.188 C 
ENDROOT
BRANCH   1   2
ATOM      2  O   UNL A   1      40.361  22.382  26.011  1.00  0.00    -0.377 OA
BRANCH   2   3
ATOM      3  C   UNL A   1      39.284  22.757  26.857  1.00  0.00     0.188 C 
BRANCH   3   4
ATOM      4  C   UNL A   1      38.285  23.842  26.399  1.00  0.00     0.188 C 
BRANCH   4   5
ATOM      5  O   UNL A   1      37.859  23.708  25.053  1.00  0.00    -0.376 OA
BRANCH   5   6
ATOM      6  C   UNL A   1      36.482  23.476  24.811  1.00  0.00     0.202 C 
BRANCH   6   7
ATOM      7  C   UNL A   1      35.608  23.118  26.020  1.00  0.00     0.261 C 
BRANCH   7   8
ATOM      8  O   UNL A   1      34.401  23.879  26.133  1.00  0.00    -0.460 OA
BRANCH   8   9
ATOM      9  C   UNL A   1      33.396  23.389  26.891  1.00  0.00     0.342 C 
ATOM     10  O   UNL A   1      33.490  22.582  27.799  1.00  0.00    -0.246 OA
BRANCH   9  11
ATOM     11  C   UNL A   1      32.187  24.204  26.610  1.00  0.00     0.103 A 
ATOM     12  C   UNL A   1      31.237  26.125  25.490  1.00  0.00     0.083 A 
ATOM     13  C   UNL A   1      29.947  25.630  25.719  1.00  0.00     0.025 A 
ATOM     14  C   UNL A   1      32.361  25.418  25.929  1.00  0.00     0.041 A 
ATOM     15  C   UNL A   1      29.775  24.442  26.428  1.00  0.00     0.048 A 
ATOM     16  C   UNL A   1      30.892  23.732  26.870  1.00  0.00     0.130 A 
BRANCH  12  17
ATOM     17  S   UNL A   1      31.436  27.615  24.541  1.00  0.00     0.243 S 
ATOM     18  O   UNL A   1      32.498  28.393  25.142  1.00  0.00    -0.207 OA
ATOM     19  O   UNL A   1      30.124  28.192  24.328  1.00  0.00    -0.207 OA
BRANCH  17  20
ATOM     20  N   UNL A   1      32.001  27.037  23.046  1.00  0.00    -0.197 NA
ATOM     21  C   UNL A   1      32.598  25.572  20.340  1.00  0.00     0.012 C 
ATOM     22  C   UNL A   1      32.777  25.134  21.802  1.00  0.00    -0.020 C 
ATOM     23  C   UNL A   1      32.887  23.609  21.866  1.00  0.00     0.012 C 
ATOM     24  C   UNL A   1      33.979  25.817  22.454  1.00  0.00     0.024 C 
ATOM     25  C   UNL A   1      31.629  25.643  22.681  1.00  0.00     0.109 C 
ATOM     26  C   UNL A   1      33.465  27.203  22.826  1.00  0.00     0.103 C 
ENDBRANCH  17  20
ENDBRANCH  12  17
BRANCH  16  27
ATOM     27  O   UNL A   1      30.699  22.572  27.563  1.00  0.00    -0.507 OA
ATOM     28  H   UNL A   1      30.958  21.754  27.187  1.00  0.00     0.293 HD
ENDBRANCH  16  27
ENDBRANCH   9  11
ENDBRANCH   8   9
ENDBRANCH   7   8
ENDBRANCH   6   7
ENDBRANCH   5   6
ENDBRANCH   4   5
ENDBRANCH   3   4
ENDBRANCH   2   3
ENDBRANCH   1   2
BRANCH   1  29
ATOM     29  C   UNL A   1      41.114  19.930  26.366  1.00  0.00     0.188 C 
BRANCH  29  30
ATOM     30  O   UNL A   1      41.920  19.278  25.395  1.00  0.00    -0.376 OA
BRANCH  30  31
ATOM     31  C   UNL A   1      42.959  18.450  25.888  1.00  0.00     0.202 C 
BRANCH  31  32
ATOM     32  C   UNL A   1      44.373  18.824  25.425  1.00  0.00     0.261 C 
BRANCH  32  33
ATOM     33  O   UNL A   1      44.785  20.171  25.705  1.00  0.00    -0.460 OA
BRANCH  33  34
ATOM     34  C   UNL A   1      44.783  21.044  24.672  1.00  0.00     0.338 C 
ATOM     35  O   UNL A   1      44.526  20.802  23.507  1.00  0.00    -0.246 OA
BRANCH  34  36
ATOM     36  C   UNL A   1      44.974  22.395  25.236  1.00  0.00     0.060 A 
ATOM     37  C   UNL A   1      45.187  22.542  26.613  1.00  0.00     0.016 A 
ATOM     38  C   UNL A   1      44.958  23.511  24.397  1.00  0.00     0.016 A 
ATOM     39  C   UNL A   1      45.359  23.816  27.158  1.00  0.00     0.010 A 
ATOM     40  C   UNL A   1      45.111  24.785  24.946  1.00  0.00     0.010 A 
ATOM     41  C   UNL A   1      45.282  24.946  26.332  1.00  0.00    -0.014 A 
BRANCH  41  42
ATOM     42  C   UNL A   1      45.177  26.300  26.930  1.00  0.00     0.031 A 
ATOM     43  C   UNL A   1      46.420  27.146  26.987  1.00  0.00     0.074 A 
ATOM     44  C   UNL A   1      44.012  26.770  27.409  1.00  0.00     0.049 A 
ATOM     45  N   UNL A   1      46.604  28.323  27.525  1.00  0.00    -0.248 NA
ATOM     46  C   UNL A   1      47.620  26.577  26.354  1.00  0.00     0.031 C 
ATOM     47  C   UNL A   1      42.734  26.063  27.368  1.00  0.00     0.029 A 
ATOM     48  N   UNL A   1      43.720  27.957  28.037  1.00  0.00    -0.354 N 
ATOM     49  C   UNL A   1      47.940  28.635  27.301  1.00  0.00     0.074 A 
ATOM     50  C   UNL A   1      48.528  27.504  26.616  1.00  0.00     0.031 C 
ATOM     51  C   UNL A   1      41.796  26.826  27.956  1.00  0.00     0.029 A 
ATOM     52  C   UNL A   1      42.413  28.055  28.454  1.00  0.00     0.049 A 
ATOM     53  H   UNL A   1      44.384  28.671  28.175  1.00  0.00     0.167 HD
ATOM     54  C   UNL A   1      48.614  29.765  27.630  1.00  0.00     0.034 A 
ATOM     55  C   UNL A   1      41.797  29.013  29.179  1.00  0.00     0.034 A 
ATOM     56  C   UNL A   1      48.017  30.875  28.331  1.00  0.00     0.049 A 
ATOM     57  C   UNL A   1      42.591  30.221  29.623  1.00  0.00     0.074 A 
ATOM     58  C   UNL A   1      48.602  32.071  28.707  1.00  0.00     0.029 A 
ATOM     59  N   UNL A   1      46.702  30.920  28.776  1.00  0.00    -0.354 N 
ATOM     60  N   UNL A   1      43.854  30.509  29.400  1.00  0.00    -0.248 NA
ATOM     61  C   UNL A   1      41.876  31.234  30.410  1.00  0.00     0.031 C 
ATOM     62  C   UNL A   1      47.668  32.801  29.449  1.00  0.00     0.029 A 
ATOM     63  C   UNL A   1      46.469  32.105  29.456  1.00  0.00     0.049 A 
ATOM     64  H   UNL A   1      46.033  30.212  28.631  1.00  0.00     0.167 HD
ATOM     65  C   UNL A   1      44.069  31.757  29.986  1.00  0.00     0.074 A 
ATOM     66  C   UNL A   1      42.806  32.165  30.564  1.00  0.00     0.031 C 
ATOM     67  C   UNL A   1      45.205  32.500  30.035  1.00  0.00     0.034 A 
BRANCH  54  68
ATOM     68  C   UNL A   1      50.083  29.821  27.285  1.00  0.00     0.023 A 
ATOM     69  C   UNL A   1      50.540  30.363  26.070  1.00  0.00     0.031 A 
ATOM     70  C   UNL A   1      51.038  29.288  28.167  1.00  0.00     0.131 A 
ATOM     71  C   UNL A   1      51.902  30.292  25.740  1.00  0.00     0.055 A 
ATOM     72  C   UNL A   1      52.402  29.297  27.870  1.00  0.00     0.041 A 
ATOM     73  F   UNL A   1      50.662  28.732  29.330  1.00  0.00    -0.206 F 
ATOM     74  C   UNL A   1      52.840  29.786  26.643  1.00  0.00     0.022 A 
BRANCH  71  75
ATOM     75  S   UNL A   1      52.408  30.724  24.053  1.00  0.00     0.124 S 
ATOM     76  O   UNL A   1      53.864  30.650  24.153  1.00  0.00    -0.237 OA
ATOM     77  O   UNL A   1      51.768  29.685  23.255  1.00  0.00    -0.237 OA
ATOM     78  O   UNL A   1      51.873  32.072  23.869  1.00  0.00    -0.744 OA
ENDBRANCH  71  75
ENDBRANCH  54  68
BRANCH  55  79
ATOM     79  C   UNL A   1      40.365  28.862  29.574  1.00  0.00     0.023 A 
ATOM     80  C   UNL A   1      39.335  29.434  28.812  1.00  0.00     0.031 A 
ATOM     81  C   UNL A   1      40.012  28.192  30.760  1.00  0.00     0.131 A 
ATOM     82  C   UNL A   1      38.008  29.368  29.267  1.00  0.00     0.055 A 
ATOM     83  C   UNL A   1      38.685  28.079  31.177  1.00  0.00     0.041 A 
ATOM     84  F   UNL A   1      40.957  27.631  31.531  1.00  0.00    -0.206 F 
ATOM     85  C   UNL A   1      37.674  28.681  30.435  1.00  0.00     0.022 A 
BRANCH  82  86
ATOM     86  S   UNL A   1      36.729  30.277  28.354  1.00  0.00     0.124 S 
ATOM     87  O   UNL A   1      37.168  31.657  28.525  1.00  0.00    -0.237 OA
ATOM     88  O   UNL A   1      36.864  29.721  27.010  1.00  0.00    -0.237 OA
ATOM     89  O   UNL A   1      35.495  29.921  29.051  1.00  0.00    -0.744 OA
ENDBRANCH  82  86
ENDBRANCH  55  79
BRANCH  67  90
ATOM     90  C   UNL A   1      45.118  33.862  30.684  1.00  0.00     0.023 A 
ATOM     91  C   UNL A   1      45.319  34.045  32.063  1.00  0.00     0.031 A 
ATOM     92  C   UNL A   1      44.833  34.996  29.902  1.00  0.00     0.131 A 
ATOM     93  C   UNL A   1      45.182  35.325  32.625  1.00  0.00     0.055 A 
ATOM     94  C   UNL A   1      44.763  36.275  30.456  1.00  0.00     0.041 A 
ATOM     95  F   UNL A   1      44.629  34.881  28.580  1.00  0.00    -0.206 F 
ATOM     96  C   UNL A   1      44.925  36.443  31.827  1.00  0.00     0.022 A 
BRANCH  93  97
ATOM     97  S   UNL A   1      45.254  35.499  34.430  1.00  0.00     0.124 S 
ATOM     98  O   UNL A   1      44.203  34.584  34.865  1.00  0.00    -0.237 OA
ATOM     99  O   UNL A   1      46.621  35.087  34.729  1.00  0.00    -0.237 OA
ATOM    100  O   UNL A   1      44.973  36.917  34.650  1.00  0.00    -0.744 OA
ENDBRANCH  93  97
ENDBRANCH  67  90
ENDBRANCH  41  42
ENDBRANCH  34  36
ENDBRANCH  33  34
ENDBRANCH  32  33
ENDBRANCH  31  32
ENDBRANCH  30  31
ENDBRANCH  29  30
ENDBRANCH   1  29
TORSDOF 26
ENDMDL
