MODEL 1
REMARK VINA RESULT:      -8.9      0.000      0.000
REMARK SMILES Cc1ccc(C(=O)N2CCCC[C@@H]2C(=O)OCCOCCOCCOCCOC(=O)c2ccc(-c3c4nc(c(-c5cc(S(=O)(=O)[O-])ccc5F)c5ccc([nH]5)c(-c5cc(S(=O)(=O)[O-])ccc5F)c5nc(c(-c6cc(S(=O)(=O)[O-])ccc6F)c6ccc3[nH]6)C=C5)C=C4)cc2)cc1S(=O)(=O)N1CCCCC1
REMARK SMILES IDX 21 1 20 2 19 3 18 4 17 5 16 6 14 7 15 8 13 9 8 10 9 11 10 12
REMARK SMILES IDX 12 13 11 14 6 15 7 16 5 17 1 18 2 19 3 20 95 21 4 22 94 23
REMARK SMILES IDX 96 24 97 25 98 26 99 27 100 28 104 29 101 30 103 31 102 32
REMARK SMILES IDX 22 33 23 34 24 35 25 36 26 37 27 38 28 39 29 40 30 41 31 42
REMARK SMILES IDX 32 43 93 44 33 45 92 46 34 47 35 48 36 49 86 50 37 51 91 52
REMARK SMILES IDX 85 53 87 54 38 55 90 56 84 57 83 58 39 60 71 61 51 62 70 63
REMARK SMILES IDX 52 64 55 65 69 66 88 67 53 68 54 69 68 71 89 72 56 73 40 74
REMARK SMILES IDX 41 75 49 76 42 77 48 78 50 79 47 80 43 81 44 82 45 83 46 84
REMARK SMILES IDX 72 85 73 86 81 87 74 88 80 89 82 90 79 91 75 92 76 93 77 94
REMARK SMILES IDX 78 95 57 96 58 97 66 98 59 99 65 100 67 101 64 102 60 103
REMARK SMILES IDX 61 104 62 105 63 106
REMARK H PARENT 87 59 55 70
REMARK Flexibility Score: inf
ROOT
ATOM      1  C   UNL A   1      37.416  29.242  31.038  1.00  0.00     0.188 C 
ENDROOT
BRANCH   1   2
ATOM      2  C   UNL A   1      37.014  29.790  32.429  1.00  0.00     0.188 C 
BRANCH   2   3
ATOM      3  O   UNL A   1      37.977  29.709  33.858  1.00  0.00    -0.376 OA
BRANCH   3   4
ATOM      4  C   UNL A   1      39.686  30.207  34.126  1.00  0.00     0.202 C 
BRANCH   4   5
ATOM      5  C   UNL A   1      40.574  30.630  35.745  1.00  0.00     0.261 C 
BRANCH   5   6
ATOM      6  O   UNL A   1      39.957  31.761  37.042  1.00  0.00    -0.462 OA
BRANCH   6   7
ATOM      7  C   UNL A   1      40.322  32.864  38.131  1.00  0.00     0.328 C 
ATOM      8  O   UNL A   1      40.855  32.651  39.240  1.00  0.00    -0.250 OA
BRANCH   7   9
ATOM      9  C   UNL A   1      40.315  34.445  37.727  1.00  0.00     0.195 C 
ATOM     10  N   UNL A   1      39.689  34.919  36.495  1.00  0.00    -0.325 N 
ATOM     11  C   UNL A   1      39.996  36.266  36.030  1.00  0.00     0.121 C 
ATOM     12  C   UNL A   1      41.446  36.362  35.645  1.00  0.00     0.022 C 
ATOM     13  C   UNL A   1      41.800  35.053  37.877  1.00  0.00     0.037 C 
ATOM     14  C   UNL A   1      42.296  36.130  36.878  1.00  0.00     0.005 C 
BRANCH  10  15
ATOM     15  C   UNL A   1      38.597  34.286  35.910  1.00  0.00     0.254 C 
ATOM     16  O   UNL A   1      37.657  33.973  36.642  1.00  0.00    -0.269 OA
BRANCH  15  17
ATOM     17  C   UNL A   1      38.822  33.727  34.505  1.00  0.00     0.041 A 
ATOM     18  C   UNL A   1      37.585  34.039  29.456  1.00  0.00     0.046 C 
ATOM     19  C   UNL A   1      37.800  33.798  30.911  1.00  0.00    -0.031 A 
ATOM     20  C   UNL A   1      39.366  34.132  31.426  1.00  0.00     0.005 A 
ATOM     21  C   UNL A   1      36.633  33.325  32.144  1.00  0.00     0.086 A 
ATOM     22  C   UNL A   1      39.866  34.077  33.084  1.00  0.00     0.014 A 
ATOM     23  C   UNL A   1      37.285  33.220  34.126  1.00  0.00     0.035 A 
BRANCH  21  24
ATOM     24  S   UNL A   1      34.872  32.985  31.298  1.00  0.00     0.243 S 
ATOM     25  O   UNL A   1      34.940  32.217  30.073  1.00  0.00    -0.207 OA
ATOM     26  O   UNL A   1      33.980  32.569  32.363  1.00  0.00    -0.207 OA
BRANCH  24  27
ATOM     27  N   UNL A   1      34.366  34.515  30.755  1.00  0.00    -0.198 NA
ATOM     28  C   UNL A   1      33.616  35.181  31.828  1.00  0.00     0.102 C 
ATOM     29  C   UNL A   1      33.915  34.643  29.358  1.00  0.00     0.102 C 
ATOM     30  C   UNL A   1      32.737  36.310  31.359  1.00  0.00     0.017 C 
ATOM     31  C   UNL A   1      33.270  35.974  28.990  1.00  0.00     0.017 C 
ATOM     32  C   UNL A   1      33.299  36.977  30.120  1.00  0.00     0.003 C 
ENDBRANCH  24  27
ENDBRANCH  21  24
ENDBRANCH  15  17
ENDBRANCH  10  15
ENDBRANCH   7   9
ENDBRANCH   6   7
ENDBRANCH   5   6
ENDBRANCH   4   5
ENDBRANCH   3   4
ENDBRANCH   2   3
ENDBRANCH   1   2
BRANCH   1  33
ATOM     33  O   UNL A   1      38.644  29.717  30.530  1.00  0.00    -0.377 OA
BRANCH  33  34
ATOM     34  C   UNL A   1      39.297  28.649  29.877  1.00  0.00     0.188 C 
BRANCH  34  35
ATOM     35  C   UNL A   1      38.601  28.292  28.571  1.00  0.00     0.188 C 
BRANCH  35  36
ATOM     36  O   UNL A   1      39.146  27.223  27.829  1.00  0.00    -0.376 OA
BRANCH  36  37
ATOM     37  C   UNL A   1      40.421  26.657  28.049  1.00  0.00     0.202 C 
BRANCH  37  38
ATOM     38  C   UNL A   1      41.258  27.118  26.884  1.00  0.00     0.261 C 
BRANCH  38  39
ATOM     39  O   UNL A   1      41.656  28.518  27.061  1.00  0.00    -0.460 OA
BRANCH  39  40
ATOM     40  C   UNL A   1      42.998  28.792  27.138  1.00  0.00     0.338 C 
ATOM     41  O   UNL A   1      43.808  28.504  26.269  1.00  0.00    -0.246 OA
BRANCH  40  42
ATOM     42  C   UNL A   1      43.370  29.354  28.493  1.00  0.00     0.060 A 
ATOM     43  C   UNL A   1      44.228  30.440  28.562  1.00  0.00     0.016 A 
ATOM     44  C   UNL A   1      43.223  28.580  29.641  1.00  0.00     0.016 A 
ATOM     45  C   UNL A   1      45.126  30.538  29.642  1.00  0.00     0.010 A 
ATOM     46  C   UNL A   1      44.253  28.572  30.598  1.00  0.00     0.010 A 
ATOM     47  C   UNL A   1      45.361  29.447  30.525  1.00  0.00    -0.014 A 
BRANCH  47  48
ATOM     48  C   UNL A   1      46.736  28.917  31.468  1.00  0.00     0.031 A 
ATOM     49  C   UNL A   1      47.487  28.016  30.157  1.00  0.00     0.074 A 
ATOM     50  C   UNL A   1      47.132  29.064  33.128  1.00  0.00     0.049 A 
ATOM     51  N   UNL A   1      48.566  27.282  30.184  1.00  0.00    -0.248 NA
ATOM     52  C   UNL A   1      46.885  27.848  28.813  1.00  0.00     0.031 C 
ATOM     53  C   UNL A   1      48.327  29.276  34.040  1.00  0.00     0.029 A 
ATOM     54  N   UNL A   1      46.417  28.652  34.404  1.00  0.00    -0.354 N 
ATOM     55  C   UNL A   1      49.074  27.155  28.928  1.00  0.00     0.074 A 
ATOM     56  C   UNL A   1      47.901  27.328  28.113  1.00  0.00     0.031 C 
ATOM     57  C   UNL A   1      48.427  28.469  35.115  1.00  0.00     0.029 A 
ATOM     58  C   UNL A   1      47.178  27.848  35.253  1.00  0.00     0.049 A 
ATOM     59  H   UNL A   1      45.496  28.929  34.614  1.00  0.00     0.167 HD
ATOM     60  C   UNL A   1      50.434  27.047  28.767  1.00  0.00     0.034 A 
ATOM     61  C   UNL A   1      46.902  26.948  36.227  1.00  0.00     0.034 A 
ATOM     62  C   UNL A   1      51.154  26.425  30.013  1.00  0.00     0.049 A 
ATOM     63  C   UNL A   1      47.901  25.690  36.142  1.00  0.00     0.074 A 
ATOM     64  C   UNL A   1      52.789  26.191  30.712  1.00  0.00     0.029 A 
ATOM     65  N   UNL A   1      50.019  25.421  31.094  1.00  0.00    -0.354 N 
ATOM     66  N   UNL A   1      48.784  25.538  35.170  1.00  0.00    -0.248 NA
ATOM     67  C   UNL A   1      48.041  24.536  37.030  1.00  0.00     0.031 C 
ATOM     68  C   UNL A   1      52.771  24.896  32.220  1.00  0.00     0.029 A 
ATOM     69  C   UNL A   1      51.009  24.420  32.553  1.00  0.00     0.049 A 
ATOM     70  H   UNL A   1      49.043  25.380  30.971  1.00  0.00     0.167 HD
ATOM     71  C   UNL A   1      49.535  24.302  35.154  1.00  0.00     0.074 A 
ATOM     72  C   UNL A   1      49.029  23.791  36.455  1.00  0.00     0.031 C 
ATOM     73  C   UNL A   1      50.404  23.724  34.075  1.00  0.00     0.034 A 
BRANCH  60  74
ATOM     74  C   UNL A   1      51.091  27.303  27.375  1.00  0.00     0.023 A 
ATOM     75  C   UNL A   1      52.046  28.326  27.224  1.00  0.00     0.031 A 
ATOM     76  C   UNL A   1      50.995  26.448  26.240  1.00  0.00     0.131 A 
ATOM     77  C   UNL A   1      53.046  28.239  26.220  1.00  0.00     0.055 A 
ATOM     78  C   UNL A   1      51.963  26.375  25.229  1.00  0.00     0.041 A 
ATOM     79  F   UNL A   1      49.952  25.646  26.013  1.00  0.00    -0.206 F 
ATOM     80  C   UNL A   1      53.036  27.234  25.256  1.00  0.00     0.022 A 
BRANCH  77  81
ATOM     81  S   UNL A   1      54.487  29.346  26.212  1.00  0.00     0.124 S 
ATOM     82  O   UNL A   1      54.498  29.881  24.856  1.00  0.00    -0.237 OA
ATOM     83  O   UNL A   1      54.172  30.265  27.301  1.00  0.00    -0.237 OA
ATOM     84  O   UNL A   1      55.589  28.427  26.509  1.00  0.00    -0.744 OA
ENDBRANCH  77  81
ENDBRANCH  60  74
BRANCH  61  85
ATOM     85  C   UNL A   1      45.546  27.348  36.818  1.00  0.00     0.023 A 
ATOM     86  C   UNL A   1      45.576  28.545  37.627  1.00  0.00     0.031 A 
ATOM     87  C   UNL A   1      44.351  27.159  36.100  1.00  0.00     0.131 A 
ATOM     88  C   UNL A   1      44.591  29.566  37.505  1.00  0.00     0.055 A 
ATOM     89  C   UNL A   1      43.359  28.172  36.004  1.00  0.00     0.041 A 
ATOM     90  F   UNL A   1      44.215  26.099  35.290  1.00  0.00    -0.206 F 
ATOM     91  C   UNL A   1      43.507  29.399  36.651  1.00  0.00     0.022 A 
BRANCH  88  92
ATOM     92  S   UNL A   1      44.901  31.228  38.223  1.00  0.00     0.124 S 
ATOM     93  O   UNL A   1      44.026  32.082  37.431  1.00  0.00    -0.237 OA
ATOM     94  O   UNL A   1      44.513  31.028  39.615  1.00  0.00    -0.237 OA
ATOM     95  O   UNL A   1      46.331  31.441  38.004  1.00  0.00    -0.744 OA
ENDBRANCH  88  92
ENDBRANCH  61  85
BRANCH  73  96
ATOM     96  C   UNL A   1      50.569  22.188  34.061  1.00  0.00     0.023 A 
ATOM     97  C   UNL A   1      51.796  21.561  34.314  1.00  0.00     0.031 A 
ATOM     98  C   UNL A   1      49.455  21.323  34.072  1.00  0.00     0.131 A 
ATOM     99  C   UNL A   1      51.899  20.177  34.520  1.00  0.00     0.055 A 
ATOM    100  C   UNL A   1      49.538  19.971  34.437  1.00  0.00     0.041 A 
ATOM    101  F   UNL A   1      48.223  21.755  33.783  1.00  0.00    -0.206 F 
ATOM    102  C   UNL A   1      50.771  19.384  34.661  1.00  0.00     0.022 A 
BRANCH  99 103
ATOM    103  S   UNL A   1      53.551  19.446  34.468  1.00  0.00     0.124 S 
ATOM    104  O   UNL A   1      53.569  18.664  35.702  1.00  0.00    -0.237 OA
ATOM    105  O   UNL A   1      53.515  18.674  33.231  1.00  0.00    -0.237 OA
ATOM    106  O   UNL A   1      54.438  20.607  34.458  1.00  0.00    -0.744 OA
ENDBRANCH  99 103
ENDBRANCH  73  96
ENDBRANCH  47  48
ENDBRANCH  40  42
ENDBRANCH  39  40
ENDBRANCH  38  39
ENDBRANCH  37  38
ENDBRANCH  36  37
ENDBRANCH  35  36
ENDBRANCH  34  35
ENDBRANCH  33  34
ENDBRANCH   1  33
TORSDOF 27
ENDMDL
MODEL 2
REMARK VINA RESULT:      -8.8      6.695     12.838
REMARK SMILES Cc1ccc(C(=O)N2CCCC[C@@H]2C(=O)OCCOCCOCCOCCOC(=O)c2ccc(-c3c4nc(c(-c5cc(S(=O)(=O)[O-])ccc5F)c5ccc([nH]5)c(-c5cc(S(=O)(=O)[O-])ccc5F)c5nc(c(-c6cc(S(=O)(=O)[O-])ccc6F)c6ccc3[nH]6)C=C5)C=C4)cc2)cc1S(=O)(=O)N1CCCCC1
REMARK SMILES IDX 21 1 20 2 19 3 18 4 17 5 16 6 14 7 15 8 13 9 8 10 9 11 10 12
REMARK SMILES IDX 12 13 11 14 6 15 7 16 5 17 1 18 2 19 3 20 95 21 4 22 94 23
REMARK SMILES IDX 96 24 97 25 98 26 99 27 100 28 104 29 101 30 103 31 102 32
REMARK SMILES IDX 22 33 23 34 24 35 25 36 26 37 27 38 28 39 29 40 30 41 31 42
REMARK SMILES IDX 32 43 93 44 33 45 92 46 34 47 35 48 36 49 86 50 37 51 91 52
REMARK SMILES IDX 85 53 87 54 38 55 90 56 84 57 83 58 39 60 71 61 51 62 70 63
REMARK SMILES IDX 52 64 55 65 69 66 88 67 53 68 54 69 68 71 89 72 56 73 40 74
REMARK SMILES IDX 41 75 49 76 42 77 48 78 50 79 47 80 43 81 44 82 45 83 46 84
REMARK SMILES IDX 72 85 73 86 81 87 74 88 80 89 82 90 79 91 75 92 76 93 77 94
REMARK SMILES IDX 78 95 57 96 58 97 66 98 59 99 65 100 67 101 64 102 60 103
REMARK SMILES IDX 61 104 62 105 63 106
REMARK H PARENT 87 59 55 70
REMARK Flexibility Score: inf
ROOT
ATOM      1  C   UNL A   1      42.208  37.292  28.685  1.00  0.00     0.188 C 
ENDROOT
BRANCH   1   2
ATOM      2  C   UNL A   1      41.959  35.764  28.658  1.00  0.00     0.188 C 
BRANCH   2   3
ATOM      3  O   UNL A   1      41.958  34.722  30.033  1.00  0.00    -0.376 OA
BRANCH   3   4
ATOM      4  C   UNL A   1      40.631  34.335  31.185  1.00  0.00     0.202 C 
BRANCH   4   5
ATOM      5  C   UNL A   1      40.725  33.556  32.910  1.00  0.00     0.261 C 
BRANCH   5   6
ATOM      6  O   UNL A   1      39.313  32.899  33.868  1.00  0.00    -0.462 OA
BRANCH   6   7
ATOM      7  C   UNL A   1      38.120  31.845  33.929  1.00  0.00     0.328 C 
ATOM      8  O   UNL A   1      38.091  30.812  34.630  1.00  0.00    -0.250 OA
BRANCH   7   9
ATOM      9  C   UNL A   1      36.664  32.221  33.297  1.00  0.00     0.195 C 
ATOM     10  N   UNL A   1      36.248  31.729  31.985  1.00  0.00    -0.325 N 
ATOM     11  C   UNL A   1      35.100  32.352  31.338  1.00  0.00     0.121 C 
ATOM     12  C   UNL A   1      35.411  33.784  30.999  1.00  0.00     0.022 C 
ATOM     13  C   UNL A   1      36.412  33.807  33.412  1.00  0.00     0.037 C 
ATOM     14  C   UNL A   1      35.649  34.551  32.284  1.00  0.00     0.005 C 
BRANCH  10  15
ATOM     15  C   UNL A   1      36.683  30.517  31.458  1.00  0.00     0.254 C 
ATOM     16  O   UNL A   1      36.658  29.530  32.196  1.00  0.00    -0.269 OA
BRANCH  15  17
ATOM     17  C   UNL A   1      37.477  30.601  30.155  1.00  0.00     0.041 A 
ATOM     18  C   UNL A   1      40.751  28.191  26.901  1.00  0.00     0.046 C 
ATOM     19  C   UNL A   1      39.981  28.972  27.909  1.00  0.00    -0.031 A 
ATOM     20  C   UNL A   1      38.423  29.363  27.413  1.00  0.00     0.005 A 
ATOM     21  C   UNL A   1      40.442  29.435  29.547  1.00  0.00     0.086 A 
ATOM     22  C   UNL A   1      37.256  30.143  28.430  1.00  0.00     0.014 A 
ATOM     23  C   UNL A   1      39.027  30.419  30.725  1.00  0.00     0.035 A 
BRANCH  21  24
ATOM     24  S   UNL A   1      42.312  28.873  29.895  1.00  0.00     0.243 S 
ATOM     25  O   UNL A   1      42.529  27.444  29.811  1.00  0.00    -0.207 OA
ATOM     26  O   UNL A   1      43.158  29.778  29.140  1.00  0.00    -0.207 OA
BRANCH  24  27
ATOM     27  N   UNL A   1      42.544  29.192  31.549  1.00  0.00    -0.198 NA
ATOM     28  C   UNL A   1      43.721  30.056  31.711  1.00  0.00     0.102 C 
ATOM     29  C   UNL A   1      42.299  28.101  32.509  1.00  0.00     0.102 C 
ATOM     30  C   UNL A   1      44.308  30.047  33.097  1.00  0.00     0.017 C 
ATOM     31  C   UNL A   1      42.730  28.374  33.945  1.00  0.00     0.017 C 
ATOM     32  C   UNL A   1      43.251  29.778  34.149  1.00  0.00     0.003 C 
ENDBRANCH  24  27
ENDBRANCH  21  24
ENDBRANCH  15  17
ENDBRANCH  10  15
ENDBRANCH   7   9
ENDBRANCH   6   7
ENDBRANCH   5   6
ENDBRANCH   4   5
ENDBRANCH   3   4
ENDBRANCH   2   3
ENDBRANCH   1   2
BRANCH   1  33
ATOM     33  O   UNL A   1      43.561  37.687  28.614  1.00  0.00    -0.377 OA
BRANCH  33  34
ATOM     34  C   UNL A   1      43.609  39.099  28.584  1.00  0.00     0.188 C 
BRANCH  34  35
ATOM     35  C   UNL A   1      45.005  39.610  28.914  1.00  0.00     0.188 C 
BRANCH  35  36
ATOM     36  O   UNL A   1      45.316  40.924  28.504  1.00  0.00    -0.376 OA
BRANCH  36  37
ATOM     37  C   UNL A   1      44.409  42.005  28.510  1.00  0.00     0.202 C 
BRANCH  37  38
ATOM     38  C   UNL A   1      44.832  42.863  29.675  1.00  0.00     0.261 C 
BRANCH  38  39
ATOM     39  O   UNL A   1      44.201  42.393  30.912  1.00  0.00    -0.460 OA
BRANCH  39  40
ATOM     40  C   UNL A   1      43.514  43.312  31.663  1.00  0.00     0.338 C 
ATOM     41  O   UNL A   1      42.784  44.173  31.193  1.00  0.00    -0.246 OA
BRANCH  40  42
ATOM     42  C   UNL A   1      43.891  43.223  33.126  1.00  0.00     0.060 A 
ATOM     43  C   UNL A   1      45.185  42.868  33.471  1.00  0.00     0.016 A 
ATOM     44  C   UNL A   1      42.906  43.077  34.099  1.00  0.00     0.016 A 
ATOM     45  C   UNL A   1      45.401  42.105  34.634  1.00  0.00     0.010 A 
ATOM     46  C   UNL A   1      43.102  42.149  35.137  1.00  0.00     0.010 A 
ATOM     47  C   UNL A   1      44.331  41.477  35.331  1.00  0.00    -0.014 A 
BRANCH  47  48
ATOM     48  C   UNL A   1      44.191  40.026  36.298  1.00  0.00     0.031 A 
ATOM     49  C   UNL A   1      43.904  38.955  34.932  1.00  0.00     0.074 A 
ATOM     50  C   UNL A   1      44.162  39.755  37.989  1.00  0.00     0.049 A 
ATOM     51  N   UNL A   1      43.640  37.676  34.938  1.00  0.00    -0.248 NA
ATOM     52  C   UNL A   1      43.776  39.414  33.529  1.00  0.00     0.031 C 
ATOM     53  C   UNL A   1      44.634  38.757  39.030  1.00  0.00     0.029 A 
ATOM     54  N   UNL A   1      43.280  40.283  39.108  1.00  0.00    -0.354 N 
ATOM     55  C   UNL A   1      43.952  37.130  33.731  1.00  0.00     0.074 A 
ATOM     56  C   UNL A   1      43.820  38.261  32.850  1.00  0.00     0.031 C 
ATOM     57  C   UNL A   1      43.738  38.376  39.962  1.00  0.00     0.029 A 
ATOM     58  C   UNL A   1      42.678  39.289  39.879  1.00  0.00     0.049 A 
ATOM     59  H   UNL A   1      43.144  41.243  39.274  1.00  0.00     0.167 HD
ATOM     60  C   UNL A   1      44.398  35.832  33.682  1.00  0.00     0.034 A 
ATOM     61  C   UNL A   1      41.575  39.216  40.662  1.00  0.00     0.034 A 
ATOM     62  C   UNL A   1      43.871  34.955  34.870  1.00  0.00     0.049 A 
ATOM     63  C   UNL A   1      40.826  37.805  40.465  1.00  0.00     0.074 A 
ATOM     64  C   UNL A   1      44.144  33.374  35.671  1.00  0.00     0.029 A 
ATOM     65  N   UNL A   1      42.329  35.636  35.661  1.00  0.00    -0.354 N 
ATOM     66  N   UNL A   1      41.204  36.911  39.568  1.00  0.00    -0.248 NA
ATOM     67  C   UNL A   1      39.666  37.250  41.160  1.00  0.00     0.031 C 
ATOM     68  C   UNL A   1      42.679  32.922  36.936  1.00  0.00     0.029 A 
ATOM     69  C   UNL A   1      41.521  34.368  37.021  1.00  0.00     0.049 A 
ATOM     70  H   UNL A   1      41.947  36.517  35.442  1.00  0.00     0.167 HD
ATOM     71  C   UNL A   1      40.369  35.739  39.419  1.00  0.00     0.074 A 
ATOM     72  C   UNL A   1      39.471  36.036  40.565  1.00  0.00     0.031 C 
ATOM     73  C   UNL A   1      40.375  34.690  38.345  1.00  0.00     0.034 A 
BRANCH  60  74
ATOM     74  C   UNL A   1      45.139  35.295  32.419  1.00  0.00     0.023 A 
ATOM     75  C   UNL A   1      46.200  36.030  31.858  1.00  0.00     0.031 A 
ATOM     76  C   UNL A   1      45.006  33.987  31.870  1.00  0.00     0.131 A 
ATOM     77  C   UNL A   1      47.229  35.375  31.133  1.00  0.00     0.055 A 
ATOM     78  C   UNL A   1      46.006  33.342  31.128  1.00  0.00     0.041 A 
ATOM     79  F   UNL A   1      43.897  33.252  31.987  1.00  0.00    -0.206 F 
ATOM     80  C   UNL A   1      47.159  34.021  30.814  1.00  0.00     0.022 A 
BRANCH  77  81
ATOM     81  S   UNL A   1      48.776  36.224  30.696  1.00  0.00     0.124 S 
ATOM     82  O   UNL A   1      48.351  37.594  30.436  1.00  0.00    -0.237 OA
ATOM     83  O   UNL A   1      49.601  35.982  31.876  1.00  0.00    -0.237 OA
ATOM     84  O   UNL A   1      49.209  35.489  29.505  1.00  0.00    -0.744 OA
ENDBRANCH  77  81
ENDBRANCH  60  74
BRANCH  61  85
ATOM     85  C   UNL A   1      41.315  40.634  41.182  1.00  0.00     0.023 A 
ATOM     86  C   UNL A   1      42.442  41.240  41.855  1.00  0.00     0.031 A 
ATOM     87  C   UNL A   1      40.507  41.538  40.468  1.00  0.00     0.131 A 
ATOM     88  C   UNL A   1      42.839  42.584  41.605  1.00  0.00     0.055 A 
ATOM     89  C   UNL A   1      40.897  42.886  40.244  1.00  0.00     0.041 A 
ATOM     90  F   UNL A   1      39.448  41.091  39.777  1.00  0.00    -0.206 F 
ATOM     91  C   UNL A   1      42.093  43.392  40.755  1.00  0.00     0.022 A 
BRANCH  88  92
ATOM     92  S   UNL A   1      44.498  43.162  42.142  1.00  0.00     0.124 S 
ATOM     93  O   UNL A   1      44.984  42.038  42.931  1.00  0.00    -0.237 OA
ATOM     94  O   UNL A   1      45.164  43.383  40.863  1.00  0.00    -0.237 OA
ATOM     95  O   UNL A   1      44.213  44.374  42.909  1.00  0.00    -0.744 OA
ENDBRANCH  88  92
ENDBRANCH  61  85
BRANCH  73  96
ATOM     96  C   UNL A   1      39.048  33.943  38.094  1.00  0.00     0.023 A 
ATOM     97  C   UNL A   1      38.408  33.191  39.089  1.00  0.00     0.031 A 
ATOM     98  C   UNL A   1      38.259  34.194  36.952  1.00  0.00     0.131 A 
ATOM     99  C   UNL A   1      37.104  32.699  38.931  1.00  0.00     0.055 A 
ATOM    100  C   UNL A   1      36.904  33.843  36.863  1.00  0.00     0.041 A 
ATOM    101  F   UNL A   1      38.745  34.841  35.888  1.00  0.00    -0.206 F 
ATOM    102  C   UNL A   1      36.314  33.084  37.858  1.00  0.00     0.022 A 
BRANCH  99 103
ATOM    103  S   UNL A   1      36.534  31.451  40.106  1.00  0.00     0.124 S 
ATOM    104  O   UNL A   1      37.790  30.818  40.501  1.00  0.00    -0.237 OA
ATOM    105  O   UNL A   1      35.883  32.259  41.132  1.00  0.00    -0.237 OA
ATOM    106  O   UNL A   1      35.643  30.612  39.308  1.00  0.00    -0.744 OA
ENDBRANCH  99 103
ENDBRANCH  73  96
ENDBRANCH  47  48
ENDBRANCH  40  42
ENDBRANCH  39  40
ENDBRANCH  38  39
ENDBRANCH  37  38
ENDBRANCH  36  37
ENDBRANCH  35  36
ENDBRANCH  34  35
ENDBRANCH  33  34
ENDBRANCH   1  33
TORSDOF 27
ENDMDL
MODEL 3
REMARK VINA RESULT:      -8.6      5.083     10.243
REMARK SMILES Cc1ccc(C(=O)N2CCCC[C@@H]2C(=O)OCCOCCOCCOCCOC(=O)c2ccc(-c3c4nc(c(-c5cc(S(=O)(=O)[O-])ccc5F)c5ccc([nH]5)c(-c5cc(S(=O)(=O)[O-])ccc5F)c5nc(c(-c6cc(S(=O)(=O)[O-])ccc6F)c6ccc3[nH]6)C=C5)C=C4)cc2)cc1S(=O)(=O)N1CCCCC1
REMARK SMILES IDX 21 1 20 2 19 3 18 4 17 5 16 6 14 7 15 8 13 9 8 10 9 11 10 12
REMARK SMILES IDX 12 13 11 14 6 15 7 16 5 17 1 18 2 19 3 20 95 21 4 22 94 23
REMARK SMILES IDX 96 24 97 25 98 26 99 27 100 28 104 29 101 30 103 31 102 32
REMARK SMILES IDX 22 33 23 34 24 35 25 36 26 37 27 38 28 39 29 40 30 41 31 42
REMARK SMILES IDX 32 43 93 44 33 45 92 46 34 47 35 48 36 49 86 50 37 51 91 52
REMARK SMILES IDX 85 53 87 54 38 55 90 56 84 57 83 58 39 60 71 61 51 62 70 63
REMARK SMILES IDX 52 64 55 65 69 66 88 67 53 68 54 69 68 71 89 72 56 73 40 74
REMARK SMILES IDX 41 75 49 76 42 77 48 78 50 79 47 80 43 81 44 82 45 83 46 84
REMARK SMILES IDX 72 85 73 86 81 87 74 88 80 89 82 90 79 91 75 92 76 93 77 94
REMARK SMILES IDX 78 95 57 96 58 97 66 98 59 99 65 100 67 101 64 102 60 103
REMARK SMILES IDX 61 104 62 105 63 106
REMARK H PARENT 87 59 55 70
REMARK Flexibility Score: inf
ROOT
ATOM      1  C   UNL A   1      37.281  29.091  30.318  1.00  0.00     0.188 C 
ENDROOT
BRANCH   1   2
ATOM      2  C   UNL A   1      37.029  29.659  31.736  1.00  0.00     0.188 C 
BRANCH   2   3
ATOM      3  O   UNL A   1      37.983  29.327  33.135  1.00  0.00    -0.376 OA
BRANCH   3   4
ATOM      4  C   UNL A   1      39.751  29.535  33.401  1.00  0.00     0.202 C 
BRANCH   4   5
ATOM      5  C   UNL A   1      40.679  30.036  34.975  1.00  0.00     0.261 C 
BRANCH   5   6
ATOM      6  O   UNL A   1      40.330  31.508  36.001  1.00  0.00    -0.462 OA
BRANCH   6   7
ATOM      7  C   UNL A   1      40.805  32.434  37.207  1.00  0.00     0.328 C 
ATOM      8  O   UNL A   1      41.413  32.052  38.229  1.00  0.00    -0.250 OA
BRANCH   7   9
ATOM      9  C   UNL A   1      40.811  34.057  37.039  1.00  0.00     0.195 C 
ATOM     10  N   UNL A   1      40.032  34.723  35.997  1.00  0.00    -0.325 N 
ATOM     11  C   UNL A   1      40.327  36.116  35.688  1.00  0.00     0.121 C 
ATOM     12  C   UNL A   1      41.707  36.234  35.102  1.00  0.00     0.022 C 
ATOM     13  C   UNL A   1      42.328  34.600  37.044  1.00  0.00     0.037 C 
ATOM     14  C   UNL A   1      42.719  35.801  36.144  1.00  0.00     0.005 C 
BRANCH  10  15
ATOM     15  C   UNL A   1      38.836  34.210  35.503  1.00  0.00     0.254 C 
ATOM     16  O   UNL A   1      37.902  34.071  36.295  1.00  0.00    -0.269 OA
BRANCH  15  17
ATOM     17  C   UNL A   1      38.913  33.541  34.131  1.00  0.00     0.041 A 
ATOM     18  C   UNL A   1      37.362  33.635  29.161  1.00  0.00     0.046 C 
ATOM     19  C   UNL A   1      37.655  33.471  30.613  1.00  0.00    -0.031 A 
ATOM     20  C   UNL A   1      39.275  33.690  31.003  1.00  0.00     0.005 A 
ATOM     21  C   UNL A   1      36.538  33.191  31.948  1.00  0.00     0.086 A 
ATOM     22  C   UNL A   1      39.883  33.698  32.625  1.00  0.00     0.014 A 
ATOM     23  C   UNL A   1      37.314  33.156  33.887  1.00  0.00     0.035 A 
BRANCH  21  24
ATOM     24  S   UNL A   1      34.700  32.962  31.241  1.00  0.00     0.243 S 
ATOM     25  O   UNL A   1      34.622  32.169  30.032  1.00  0.00    -0.207 OA
ATOM     26  O   UNL A   1      33.863  32.631  32.378  1.00  0.00    -0.207 OA
BRANCH  24  27
ATOM     27  N   UNL A   1      34.262  34.515  30.701  1.00  0.00    -0.198 NA
ATOM     28  C   UNL A   1      33.604  35.237  31.797  1.00  0.00     0.102 C 
ATOM     29  C   UNL A   1      33.756  34.655  29.324  1.00  0.00     0.102 C 
ATOM     30  C   UNL A   1      32.774  36.411  31.353  1.00  0.00     0.017 C 
ATOM     31  C   UNL A   1      33.177  36.018  28.967  1.00  0.00     0.017 C 
ATOM     32  C   UNL A   1      33.319  37.030  30.082  1.00  0.00     0.003 C 
ENDBRANCH  24  27
ENDBRANCH  21  24
ENDBRANCH  15  17
ENDBRANCH  10  15
ENDBRANCH   7   9
ENDBRANCH   6   7
ENDBRANCH   5   6
ENDBRANCH   4   5
ENDBRANCH   3   4
ENDBRANCH   2   3
ENDBRANCH   1   2
BRANCH   1  33
ATOM     33  O   UNL A   1      38.350  29.679  29.609  1.00  0.00    -0.377 OA
BRANCH  33  34
ATOM     34  C   UNL A   1      39.477  28.836  29.725  1.00  0.00     0.188 C 
BRANCH  34  35
ATOM     35  C   UNL A   1      39.430  27.710  28.702  1.00  0.00     0.188 C 
BRANCH  35  36
ATOM     36  O   UNL A   1      40.494  26.782  28.726  1.00  0.00    -0.376 OA
BRANCH  36  37
ATOM     37  C   UNL A   1      41.764  27.028  29.289  1.00  0.00     0.202 C 
BRANCH  37  38
ATOM     38  C   UNL A   1      42.604  27.541  28.148  1.00  0.00     0.261 C 
BRANCH  38  39
ATOM     39  O   UNL A   1      42.577  29.006  28.110  1.00  0.00    -0.460 OA
BRANCH  39  40
ATOM     40  C   UNL A   1      43.634  29.646  27.514  1.00  0.00     0.338 C 
ATOM     41  O   UNL A   1      43.605  30.107  26.381  1.00  0.00    -0.246 OA
BRANCH  40  42
ATOM     42  C   UNL A   1      44.878  29.574  28.371  1.00  0.00     0.060 A 
ATOM     43  C   UNL A   1      45.033  30.471  29.415  1.00  0.00     0.016 A 
ATOM     44  C   UNL A   1      46.023  28.939  27.898  1.00  0.00     0.016 A 
ATOM     45  C   UNL A   1      46.323  30.932  29.740  1.00  0.00     0.010 A 
ATOM     46  C   UNL A   1      47.274  29.553  28.087  1.00  0.00     0.010 A 
ATOM     47  C   UNL A   1      47.438  30.708  28.885  1.00  0.00    -0.014 A 
BRANCH  47  48
ATOM     48  C   UNL A   1      48.915  31.585  28.554  1.00  0.00     0.031 A 
ATOM     49  C   UNL A   1      48.194  32.660  27.363  1.00  0.00     0.074 A 
ATOM     50  C   UNL A   1      50.535  31.367  29.066  1.00  0.00     0.049 A 
ATOM     51  N   UNL A   1      48.773  33.573  26.631  1.00  0.00    -0.248 NA
ATOM     52  C   UNL A   1      46.787  32.571  26.907  1.00  0.00     0.031 C 
ATOM     53  C   UNL A   1      51.765  32.167  29.454  1.00  0.00     0.029 A 
ATOM     54  N   UNL A   1      51.504  30.201  28.970  1.00  0.00    -0.354 N 
ATOM     55  C   UNL A   1      47.854  34.485  26.211  1.00  0.00     0.074 A 
ATOM     56  C   UNL A   1      46.641  33.711  26.220  1.00  0.00     0.031 C 
ATOM     57  C   UNL A   1      52.938  31.786  28.910  1.00  0.00     0.029 A 
ATOM     58  C   UNL A   1      52.720  30.514  28.364  1.00  0.00     0.049 A 
ATOM     59  H   UNL A   1      51.292  29.301  29.307  1.00  0.00     0.167 HD
ATOM     60  C   UNL A   1      48.241  35.792  26.041  1.00  0.00     0.034 A 
ATOM     61  C   UNL A   1      53.679  29.812  27.715  1.00  0.00     0.034 A 
ATOM     62  C   UNL A   1      49.764  35.943  25.702  1.00  0.00     0.049 A 
ATOM     63  C   UNL A   1      54.234  30.637  26.449  1.00  0.00     0.074 A 
ATOM     64  C   UNL A   1      51.059  37.181  25.598  1.00  0.00     0.029 A 
ATOM     65  N   UNL A   1      50.519  34.396  24.995  1.00  0.00    -0.354 N 
ATOM     66  N   UNL A   1      53.717  31.790  26.061  1.00  0.00    -0.248 NA
ATOM     67  C   UNL A   1      55.323  30.324  25.525  1.00  0.00     0.031 C 
ATOM     68  C   UNL A   1      52.678  36.483  24.680  1.00  0.00     0.029 A 
ATOM     69  C   UNL A   1      52.413  34.681  24.330  1.00  0.00     0.049 A 
ATOM     70  H   UNL A   1      50.049  33.532  24.948  1.00  0.00     0.167 HD
ATOM     71  C   UNL A   1      54.236  32.362  24.838  1.00  0.00     0.074 A 
ATOM     72  C   UNL A   1      55.326  31.370  24.647  1.00  0.00     0.031 C 
ATOM     73  C   UNL A   1      53.704  33.497  24.011  1.00  0.00     0.034 A 
BRANCH  60  74
ATOM     74  C   UNL A   1      47.178  36.931  25.960  1.00  0.00     0.023 A 
ATOM     75  C   UNL A   1      45.992  36.842  26.712  1.00  0.00     0.031 A 
ATOM     76  C   UNL A   1      47.370  38.206  25.355  1.00  0.00     0.131 A 
ATOM     77  C   UNL A   1      45.307  38.016  27.122  1.00  0.00     0.055 A 
ATOM     78  C   UNL A   1      46.678  39.365  25.734  1.00  0.00     0.041 A 
ATOM     79  F   UNL A   1      48.214  38.419  24.342  1.00  0.00    -0.206 F 
ATOM     80  C   UNL A   1      45.682  39.281  26.677  1.00  0.00     0.022 A 
BRANCH  77  81
ATOM     81  S   UNL A   1      43.986  37.962  28.369  1.00  0.00     0.124 S 
ATOM     82  O   UNL A   1      44.405  38.953  29.352  1.00  0.00    -0.237 OA
ATOM     83  O   UNL A   1      42.800  38.256  27.571  1.00  0.00    -0.237 OA
ATOM     84  O   UNL A   1      44.058  36.576  28.840  1.00  0.00    -0.744 OA
ENDBRANCH  77  81
ENDBRANCH  60  74
BRANCH  61  85
ATOM     85  C   UNL A   1      53.624  28.385  28.267  1.00  0.00     0.023 A 
ATOM     86  C   UNL A   1      52.756  27.491  27.532  1.00  0.00     0.031 A 
ATOM     87  C   UNL A   1      54.762  27.769  28.818  1.00  0.00     0.131 A 
ATOM     88  C   UNL A   1      53.153  26.169  27.182  1.00  0.00     0.055 A 
ATOM     89  C   UNL A   1      55.139  26.440  28.486  1.00  0.00     0.041 A 
ATOM     90  F   UNL A   1      55.658  28.500  29.498  1.00  0.00    -0.206 F 
ATOM     91  C   UNL A   1      54.372  25.662  27.618  1.00  0.00     0.022 A 
BRANCH  88  92
ATOM     92  S   UNL A   1      52.218  25.242  25.903  1.00  0.00     0.124 S 
ATOM     93  O   UNL A   1      53.146  24.178  25.542  1.00  0.00    -0.237 OA
ATOM     94  O   UNL A   1      51.029  24.832  26.642  1.00  0.00    -0.237 OA
ATOM     95  O   UNL A   1      51.984  26.234  24.854  1.00  0.00    -0.744 OA
ENDBRANCH  88  92
ENDBRANCH  61  85
BRANCH  73  96
ATOM     96  C   UNL A   1      54.064  33.493  22.510  1.00  0.00     0.023 A 
ATOM     97  C   UNL A   1      53.443  32.639  21.590  1.00  0.00     0.031 A 
ATOM     98  C   UNL A   1      54.826  34.528  21.927  1.00  0.00     0.131 A 
ATOM     99  C   UNL A   1      53.607  32.787  20.204  1.00  0.00     0.055 A 
ATOM    100  C   UNL A   1      54.858  34.772  20.546  1.00  0.00     0.041 A 
ATOM    101  F   UNL A   1      55.533  35.386  22.669  1.00  0.00    -0.206 F 
ATOM    102  C   UNL A   1      54.247  33.894  19.669  1.00  0.00     0.022 A 
BRANCH  99 103
ATOM    103  S   UNL A   1      53.067  31.423  19.149  1.00  0.00     0.124 S 
ATOM    104  O   UNL A   1      51.730  31.863  18.755  1.00  0.00    -0.237 OA
ATOM    105  O   UNL A   1      54.071  31.428  18.090  1.00  0.00    -0.237 OA
ATOM    106  O   UNL A   1      53.100  30.267  20.041  1.00  0.00    -0.744 OA
ENDBRANCH  99 103
ENDBRANCH  73  96
ENDBRANCH  47  48
ENDBRANCH  40  42
ENDBRANCH  39  40
ENDBRANCH  38  39
ENDBRANCH  37  38
ENDBRANCH  36  37
ENDBRANCH  35  36
ENDBRANCH  34  35
ENDBRANCH  33  34
ENDBRANCH   1  33
TORSDOF 27
ENDMDL
