MODEL 1
REMARK VINA RESULT:     -11.5      0.000      0.000
REMARK SMILES O=C(C[C@]1(C(=O)NC2CCCCC2)CC(c2ccc([N+](=O)[O-])cc2)=NO1)OCCOCCOCCOCCOC(=O)c1ccc(-c2c3nc(c(-c4cc(S(=O)(=O)[O-])ccc4F)c4ccc([nH]4)c(-c4cc(S(=O)(=O)[O-])ccc4F)c4nc(c(-c5cc(S(=O)(=O)[O-])ccc5F)c5ccc2[nH]5)C=C4)C=C3)cc1
REMARK SMILES IDX 33 1 32 2 31 3 30 4 29 5 28 6 27 7 2 8 1 9 3 10 4 11 14 12
REMARK SMILES IDX 26 13 15 14 25 15 5 16 6 17 7 18 8 20 9 21 13 22 10 23 12 24
REMARK SMILES IDX 11 25 16 26 17 27 24 28 18 29 23 30 19 31 20 32 21 33 22 34
REMARK SMILES IDX 34 35 35 36 36 37 37 38 38 39 39 40 40 41 41 42 42 43 43 44
REMARK SMILES IDX 104 45 44 46 103 47 45 48 46 49 47 50 97 51 48 52 102 53
REMARK SMILES IDX 96 54 98 55 49 56 101 57 95 58 94 59 50 61 82 62 62 63 81 64
REMARK SMILES IDX 63 65 66 66 80 67 99 68 64 69 65 70 79 72 100 73 67 74 51 75
REMARK SMILES IDX 52 76 60 77 53 78 59 79 61 80 58 81 54 82 55 83 56 84 57 85
REMARK SMILES IDX 83 86 84 87 92 88 85 89 91 90 93 91 90 92 86 93 87 94 88 95
REMARK SMILES IDX 89 96 68 97 69 98 77 99 70 100 76 101 78 102 75 103 71 104
REMARK SMILES IDX 72 105 73 106 74 107
REMARK H PARENT 7 19 98 60 66 71
REMARK Flexibility Score: inf
ROOT
ATOM      1  O   UNL A   1      40.823  20.391  27.623  1.00  0.00    -0.377 OA
ENDROOT
BRANCH   1   2
ATOM      2  C   UNL A   1      40.226  21.129  26.571  1.00  0.00     0.188 C 
BRANCH   2   3
ATOM      3  C   UNL A   1      39.804  22.540  26.957  1.00  0.00     0.188 C 
BRANCH   3   4
ATOM      4  O   UNL A   1      38.869  23.205  26.123  1.00  0.00    -0.376 OA
BRANCH   4   5
ATOM      5  C   UNL A   1      37.514  22.849  25.951  1.00  0.00     0.202 C 
BRANCH   5   6
ATOM      6  C   UNL A   1      36.430  23.888  25.783  1.00  0.00     0.261 C 
BRANCH   6   7
ATOM      7  O   UNL A   1      35.201  23.516  25.120  1.00  0.00    -0.463 OA
BRANCH   7   8
ATOM      8  C   UNL A   1      34.470  24.062  24.134  1.00  0.00     0.310 C 
ATOM      9  O   UNL A   1      34.880  23.958  22.978  1.00  0.00    -0.252 OA
BRANCH   8  10
ATOM     10  C   UNL A   1      33.208  24.830  24.419  1.00  0.00     0.185 C 
BRANCH  10  11
ATOM     11  C   UNL A   1      32.029  24.054  25.000  1.00  0.00     0.231 C 
ATOM     12  C   UNL A   1      32.367  22.656  25.497  1.00  0.00     0.123 C 
ATOM     13  O   UNL A   1      31.126  23.827  23.894  1.00  0.00    -0.378 OA
ATOM     14  C   UNL A   1      32.100  21.916  24.237  1.00  0.00     0.092 C 
ATOM     15  N   UNL A   1      31.418  22.558  23.345  1.00  0.00    -0.089 NA
BRANCH  11  16
ATOM     16  C   UNL A   1      31.256  24.917  26.045  1.00  0.00     0.268 C 
ATOM     17  O   UNL A   1      31.267  24.686  27.255  1.00  0.00    -0.270 OA
ATOM     18  N   UNL A   1      30.494  25.981  25.640  1.00  0.00    -0.350 N 
ATOM     19  H   UNL A   1      29.656  26.171  26.121  1.00  0.00     0.163 HD
BRANCH  18  20
ATOM     20  C   UNL A   1      30.863  26.833  24.541  1.00  0.00     0.082 C 
ATOM     21  C   UNL A   1      29.714  27.195  23.615  1.00  0.00     0.025 C 
ATOM     22  C   UNL A   1      31.593  28.069  25.049  1.00  0.00     0.025 C 
ATOM     23  C   UNL A   1      30.308  27.897  22.392  1.00  0.00     0.002 C 
ATOM     24  C   UNL A   1      32.221  28.777  23.857  1.00  0.00     0.002 C 
ATOM     25  C   UNL A   1      31.177  29.097  22.784  1.00  0.00     0.000 C 
ENDBRANCH  18  20
ENDBRANCH  11  16
BRANCH  14  26
ATOM     26  C   UNL A   1      32.612  20.558  24.052  1.00  0.00    -0.000 A 
ATOM     27  C   UNL A   1      32.122  19.794  22.991  1.00  0.00     0.017 A 
ATOM     28  C   UNL A   1      33.572  20.045  24.931  1.00  0.00     0.017 A 
ATOM     29  C   UNL A   1      32.569  18.485  22.823  1.00  0.00     0.086 A 
ATOM     30  C   UNL A   1      34.012  18.731  24.774  1.00  0.00     0.086 A 
ATOM     31  C   UNL A   1      33.496  17.951  23.730  1.00  0.00     0.269 A 
BRANCH  31  32
ATOM     32  N   UNL A   1      33.897  16.544  23.612  1.00  0.00     0.062 N 
ATOM     33  O   UNL A   1      34.290  16.149  22.505  1.00  0.00    -0.258 OA
ATOM     34  O   UNL A   1      33.786  15.829  24.617  1.00  0.00    -0.258 OA
ENDBRANCH  31  32
ENDBRANCH  14  26
ENDBRANCH  10  11
ENDBRANCH   8  10
ENDBRANCH   7   8
ENDBRANCH   6   7
ENDBRANCH   5   6
ENDBRANCH   4   5
ENDBRANCH   3   4
ENDBRANCH   2   3
ENDBRANCH   1   2
BRANCH   1  35
ATOM     35  C   UNL A   1      42.143  19.956  27.352  1.00  0.00     0.188 C 
BRANCH  35  36
ATOM     36  C   UNL A   1      42.400  19.425  25.923  1.00  0.00     0.188 C 
BRANCH  36  37
ATOM     37  O   UNL A   1      43.296  20.063  25.029  1.00  0.00    -0.376 OA
BRANCH  37  38
ATOM     38  C   UNL A   1      44.075  21.170  25.441  1.00  0.00     0.202 C 
BRANCH  38  39
ATOM     39  C   UNL A   1      44.637  22.194  24.442  1.00  0.00     0.261 C 
BRANCH  39  40
ATOM     40  O   UNL A   1      44.034  23.492  24.445  1.00  0.00    -0.460 OA
BRANCH  40  41
ATOM     41  C   UNL A   1      44.797  24.494  24.941  1.00  0.00     0.338 C 
ATOM     42  O   UNL A   1      45.933  24.784  24.600  1.00  0.00    -0.246 OA
BRANCH  41  43
ATOM     43  C   UNL A   1      43.949  25.352  25.800  1.00  0.00     0.060 A 
ATOM     44  C   UNL A   1      44.099  26.746  25.698  1.00  0.00     0.016 A 
ATOM     45  C   UNL A   1      42.972  24.808  26.637  1.00  0.00     0.016 A 
ATOM     46  C   UNL A   1      43.293  27.597  26.451  1.00  0.00     0.010 A 
ATOM     47  C   UNL A   1      42.196  25.661  27.429  1.00  0.00     0.010 A 
ATOM     48  C   UNL A   1      42.383  27.055  27.365  1.00  0.00    -0.014 A 
BRANCH  48  49
ATOM     49  C   UNL A   1      41.871  27.917  28.456  1.00  0.00     0.031 A 
ATOM     50  C   UNL A   1      42.725  28.029  29.692  1.00  0.00     0.074 A 
ATOM     51  C   UNL A   1      40.721  28.604  28.352  1.00  0.00     0.049 A 
ATOM     52  N   UNL A   1      42.493  28.660  30.812  1.00  0.00    -0.248 NA
ATOM     53  C   UNL A   1      44.017  27.323  29.652  1.00  0.00     0.031 C 
ATOM     54  C   UNL A   1      39.850  28.627  27.179  1.00  0.00     0.029 A 
ATOM     55  N   UNL A   1      40.087  29.416  29.260  1.00  0.00    -0.354 N 
ATOM     56  C   UNL A   1      43.606  28.423  31.611  1.00  0.00     0.074 A 
ATOM     57  C   UNL A   1      44.493  27.562  30.862  1.00  0.00     0.031 C 
ATOM     58  C   UNL A   1      38.782  29.401  27.448  1.00  0.00     0.029 A 
ATOM     59  C   UNL A   1      38.875  29.895  28.821  1.00  0.00     0.049 A 
ATOM     60  H   UNL A   1      40.465  29.634  30.143  1.00  0.00     0.167 HD
ATOM     61  C   UNL A   1      43.868  28.887  32.856  1.00  0.00     0.034 A 
ATOM     62  C   UNL A   1      37.940  30.620  29.471  1.00  0.00     0.034 A 
ATOM     63  C   UNL A   1      42.960  29.724  33.598  1.00  0.00     0.049 A 
ATOM     64  C   UNL A   1      38.202  31.036  30.902  1.00  0.00     0.074 A 
ATOM     65  C   UNL A   1      43.117  30.249  34.868  1.00  0.00     0.029 A 
ATOM     66  N   UNL A   1      41.717  30.144  33.143  1.00  0.00    -0.354 N 
ATOM     67  N   UNL A   1      39.257  30.805  31.653  1.00  0.00    -0.248 NA
ATOM     68  C   UNL A   1      37.150  31.813  31.572  1.00  0.00     0.031 C 
ATOM     69  C   UNL A   1      41.937  30.918  35.210  1.00  0.00     0.029 A 
ATOM     70  C   UNL A   1      41.081  30.892  34.119  1.00  0.00     0.049 A 
ATOM     71  H   UNL A   1      41.343  29.941  32.255  1.00  0.00     0.167 HD
ATOM     72  C   UNL A   1      39.008  31.445  32.867  1.00  0.00     0.074 A 
ATOM     73  C   UNL A   1      37.711  32.075  32.744  1.00  0.00     0.031 C 
ATOM     74  C   UNL A   1      39.783  31.513  33.981  1.00  0.00     0.034 A 
BRANCH  61  75
ATOM     75  C   UNL A   1      45.153  28.435  33.505  1.00  0.00     0.023 A 
ATOM     76  C   UNL A   1      45.181  27.399  34.454  1.00  0.00     0.031 A 
ATOM     77  C   UNL A   1      46.363  29.084  33.202  1.00  0.00     0.131 A 
ATOM     78  C   UNL A   1      46.378  27.091  35.119  1.00  0.00     0.055 A 
ATOM     79  C   UNL A   1      47.566  28.716  33.806  1.00  0.00     0.041 A 
ATOM     80  F   UNL A   1      46.392  30.102  32.327  1.00  0.00    -0.206 F 
ATOM     81  C   UNL A   1      47.576  27.724  34.782  1.00  0.00     0.022 A 
BRANCH  78  82
ATOM     82  S   UNL A   1      46.316  25.963  36.537  1.00  0.00     0.124 S 
ATOM     83  O   UNL A   1      46.894  24.746  35.972  1.00  0.00    -0.237 OA
ATOM     84  O   UNL A   1      47.131  26.656  37.528  1.00  0.00    -0.237 OA
ATOM     85  O   UNL A   1      44.890  25.881  36.848  1.00  0.00    -0.744 OA
ENDBRANCH  78  82
ENDBRANCH  61  75
BRANCH  62  86
ATOM     86  C   UNL A   1      36.647  30.964  28.808  1.00  0.00     0.023 A 
ATOM     87  C   UNL A   1      36.182  32.288  28.763  1.00  0.00     0.031 A 
ATOM     88  C   UNL A   1      35.822  29.960  28.270  1.00  0.00     0.131 A 
ATOM     89  C   UNL A   1      34.909  32.565  28.237  1.00  0.00     0.055 A 
ATOM     90  C   UNL A   1      34.582  30.248  27.698  1.00  0.00     0.041 A 
ATOM     91  F   UNL A   1      36.214  28.676  28.291  1.00  0.00    -0.206 F 
ATOM     92  C   UNL A   1      34.113  31.557  27.693  1.00  0.00     0.022 A 
BRANCH  89  93
ATOM     93  S   UNL A   1      34.269  34.260  28.360  1.00  0.00     0.124 S 
ATOM     94  O   UNL A   1      32.829  34.038  28.288  1.00  0.00    -0.237 OA
ATOM     95  O   UNL A   1      34.790  34.684  29.656  1.00  0.00    -0.237 OA
ATOM     96  O   UNL A   1      34.859  34.931  27.204  1.00  0.00    -0.744 OA
ENDBRANCH  89  93
ENDBRANCH  62  86
BRANCH  74  97
ATOM     97  C   UNL A   1      39.276  32.349  35.132  1.00  0.00     0.023 A 
ATOM     98  C   UNL A   1      39.766  33.641  35.389  1.00  0.00     0.031 A 
ATOM     99  C   UNL A   1      38.275  31.841  35.980  1.00  0.00     0.131 A 
ATOM    100  C   UNL A   1      39.295  34.358  36.499  1.00  0.00     0.055 A 
ATOM    101  C   UNL A   1      37.762  32.586  37.043  1.00  0.00     0.041 A 
ATOM    102  F   UNL A   1      37.771  30.612  35.784  1.00  0.00    -0.206 F 
ATOM    103  C   UNL A   1      38.280  33.848  37.314  1.00  0.00     0.022 A 
BRANCH 100 104
ATOM    104  S   UNL A   1      40.091  35.931  36.923  1.00  0.00     0.124 S 
ATOM    105  O   UNL A   1      39.455  36.259  38.195  1.00  0.00    -0.237 OA
ATOM    106  O   UNL A   1      41.501  35.559  36.993  1.00  0.00    -0.237 OA
ATOM    107  O   UNL A   1      39.737  36.808  35.808  1.00  0.00    -0.744 OA
ENDBRANCH 100 104
ENDBRANCH  74  97
ENDBRANCH  48  49
ENDBRANCH  41  43
ENDBRANCH  40  41
ENDBRANCH  39  40
ENDBRANCH  38  39
ENDBRANCH  37  38
ENDBRANCH  36  37
ENDBRANCH  35  36
ENDBRANCH   1  35
TORSDOF 28
ENDMDL
MODEL 2
REMARK VINA RESULT:     -10.7      5.087      6.875
REMARK SMILES O=C(C[C@]1(C(=O)NC2CCCCC2)CC(c2ccc([N+](=O)[O-])cc2)=NO1)OCCOCCOCCOCCOC(=O)c1ccc(-c2c3nc(c(-c4cc(S(=O)(=O)[O-])ccc4F)c4ccc([nH]4)c(-c4cc(S(=O)(=O)[O-])ccc4F)c4nc(c(-c5cc(S(=O)(=O)[O-])ccc5F)c5ccc2[nH]5)C=C4)C=C3)cc1
REMARK SMILES IDX 33 1 32 2 31 3 30 4 29 5 28 6 27 7 2 8 1 9 3 10 4 11 14 12
REMARK SMILES IDX 26 13 15 14 25 15 5 16 6 17 7 18 8 20 9 21 13 22 10 23 12 24
REMARK SMILES IDX 11 25 16 26 17 27 24 28 18 29 23 30 19 31 20 32 21 33 22 34
REMARK SMILES IDX 34 35 35 36 36 37 37 38 38 39 39 40 40 41 41 42 42 43 43 44
REMARK SMILES IDX 104 45 44 46 103 47 45 48 46 49 47 50 97 51 48 52 102 53
REMARK SMILES IDX 96 54 98 55 49 56 101 57 95 58 94 59 50 61 82 62 62 63 81 64
REMARK SMILES IDX 63 65 66 66 80 67 99 68 64 69 65 70 79 72 100 73 67 74 51 75
REMARK SMILES IDX 52 76 60 77 53 78 59 79 61 80 58 81 54 82 55 83 56 84 57 85
REMARK SMILES IDX 83 86 84 87 92 88 85 89 91 90 93 91 90 92 86 93 87 94 88 95
REMARK SMILES IDX 89 96 68 97 69 98 77 99 70 100 76 101 78 102 75 103 71 104
REMARK SMILES IDX 72 105 73 106 74 107
REMARK H PARENT 7 19 98 60 66 71
REMARK Flexibility Score: inf
ROOT
ATOM      1  O   UNL A   1      40.355  22.147  27.756  1.00  0.00    -0.377 OA
ENDROOT
BRANCH   1   2
ATOM      2  C   UNL A   1      39.971  22.908  26.626  1.00  0.00     0.188 C 
BRANCH   2   3
ATOM      3  C   UNL A   1      38.567  22.609  26.116  1.00  0.00     0.188 C 
BRANCH   3   4
ATOM      4  O   UNL A   1      37.894  23.623  25.390  1.00  0.00    -0.376 OA
BRANCH   4   5
ATOM      5  C   UNL A   1      36.547  23.586  24.971  1.00  0.00     0.202 C 
BRANCH   5   6
ATOM      6  C   UNL A   1      35.437  23.128  25.889  1.00  0.00     0.261 C 
BRANCH   6   7
ATOM      7  O   UNL A   1      34.494  24.103  26.387  1.00  0.00    -0.463 OA
BRANCH   7   8
ATOM      8  C   UNL A   1      33.686  25.003  25.803  1.00  0.00     0.310 C 
ATOM      9  O   UNL A   1      33.680  26.152  26.243  1.00  0.00    -0.252 OA
BRANCH   8  10
ATOM     10  C   UNL A   1      32.767  24.624  24.673  1.00  0.00     0.185 C 
BRANCH  10  11
ATOM     11  C   UNL A   1      31.539  23.786  25.018  1.00  0.00     0.231 C 
ATOM     12  C   UNL A   1      31.843  22.372  25.492  1.00  0.00     0.123 C 
ATOM     13  O   UNL A   1      30.832  23.595  23.771  1.00  0.00    -0.378 OA
ATOM     14  C   UNL A   1      31.807  21.696  24.170  1.00  0.00     0.092 C 
ATOM     15  N   UNL A   1      31.254  22.367  23.213  1.00  0.00    -0.089 NA
BRANCH  11  16
ATOM     16  C   UNL A   1      30.579  24.568  25.966  1.00  0.00     0.268 C 
ATOM     17  O   UNL A   1      30.358  24.234  27.131  1.00  0.00    -0.270 OA
ATOM     18  N   UNL A   1      29.907  25.674  25.517  1.00  0.00    -0.350 N 
ATOM     19  H   UNL A   1      28.992  25.835  25.844  1.00  0.00     0.163 HD
BRANCH  18  20
ATOM     20  C   UNL A   1      30.479  26.610  24.586  1.00  0.00     0.082 C 
ATOM     21  C   UNL A   1      29.548  27.019  23.456  1.00  0.00     0.025 C 
ATOM     22  C   UNL A   1      31.038  27.820  25.325  1.00  0.00     0.025 C 
ATOM     23  C   UNL A   1      30.372  27.820  22.445  1.00  0.00     0.002 C 
ATOM     24  C   UNL A   1      31.887  28.624  24.352  1.00  0.00     0.002 C 
ATOM     25  C   UNL A   1      31.093  29.003  23.100  1.00  0.00     0.000 C 
ENDBRANCH  18  20
ENDBRANCH  11  16
BRANCH  14  26
ATOM     26  C   UNL A   1      32.391  20.365  24.002  1.00  0.00    -0.000 A 
ATOM     27  C   UNL A   1      32.103  19.647  22.839  1.00  0.00     0.017 A 
ATOM     28  C   UNL A   1      33.217  19.830  24.996  1.00  0.00     0.017 A 
ATOM     29  C   UNL A   1      32.618  18.361  22.679  1.00  0.00     0.086 A 
ATOM     30  C   UNL A   1      33.723  18.540  24.847  1.00  0.00     0.086 A 
ATOM     31  C   UNL A   1      33.408  17.804  23.696  1.00  0.00     0.269 A 
BRANCH  31  32
ATOM     32  N   UNL A   1      33.873  16.418  23.574  1.00  0.00     0.062 N 
ATOM     33  O   UNL A   1      34.427  16.088  22.516  1.00  0.00    -0.258 OA
ATOM     34  O   UNL A   1      33.653  15.653  24.522  1.00  0.00    -0.258 OA
ENDBRANCH  31  32
ENDBRANCH  14  26
ENDBRANCH  10  11
ENDBRANCH   8  10
ENDBRANCH   7   8
ENDBRANCH   6   7
ENDBRANCH   5   6
ENDBRANCH   4   5
ENDBRANCH   3   4
ENDBRANCH   2   3
ENDBRANCH   1   2
BRANCH   1  35
ATOM     35  C   UNL A   1      41.583  21.458  27.603  1.00  0.00     0.188 C 
BRANCH  35  36
ATOM     36  C   UNL A   1      41.477  19.966  27.215  1.00  0.00     0.188 C 
BRANCH  36  37
ATOM     37  O   UNL A   1      42.340  18.980  27.758  1.00  0.00    -0.376 OA
BRANCH  37  38
ATOM     38  C   UNL A   1      43.020  18.063  26.923  1.00  0.00     0.202 C 
BRANCH  38  39
ATOM     39  C   UNL A   1      43.604  18.472  25.560  1.00  0.00     0.261 C 
BRANCH  39  40
ATOM     40  O   UNL A   1      44.691  19.403  25.582  1.00  0.00    -0.460 OA
BRANCH  40  41
ATOM     41  C   UNL A   1      44.858  20.137  24.456  1.00  0.00     0.338 C 
ATOM     42  O   UNL A   1      44.527  19.823  23.324  1.00  0.00    -0.246 OA
BRANCH  41  43
ATOM     43  C   UNL A   1      45.286  21.501  24.842  1.00  0.00     0.060 A 
ATOM     44  C   UNL A   1      45.362  21.809  26.211  1.00  0.00     0.016 A 
ATOM     45  C   UNL A   1      45.679  22.441  23.886  1.00  0.00     0.016 A 
ATOM     46  C   UNL A   1      45.804  23.063  26.627  1.00  0.00     0.010 A 
ATOM     47  C   UNL A   1      46.076  23.716  24.301  1.00  0.00     0.010 A 
ATOM     48  C   UNL A   1      46.102  24.041  25.671  1.00  0.00    -0.014 A 
BRANCH  48  49
ATOM     49  C   UNL A   1      46.127  25.462  26.091  1.00  0.00     0.031 A 
ATOM     50  C   UNL A   1      47.469  26.146  26.097  1.00  0.00     0.074 A 
ATOM     51  C   UNL A   1      45.012  26.136  26.418  1.00  0.00     0.049 A 
ATOM     52  N   UNL A   1      47.787  27.355  26.473  1.00  0.00    -0.248 NA
ATOM     53  C   UNL A   1      48.606  25.344  25.613  1.00  0.00     0.031 C 
ATOM     54  C   UNL A   1      43.654  25.598  26.382  1.00  0.00     0.029 A 
ATOM     55  N   UNL A   1      44.852  27.428  26.852  1.00  0.00    -0.354 N 
ATOM     56  C   UNL A   1      49.160  27.458  26.277  1.00  0.00     0.074 A 
ATOM     57  C   UNL A   1      49.617  26.178  25.784  1.00  0.00     0.031 C 
ATOM     58  C   UNL A   1      42.799  26.551  26.797  1.00  0.00     0.029 A 
ATOM     59  C   UNL A   1      43.552  27.750  27.165  1.00  0.00     0.049 A 
ATOM     60  H   UNL A   1      45.598  28.066  26.933  1.00  0.00     0.167 HD
ATOM     61  C   UNL A   1      49.967  28.525  26.484  1.00  0.00     0.034 A 
ATOM     62  C   UNL A   1      43.041  28.872  27.714  1.00  0.00     0.034 A 
ATOM     63  C   UNL A   1      49.499  29.786  27.000  1.00  0.00     0.049 A 
ATOM     64  C   UNL A   1      43.977  30.016  28.042  1.00  0.00     0.074 A 
ATOM     65  C   UNL A   1      50.224  30.935  27.255  1.00  0.00     0.029 A 
ATOM     66  N   UNL A   1      48.183  30.057  27.357  1.00  0.00    -0.354 N 
ATOM     67  N   UNL A   1      45.275  30.105  27.856  1.00  0.00    -0.248 NA
ATOM     68  C   UNL A   1      43.377  31.212  28.650  1.00  0.00     0.031 C 
ATOM     69  C   UNL A   1      49.365  31.871  27.841  1.00  0.00     0.029 A 
ATOM     70  C   UNL A   1      48.083  31.342  27.863  1.00  0.00     0.049 A 
ATOM     71  H   UNL A   1      47.432  29.428  27.263  1.00  0.00     0.167 HD
ATOM     72  C   UNL A   1      45.636  31.380  28.287  1.00  0.00     0.074 A 
ATOM     73  C   UNL A   1      44.420  32.026  28.734  1.00  0.00     0.031 C 
ATOM     74  C   UNL A   1      46.861  31.970  28.307  1.00  0.00     0.034 A 
BRANCH  61  75
ATOM     75  C   UNL A   1      51.440  28.340  26.215  1.00  0.00     0.023 A 
ATOM     76  C   UNL A   1      52.323  27.881  27.208  1.00  0.00     0.031 A 
ATOM     77  C   UNL A   1      51.977  28.672  24.959  1.00  0.00     0.131 A 
ATOM     78  C   UNL A   1      53.702  27.836  26.951  1.00  0.00     0.055 A 
ATOM     79  C   UNL A   1      53.339  28.544  24.683  1.00  0.00     0.041 A 
ATOM     80  F   UNL A   1      51.187  29.145  23.982  1.00  0.00    -0.206 F 
ATOM     81  C   UNL A   1      54.213  28.138  25.687  1.00  0.00     0.022 A 
BRANCH  78  82
ATOM     82  S   UNL A   1      54.832  27.526  28.336  1.00  0.00     0.124 S 
ATOM     83  O   UNL A   1      56.010  27.005  27.645  1.00  0.00    -0.237 OA
ATOM     84  O   UNL A   1      54.974  28.850  28.929  1.00  0.00    -0.237 OA
ATOM     85  O   UNL A   1      54.114  26.549  29.152  1.00  0.00    -0.744 OA
ENDBRANCH  78  82
ENDBRANCH  61  75
BRANCH  62  86
ATOM     86  C   UNL A   1      41.588  28.968  28.040  1.00  0.00     0.023 A 
ATOM     87  C   UNL A   1      41.127  28.840  29.360  1.00  0.00     0.031 A 
ATOM     88  C   UNL A   1      40.628  29.119  27.022  1.00  0.00     0.131 A 
ATOM     89  C   UNL A   1      39.747  28.818  29.622  1.00  0.00     0.055 A 
ATOM     90  C   UNL A   1      39.259  29.152  27.294  1.00  0.00     0.041 A 
ATOM     91  F   UNL A   1      41.010  29.240  25.741  1.00  0.00    -0.206 F 
ATOM     92  C   UNL A   1      38.811  28.986  28.600  1.00  0.00     0.022 A 
BRANCH  89  93
ATOM     93  S   UNL A   1      39.190  28.470  31.314  1.00  0.00     0.124 S 
ATOM     94  O   UNL A   1      38.554  27.168  31.155  1.00  0.00    -0.237 OA
ATOM     95  O   UNL A   1      40.448  28.487  32.054  1.00  0.00    -0.237 OA
ATOM     96  O   UNL A   1      38.283  29.578  31.607  1.00  0.00    -0.744 OA
ENDBRANCH  89  93
ENDBRANCH  62  86
BRANCH  74  97
ATOM     97  C   UNL A   1      46.933  33.407  28.768  1.00  0.00     0.023 A 
ATOM     98  C   UNL A   1      46.720  34.484  27.892  1.00  0.00     0.031 A 
ATOM     99  C   UNL A   1      47.214  33.697  30.116  1.00  0.00     0.131 A 
ATOM    100  C   UNL A   1      46.845  35.801  28.360  1.00  0.00     0.055 A 
ATOM    101  C   UNL A   1      47.271  35.008  30.591  1.00  0.00     0.041 A 
ATOM    102  F   UNL A   1      47.429  32.708  30.999  1.00  0.00    -0.206 F 
ATOM    103  C   UNL A   1      47.098  36.069  29.708  1.00  0.00     0.022 A 
BRANCH 100 104
ATOM    104  S   UNL A   1      46.767  37.163  27.166  1.00  0.00     0.124 S 
ATOM    105  O   UNL A   1      47.833  38.040  27.638  1.00  0.00    -0.237 OA
ATOM    106  O   UNL A   1      47.017  36.482  25.898  1.00  0.00    -0.237 OA
ATOM    107  O   UNL A   1      45.413  37.688  27.330  1.00  0.00    -0.744 OA
ENDBRANCH 100 104
ENDBRANCH  74  97
ENDBRANCH  48  49
ENDBRANCH  41  43
ENDBRANCH  40  41
ENDBRANCH  39  40
ENDBRANCH  38  39
ENDBRANCH  37  38
ENDBRANCH  36  37
ENDBRANCH  35  36
ENDBRANCH   1  35
TORSDOF 28
ENDMDL
MODEL 3
REMARK VINA RESULT:     -10.2      5.370      9.337
REMARK SMILES O=C(C[C@]1(C(=O)NC2CCCCC2)CC(c2ccc([N+](=O)[O-])cc2)=NO1)OCCOCCOCCOCCOC(=O)c1ccc(-c2c3nc(c(-c4cc(S(=O)(=O)[O-])ccc4F)c4ccc([nH]4)c(-c4cc(S(=O)(=O)[O-])ccc4F)c4nc(c(-c5cc(S(=O)(=O)[O-])ccc5F)c5ccc2[nH]5)C=C4)C=C3)cc1
REMARK SMILES IDX 33 1 32 2 31 3 30 4 29 5 28 6 27 7 2 8 1 9 3 10 4 11 14 12
REMARK SMILES IDX 26 13 15 14 25 15 5 16 6 17 7 18 8 20 9 21 13 22 10 23 12 24
REMARK SMILES IDX 11 25 16 26 17 27 24 28 18 29 23 30 19 31 20 32 21 33 22 34
REMARK SMILES IDX 34 35 35 36 36 37 37 38 38 39 39 40 40 41 41 42 42 43 43 44
REMARK SMILES IDX 104 45 44 46 103 47 45 48 46 49 47 50 97 51 48 52 102 53
REMARK SMILES IDX 96 54 98 55 49 56 101 57 95 58 94 59 50 61 82 62 62 63 81 64
REMARK SMILES IDX 63 65 66 66 80 67 99 68 64 69 65 70 79 72 100 73 67 74 51 75
REMARK SMILES IDX 52 76 60 77 53 78 59 79 61 80 58 81 54 82 55 83 56 84 57 85
REMARK SMILES IDX 83 86 84 87 92 88 85 89 91 90 93 91 90 92 86 93 87 94 88 95
REMARK SMILES IDX 89 96 68 97 69 98 77 99 70 100 76 101 78 102 75 103 71 104
REMARK SMILES IDX 72 105 73 106 74 107
REMARK H PARENT 7 19 98 60 66 71
REMARK Flexibility Score: inf
ROOT
ATOM      1  O   UNL A   1      39.972  21.959  27.619  1.00  0.00    -0.377 OA
ENDROOT
BRANCH   1   2
ATOM      2  C   UNL A   1      39.580  22.657  26.450  1.00  0.00     0.188 C 
BRANCH   2   3
ATOM      3  C   UNL A   1      38.253  22.198  25.861  1.00  0.00     0.188 C 
BRANCH   3   4
ATOM      4  O   UNL A   1      37.870  22.719  24.599  1.00  0.00    -0.376 OA
BRANCH   4   5
ATOM      5  C   UNL A   1      36.610  22.558  23.985  1.00  0.00     0.202 C 
BRANCH   5   6
ATOM      6  C   UNL A   1      35.407  22.054  24.749  1.00  0.00     0.261 C 
BRANCH   6   7
ATOM      7  O   UNL A   1      34.707  22.961  25.629  1.00  0.00    -0.463 OA
BRANCH   7   8
ATOM      8  C   UNL A   1      34.192  24.193  25.482  1.00  0.00     0.310 C 
ATOM      9  O   UNL A   1      34.710  25.120  26.104  1.00  0.00    -0.252 OA
BRANCH   8  10
ATOM     10  C   UNL A   1      32.981  24.446  24.624  1.00  0.00     0.185 C 
BRANCH  10  11
ATOM     11  C   UNL A   1      31.688  23.730  25.006  1.00  0.00     0.231 C 
ATOM     12  C   UNL A   1      31.871  22.307  25.513  1.00  0.00     0.123 C 
ATOM     13  O   UNL A   1      30.948  23.573  23.774  1.00  0.00    -0.378 OA
ATOM     14  C   UNL A   1      31.754  21.604  24.211  1.00  0.00     0.092 C 
ATOM     15  N   UNL A   1      31.249  22.298  23.244  1.00  0.00    -0.089 NA
BRANCH  11  16
ATOM     16  C   UNL A   1      30.817  24.620  25.946  1.00  0.00     0.268 C 
ATOM     17  O   UNL A   1      30.613  24.355  27.132  1.00  0.00    -0.270 OA
ATOM     18  N   UNL A   1      30.207  25.748  25.466  1.00  0.00    -0.350 N 
ATOM     19  H   UNL A   1      29.317  25.987  25.813  1.00  0.00     0.163 HD
BRANCH  18  20
ATOM     20  C   UNL A   1      30.809  26.599  24.474  1.00  0.00     0.082 C 
ATOM     21  C   UNL A   1      29.848  27.094  23.405  1.00  0.00     0.025 C 
ATOM     22  C   UNL A   1      31.553  27.749  25.142  1.00  0.00     0.025 C 
ATOM     23  C   UNL A   1      30.678  27.780  22.318  1.00  0.00     0.002 C 
ATOM     24  C   UNL A   1      32.412  28.437  24.092  1.00  0.00     0.002 C 
ATOM     25  C   UNL A   1      31.574  28.884  22.891  1.00  0.00     0.000 C 
ENDBRANCH  18  20
ENDBRANCH  11  16
BRANCH  14  26
ATOM     26  C   UNL A   1      32.213  20.222  24.070  1.00  0.00    -0.000 A 
ATOM     27  C   UNL A   1      32.733  19.569  25.190  1.00  0.00     0.017 A 
ATOM     28  C   UNL A   1      32.133  19.579  22.830  1.00  0.00     0.017 A 
ATOM     29  C   UNL A   1      33.211  18.266  25.066  1.00  0.00     0.086 A 
ATOM     30  C   UNL A   1      32.622  18.280  22.698  1.00  0.00     0.086 A 
ATOM     31  C   UNL A   1      33.175  17.635  23.814  1.00  0.00     0.269 A 
BRANCH  31  32
ATOM     32  N   UNL A   1      33.763  16.299  23.658  1.00  0.00     0.062 N 
ATOM     33  O   UNL A   1      34.408  16.072  22.624  1.00  0.00    -0.258 OA
ATOM     34  O   UNL A   1      33.551  15.470  24.553  1.00  0.00    -0.258 OA
ENDBRANCH  31  32
ENDBRANCH  14  26
ENDBRANCH  10  11
ENDBRANCH   8  10
ENDBRANCH   7   8
ENDBRANCH   6   7
ENDBRANCH   5   6
ENDBRANCH   4   5
ENDBRANCH   3   4
ENDBRANCH   2   3
ENDBRANCH   1   2
BRANCH   1  35
ATOM     35  C   UNL A   1      41.249  21.354  27.534  1.00  0.00     0.188 C 
BRANCH  35  36
ATOM     36  C   UNL A   1      41.274  19.896  27.020  1.00  0.00     0.188 C 
BRANCH  36  37
ATOM     37  O   UNL A   1      42.117  18.909  27.589  1.00  0.00    -0.376 OA
BRANCH  37  38
ATOM     38  C   UNL A   1      43.055  18.205  26.798  1.00  0.00     0.202 C 
BRANCH  38  39
ATOM     39  C   UNL A   1      43.683  18.815  25.533  1.00  0.00     0.261 C 
BRANCH  39  40
ATOM     40  O   UNL A   1      44.462  20.001  25.712  1.00  0.00    -0.460 OA
BRANCH  40  41
ATOM     41  C   UNL A   1      44.863  20.618  24.575  1.00  0.00     0.338 C 
ATOM     42  O   UNL A   1      44.591  20.290  23.431  1.00  0.00    -0.246 OA
BRANCH  41  43
ATOM     43  C   UNL A   1      45.491  21.910  24.935  1.00  0.00     0.060 A 
ATOM     44  C   UNL A   1      45.536  22.269  26.293  1.00  0.00     0.016 A 
ATOM     45  C   UNL A   1      46.092  22.724  23.972  1.00  0.00     0.016 A 
ATOM     46  C   UNL A   1      46.156  23.452  26.688  1.00  0.00     0.010 A 
ATOM     47  C   UNL A   1      46.671  23.935  24.362  1.00  0.00     0.010 A 
ATOM     48  C   UNL A   1      46.669  24.319  25.717  1.00  0.00    -0.014 A 
BRANCH  48  49
ATOM     49  C   UNL A   1      46.907  25.735  26.082  1.00  0.00     0.031 A 
ATOM     50  C   UNL A   1      45.702  26.548  26.476  1.00  0.00     0.074 A 
ATOM     51  C   UNL A   1      48.137  26.277  26.102  1.00  0.00     0.049 A 
ATOM     52  N   UNL A   1      45.614  27.815  26.781  1.00  0.00    -0.248 NA
ATOM     53  C   UNL A   1      44.421  25.823  26.527  1.00  0.00     0.031 C 
ATOM     54  C   UNL A   1      49.381  25.568  25.808  1.00  0.00     0.029 A 
ATOM     55  N   UNL A   1      48.537  27.560  26.382  1.00  0.00    -0.354 N 
ATOM     56  C   UNL A   1      44.269  28.040  27.053  1.00  0.00     0.074 A 
ATOM     57  C   UNL A   1      43.576  26.789  26.842  1.00  0.00     0.031 C 
ATOM     58  C   UNL A   1      50.406  26.435  25.905  1.00  0.00     0.029 A 
ATOM     59  C   UNL A   1      49.888  27.764  26.228  1.00  0.00     0.049 A 
ATOM     60  H   UNL A   1      47.914  28.268  26.665  1.00  0.00     0.167 HD
ATOM     61  C   UNL A   1      43.666  29.186  27.450  1.00  0.00     0.034 A 
ATOM     62  C   UNL A   1      50.610  28.901  26.309  1.00  0.00     0.034 A 
ATOM     63  C   UNL A   1      44.369  30.430  27.631  1.00  0.00     0.049 A 
ATOM     64  C   UNL A   1      49.901  30.195  26.644  1.00  0.00     0.074 A 
ATOM     65  C   UNL A   1      43.863  31.656  28.024  1.00  0.00     0.029 A 
ATOM     66  N   UNL A   1      45.729  30.612  27.412  1.00  0.00    -0.354 N 
ATOM     67  N   UNL A   1      48.627  30.401  26.898  1.00  0.00    -0.248 NA
ATOM     68  C   UNL A   1      50.727  31.409  26.709  1.00  0.00     0.031 C 
ATOM     69  C   UNL A   1      44.899  32.593  27.966  1.00  0.00     0.029 A 
ATOM     70  C   UNL A   1      46.073  31.936  27.629  1.00  0.00     0.049 A 
ATOM     71  H   UNL A   1      46.357  29.903  27.144  1.00  0.00     0.167 HD
ATOM     72  C   UNL A   1      48.511  31.759  27.192  1.00  0.00     0.074 A 
ATOM     73  C   UNL A   1      49.843  32.319  27.091  1.00  0.00     0.031 C 
ATOM     74  C   UNL A   1      47.407  32.479  27.522  1.00  0.00     0.034 A 
BRANCH  61  75
ATOM     75  C   UNL A   1      42.170  29.149  27.642  1.00  0.00     0.023 A 
ATOM     76  C   UNL A   1      41.587  29.111  28.920  1.00  0.00     0.031 A 
ATOM     77  C   UNL A   1      41.316  29.105  26.526  1.00  0.00     0.131 A 
ATOM     78  C   UNL A   1      40.198  28.957  29.051  1.00  0.00     0.055 A 
ATOM     79  C   UNL A   1      39.929  29.038  26.664  1.00  0.00     0.041 A 
ATOM     80  F   UNL A   1      41.817  29.107  25.281  1.00  0.00    -0.206 F 
ATOM     81  C   UNL A   1      39.363  28.948  27.932  1.00  0.00     0.022 A 
BRANCH  78  82
ATOM     82  S   UNL A   1      39.515  28.615  30.696  1.00  0.00     0.124 S 
ATOM     83  O   UNL A   1      40.696  28.140  31.413  1.00  0.00    -0.237 OA
ATOM     84  O   UNL A   1      39.003  29.919  31.102  1.00  0.00    -0.237 OA
ATOM     85  O   UNL A   1      38.499  27.597  30.440  1.00  0.00    -0.744 OA
ENDBRANCH  78  82
ENDBRANCH  61  75
BRANCH  62  86
ATOM     86  C   UNL A   1      52.075  28.895  26.022  1.00  0.00     0.023 A 
ATOM     87  C   UNL A   1      53.016  28.688  27.044  1.00  0.00     0.031 A 
ATOM     88  C   UNL A   1      52.560  29.165  24.730  1.00  0.00     0.131 A 
ATOM     89  C   UNL A   1      54.388  28.803  26.767  1.00  0.00     0.055 A 
ATOM     90  C   UNL A   1      53.926  29.224  24.448  1.00  0.00     0.041 A 
ATOM     91  F   UNL A   1      51.706  29.377  23.715  1.00  0.00    -0.206 F 
ATOM     92  C   UNL A   1      54.849  29.056  25.474  1.00  0.00     0.022 A 
BRANCH  89  93
ATOM     93  S   UNL A   1      55.565  28.708  28.146  1.00  0.00     0.124 S 
ATOM     94  O   UNL A   1      56.395  29.883  27.909  1.00  0.00    -0.237 OA
ATOM     95  O   UNL A   1      54.676  28.771  29.303  1.00  0.00    -0.237 OA
ATOM     96  O   UNL A   1      56.225  27.421  27.941  1.00  0.00    -0.744 OA
ENDBRANCH  89  93
ENDBRANCH  62  86
BRANCH  74  97
ATOM     97  C   UNL A   1      47.603  33.938  27.860  1.00  0.00     0.023 A 
ATOM     98  C   UNL A   1      47.850  34.374  29.173  1.00  0.00     0.031 A 
ATOM     99  C   UNL A   1      47.550  34.908  26.842  1.00  0.00     0.131 A 
ATOM    100  C   UNL A   1      47.979  35.745  29.442  1.00  0.00     0.055 A 
ATOM    101  C   UNL A   1      47.746  36.264  27.104  1.00  0.00     0.041 A 
ATOM    102  F   UNL A   1      47.315  34.551  25.568  1.00  0.00    -0.206 F 
ATOM    103  C   UNL A   1      47.950  36.690  28.412  1.00  0.00     0.022 A 
BRANCH 100 104
ATOM    104  S   UNL A   1      48.091  36.289  31.167  1.00  0.00     0.124 S 
ATOM    105  O   UNL A   1      48.800  35.176  31.790  1.00  0.00    -0.237 OA
ATOM    106  O   UNL A   1      48.838  37.538  31.054  1.00  0.00    -0.237 OA
ATOM    107  O   UNL A   1      46.694  36.439  31.572  1.00  0.00    -0.744 OA
ENDBRANCH 100 104
ENDBRANCH  74  97
ENDBRANCH  48  49
ENDBRANCH  41  43
ENDBRANCH  40  41
ENDBRANCH  39  40
ENDBRANCH  38  39
ENDBRANCH  37  38
ENDBRANCH  36  37
ENDBRANCH  35  36
ENDBRANCH   1  35
TORSDOF 28
ENDMDL
