MODEL 1
REMARK VINA RESULT:     -10.2      0.000      0.000
REMARK SMILES Cc1c(Cl)cc2c(c1C)O[C@H](C(F)(F)F)C(C(=O)OCCOCCOCCOCCOC(=O)c1ccc(-c3c4nc(c(-c5cc(S(=O)(=O)[O-])ccc5F)c5ccc([nH]5)c(-c5cc(S(=O)(=O)[O-])ccc5F)c5nc(c(-c6cc(S(=O)(=O)[O-])ccc6F)c6ccc3[nH]6)C=C5)C=C4)cc1)=C2
REMARK SMILES IDX 26 1 25 2 24 3 23 4 22 5 21 6 20 7 19 8 17 9 18 10 16 11
REMARK SMILES IDX 1 12 2 13 3 14 8 15 4 16 5 17 7 18 9 19 6 20 10 21 97 22
REMARK SMILES IDX 11 23 12 24 13 25 14 26 15 27 27 28 28 29 29 30 30 31 31 32
REMARK SMILES IDX 32 33 33 34 34 35 35 36 96 37 36 38 95 39 37 40 38 41 39 42
REMARK SMILES IDX 89 43 40 44 94 45 88 46 90 47 41 48 93 49 87 50 86 51 42 53
REMARK SMILES IDX 74 54 54 55 73 56 55 57 58 58 72 59 91 60 56 61 57 62 71 64
REMARK SMILES IDX 92 65 59 66 43 67 44 68 52 69 45 70 51 71 53 72 50 73 46 74
REMARK SMILES IDX 47 75 48 76 49 77 75 78 76 79 84 80 77 81 83 82 85 83 82 84
REMARK SMILES IDX 78 85 79 86 80 87 81 88 60 89 61 90 69 91 62 92 68 93 70 94
REMARK SMILES IDX 67 95 63 96 64 97 65 98 66 99
REMARK H PARENT 90 52 58 63
REMARK Flexibility Score: inf
ROOT
ATOM      1  C   UNL A   1      36.094  19.218  24.633  1.00  0.00     0.188 C 
ENDROOT
BRANCH   1   2
ATOM      2  O   UNL A   1      35.120  18.200  24.402  1.00  0.00    -0.377 OA
BRANCH   2   3
ATOM      3  C   UNL A   1      33.839  18.378  24.983  1.00  0.00     0.188 C 
BRANCH   3   4
ATOM      4  C   UNL A   1      32.734  18.596  23.933  1.00  0.00     0.188 C 
BRANCH   4   5
ATOM      5  O   UNL A   1      32.750  19.867  23.314  1.00  0.00    -0.376 OA
BRANCH   5   6
ATOM      6  C   UNL A   1      32.099  20.996  23.876  1.00  0.00     0.202 C 
BRANCH   6   7
ATOM      7  C   UNL A   1      32.034  21.363  25.374  1.00  0.00     0.261 C 
BRANCH   7   8
ATOM      8  O   UNL A   1      31.085  22.347  25.780  1.00  0.00    -0.460 OA
BRANCH   8   9
ATOM      9  C   UNL A   1      31.483  23.267  26.674  1.00  0.00     0.338 C 
ATOM     10  O   UNL A   1      31.894  23.070  27.803  1.00  0.00    -0.246 OA
BRANCH   9  11
ATOM     11  C   UNL A   1      31.513  24.571  25.977  1.00  0.00     0.087 C 
ATOM     12  C   UNL A   1      30.385  29.723  22.159  1.00  0.00     0.046 C 
ATOM     13  C   UNL A   1      30.385  28.584  23.147  1.00  0.00    -0.026 A 
ATOM     14  C   UNL A   1      29.182  27.902  23.424  1.00  0.00     0.045 A 
ATOM     15  C   UNL A   1      31.585  28.104  23.734  1.00  0.00    -0.004 A 
ATOM     16  Cl  UNL A   1      27.669  28.380  22.728  1.00  0.00    -0.084 Cl
ATOM     17  C   UNL A   1      29.162  26.771  24.241  1.00  0.00     0.032 A 
ATOM     18  C   UNL A   1      31.540  26.976  24.584  1.00  0.00     0.131 A 
ATOM     19  C   UNL A   1      32.931  28.748  23.493  1.00  0.00     0.049 C 
ATOM     20  C   UNL A   1      30.346  26.285  24.791  1.00  0.00     0.019 A 
ATOM     21  O   UNL A   1      32.720  26.594  25.162  1.00  0.00    -0.475 OA
ATOM     22  C   UNL A   1      30.348  25.017  25.496  1.00  0.00     0.027 C 
ATOM     23  C   UNL A   1      32.798  25.354  25.916  1.00  0.00     0.316 C 
BRANCH  23  24
ATOM     24  C   UNL A   1      33.957  24.529  25.340  1.00  0.00     0.430 C 
ATOM     25  F   UNL A   1      34.396  23.610  26.233  1.00  0.00    -0.167 F 
ATOM     26  F   UNL A   1      33.602  23.855  24.225  1.00  0.00    -0.167 F 
ATOM     27  F   UNL A   1      35.012  25.314  25.019  1.00  0.00    -0.167 F 
ENDBRANCH  23  24
ENDBRANCH   9  11
ENDBRANCH   8   9
ENDBRANCH   7   8
ENDBRANCH   6   7
ENDBRANCH   5   6
ENDBRANCH   4   5
ENDBRANCH   3   4
ENDBRANCH   2   3
ENDBRANCH   1   2
BRANCH   1  28
ATOM     28  C   UNL A   1      35.717  20.528  25.366  1.00  0.00     0.188 C 
BRANCH  28  29
ATOM     29  O   UNL A   1      36.741  21.518  25.351  1.00  0.00    -0.376 OA
BRANCH  29  30
ATOM     30  C   UNL A   1      38.042  21.113  24.953  1.00  0.00     0.202 C 
BRANCH  30  31
ATOM     31  C   UNL A   1      39.144  21.328  26.000  1.00  0.00     0.261 C 
BRANCH  31  32
ATOM     32  O   UNL A   1      39.710  20.134  26.560  1.00  0.00    -0.460 OA
BRANCH  32  33
ATOM     33  C   UNL A   1      40.972  19.818  26.196  1.00  0.00     0.338 C 
ATOM     34  O   UNL A   1      41.338  18.803  25.629  1.00  0.00    -0.246 OA
BRANCH  33  35
ATOM     35  C   UNL A   1      41.810  21.013  26.426  1.00  0.00     0.060 A 
ATOM     36  C   UNL A   1      42.166  21.351  27.738  1.00  0.00     0.016 A 
ATOM     37  C   UNL A   1      42.253  21.782  25.349  1.00  0.00     0.016 A 
ATOM     38  C   UNL A   1      42.947  22.484  27.976  1.00  0.00     0.010 A 
ATOM     39  C   UNL A   1      43.013  22.929  25.590  1.00  0.00     0.010 A 
ATOM     40  C   UNL A   1      43.337  23.302  26.907  1.00  0.00    -0.014 A 
BRANCH  40  41
ATOM     41  C   UNL A   1      43.882  24.654  27.179  1.00  0.00     0.031 A 
ATOM     42  C   UNL A   1      42.934  25.702  27.696  1.00  0.00     0.074 A 
ATOM     43  C   UNL A   1      45.187  24.937  27.014  1.00  0.00     0.049 A 
ATOM     44  N   UNL A   1      43.157  26.962  27.964  1.00  0.00    -0.248 NA
ATOM     45  C   UNL A   1      41.551  25.267  27.948  1.00  0.00     0.031 C 
ATOM     46  C   UNL A   1      46.211  23.987  26.587  1.00  0.00     0.029 A 
ATOM     47  N   UNL A   1      45.872  26.112  27.195  1.00  0.00    -0.354 N 
ATOM     48  C   UNL A   1      41.946  27.467  28.424  1.00  0.00     0.074 A 
ATOM     49  C   UNL A   1      40.983  26.390  28.363  1.00  0.00     0.031 C 
ATOM     50  C   UNL A   1      47.399  24.619  26.544  1.00  0.00     0.029 A 
ATOM     51  C   UNL A   1      47.213  26.024  26.901  1.00  0.00     0.049 A 
ATOM     52  H   UNL A   1      45.443  26.943  27.506  1.00  0.00     0.167 HD
ATOM     53  C   UNL A   1      41.666  28.713  28.873  1.00  0.00     0.034 A 
ATOM     54  C   UNL A   1      48.171  26.975  26.903  1.00  0.00     0.034 A 
ATOM     55  C   UNL A   1      42.626  29.783  28.921  1.00  0.00     0.049 A 
ATOM     56  C   UNL A   1      47.806  28.388  27.288  1.00  0.00     0.074 A 
ATOM     57  C   UNL A   1      42.438  31.086  29.344  1.00  0.00     0.029 A 
ATOM     58  N   UNL A   1      43.954  29.676  28.530  1.00  0.00    -0.354 N 
ATOM     59  N   UNL A   1      46.648  28.863  27.687  1.00  0.00    -0.248 NA
ATOM     60  C   UNL A   1      48.874  29.397  27.218  1.00  0.00     0.031 C 
ATOM     61  C   UNL A   1      43.633  31.784  29.148  1.00  0.00     0.029 A 
ATOM     62  C   UNL A   1      44.587  30.899  28.673  1.00  0.00     0.049 A 
ATOM     63  H   UNL A   1      44.382  28.853  28.200  1.00  0.00     0.167 HD
ATOM     64  C   UNL A   1      46.856  30.217  27.938  1.00  0.00     0.074 A 
ATOM     65  C   UNL A   1      48.251  30.484  27.652  1.00  0.00     0.031 C 
ATOM     66  C   UNL A   1      45.975  31.153  28.373  1.00  0.00     0.034 A 
BRANCH  53  67
ATOM     67  C   UNL A   1      40.256  28.993  29.315  1.00  0.00     0.023 A 
ATOM     68  C   UNL A   1      39.875  28.877  30.662  1.00  0.00     0.031 A 
ATOM     69  C   UNL A   1      39.289  29.403  28.382  1.00  0.00     0.131 A 
ATOM     70  C   UNL A   1      38.548  29.138  31.035  1.00  0.00     0.055 A 
ATOM     71  C   UNL A   1      37.985  29.720  28.769  1.00  0.00     0.041 A 
ATOM     72  F   UNL A   1      39.597  29.506  27.079  1.00  0.00    -0.206 F 
ATOM     73  C   UNL A   1      37.608  29.583  30.101  1.00  0.00     0.022 A 
BRANCH  70  74
ATOM     74  S   UNL A   1      38.047  28.818  32.747  1.00  0.00     0.124 S 
ATOM     75  O   UNL A   1      38.132  27.361  32.811  1.00  0.00    -0.237 OA
ATOM     76  O   UNL A   1      39.050  29.549  33.513  1.00  0.00    -0.237 OA
ATOM     77  O   UNL A   1      36.692  29.362  32.814  1.00  0.00    -0.744 OA
ENDBRANCH  70  74
ENDBRANCH  53  67
BRANCH  54  78
ATOM     78  C   UNL A   1      49.566  26.638  26.500  1.00  0.00     0.023 A 
ATOM     79  C   UNL A   1      50.076  27.037  25.255  1.00  0.00     0.031 A 
ATOM     80  C   UNL A   1      50.399  25.883  27.344  1.00  0.00     0.131 A 
ATOM     81  C   UNL A   1      51.375  26.658  24.877  1.00  0.00     0.055 A 
ATOM     82  C   UNL A   1      51.706  25.545  26.982  1.00  0.00     0.041 A 
ATOM     83  F   UNL A   1      49.959  25.472  28.544  1.00  0.00    -0.206 F 
ATOM     84  C   UNL A   1      52.197  25.927  25.738  1.00  0.00     0.022 A 
BRANCH  81  85
ATOM     85  S   UNL A   1      51.966  27.102  23.221  1.00  0.00     0.124 S 
ATOM     86  O   UNL A   1      53.055  26.151  23.030  1.00  0.00    -0.237 OA
ATOM     87  O   UNL A   1      50.774  26.887  22.405  1.00  0.00    -0.237 OA
ATOM     88  O   UNL A   1      52.373  28.497  23.367  1.00  0.00    -0.744 OA
ENDBRANCH  81  85
ENDBRANCH  54  78
BRANCH  66  89
ATOM     89  C   UNL A   1      46.489  32.552  28.596  1.00  0.00     0.023 A 
ATOM     90  C   UNL A   1      47.136  32.916  29.788  1.00  0.00     0.031 A 
ATOM     91  C   UNL A   1      46.387  33.513  27.573  1.00  0.00     0.131 A 
ATOM     92  C   UNL A   1      47.637  34.217  29.939  1.00  0.00     0.055 A 
ATOM     93  C   UNL A   1      46.930  34.790  27.711  1.00  0.00     0.041 A 
ATOM     94  F   UNL A   1      45.783  33.212  26.412  1.00  0.00    -0.206 F 
ATOM     95  C   UNL A   1      47.555  35.150  28.902  1.00  0.00     0.022 A 
BRANCH  92  96
ATOM     96  S   UNL A   1      48.371  34.689  31.528  1.00  0.00     0.124 S 
ATOM     97  O   UNL A   1      49.527  33.803  31.603  1.00  0.00    -0.237 OA
ATOM     98  O   UNL A   1      48.667  36.106  31.330  1.00  0.00    -0.237 OA
ATOM     99  O   UNL A   1      47.310  34.410  32.494  1.00  0.00    -0.744 OA
ENDBRANCH  92  96
ENDBRANCH  66  89
ENDBRANCH  40  41
ENDBRANCH  33  35
ENDBRANCH  32  33
ENDBRANCH  31  32
ENDBRANCH  30  31
ENDBRANCH  29  30
ENDBRANCH  28  29
ENDBRANCH   1  28
TORSDOF 24
ENDMDL
MODEL 2
REMARK VINA RESULT:     -10.2      1.291      7.330
REMARK SMILES Cc1c(Cl)cc2c(c1C)O[C@H](C(F)(F)F)C(C(=O)OCCOCCOCCOCCOC(=O)c1ccc(-c3c4nc(c(-c5cc(S(=O)(=O)[O-])ccc5F)c5ccc([nH]5)c(-c5cc(S(=O)(=O)[O-])ccc5F)c5nc(c(-c6cc(S(=O)(=O)[O-])ccc6F)c6ccc3[nH]6)C=C5)C=C4)cc1)=C2
REMARK SMILES IDX 26 1 25 2 24 3 23 4 22 5 21 6 20 7 19 8 17 9 18 10 16 11
REMARK SMILES IDX 1 12 2 13 3 14 8 15 4 16 5 17 7 18 9 19 6 20 10 21 97 22
REMARK SMILES IDX 11 23 12 24 13 25 14 26 15 27 27 28 28 29 29 30 30 31 31 32
REMARK SMILES IDX 32 33 33 34 34 35 35 36 96 37 36 38 95 39 37 40 38 41 39 42
REMARK SMILES IDX 89 43 40 44 94 45 88 46 90 47 41 48 93 49 87 50 86 51 42 53
REMARK SMILES IDX 74 54 54 55 73 56 55 57 58 58 72 59 91 60 56 61 57 62 71 64
REMARK SMILES IDX 92 65 59 66 43 67 44 68 52 69 45 70 51 71 53 72 50 73 46 74
REMARK SMILES IDX 47 75 48 76 49 77 75 78 76 79 84 80 77 81 83 82 85 83 82 84
REMARK SMILES IDX 78 85 79 86 80 87 81 88 60 89 61 90 69 91 62 92 68 93 70 94
REMARK SMILES IDX 67 95 63 96 64 97 65 98 66 99
REMARK H PARENT 90 52 58 63
REMARK Flexibility Score: inf
ROOT
ATOM      1  C   UNL A   1      35.983  18.877  24.650  1.00  0.00     0.188 C 
ENDROOT
BRANCH   1   2
ATOM      2  O   UNL A   1      34.929  17.947  24.400  1.00  0.00    -0.377 OA
BRANCH   2   3
ATOM      3  C   UNL A   1      33.709  18.140  25.095  1.00  0.00     0.188 C 
BRANCH   3   4
ATOM      4  C   UNL A   1      32.533  18.466  24.156  1.00  0.00     0.188 C 
BRANCH   4   5
ATOM      5  O   UNL A   1      32.673  19.672  23.431  1.00  0.00    -0.376 OA
BRANCH   5   6
ATOM      6  C   UNL A   1      32.105  20.896  23.870  1.00  0.00     0.202 C 
BRANCH   6   7
ATOM      7  C   UNL A   1      31.999  21.382  25.332  1.00  0.00     0.261 C 
BRANCH   7   8
ATOM      8  O   UNL A   1      31.073  22.426  25.622  1.00  0.00    -0.460 OA
BRANCH   8   9
ATOM      9  C   UNL A   1      31.440  23.355  26.520  1.00  0.00     0.338 C 
ATOM     10  O   UNL A   1      31.823  23.168  27.661  1.00  0.00    -0.246 OA
BRANCH   9  11
ATOM     11  C   UNL A   1      31.479  24.655  25.816  1.00  0.00     0.087 C 
ATOM     12  C   UNL A   1      30.352  29.816  22.010  1.00  0.00     0.046 C 
ATOM     13  C   UNL A   1      30.356  28.681  23.003  1.00  0.00    -0.026 A 
ATOM     14  C   UNL A   1      29.147  28.028  23.321  1.00  0.00     0.045 A 
ATOM     15  C   UNL A   1      31.562  28.176  23.555  1.00  0.00    -0.004 A 
ATOM     16  Cl  UNL A   1      27.625  28.538  22.669  1.00  0.00    -0.084 Cl
ATOM     17  C   UNL A   1      29.126  26.902  24.143  1.00  0.00     0.032 A 
ATOM     18  C   UNL A   1      31.518  27.053  24.411  1.00  0.00     0.131 A 
ATOM     19  C   UNL A   1      32.914  28.788  23.270  1.00  0.00     0.049 C 
ATOM     20  C   UNL A   1      30.315  26.390  24.658  1.00  0.00     0.019 A 
ATOM     21  O   UNL A   1      32.706  26.646  24.955  1.00  0.00    -0.475 OA
ATOM     22  C   UNL A   1      30.309  25.126  25.369  1.00  0.00     0.027 C 
ATOM     23  C   UNL A   1      32.779  25.408  25.712  1.00  0.00     0.316 C 
BRANCH  23  24
ATOM     24  C   UNL A   1      33.900  24.554  25.105  1.00  0.00     0.430 C 
ATOM     25  F   UNL A   1      34.379  23.661  26.005  1.00  0.00    -0.167 F 
ATOM     26  F   UNL A   1      33.482  23.846  24.033  1.00  0.00    -0.167 F 
ATOM     27  F   UNL A   1      34.942  25.319  24.703  1.00  0.00    -0.167 F 
ENDBRANCH  23  24
ENDBRANCH   9  11
ENDBRANCH   8   9
ENDBRANCH   7   8
ENDBRANCH   6   7
ENDBRANCH   5   6
ENDBRANCH   4   5
ENDBRANCH   3   4
ENDBRANCH   2   3
ENDBRANCH   1   2
BRANCH   1  28
ATOM     28  C   UNL A   1      35.676  20.327  25.093  1.00  0.00     0.188 C 
BRANCH  28  29
ATOM     29  O   UNL A   1      36.826  21.072  25.484  1.00  0.00    -0.376 OA
BRANCH  29  30
ATOM     30  C   UNL A   1      38.089  20.627  25.012  1.00  0.00     0.202 C 
BRANCH  30  31
ATOM     31  C   UNL A   1      39.295  21.075  25.848  1.00  0.00     0.261 C 
BRANCH  31  32
ATOM     32  O   UNL A   1      40.021  20.025  26.504  1.00  0.00    -0.460 OA
BRANCH  32  33
ATOM     33  C   UNL A   1      41.334  19.902  26.209  1.00  0.00     0.338 C 
ATOM     34  O   UNL A   1      41.882  18.943  25.695  1.00  0.00    -0.246 OA
BRANCH  33  35
ATOM     35  C   UNL A   1      41.962  21.220  26.437  1.00  0.00     0.060 A 
ATOM     36  C   UNL A   1      42.268  21.610  27.747  1.00  0.00     0.016 A 
ATOM     37  C   UNL A   1      42.259  22.056  25.359  1.00  0.00     0.016 A 
ATOM     38  C   UNL A   1      42.851  22.857  27.983  1.00  0.00     0.010 A 
ATOM     39  C   UNL A   1      42.818  23.313  25.598  1.00  0.00     0.010 A 
ATOM     40  C   UNL A   1      43.088  23.732  26.913  1.00  0.00    -0.014 A 
BRANCH  40  41
ATOM     41  C   UNL A   1      43.401  25.155  27.186  1.00  0.00     0.031 A 
ATOM     42  C   UNL A   1      44.796  25.637  26.889  1.00  0.00     0.074 A 
ATOM     43  C   UNL A   1      42.469  26.009  27.646  1.00  0.00     0.049 A 
ATOM     44  N   UNL A   1      45.325  26.816  27.084  1.00  0.00    -0.248 NA
ATOM     45  C   UNL A   1      45.713  24.655  26.287  1.00  0.00     0.031 C 
ATOM     46  C   UNL A   1      41.070  25.676  27.903  1.00  0.00     0.029 A 
ATOM     47  N   UNL A   1      42.564  27.339  27.970  1.00  0.00    -0.354 N 
ATOM     48  C   UNL A   1      46.632  26.720  26.621  1.00  0.00     0.074 A 
ATOM     49  C   UNL A   1      46.829  25.360  26.172  1.00  0.00     0.031 C 
ATOM     50  C   UNL A   1      40.435  26.778  28.342  1.00  0.00     0.029 A 
ATOM     51  C   UNL A   1      41.388  27.883  28.435  1.00  0.00     0.049 A 
ATOM     52  H   UNL A   1      43.396  27.858  27.879  1.00  0.00     0.167 HD
ATOM     53  C   UNL A   1      47.580  27.686  26.560  1.00  0.00     0.034 A 
ATOM     54  C   UNL A   1      41.123  29.123  28.897  1.00  0.00     0.034 A 
ATOM     55  C   UNL A   1      47.381  29.035  27.018  1.00  0.00     0.049 A 
ATOM     56  C   UNL A   1      42.231  30.148  28.936  1.00  0.00     0.074 A 
ATOM     57  C   UNL A   1      48.283  30.083  27.016  1.00  0.00     0.029 A 
ATOM     58  N   UNL A   1      46.202  29.522  27.565  1.00  0.00    -0.354 N 
ATOM     59  N   UNL A   1      43.475  30.036  28.528  1.00  0.00    -0.248 NA
ATOM     60  C   UNL A   1      41.904  31.465  29.502  1.00  0.00     0.031 C 
ATOM     61  C   UNL A   1      47.672  31.185  27.620  1.00  0.00     0.029 A 
ATOM     62  C   UNL A   1      46.364  30.846  27.932  1.00  0.00     0.049 A 
ATOM     63  H   UNL A   1      45.373  29.001  27.676  1.00  0.00     0.167 HD
ATOM     64  C   UNL A   1      44.068  31.273  28.767  1.00  0.00     0.074 A 
ATOM     65  C   UNL A   1      43.046  32.120  29.348  1.00  0.00     0.031 C 
ATOM     66  C   UNL A   1      45.340  31.675  28.520  1.00  0.00     0.034 A 
BRANCH  53  67
ATOM     67  C   UNL A   1      48.926  27.306  26.008  1.00  0.00     0.023 A 
ATOM     68  C   UNL A   1      49.995  26.967  26.853  1.00  0.00     0.031 A 
ATOM     69  C   UNL A   1      49.134  27.258  24.618  1.00  0.00     0.131 A 
ATOM     70  C   UNL A   1      51.238  26.626  26.301  1.00  0.00     0.055 A 
ATOM     71  C   UNL A   1      50.356  26.859  24.074  1.00  0.00     0.041 A 
ATOM     72  F   UNL A   1      48.151  27.595  23.769  1.00  0.00    -0.206 F 
ATOM     73  C   UNL A   1      51.418  26.545  24.917  1.00  0.00     0.022 A 
BRANCH  70  74
ATOM     74  S   UNL A   1      52.642  26.359  27.417  1.00  0.00     0.124 S 
ATOM     75  O   UNL A   1      51.965  26.141  28.693  1.00  0.00    -0.237 OA
ATOM     76  O   UNL A   1      53.295  25.193  26.832  1.00  0.00    -0.237 OA
ATOM     77  O   UNL A   1      53.396  27.608  27.323  1.00  0.00    -0.744 OA
ENDBRANCH  70  74
ENDBRANCH  53  67
BRANCH  54  78
ATOM     78  C   UNL A   1      39.759  29.465  29.391  1.00  0.00     0.023 A 
ATOM     79  C   UNL A   1      39.475  29.502  30.765  1.00  0.00     0.031 A 
ATOM     80  C   UNL A   1      38.710  29.731  28.493  1.00  0.00     0.131 A 
ATOM     81  C   UNL A   1      38.168  29.772  31.203  1.00  0.00     0.055 A 
ATOM     82  C   UNL A   1      37.422  30.042  28.934  1.00  0.00     0.041 A 
ATOM     83  F   UNL A   1      38.927  29.705  27.169  1.00  0.00    -0.206 F 
ATOM     84  C   UNL A   1      37.144  30.056  30.297  1.00  0.00     0.022 A 
BRANCH  81  85
ATOM     85  S   UNL A   1      37.813  29.710  32.981  1.00  0.00     0.124 S 
ATOM     86  O   UNL A   1      39.096  30.102  33.553  1.00  0.00    -0.237 OA
ATOM     87  O   UNL A   1      36.729  30.679  33.109  1.00  0.00    -0.237 OA
ATOM     88  O   UNL A   1      37.429  28.318  33.202  1.00  0.00    -0.744 OA
ENDBRANCH  81  85
ENDBRANCH  54  78
BRANCH  66  89
ATOM     89  C   UNL A   1      45.703  33.099  28.849  1.00  0.00     0.023 A 
ATOM     90  C   UNL A   1      46.287  33.443  30.080  1.00  0.00     0.031 A 
ATOM     91  C   UNL A   1      45.523  34.115  27.892  1.00  0.00     0.131 A 
ATOM     92  C   UNL A   1      46.648  34.775  30.332  1.00  0.00     0.055 A 
ATOM     93  C   UNL A   1      45.929  35.428  28.129  1.00  0.00     0.041 A 
ATOM     94  F   UNL A   1      44.975  33.836  26.698  1.00  0.00    -0.206 F 
ATOM     95  C   UNL A   1      46.491  35.765  29.358  1.00  0.00     0.022 A 
BRANCH  92  96
ATOM     96  S   UNL A   1      47.300  35.206  31.967  1.00  0.00     0.124 S 
ATOM     97  O   UNL A   1      48.363  36.147  31.631  1.00  0.00    -0.237 OA
ATOM     98  O   UNL A   1      46.131  35.776  32.632  1.00  0.00    -0.237 OA
ATOM     99  O   UNL A   1      47.752  33.925  32.506  1.00  0.00    -0.744 OA
ENDBRANCH  92  96
ENDBRANCH  66  89
ENDBRANCH  40  41
ENDBRANCH  33  35
ENDBRANCH  32  33
ENDBRANCH  31  32
ENDBRANCH  30  31
ENDBRANCH  29  30
ENDBRANCH  28  29
ENDBRANCH   1  28
TORSDOF 24
ENDMDL
MODEL 3
REMARK VINA RESULT:     -10.2      1.865      2.150
REMARK SMILES Cc1c(Cl)cc2c(c1C)O[C@H](C(F)(F)F)C(C(=O)OCCOCCOCCOCCOC(=O)c1ccc(-c3c4nc(c(-c5cc(S(=O)(=O)[O-])ccc5F)c5ccc([nH]5)c(-c5cc(S(=O)(=O)[O-])ccc5F)c5nc(c(-c6cc(S(=O)(=O)[O-])ccc6F)c6ccc3[nH]6)C=C5)C=C4)cc1)=C2
REMARK SMILES IDX 26 1 25 2 24 3 23 4 22 5 21 6 20 7 19 8 17 9 18 10 16 11
REMARK SMILES IDX 1 12 2 13 3 14 8 15 4 16 5 17 7 18 9 19 6 20 10 21 97 22
REMARK SMILES IDX 11 23 12 24 13 25 14 26 15 27 27 28 28 29 29 30 30 31 31 32
REMARK SMILES IDX 32 33 33 34 34 35 35 36 96 37 36 38 95 39 37 40 38 41 39 42
REMARK SMILES IDX 89 43 40 44 94 45 88 46 90 47 41 48 93 49 87 50 86 51 42 53
REMARK SMILES IDX 74 54 54 55 73 56 55 57 58 58 72 59 91 60 56 61 57 62 71 64
REMARK SMILES IDX 92 65 59 66 43 67 44 68 52 69 45 70 51 71 53 72 50 73 46 74
REMARK SMILES IDX 47 75 48 76 49 77 75 78 76 79 84 80 77 81 83 82 85 83 82 84
REMARK SMILES IDX 78 85 79 86 80 87 81 88 60 89 61 90 69 91 62 92 68 93 70 94
REMARK SMILES IDX 67 95 63 96 64 97 65 98 66 99
REMARK H PARENT 90 52 58 63
REMARK Flexibility Score: inf
ROOT
ATOM      1  C   UNL A   1      36.029  19.327  24.653  1.00  0.00     0.188 C 
ENDROOT
BRANCH   1   2
ATOM      2  O   UNL A   1      35.078  18.285  24.428  1.00  0.00    -0.377 OA
BRANCH   2   3
ATOM      3  C   UNL A   1      33.786  18.449  24.988  1.00  0.00     0.188 C 
BRANCH   3   4
ATOM      4  C   UNL A   1      32.691  18.616  23.919  1.00  0.00     0.188 C 
BRANCH   4   5
ATOM      5  O   UNL A   1      32.679  19.877  23.278  1.00  0.00    -0.376 OA
BRANCH   5   6
ATOM      6  C   UNL A   1      32.024  21.007  23.833  1.00  0.00     0.202 C 
BRANCH   6   7
ATOM      7  C   UNL A   1      32.034  21.431  25.318  1.00  0.00     0.261 C 
BRANCH   7   8
ATOM      8  O   UNL A   1      31.112  22.437  25.730  1.00  0.00    -0.460 OA
BRANCH   8   9
ATOM      9  C   UNL A   1      31.535  23.343  26.627  1.00  0.00     0.338 C 
ATOM     10  O   UNL A   1      31.976  23.128  27.741  1.00  0.00    -0.246 OA
BRANCH   9  11
ATOM     11  C   UNL A   1      31.548  24.658  25.950  1.00  0.00     0.087 C 
ATOM     12  C   UNL A   1      30.377  29.837  22.182  1.00  0.00     0.046 C 
ATOM     13  C   UNL A   1      30.384  28.684  23.154  1.00  0.00    -0.026 A 
ATOM     14  C   UNL A   1      29.192  27.968  23.393  1.00  0.00     0.045 A 
ATOM     15  C   UNL A   1      31.582  28.225  23.761  1.00  0.00    -0.004 A 
ATOM     16  Cl  UNL A   1      27.684  28.419  22.670  1.00  0.00    -0.084 Cl
ATOM     17  C   UNL A   1      29.182  26.825  24.193  1.00  0.00     0.032 A 
ATOM     18  C   UNL A   1      31.546  27.084  24.593  1.00  0.00     0.131 A 
ATOM     19  C   UNL A   1      32.916  28.906  23.560  1.00  0.00     0.049 C 
ATOM     20  C   UNL A   1      30.366  26.360  24.762  1.00  0.00     0.019 A 
ATOM     21  O   UNL A   1      32.722  26.722  25.192  1.00  0.00    -0.475 OA
ATOM     22  C   UNL A   1      30.383  25.082  25.449  1.00  0.00     0.027 C 
ATOM     23  C   UNL A   1      32.814  25.473  25.929  1.00  0.00     0.316 C 
BRANCH  23  24
ATOM     24  C   UNL A   1      34.006  24.686  25.369  1.00  0.00     0.430 C 
ATOM     25  F   UNL A   1      34.575  23.911  26.323  1.00  0.00    -0.167 F 
ATOM     26  F   UNL A   1      33.647  23.864  24.358  1.00  0.00    -0.167 F 
ATOM     27  F   UNL A   1      34.967  25.513  24.896  1.00  0.00    -0.167 F 
ENDBRANCH  23  24
ENDBRANCH   9  11
ENDBRANCH   8   9
ENDBRANCH   7   8
ENDBRANCH   6   7
ENDBRANCH   5   6
ENDBRANCH   4   5
ENDBRANCH   3   4
ENDBRANCH   2   3
ENDBRANCH   1   2
BRANCH   1  28
ATOM     28  C   UNL A   1      35.621  20.635  25.373  1.00  0.00     0.188 C 
BRANCH  28  29
ATOM     29  O   UNL A   1      36.592  21.673  25.286  1.00  0.00    -0.376 OA
BRANCH  29  30
ATOM     30  C   UNL A   1      37.911  21.310  24.909  1.00  0.00     0.202 C 
BRANCH  30  31
ATOM     31  C   UNL A   1      38.986  21.540  25.981  1.00  0.00     0.261 C 
BRANCH  31  32
ATOM     32  O   UNL A   1      39.514  20.355  26.595  1.00  0.00    -0.460 OA
BRANCH  32  33
ATOM     33  C   UNL A   1      40.792  20.026  26.306  1.00  0.00     0.338 C 
ATOM     34  O   UNL A   1      41.179  19.014  25.748  1.00  0.00    -0.246 OA
BRANCH  33  35
ATOM     35  C   UNL A   1      41.631  21.204  26.607  1.00  0.00     0.060 A 
ATOM     36  C   UNL A   1      41.891  21.530  27.944  1.00  0.00     0.016 A 
ATOM     37  C   UNL A   1      42.168  21.971  25.571  1.00  0.00     0.016 A 
ATOM     38  C   UNL A   1      42.672  22.648  28.248  1.00  0.00     0.010 A 
ATOM     39  C   UNL A   1      42.928  23.103  25.876  1.00  0.00     0.010 A 
ATOM     40  C   UNL A   1      43.156  23.464  27.216  1.00  0.00    -0.014 A 
BRANCH  40  41
ATOM     41  C   UNL A   1      43.702  24.804  27.537  1.00  0.00     0.031 A 
ATOM     42  C   UNL A   1      42.732  25.877  27.952  1.00  0.00     0.074 A 
ATOM     43  C   UNL A   1      45.023  25.057  27.503  1.00  0.00     0.049 A 
ATOM     44  N   UNL A   1      42.955  27.133  28.236  1.00  0.00    -0.248 NA
ATOM     45  C   UNL A   1      41.320  25.475  28.065  1.00  0.00     0.031 C 
ATOM     46  C   UNL A   1      46.063  24.081  27.185  1.00  0.00     0.029 A 
ATOM     47  N   UNL A   1      45.714  26.217  27.748  1.00  0.00    -0.354 N 
ATOM     48  C   UNL A   1      41.716  27.668  28.570  1.00  0.00     0.074 A 
ATOM     49  C   UNL A   1      40.740  26.613  28.416  1.00  0.00     0.031 C 
ATOM     50  C   UNL A   1      47.263  24.685  27.260  1.00  0.00     0.029 A 
ATOM     51  C   UNL A   1      47.075  26.097  27.591  1.00  0.00     0.049 A 
ATOM     52  H   UNL A   1      45.276  27.059  28.011  1.00  0.00     0.167 HD
ATOM     53  C   UNL A   1      41.422  28.923  28.984  1.00  0.00     0.034 A 
ATOM     54  C   UNL A   1      48.050  27.025  27.687  1.00  0.00     0.034 A 
ATOM     55  C   UNL A   1      42.397  29.971  29.125  1.00  0.00     0.049 A 
ATOM     56  C   UNL A   1      47.681  28.449  28.028  1.00  0.00     0.074 A 
ATOM     57  C   UNL A   1      42.197  31.280  29.522  1.00  0.00     0.029 A 
ATOM     58  N   UNL A   1      43.754  29.832  28.871  1.00  0.00    -0.354 N 
ATOM     59  N   UNL A   1      46.500  28.952  28.306  1.00  0.00    -0.248 NA
ATOM     60  C   UNL A   1      48.773  29.433  28.063  1.00  0.00     0.031 C 
ATOM     61  C   UNL A   1      43.421  31.950  29.445  1.00  0.00     0.029 A 
ATOM     62  C   UNL A   1      44.398  31.040  29.072  1.00  0.00     0.049 A 
ATOM     63  H   UNL A   1      44.194  28.997  28.589  1.00  0.00     0.167 HD
ATOM     64  C   UNL A   1      46.713  30.303  28.572  1.00  0.00     0.074 A 
ATOM     65  C   UNL A   1      48.135  30.536  28.427  1.00  0.00     0.031 C 
ATOM     66  C   UNL A   1      45.815  31.261  28.913  1.00  0.00     0.034 A 
BRANCH  53  67
ATOM     67  C   UNL A   1      39.981  29.237  29.281  1.00  0.00     0.023 A 
ATOM     68  C   UNL A   1      39.506  29.316  30.601  1.00  0.00     0.031 A 
ATOM     69  C   UNL A   1      39.079  29.484  28.232  1.00  0.00     0.131 A 
ATOM     70  C   UNL A   1      38.154  29.603  30.838  1.00  0.00     0.055 A 
ATOM     71  C   UNL A   1      37.749  29.829  28.476  1.00  0.00     0.041 A 
ATOM     72  F   UNL A   1      39.478  29.399  26.954  1.00  0.00    -0.206 F 
ATOM     73  C   UNL A   1      37.279  29.885  29.785  1.00  0.00     0.022 A 
BRANCH  70  74
ATOM     74  S   UNL A   1      37.535  29.531  32.540  1.00  0.00     0.124 S 
ATOM     75  O   UNL A   1      38.560  30.287  33.257  1.00  0.00    -0.237 OA
ATOM     76  O   UNL A   1      36.229  30.172  32.430  1.00  0.00    -0.237 OA
ATOM     77  O   UNL A   1      37.505  28.099  32.833  1.00  0.00    -0.744 OA
ENDBRANCH  70  74
ENDBRANCH  53  67
BRANCH  54  78
ATOM     78  C   UNL A   1      49.470  26.654  27.427  1.00  0.00     0.023 A 
ATOM     79  C   UNL A   1      50.427  26.690  28.453  1.00  0.00     0.031 A 
ATOM     80  C   UNL A   1      49.897  26.287  26.139  1.00  0.00     0.131 A 
ATOM     81  C   UNL A   1      51.769  26.389  28.170  1.00  0.00     0.055 A 
ATOM     82  C   UNL A   1      51.225  25.948  25.870  1.00  0.00     0.041 A 
ATOM     83  F   UNL A   1      49.023  26.242  25.121  1.00  0.00    -0.206 F 
ATOM     84  C   UNL A   1      52.171  26.005  26.888  1.00  0.00     0.022 A 
BRANCH  81  85
ATOM     85  S   UNL A   1      52.997  26.545  29.495  1.00  0.00     0.124 S 
ATOM     86  O   UNL A   1      52.946  27.974  29.779  1.00  0.00    -0.237 OA
ATOM     87  O   UNL A   1      52.449  25.665  30.523  1.00  0.00    -0.237 OA
ATOM     88  O   UNL A   1      54.232  26.076  28.872  1.00  0.00    -0.744 OA
ENDBRANCH  81  85
ENDBRANCH  54  78
BRANCH  66  89
ATOM     89  C   UNL A   1      46.336  32.649  29.181  1.00  0.00     0.023 A 
ATOM     90  C   UNL A   1      46.396  33.620  28.168  1.00  0.00     0.031 A 
ATOM     91  C   UNL A   1      46.715  33.022  30.484  1.00  0.00     0.131 A 
ATOM     92  C   UNL A   1      46.849  34.913  28.469  1.00  0.00     0.055 A 
ATOM     93  C   UNL A   1      47.118  34.323  30.787  1.00  0.00     0.041 A 
ATOM     94  F   UNL A   1      46.670  32.133  31.489  1.00  0.00    -0.206 F 
ATOM     95  C   UNL A   1      47.192  35.275  29.774  1.00  0.00     0.022 A 
BRANCH  92  96
ATOM     96  S   UNL A   1      47.016  36.113  27.120  1.00  0.00     0.124 S 
ATOM     97  O   UNL A   1      46.841  35.271  25.941  1.00  0.00    -0.237 OA
ATOM     98  O   UNL A   1      45.933  37.052  27.398  1.00  0.00    -0.237 OA
ATOM     99  O   UNL A   1      48.362  36.652  27.304  1.00  0.00    -0.744 OA
ENDBRANCH  92  96
ENDBRANCH  66  89
ENDBRANCH  40  41
ENDBRANCH  33  35
ENDBRANCH  32  33
ENDBRANCH  31  32
ENDBRANCH  30  31
ENDBRANCH  29  30
ENDBRANCH  28  29
ENDBRANCH   1  28
TORSDOF 24
ENDMDL
