MODEL 1
REMARK VINA RESULT:      -8.7      0.000      0.000
REMARK SMILES O=C(OCCOCCOCCOCCOC(=O)[C@@H](Cc1ccccc1)N1C(=O)/C(=C/c2ccc3ncccc3c2)SC1=S)c1ccc(-c2c3nc(c(-c4cc(S(=O)(=O)[O-])ccc4F)c4ccc([nH]4)c(-c4cc(S(=O)(=O)[O-])ccc4F)c4nc(c(-c5cc(S(=O)(=O)[O-])ccc5F)c5ccc2[nH]5)C=C4)C=C3)cc1
REMARK SMILES IDX 8 1 7 2 6 3 5 4 4 5 3 6 2 7 1 8 44 9 45 10 106 11 46 12
REMARK SMILES IDX 105 13 47 14 48 15 49 16 99 17 50 18 104 19 98 20 100 21
REMARK SMILES IDX 51 22 103 23 97 24 96 25 52 27 84 28 64 29 83 30 65 31 68 32
REMARK SMILES IDX 82 33 101 34 66 35 67 36 81 38 102 39 69 40 53 41 54 42
REMARK SMILES IDX 62 43 55 44 61 45 63 46 60 47 56 48 57 49 58 50 59 51 85 52
REMARK SMILES IDX 86 53 94 54 87 55 93 56 95 57 92 58 88 59 89 60 90 61 91 62
REMARK SMILES IDX 70 63 71 64 79 65 72 66 78 67 80 68 77 69 73 70 74 71 75 72
REMARK SMILES IDX 76 73 9 74 10 75 11 76 12 77 13 78 14 79 15 80 16 81 17 82
REMARK SMILES IDX 18 83 19 84 20 85 21 86 25 87 22 88 24 89 23 90 26 91 27 92
REMARK SMILES IDX 42 93 28 94 29 95 41 96 43 97 30 98 31 99 32 100 40 101
REMARK SMILES IDX 33 102 39 103 34 104 38 105 35 106 37 107 36 108
REMARK H PARENT 100 26 68 37
REMARK Flexibility Score: inf
ROOT
ATOM      1  C   UNL A   1      31.249  27.787  26.745  1.00  0.00     0.188 C 
ENDROOT
BRANCH   1   2
ATOM      2  C   UNL A   1      32.302  28.865  26.660  1.00  0.00     0.188 C 
BRANCH   2   3
ATOM      3  O   UNL A   1      31.630  30.105  26.728  1.00  0.00    -0.376 OA
BRANCH   3   4
ATOM      4  C   UNL A   1      32.379  31.264  27.042  1.00  0.00     0.202 C 
BRANCH   4   5
ATOM      5  C   UNL A   1      33.781  30.999  27.566  1.00  0.00     0.261 C 
BRANCH   5   6
ATOM      6  O   UNL A   1      34.489  32.151  28.064  1.00  0.00    -0.460 OA
BRANCH   6   7
ATOM      7  C   UNL A   1      34.954  32.464  29.297  1.00  0.00     0.338 C 
ATOM      8  O   UNL A   1      34.139  32.853  30.134  1.00  0.00    -0.246 OA
BRANCH   7   9
ATOM      9  C   UNL A   1      36.387  32.417  29.713  1.00  0.00     0.060 A 
ATOM     10  C   UNL A   1      36.890  32.937  30.899  1.00  0.00     0.016 A 
ATOM     11  C   UNL A   1      37.275  31.687  28.908  1.00  0.00     0.016 A 
ATOM     12  C   UNL A   1      38.204  32.800  31.282  1.00  0.00     0.010 A 
ATOM     13  C   UNL A   1      38.616  31.530  29.278  1.00  0.00     0.010 A 
ATOM     14  C   UNL A   1      39.077  32.111  30.464  1.00  0.00    -0.014 A 
BRANCH  14  15
ATOM     15  C   UNL A   1      40.497  32.262  30.794  1.00  0.00     0.031 A 
ATOM     16  C   UNL A   1      41.161  31.085  31.432  1.00  0.00     0.074 A 
ATOM     17  C   UNL A   1      41.185  33.313  30.319  1.00  0.00     0.049 A 
ATOM     18  N   UNL A   1      42.359  30.976  31.925  1.00  0.00    -0.248 NA
ATOM     19  C   UNL A   1      40.360  29.848  31.509  1.00  0.00     0.031 C 
ATOM     20  C   UNL A   1      40.631  34.371  29.463  1.00  0.00     0.029 A 
ATOM     21  N   UNL A   1      42.500  33.652  30.452  1.00  0.00    -0.354 N 
ATOM     22  C   UNL A   1      42.436  29.682  32.424  1.00  0.00     0.074 A 
ATOM     23  C   UNL A   1      41.172  29.036  32.162  1.00  0.00     0.031 C 
ATOM     24  C   UNL A   1      41.606  35.242  29.156  1.00  0.00     0.029 A 
ATOM     25  C   UNL A   1      42.812  34.861  29.877  1.00  0.00     0.049 A 
ATOM     26  H   UNL A   1      43.161  33.086  30.914  1.00  0.00     0.167 HD
ATOM     27  C   UNL A   1      43.480  29.114  33.070  1.00  0.00     0.034 A 
ATOM     28  C   UNL A   1      43.932  35.598  29.999  1.00  0.00     0.034 A 
ATOM     29  C   UNL A   1      44.704  29.833  33.303  1.00  0.00     0.049 A 
ATOM     30  C   UNL A   1      45.024  35.017  30.865  1.00  0.00     0.074 A 
ATOM     31  C   UNL A   1      45.815  29.451  34.025  1.00  0.00     0.029 A 
ATOM     32  N   UNL A   1      44.963  31.111  32.807  1.00  0.00    -0.354 N 
ATOM     33  N   UNL A   1      45.064  33.846  31.463  1.00  0.00    -0.248 NA
ATOM     34  C   UNL A   1      46.206  35.852  31.092  1.00  0.00     0.031 C 
ATOM     35  C   UNL A   1      46.710  30.527  34.031  1.00  0.00     0.029 A 
ATOM     36  C   UNL A   1      46.199  31.547  33.237  1.00  0.00     0.049 A 
ATOM     37  H   UNL A   1      44.351  31.626  32.232  1.00  0.00     0.167 HD
ATOM     38  C   UNL A   1      46.286  33.793  32.122  1.00  0.00     0.074 A 
ATOM     39  C   UNL A   1      46.959  35.046  31.827  1.00  0.00     0.031 C 
ATOM     40  C   UNL A   1      46.813  32.814  32.902  1.00  0.00     0.034 A 
BRANCH  27  41
ATOM     41  C   UNL A   1      43.249  27.751  33.669  1.00  0.00     0.023 A 
ATOM     42  C   UNL A   1      42.497  27.560  34.842  1.00  0.00     0.031 A 
ATOM     43  C   UNL A   1      43.911  26.636  33.123  1.00  0.00     0.131 A 
ATOM     44  C   UNL A   1      42.498  26.307  35.476  1.00  0.00     0.055 A 
ATOM     45  C   UNL A   1      43.836  25.372  33.711  1.00  0.00     0.041 A 
ATOM     46  F   UNL A   1      44.681  26.765  32.031  1.00  0.00    -0.206 F 
ATOM     47  C   UNL A   1      43.141  25.206  34.905  1.00  0.00     0.022 A 
BRANCH  44  48
ATOM     48  S   UNL A   1      41.800  26.178  37.147  1.00  0.00     0.124 S 
ATOM     49  O   UNL A   1      41.199  24.847  37.114  1.00  0.00    -0.237 OA
ATOM     50  O   UNL A   1      42.978  26.324  37.995  1.00  0.00    -0.237 OA
ATOM     51  O   UNL A   1      40.846  27.283  37.208  1.00  0.00    -0.744 OA
ENDBRANCH  44  48
ENDBRANCH  27  41
BRANCH  28  52
ATOM     52  C   UNL A   1      44.026  36.969  29.415  1.00  0.00     0.023 A 
ATOM     53  C   UNL A   1      43.699  38.109  30.165  1.00  0.00     0.031 A 
ATOM     54  C   UNL A   1      44.382  37.161  28.064  1.00  0.00     0.131 A 
ATOM     55  C   UNL A   1      43.687  39.374  29.553  1.00  0.00     0.055 A 
ATOM     56  C   UNL A   1      44.432  38.427  27.478  1.00  0.00     0.041 A 
ATOM     57  F   UNL A   1      44.692  36.112  27.285  1.00  0.00    -0.206 F 
ATOM     58  C   UNL A   1      44.065  39.542  28.220  1.00  0.00     0.022 A 
BRANCH  55  59
ATOM     59  S   UNL A   1      43.055  40.788  30.496  1.00  0.00     0.124 S 
ATOM     60  O   UNL A   1      43.388  40.406  31.863  1.00  0.00    -0.237 OA
ATOM     61  O   UNL A   1      43.822  41.895  29.933  1.00  0.00    -0.237 OA
ATOM     62  O   UNL A   1      41.628  40.797  30.181  1.00  0.00    -0.744 OA
ENDBRANCH  55  59
ENDBRANCH  28  52
BRANCH  40  63
ATOM     63  C   UNL A   1      48.198  33.056  33.435  1.00  0.00     0.023 A 
ATOM     64  C   UNL A   1      48.409  33.649  34.689  1.00  0.00     0.031 A 
ATOM     65  C   UNL A   1      49.316  32.660  32.681  1.00  0.00     0.131 A 
ATOM     66  C   UNL A   1      49.716  33.876  35.133  1.00  0.00     0.055 A 
ATOM     67  C   UNL A   1      50.613  32.824  33.161  1.00  0.00     0.041 A 
ATOM     68  F   UNL A   1      49.161  32.090  31.475  1.00  0.00    -0.206 F 
ATOM     69  C   UNL A   1      50.819  33.445  34.388  1.00  0.00     0.022 A 
BRANCH  66  70
ATOM     70  S   UNL A   1      49.958  34.818  36.661  1.00  0.00     0.124 S 
ATOM     71  O   UNL A   1      49.145  34.065  37.611  1.00  0.00    -0.237 OA
ATOM     72  O   UNL A   1      51.402  34.739  36.854  1.00  0.00    -0.237 OA
ATOM     73  O   UNL A   1      49.450  36.147  36.326  1.00  0.00    -0.744 OA
ENDBRANCH  66  70
ENDBRANCH  40  63
ENDBRANCH  14  15
ENDBRANCH   7   9
ENDBRANCH   6   7
ENDBRANCH   5   6
ENDBRANCH   4   5
ENDBRANCH   3   4
ENDBRANCH   2   3
ENDBRANCH   1   2
BRANCH   1  74
ATOM     74  O   UNL A   1      31.325  26.826  25.702  1.00  0.00    -0.377 OA
BRANCH  74  75
ATOM     75  C   UNL A   1      30.428  25.725  25.658  1.00  0.00     0.188 C 
BRANCH  75  76
ATOM     76  C   UNL A   1      30.837  24.392  26.273  1.00  0.00     0.188 C 
BRANCH  76  77
ATOM     77  O   UNL A   1      31.995  23.787  25.761  1.00  0.00    -0.376 OA
BRANCH  77  78
ATOM     78  C   UNL A   1      33.170  23.670  26.552  1.00  0.00     0.202 C 
BRANCH  78  79
ATOM     79  C   UNL A   1      33.709  22.372  27.197  1.00  0.00     0.261 C 
BRANCH  79  80
ATOM     80  O   UNL A   1      34.891  21.744  26.633  1.00  0.00    -0.462 OA
BRANCH  80  81
ATOM     81  C   UNL A   1      34.944  21.700  25.279  1.00  0.00     0.329 C 
ATOM     82  O   UNL A   1      34.136  21.023  24.646  1.00  0.00    -0.250 OA
BRANCH  81  83
ATOM     83  C   UNL A   1      36.099  22.500  24.538  1.00  0.00     0.206 C 
BRANCH  83  84
ATOM     84  C   UNL A   1      35.816  23.886  23.916  1.00  0.00     0.073 C 
BRANCH  84  85
ATOM     85  C   UNL A   1      34.499  24.243  23.266  1.00  0.00    -0.045 A 
ATOM     86  C   UNL A   1      33.994  25.540  23.485  1.00  0.00     0.004 A 
ATOM     87  C   UNL A   1      33.773  23.380  22.440  1.00  0.00     0.004 A 
ATOM     88  C   UNL A   1      32.825  25.974  22.863  1.00  0.00     0.000 A 
ATOM     89  C   UNL A   1      32.600  23.814  21.818  1.00  0.00     0.000 A 
ATOM     90  C   UNL A   1      32.131  25.111  22.022  1.00  0.00     0.000 A 
ENDBRANCH  84  85
ENDBRANCH  83  84
BRANCH  83  91
ATOM     91  N   UNL A   1      37.362  22.336  25.307  1.00  0.00    -0.278 N 
ATOM     92  C   UNL A   1      37.622  23.320  26.253  1.00  0.00     0.267 C 
ATOM     93  C   UNL A   1      38.200  21.249  25.462  1.00  0.00     0.149 C 
ATOM     94  O   UNL A   1      36.822  23.976  26.895  1.00  0.00    -0.268 OA
ATOM     95  C   UNL A   1      39.067  23.352  26.494  1.00  0.00     0.081 C 
ATOM     96  S   UNL A   1      39.672  21.763  26.294  1.00  0.00    -0.054 SA
ATOM     97  S   UNL A   1      38.052  19.636  25.074  1.00  0.00    -0.052 S 
ATOM     98  C   UNL A   1      39.738  24.492  26.688  1.00  0.00     0.029 C 
BRANCH  98  99
ATOM     99  C   UNL A   1      41.189  24.479  26.831  1.00  0.00    -0.024 A 
ATOM    100  C   UNL A   1      41.737  24.252  28.088  1.00  0.00     0.010 A 
ATOM    101  C   UNL A   1      42.012  24.471  25.699  1.00  0.00     0.018 A 
ATOM    102  C   UNL A   1      43.093  23.938  28.201  1.00  0.00     0.029 A 
ATOM    103  C   UNL A   1      43.356  24.097  25.814  1.00  0.00     0.001 A 
ATOM    104  C   UNL A   1      43.909  23.820  27.084  1.00  0.00     0.070 A 
ATOM    105  C   UNL A   1      44.162  23.922  24.684  1.00  0.00     0.012 A 
ATOM    106  N   UNL A   1      45.179  23.412  27.235  1.00  0.00    -0.256 NA
ATOM    107  C   UNL A   1      45.467  23.477  24.836  1.00  0.00     0.021 A 
ATOM    108  C   UNL A   1      45.924  23.241  26.120  1.00  0.00     0.112 A 
ENDBRANCH  98  99
ENDBRANCH  83  91
ENDBRANCH  81  83
ENDBRANCH  80  81
ENDBRANCH  79  80
ENDBRANCH  78  79
ENDBRANCH  77  78
ENDBRANCH  76  77
ENDBRANCH  75  76
ENDBRANCH  74  75
ENDBRANCH   1  74
TORSDOF 27
ENDMDL
MODEL 2
REMARK VINA RESULT:      -8.4      5.716     11.875
REMARK SMILES O=C(OCCOCCOCCOCCOC(=O)[C@@H](Cc1ccccc1)N1C(=O)/C(=C/c2ccc3ncccc3c2)SC1=S)c1ccc(-c2c3nc(c(-c4cc(S(=O)(=O)[O-])ccc4F)c4ccc([nH]4)c(-c4cc(S(=O)(=O)[O-])ccc4F)c4nc(c(-c5cc(S(=O)(=O)[O-])ccc5F)c5ccc2[nH]5)C=C4)C=C3)cc1
REMARK SMILES IDX 8 1 7 2 6 3 5 4 4 5 3 6 2 7 1 8 44 9 45 10 106 11 46 12
REMARK SMILES IDX 105 13 47 14 48 15 49 16 99 17 50 18 104 19 98 20 100 21
REMARK SMILES IDX 51 22 103 23 97 24 96 25 52 27 84 28 64 29 83 30 65 31 68 32
REMARK SMILES IDX 82 33 101 34 66 35 67 36 81 38 102 39 69 40 53 41 54 42
REMARK SMILES IDX 62 43 55 44 61 45 63 46 60 47 56 48 57 49 58 50 59 51 85 52
REMARK SMILES IDX 86 53 94 54 87 55 93 56 95 57 92 58 88 59 89 60 90 61 91 62
REMARK SMILES IDX 70 63 71 64 79 65 72 66 78 67 80 68 77 69 73 70 74 71 75 72
REMARK SMILES IDX 76 73 9 74 10 75 11 76 12 77 13 78 14 79 15 80 16 81 17 82
REMARK SMILES IDX 18 83 19 84 20 85 21 86 25 87 22 88 24 89 23 90 26 91 27 92
REMARK SMILES IDX 42 93 28 94 29 95 41 96 43 97 30 98 31 99 32 100 40 101
REMARK SMILES IDX 33 102 39 103 34 104 38 105 35 106 37 107 36 108
REMARK H PARENT 100 26 68 37
REMARK Flexibility Score: inf
ROOT
ATOM      1  C   UNL A   1      39.872  32.990  39.757  1.00  0.00     0.188 C 
ENDROOT
BRANCH   1   2
ATOM      2  C   UNL A   1      39.541  33.218  41.212  1.00  0.00     0.188 C 
BRANCH   2   3
ATOM      3  O   UNL A   1      40.422  34.216  41.684  1.00  0.00    -0.376 OA
BRANCH   3   4
ATOM      4  C   UNL A   1      39.876  35.343  42.343  1.00  0.00     0.202 C 
BRANCH   4   5
ATOM      5  C   UNL A   1      38.585  35.876  41.740  1.00  0.00     0.261 C 
BRANCH   5   6
ATOM      6  O   UNL A   1      38.687  37.149  41.074  1.00  0.00    -0.460 OA
BRANCH   6   7
ATOM      7  C   UNL A   1      39.655  37.688  40.296  1.00  0.00     0.338 C 
ATOM      8  O   UNL A   1      39.890  38.890  40.423  1.00  0.00    -0.246 OA
BRANCH   7   9
ATOM      9  C   UNL A   1      40.434  36.949  39.259  1.00  0.00     0.060 A 
ATOM     10  C   UNL A   1      41.770  36.587  39.374  1.00  0.00     0.016 A 
ATOM     11  C   UNL A   1      39.738  36.475  38.136  1.00  0.00     0.016 A 
ATOM     12  C   UNL A   1      42.429  35.833  38.429  1.00  0.00     0.010 A 
ATOM     13  C   UNL A   1      40.385  35.704  37.163  1.00  0.00     0.010 A 
ATOM     14  C   UNL A   1      41.744  35.404  37.310  1.00  0.00    -0.014 A 
BRANCH  14  15
ATOM     15  C   UNL A   1      42.577  34.870  36.230  1.00  0.00     0.031 A 
ATOM     16  C   UNL A   1      43.263  35.873  35.360  1.00  0.00     0.074 A 
ATOM     17  C   UNL A   1      42.877  33.561  36.203  1.00  0.00     0.049 A 
ATOM     18  N   UNL A   1      43.960  35.693  34.277  1.00  0.00    -0.248 NA
ATOM     19  C   UNL A   1      43.157  37.283  35.784  1.00  0.00     0.031 C 
ATOM     20  C   UNL A   1      42.435  32.570  37.193  1.00  0.00     0.029 A 
ATOM     21  N   UNL A   1      43.650  32.841  35.339  1.00  0.00    -0.354 N 
ATOM     22  C   UNL A   1      44.326  36.965  33.858  1.00  0.00     0.074 A 
ATOM     23  C   UNL A   1      43.788  37.910  34.807  1.00  0.00     0.031 C 
ATOM     24  C   UNL A   1      42.943  31.370  36.870  1.00  0.00     0.029 A 
ATOM     25  C   UNL A   1      43.650  31.492  35.603  1.00  0.00     0.049 A 
ATOM     26  H   UNL A   1      44.157  33.248  34.599  1.00  0.00     0.167 HD
ATOM     27  C   UNL A   1      45.029  37.291  32.749  1.00  0.00     0.034 A 
ATOM     28  C   UNL A   1      44.110  30.477  34.848  1.00  0.00     0.034 A 
ATOM     29  C   UNL A   1      45.519  36.286  31.845  1.00  0.00     0.049 A 
ATOM     30  C   UNL A   1      44.745  30.856  33.531  1.00  0.00     0.074 A 
ATOM     31  C   UNL A   1      46.154  36.441  30.631  1.00  0.00     0.029 A 
ATOM     32  N   UNL A   1      45.411  34.914  32.072  1.00  0.00    -0.354 N 
ATOM     33  N   UNL A   1      44.980  32.057  33.047  1.00  0.00    -0.248 NA
ATOM     34  C   UNL A   1      45.157  29.759  32.652  1.00  0.00     0.031 C 
ATOM     35  C   UNL A   1      46.358  35.166  30.089  1.00  0.00     0.029 A 
ATOM     36  C   UNL A   1      45.933  34.211  31.005  1.00  0.00     0.049 A 
ATOM     37  H   UNL A   1      45.018  34.507  32.878  1.00  0.00     0.167 HD
ATOM     38  C   UNL A   1      45.588  31.861  31.813  1.00  0.00     0.074 A 
ATOM     39  C   UNL A   1      45.699  30.423  31.641  1.00  0.00     0.031 C 
ATOM     40  C   UNL A   1      46.014  32.771  30.899  1.00  0.00     0.034 A 
BRANCH  27  41
ATOM     41  C   UNL A   1      45.144  38.757  32.424  1.00  0.00     0.023 A 
ATOM     42  C   UNL A   1      44.147  39.453  31.718  1.00  0.00     0.031 A 
ATOM     43  C   UNL A   1      46.341  39.437  32.712  1.00  0.00     0.131 A 
ATOM     44  C   UNL A   1      44.400  40.754  31.251  1.00  0.00     0.055 A 
ATOM     45  C   UNL A   1      46.552  40.760  32.320  1.00  0.00     0.041 A 
ATOM     46  F   UNL A   1      47.348  38.811  33.343  1.00  0.00    -0.206 F 
ATOM     47  C   UNL A   1      45.585  41.420  31.569  1.00  0.00     0.022 A 
BRANCH  44  48
ATOM     48  S   UNL A   1      43.236  41.495  30.069  1.00  0.00     0.124 S 
ATOM     49  O   UNL A   1      44.142  42.008  29.046  1.00  0.00    -0.237 OA
ATOM     50  O   UNL A   1      42.412  40.356  29.679  1.00  0.00    -0.237 OA
ATOM     51  O   UNL A   1      42.552  42.519  30.857  1.00  0.00    -0.744 OA
ENDBRANCH  44  48
ENDBRANCH  27  41
BRANCH  28  52
ATOM     52  C   UNL A   1      43.882  29.054  35.239  1.00  0.00     0.023 A 
ATOM     53  C   UNL A   1      44.819  28.345  36.006  1.00  0.00     0.031 A 
ATOM     54  C   UNL A   1      42.744  28.351  34.793  1.00  0.00     0.131 A 
ATOM     55  C   UNL A   1      44.630  26.977  36.259  1.00  0.00     0.055 A 
ATOM     56  C   UNL A   1      42.528  27.008  35.102  1.00  0.00     0.041 A 
ATOM     57  F   UNL A   1      41.814  28.965  34.042  1.00  0.00    -0.206 F 
ATOM     58  C   UNL A   1      43.484  26.307  35.826  1.00  0.00     0.022 A 
BRANCH  55  59
ATOM     59  S   UNL A   1      45.964  26.050  37.067  1.00  0.00     0.124 S 
ATOM     60  O   UNL A   1      45.274  25.484  38.221  1.00  0.00    -0.237 OA
ATOM     61  O   UNL A   1      46.352  25.107  36.024  1.00  0.00    -0.237 OA
ATOM     62  O   UNL A   1      46.954  27.079  37.376  1.00  0.00    -0.744 OA
ENDBRANCH  55  59
ENDBRANCH  28  52
BRANCH  40  63
ATOM     63  C   UNL A   1      46.680  32.220  29.669  1.00  0.00     0.023 A 
ATOM     64  C   UNL A   1      45.947  31.909  28.513  1.00  0.00     0.031 A 
ATOM     65  C   UNL A   1      48.073  32.032  29.653  1.00  0.00     0.131 A 
ATOM     66  C   UNL A   1      46.607  31.377  27.400  1.00  0.00     0.055 A 
ATOM     67  C   UNL A   1      48.733  31.569  28.517  1.00  0.00     0.041 A 
ATOM     68  F   UNL A   1      48.814  32.314  30.736  1.00  0.00    -0.206 F 
ATOM     69  C   UNL A   1      47.998  31.227  27.386  1.00  0.00     0.022 A 
BRANCH  66  70
ATOM     70  S   UNL A   1      45.613  30.802  26.000  1.00  0.00     0.124 S 
ATOM     71  O   UNL A   1      45.280  32.057  25.331  1.00  0.00    -0.237 OA
ATOM     72  O   UNL A   1      46.542  29.929  25.291  1.00  0.00    -0.237 OA
ATOM     73  O   UNL A   1      44.487  30.122  26.637  1.00  0.00    -0.744 OA
ENDBRANCH  66  70
ENDBRANCH  40  63
ENDBRANCH  14  15
ENDBRANCH   7   9
ENDBRANCH   6   7
ENDBRANCH   5   6
ENDBRANCH   4   5
ENDBRANCH   3   4
ENDBRANCH   2   3
ENDBRANCH   1   2
BRANCH   1  74
ATOM     74  O   UNL A   1      38.738  32.722  38.945  1.00  0.00    -0.377 OA
BRANCH  74  75
ATOM     75  C   UNL A   1      38.873  32.529  37.544  1.00  0.00     0.188 C 
BRANCH  75  76
ATOM     76  C   UNL A   1      37.702  32.842  36.621  1.00  0.00     0.188 C 
BRANCH  76  77
ATOM     77  O   UNL A   1      37.402  31.891  35.634  1.00  0.00    -0.376 OA
BRANCH  77  78
ATOM     78  C   UNL A   1      37.304  32.262  34.266  1.00  0.00     0.202 C 
BRANCH  78  79
ATOM     79  C   UNL A   1      37.085  33.693  33.722  1.00  0.00     0.261 C 
BRANCH  79  80
ATOM     80  O   UNL A   1      37.497  34.001  32.365  1.00  0.00    -0.462 OA
BRANCH  80  81
ATOM     81  C   UNL A   1      37.234  33.046  31.439  1.00  0.00     0.329 C 
ATOM     82  O   UNL A   1      36.075  32.713  31.200  1.00  0.00    -0.250 OA
BRANCH  81  83
ATOM     83  C   UNL A   1      38.455  32.337  30.711  1.00  0.00     0.206 C 
BRANCH  83  84
ATOM     84  C   UNL A   1      38.226  31.506  29.428  1.00  0.00     0.073 C 
BRANCH  84  85
ATOM     85  C   UNL A   1      38.878  30.164  29.189  1.00  0.00    -0.045 A 
ATOM     86  C   UNL A   1      39.918  29.781  30.061  1.00  0.00     0.004 A 
ATOM     87  C   UNL A   1      38.493  29.272  28.184  1.00  0.00     0.004 A 
ATOM     88  C   UNL A   1      40.522  28.529  29.956  1.00  0.00     0.000 A 
ATOM     89  C   UNL A   1      39.100  28.018  28.079  1.00  0.00     0.000 A 
ATOM     90  C   UNL A   1      40.106  27.644  28.967  1.00  0.00     0.000 A 
ENDBRANCH  84  85
ENDBRANCH  83  84
BRANCH  83  91
ATOM     91  N   UNL A   1      39.624  33.256  30.735  1.00  0.00    -0.278 N 
ATOM     92  C   UNL A   1      39.538  34.361  29.897  1.00  0.00     0.267 C 
ATOM     93  C   UNL A   1      40.668  33.380  31.631  1.00  0.00     0.149 C 
ATOM     94  O   UNL A   1      38.539  34.962  29.545  1.00  0.00    -0.268 OA
ATOM     95  C   UNL A   1      40.898  34.820  29.604  1.00  0.00     0.081 C 
ATOM     96  S   UNL A   1      41.875  34.489  30.970  1.00  0.00    -0.054 SA
ATOM     97  S   UNL A   1      40.945  32.748  33.147  1.00  0.00    -0.052 S 
ATOM     98  C   UNL A   1      41.258  35.273  28.398  1.00  0.00     0.029 C 
BRANCH  98  99
ATOM     99  C   UNL A   1      42.647  35.630  28.129  1.00  0.00    -0.024 A 
ATOM    100  C   UNL A   1      43.467  34.703  27.496  1.00  0.00     0.010 A 
ATOM    101  C   UNL A   1      43.085  36.948  28.299  1.00  0.00     0.018 A 
ATOM    102  C   UNL A   1      44.689  35.116  26.963  1.00  0.00     0.029 A 
ATOM    103  C   UNL A   1      44.284  37.368  27.710  1.00  0.00     0.001 A 
ATOM    104  C   UNL A   1      45.100  36.441  27.025  1.00  0.00     0.070 A 
ATOM    105  C   UNL A   1      44.669  38.713  27.724  1.00  0.00     0.012 A 
ATOM    106  N   UNL A   1      46.233  36.811  26.406  1.00  0.00    -0.256 NA
ATOM    107  C   UNL A   1      45.826  39.100  27.064  1.00  0.00     0.021 A 
ATOM    108  C   UNL A   1      46.567  38.120  26.428  1.00  0.00     0.112 A 
ENDBRANCH  98  99
ENDBRANCH  83  91
ENDBRANCH  81  83
ENDBRANCH  80  81
ENDBRANCH  79  80
ENDBRANCH  78  79
ENDBRANCH  77  78
ENDBRANCH  76  77
ENDBRANCH  75  76
ENDBRANCH  74  75
ENDBRANCH   1  74
TORSDOF 27
ENDMDL
MODEL 3
REMARK VINA RESULT:      -8.2      5.363     14.377
REMARK SMILES O=C(OCCOCCOCCOCCOC(=O)[C@@H](Cc1ccccc1)N1C(=O)/C(=C/c2ccc3ncccc3c2)SC1=S)c1ccc(-c2c3nc(c(-c4cc(S(=O)(=O)[O-])ccc4F)c4ccc([nH]4)c(-c4cc(S(=O)(=O)[O-])ccc4F)c4nc(c(-c5cc(S(=O)(=O)[O-])ccc5F)c5ccc2[nH]5)C=C4)C=C3)cc1
REMARK SMILES IDX 8 1 7 2 6 3 5 4 4 5 3 6 2 7 1 8 44 9 45 10 106 11 46 12
REMARK SMILES IDX 105 13 47 14 48 15 49 16 99 17 50 18 104 19 98 20 100 21
REMARK SMILES IDX 51 22 103 23 97 24 96 25 52 27 84 28 64 29 83 30 65 31 68 32
REMARK SMILES IDX 82 33 101 34 66 35 67 36 81 38 102 39 69 40 53 41 54 42
REMARK SMILES IDX 62 43 55 44 61 45 63 46 60 47 56 48 57 49 58 50 59 51 85 52
REMARK SMILES IDX 86 53 94 54 87 55 93 56 95 57 92 58 88 59 89 60 90 61 91 62
REMARK SMILES IDX 70 63 71 64 79 65 72 66 78 67 80 68 77 69 73 70 74 71 75 72
REMARK SMILES IDX 76 73 9 74 10 75 11 76 12 77 13 78 14 79 15 80 16 81 17 82
REMARK SMILES IDX 18 83 19 84 20 85 21 86 25 87 22 88 24 89 23 90 26 91 27 92
REMARK SMILES IDX 42 93 28 94 29 95 41 96 43 97 30 98 31 99 32 100 40 101
REMARK SMILES IDX 33 102 39 103 34 104 38 105 35 106 37 107 36 108
REMARK H PARENT 100 26 68 37
REMARK Flexibility Score: inf
ROOT
ATOM      1  C   UNL A   1      44.368  44.406  33.337  1.00  0.00     0.188 C 
ENDROOT
BRANCH   1   2
ATOM      2  C   UNL A   1      44.840  44.202  31.918  1.00  0.00     0.188 C 
BRANCH   2   3
ATOM      3  O   UNL A   1      46.051  43.479  31.985  1.00  0.00    -0.376 OA
BRANCH   3   4
ATOM      4  C   UNL A   1      46.002  42.108  32.335  1.00  0.00     0.202 C 
BRANCH   4   5
ATOM      5  C   UNL A   1      47.351  41.473  32.631  1.00  0.00     0.261 C 
BRANCH   5   6
ATOM      6  O   UNL A   1      47.371  40.033  32.651  1.00  0.00    -0.460 OA
BRANCH   6   7
ATOM      7  C   UNL A   1      48.088  39.129  31.943  1.00  0.00     0.338 C 
ATOM      8  O   UNL A   1      49.227  39.445  31.597  1.00  0.00    -0.246 OA
BRANCH   7   9
ATOM      9  C   UNL A   1      47.592  37.790  31.507  1.00  0.00     0.060 A 
ATOM     10  C   UNL A   1      47.059  37.506  30.255  1.00  0.00     0.016 A 
ATOM     11  C   UNL A   1      47.790  36.707  32.377  1.00  0.00     0.016 A 
ATOM     12  C   UNL A   1      46.690  36.239  29.866  1.00  0.00     0.010 A 
ATOM     13  C   UNL A   1      47.426  35.408  32.002  1.00  0.00     0.010 A 
ATOM     14  C   UNL A   1      46.855  35.188  30.744  1.00  0.00    -0.014 A 
BRANCH  14  15
ATOM     15  C   UNL A   1      46.175  33.945  30.370  1.00  0.00     0.031 A 
ATOM     16  C   UNL A   1      47.044  32.834  29.875  1.00  0.00     0.074 A 
ATOM     17  C   UNL A   1      44.883  33.766  30.691  1.00  0.00     0.049 A 
ATOM     18  N   UNL A   1      46.711  31.680  29.376  1.00  0.00    -0.248 NA
ATOM     19  C   UNL A   1      48.501  33.053  29.974  1.00  0.00     0.031 C 
ATOM     20  C   UNL A   1      44.050  34.735  31.415  1.00  0.00     0.029 A 
ATOM     21  N   UNL A   1      44.052  32.703  30.490  1.00  0.00    -0.354 N 
ATOM     22  C   UNL A   1      47.910  31.061  29.046  1.00  0.00     0.074 A 
ATOM     23  C   UNL A   1      48.980  31.957  29.414  1.00  0.00     0.031 C 
ATOM     24  C   UNL A   1      42.824  34.216  31.588  1.00  0.00     0.029 A 
ATOM     25  C   UNL A   1      42.761  32.935  30.898  1.00  0.00     0.049 A 
ATOM     26  H   UNL A   1      44.350  31.852  30.091  1.00  0.00     0.167 HD
ATOM     27  C   UNL A   1      48.074  29.854  28.457  1.00  0.00     0.034 A 
ATOM     28  C   UNL A   1      41.650  32.214  30.660  1.00  0.00     0.034 A 
ATOM     29  C   UNL A   1      46.949  29.026  28.110  1.00  0.00     0.049 A 
ATOM     30  C   UNL A   1      41.832  30.950  29.854  1.00  0.00     0.074 A 
ATOM     31  C   UNL A   1      46.927  27.832  27.421  1.00  0.00     0.029 A 
ATOM     32  N   UNL A   1      45.628  29.333  28.432  1.00  0.00    -0.354 N 
ATOM     33  N   UNL A   1      42.949  30.411  29.411  1.00  0.00    -0.248 NA
ATOM     34  C   UNL A   1      40.621  30.208  29.498  1.00  0.00     0.031 C 
ATOM     35  C   UNL A   1      45.588  27.458  27.259  1.00  0.00     0.029 A 
ATOM     36  C   UNL A   1      44.778  28.371  27.925  1.00  0.00     0.049 A 
ATOM     37  H   UNL A   1      45.343  30.122  28.948  1.00  0.00     0.167 HD
ATOM     38  C   UNL A   1      42.575  29.253  28.739  1.00  0.00     0.074 A 
ATOM     39  C   UNL A   1      41.130  29.166  28.858  1.00  0.00     0.031 C 
ATOM     40  C   UNL A   1      43.340  28.343  28.082  1.00  0.00     0.034 A 
BRANCH  27  41
ATOM     41  C   UNL A   1      49.474  29.483  28.044  1.00  0.00     0.023 A 
ATOM     42  C   UNL A   1      49.914  29.571  26.711  1.00  0.00     0.031 A 
ATOM     43  C   UNL A   1      50.342  28.904  28.987  1.00  0.00     0.131 A 
ATOM     44  C   UNL A   1      51.148  29.008  26.345  1.00  0.00     0.055 A 
ATOM     45  C   UNL A   1      51.604  28.425  28.632  1.00  0.00     0.041 A 
ATOM     46  F   UNL A   1      49.959  28.750  30.264  1.00  0.00    -0.206 F 
ATOM     47  C   UNL A   1      52.006  28.459  27.300  1.00  0.00     0.022 A 
BRANCH  44  48
ATOM     48  S   UNL A   1      51.537  28.841  24.579  1.00  0.00     0.124 S 
ATOM     49  O   UNL A   1      51.883  30.214  24.222  1.00  0.00    -0.237 OA
ATOM     50  O   UNL A   1      52.641  27.887  24.586  1.00  0.00    -0.237 OA
ATOM     51  O   UNL A   1      50.290  28.348  23.997  1.00  0.00    -0.744 OA
ENDBRANCH  44  48
ENDBRANCH  27  41
BRANCH  28  52
ATOM     52  C   UNL A   1      40.301  32.712  31.061  1.00  0.00     0.023 A 
ATOM     53  C   UNL A   1      39.583  32.120  32.112  1.00  0.00     0.031 A 
ATOM     54  C   UNL A   1      39.670  33.754  30.351  1.00  0.00     0.131 A 
ATOM     55  C   UNL A   1      38.271  32.536  32.389  1.00  0.00     0.055 A 
ATOM     56  C   UNL A   1      38.390  34.209  30.673  1.00  0.00     0.041 A 
ATOM     57  F   UNL A   1      40.294  34.355  29.324  1.00  0.00    -0.206 F 
ATOM     58  C   UNL A   1      37.675  33.586  31.687  1.00  0.00     0.022 A 
BRANCH  55  59
ATOM     59  S   UNL A   1      37.304  31.605  33.609  1.00  0.00     0.124 S 
ATOM     60  O   UNL A   1      36.271  31.005  32.773  1.00  0.00    -0.237 OA
ATOM     61  O   UNL A   1      38.303  30.690  34.152  1.00  0.00    -0.237 OA
ATOM     62  O   UNL A   1      36.837  32.636  34.533  1.00  0.00    -0.744 OA
ENDBRANCH  55  59
ENDBRANCH  28  52
BRANCH  40  63
ATOM     63  C   UNL A   1      42.618  27.163  27.494  1.00  0.00     0.023 A 
ATOM     64  C   UNL A   1      42.678  25.894  28.091  1.00  0.00     0.031 A 
ATOM     65  C   UNL A   1      41.840  27.326  26.335  1.00  0.00     0.131 A 
ATOM     66  C   UNL A   1      42.008  24.820  27.495  1.00  0.00     0.055 A 
ATOM     67  C   UNL A   1      41.118  26.268  25.789  1.00  0.00     0.041 A 
ATOM     68  F   UNL A   1      41.755  28.521  25.731  1.00  0.00    -0.206 F 
ATOM     69  C   UNL A   1      41.209  25.004  26.362  1.00  0.00     0.022 A 
BRANCH  66  70
ATOM     70  S   UNL A   1      42.262  23.160  28.174  1.00  0.00     0.124 S 
ATOM     71  O   UNL A   1      40.924  22.586  28.076  1.00  0.00    -0.237 OA
ATOM     72  O   UNL A   1      43.263  22.602  27.271  1.00  0.00    -0.237 OA
ATOM     73  O   UNL A   1      42.730  23.416  29.535  1.00  0.00    -0.744 OA
ENDBRANCH  66  70
ENDBRANCH  40  63
ENDBRANCH  14  15
ENDBRANCH   7   9
ENDBRANCH   6   7
ENDBRANCH   5   6
ENDBRANCH   4   5
ENDBRANCH   3   4
ENDBRANCH   2   3
ENDBRANCH   1   2
BRANCH   1  74
ATOM     74  O   UNL A   1      42.955  44.395  33.480  1.00  0.00    -0.377 OA
BRANCH  74  75
ATOM     75  C   UNL A   1      42.292  43.301  34.099  1.00  0.00     0.188 C 
BRANCH  75  76
ATOM     76  C   UNL A   1      42.654  41.875  33.702  1.00  0.00     0.188 C 
BRANCH  76  77
ATOM     77  O   UNL A   1      41.969  41.330  32.605  1.00  0.00    -0.376 OA
BRANCH  77  78
ATOM     78  C   UNL A   1      42.675  40.814  31.485  1.00  0.00     0.202 C 
BRANCH  78  79
ATOM     79  C   UNL A   1      43.002  41.578  30.181  1.00  0.00     0.261 C 
BRANCH  79  80
ATOM     80  O   UNL A   1      44.219  41.253  29.460  1.00  0.00    -0.462 OA
BRANCH  80  81
ATOM     81  C   UNL A   1      44.052  40.569  28.301  1.00  0.00     0.329 C 
ATOM     82  O   UNL A   1      43.392  39.532  28.280  1.00  0.00    -0.250 OA
BRANCH  81  83
ATOM     83  C   UNL A   1      44.766  41.110  26.989  1.00  0.00     0.206 C 
BRANCH  83  84
ATOM     84  C   UNL A   1      44.592  42.583  26.555  1.00  0.00     0.073 C 
BRANCH  84  85
ATOM     85  C   UNL A   1      43.935  42.985  25.254  1.00  0.00    -0.045 A 
ATOM     86  C   UNL A   1      42.968  42.112  24.716  1.00  0.00     0.004 A 
ATOM     87  C   UNL A   1      44.205  44.176  24.575  1.00  0.00     0.004 A 
ATOM     88  C   UNL A   1      42.262  42.442  23.560  1.00  0.00     0.000 A 
ATOM     89  C   UNL A   1      43.498  44.506  23.415  1.00  0.00     0.000 A 
ATOM     90  C   UNL A   1      42.524  43.645  22.913  1.00  0.00     0.000 A 
ENDBRANCH  84  85
ENDBRANCH  83  84
BRANCH  83  91
ATOM     91  N   UNL A   1      46.133  40.528  26.916  1.00  0.00    -0.278 N 
ATOM     92  C   UNL A   1      46.470  39.932  25.707  1.00  0.00     0.267 C 
ATOM     93  C   UNL A   1      47.242  40.702  27.722  1.00  0.00     0.149 C 
ATOM     94  O   UNL A   1      46.077  40.222  24.592  1.00  0.00    -0.268 OA
ATOM     95  C   UNL A   1      47.535  38.958  25.958  1.00  0.00     0.081 C 
ATOM     96  S   UNL A   1      48.488  39.538  27.256  1.00  0.00    -0.054 SA
ATOM     97  S   UNL A   1      47.603  41.779  28.940  1.00  0.00    -0.052 S 
ATOM     98  C   UNL A   1      47.591  37.779  25.330  1.00  0.00     0.029 C 
BRANCH  98  99
ATOM     99  C   UNL A   1      48.618  36.804  25.683  1.00  0.00    -0.024 A 
ATOM    100  C   UNL A   1      48.306  35.801  26.593  1.00  0.00     0.010 A 
ATOM    101  C   UNL A   1      49.814  36.742  24.958  1.00  0.00     0.018 A 
ATOM    102  C   UNL A   1      49.153  34.698  26.718  1.00  0.00     0.029 A 
ATOM    103  C   UNL A   1      50.626  35.605  25.046  1.00  0.00     0.001 A 
ATOM    104  C   UNL A   1      50.291  34.561  25.935  1.00  0.00     0.070 A 
ATOM    105  C   UNL A   1      51.741  35.442  24.216  1.00  0.00     0.012 A 
ATOM    106  N   UNL A   1      51.016  33.433  26.016  1.00  0.00    -0.256 NA
ATOM    107  C   UNL A   1      52.476  34.267  24.281  1.00  0.00     0.021 A 
ATOM    108  C   UNL A   1      52.078  33.305  25.190  1.00  0.00     0.112 A 
ENDBRANCH  98  99
ENDBRANCH  83  91
ENDBRANCH  81  83
ENDBRANCH  80  81
ENDBRANCH  79  80
ENDBRANCH  78  79
ENDBRANCH  77  78
ENDBRANCH  76  77
ENDBRANCH  75  76
ENDBRANCH  74  75
ENDBRANCH   1  74
TORSDOF 27
ENDMDL
