MODEL 1
REMARK VINA RESULT:      -8.8      0.000      0.000
REMARK SMILES CCC[C@]1(C(=O)OCCOCCOCCOCCOC(=O)c2ccc(-c3c4nc(c(-c5cc(S(=O)(=O)[O-])ccc5F)c5ccc([nH]5)c(-c5cc(S(=O)(=O)[O-])ccc5F)c5nc(c(-c6cc(S(=O)(=O)[O-])ccc6F)c6ccc3[nH]6)C=C5)C=C4)cc2)CCN(c2cncc(C(=O)OC)n2)C1
REMARK SMILES IDX 13 1 12 2 11 3 10 4 9 5 8 6 7 7 5 8 6 9 4 10 85 11 98 12
REMARK SMILES IDX 86 13 87 14 3 15 2 16 1 17 88 18 89 19 97 20 90 21 92 22
REMARK SMILES IDX 91 23 93 24 94 25 95 26 96 27 14 28 15 29 16 30 17 31 18 32
REMARK SMILES IDX 19 33 20 34 21 35 22 36 23 37 84 38 24 39 83 40 25 41 26 42
REMARK SMILES IDX 27 43 77 44 28 45 82 46 76 47 78 48 29 49 81 50 75 51 74 52
REMARK SMILES IDX 30 54 62 55 42 56 61 57 43 58 46 59 60 60 79 61 44 62 45 63
REMARK SMILES IDX 59 65 80 66 47 67 31 68 32 69 40 70 33 71 39 72 41 73 38 74
REMARK SMILES IDX 34 75 35 76 36 77 37 78 63 79 64 80 72 81 65 82 71 83 73 84
REMARK SMILES IDX 70 85 66 86 67 87 68 88 69 89 48 90 49 91 57 92 50 93 56 94
REMARK SMILES IDX 58 95 55 96 51 97 52 98 53 99 54 100
REMARK H PARENT 78 53 46 64
REMARK Flexibility Score: inf
ROOT
ATOM      1  O   UNL A   1      37.369  23.461  26.415  1.00  0.00    -0.377 OA
ENDROOT
BRANCH   1   2
ATOM      2  C   UNL A   1      36.360  23.639  25.444  1.00  0.00     0.188 C 
BRANCH   2   3
ATOM      3  C   UNL A   1      34.940  23.263  25.895  1.00  0.00     0.188 C 
BRANCH   3   4
ATOM      4  O   UNL A   1      34.056  22.600  25.007  1.00  0.00    -0.376 OA
BRANCH   4   5
ATOM      5  C   UNL A   1      34.261  22.708  23.605  1.00  0.00     0.202 C 
BRANCH   5   6
ATOM      6  C   UNL A   1      33.639  23.861  22.784  1.00  0.00     0.261 C 
BRANCH   6   7
ATOM      7  O   UNL A   1      33.831  25.210  23.264  1.00  0.00    -0.463 OA
BRANCH   7   8
ATOM      8  C   UNL A   1      33.301  26.227  22.532  1.00  0.00     0.314 C 
ATOM      9  O   UNL A   1      33.694  26.533  21.410  1.00  0.00    -0.252 OA
BRANCH   8  10
ATOM     10  C   UNL A   1      32.177  26.995  23.252  1.00  0.00     0.087 C 
ATOM     11  C   UNL A   1      31.626  26.429  24.582  1.00  0.00     0.042 C 
ATOM     12  C   UNL A   1      32.900  28.274  23.768  1.00  0.00     0.137 C 
ATOM     13  C   UNL A   1      31.201  27.655  25.366  1.00  0.00     0.119 C 
ATOM     14  N   UNL A   1      32.246  28.591  25.043  1.00  0.00    -0.354 N 
BRANCH  10  15
ATOM     15  C   UNL A   1      31.054  27.410  22.243  1.00  0.00     0.020 C 
BRANCH  15  16
ATOM     16  C   UNL A   1      30.114  28.593  22.543  1.00  0.00    -0.002 C 
ATOM     17  C   UNL A   1      28.717  28.269  23.049  1.00  0.00     0.004 C 
ENDBRANCH  15  16
ENDBRANCH  10  15
BRANCH  14  18
ATOM     18  C   UNL A   1      32.974  29.307  25.954  1.00  0.00     0.148 A 
ATOM     19  C   UNL A   1      34.101  28.811  26.618  1.00  0.00     0.157 A 
ATOM     20  N   UNL A   1      32.576  30.573  26.181  1.00  0.00    -0.221 NA
ATOM     21  N   UNL A   1      34.840  29.521  27.510  1.00  0.00    -0.258 NA
ATOM     22  C   UNL A   1      33.289  31.292  27.087  1.00  0.00     0.169 A 
ATOM     23  C   UNL A   1      34.403  30.781  27.729  1.00  0.00     0.147 A 
BRANCH  22  24
ATOM     24  C   UNL A   1      32.813  32.652  27.433  1.00  0.00     0.358 C 
ATOM     25  O   UNL A   1      31.686  33.062  27.202  1.00  0.00    -0.244 OA
BRANCH  24  26
ATOM     26  O   UNL A   1      33.822  33.366  27.997  1.00  0.00    -0.464 OA
ATOM     27  C   UNL A   1      33.396  34.395  28.884  1.00  0.00     0.282 C 
ENDBRANCH  24  26
ENDBRANCH  22  24
ENDBRANCH  14  18
ENDBRANCH   8  10
ENDBRANCH   7   8
ENDBRANCH   6   7
ENDBRANCH   5   6
ENDBRANCH   4   5
ENDBRANCH   3   4
ENDBRANCH   2   3
ENDBRANCH   1   2
BRANCH   1  28
ATOM     28  C   UNL A   1      38.351  22.484  26.107  1.00  0.00     0.188 C 
BRANCH  28  29
ATOM     29  C   UNL A   1      39.755  22.696  26.705  1.00  0.00     0.188 C 
BRANCH  29  30
ATOM     30  O   UNL A   1      40.684  21.677  26.351  1.00  0.00    -0.376 OA
BRANCH  30  31
ATOM     31  C   UNL A   1      40.304  20.312  26.424  1.00  0.00     0.202 C 
BRANCH  31  32
ATOM     32  C   UNL A   1      41.201  19.237  25.784  1.00  0.00     0.261 C 
BRANCH  32  33
ATOM     33  O   UNL A   1      42.579  19.201  26.179  1.00  0.00    -0.460 OA
BRANCH  33  34
ATOM     34  C   UNL A   1      43.495  19.765  25.365  1.00  0.00     0.338 C 
ATOM     35  O   UNL A   1      43.956  19.282  24.344  1.00  0.00    -0.246 OA
BRANCH  34  36
ATOM     36  C   UNL A   1      43.663  21.170  25.803  1.00  0.00     0.060 A 
ATOM     37  C   UNL A   1      43.666  22.186  24.838  1.00  0.00     0.016 A 
ATOM     38  C   UNL A   1      43.765  21.487  27.160  1.00  0.00     0.016 A 
ATOM     39  C   UNL A   1      43.789  23.521  25.225  1.00  0.00     0.010 A 
ATOM     40  C   UNL A   1      43.923  22.822  27.544  1.00  0.00     0.010 A 
ATOM     41  C   UNL A   1      43.965  23.842  26.577  1.00  0.00    -0.014 A 
BRANCH  41  42
ATOM     42  C   UNL A   1      44.427  25.200  26.952  1.00  0.00     0.031 A 
ATOM     43  C   UNL A   1      43.414  26.146  27.537  1.00  0.00     0.074 A 
ATOM     44  C   UNL A   1      45.709  25.580  26.806  1.00  0.00     0.049 A 
ATOM     45  N   UNL A   1      43.541  27.403  27.872  1.00  0.00    -0.248 NA
ATOM     46  C   UNL A   1      42.070  25.592  27.769  1.00  0.00     0.031 C 
ATOM     47  C   UNL A   1      46.792  24.729  26.315  1.00  0.00     0.029 A 
ATOM     48  N   UNL A   1      46.314  26.788  27.052  1.00  0.00    -0.354 N 
ATOM     49  C   UNL A   1      42.292  27.792  28.347  1.00  0.00     0.074 A 
ATOM     50  C   UNL A   1      41.416  26.649  28.221  1.00  0.00     0.031 C 
ATOM     51  C   UNL A   1      47.928  25.449  26.282  1.00  0.00     0.029 A 
ATOM     52  C   UNL A   1      47.644  26.820  26.704  1.00  0.00     0.049 A 
ATOM     53  H   UNL A   1      45.839  27.558  27.440  1.00  0.00     0.167 HD
ATOM     54  C   UNL A   1      41.917  28.993  28.849  1.00  0.00     0.034 A 
ATOM     55  C   UNL A   1      48.518  27.849  26.696  1.00  0.00     0.034 A 
ATOM     56  C   UNL A   1      42.802  30.127  28.950  1.00  0.00     0.049 A 
ATOM     57  C   UNL A   1      48.047  29.213  27.152  1.00  0.00     0.074 A 
ATOM     58  C   UNL A   1      42.530  31.389  29.444  1.00  0.00     0.029 A 
ATOM     59  N   UNL A   1      44.127  30.140  28.532  1.00  0.00    -0.354 N 
ATOM     60  N   UNL A   1      46.864  29.573  27.598  1.00  0.00    -0.248 NA
ATOM     61  C   UNL A   1      49.028  30.306  27.106  1.00  0.00     0.031 C 
ATOM     62  C   UNL A   1      43.661  32.189  29.247  1.00  0.00     0.029 A 
ATOM     63  C   UNL A   1      44.671  31.400  28.721  1.00  0.00     0.049 A 
ATOM     64  H   UNL A   1      44.609  29.367  28.159  1.00  0.00     0.167 HD
ATOM     65  C   UNL A   1      46.974  30.926  27.919  1.00  0.00     0.074 A 
ATOM     66  C   UNL A   1      48.339  31.311  27.626  1.00  0.00     0.031 C 
ATOM     67  C   UNL A   1      46.035  31.771  28.416  1.00  0.00     0.034 A 
BRANCH  54  68
ATOM     68  C   UNL A   1      40.473  29.152  29.260  1.00  0.00     0.023 A 
ATOM     69  C   UNL A   1      40.064  29.031  30.599  1.00  0.00     0.031 A 
ATOM     70  C   UNL A   1      39.484  29.392  28.289  1.00  0.00     0.131 A 
ATOM     71  C   UNL A   1      38.699  29.076  30.921  1.00  0.00     0.055 A 
ATOM     72  C   UNL A   1      38.136  29.524  28.627  1.00  0.00     0.041 A 
ATOM     73  F   UNL A   1      39.809  29.487  26.990  1.00  0.00    -0.206 F 
ATOM     74  C   UNL A   1      37.735  29.350  29.948  1.00  0.00     0.022 A 
BRANCH  71  75
ATOM     75  S   UNL A   1      38.189  28.616  32.600  1.00  0.00     0.124 S 
ATOM     76  O   UNL A   1      39.130  29.383  33.414  1.00  0.00    -0.237 OA
ATOM     77  O   UNL A   1      36.801  29.058  32.639  1.00  0.00    -0.237 OA
ATOM     78  O   UNL A   1      38.386  27.168  32.633  1.00  0.00    -0.744 OA
ENDBRANCH  71  75
ENDBRANCH  54  68
BRANCH  55  79
ATOM     79  C   UNL A   1      49.912  27.659  26.194  1.00  0.00     0.023 A 
ATOM     80  C   UNL A   1      50.980  27.434  27.077  1.00  0.00     0.031 A 
ATOM     81  C   UNL A   1      50.207  27.771  24.823  1.00  0.00     0.131 A 
ATOM     82  C   UNL A   1      52.296  27.378  26.586  1.00  0.00     0.055 A 
ATOM     83  C   UNL A   1      51.509  27.652  24.332  1.00  0.00     0.041 A 
ATOM     84  F   UNL A   1      49.227  27.997  23.933  1.00  0.00    -0.206 F 
ATOM     85  C   UNL A   1      52.565  27.469  25.219  1.00  0.00     0.022 A 
BRANCH  82  86
ATOM     86  S   UNL A   1      53.663  27.286  27.775  1.00  0.00     0.124 S 
ATOM     87  O   UNL A   1      52.986  26.778  28.964  1.00  0.00    -0.237 OA
ATOM     88  O   UNL A   1      54.578  26.363  27.114  1.00  0.00    -0.237 OA
ATOM     89  O   UNL A   1      54.129  28.668  27.864  1.00  0.00    -0.744 OA
ENDBRANCH  82  86
ENDBRANCH  55  79
BRANCH  67  90
ATOM     90  C   UNL A   1      46.468  33.185  28.729  1.00  0.00     0.023 A 
ATOM     91  C   UNL A   1      46.573  34.170  27.732  1.00  0.00     0.031 A 
ATOM     92  C   UNL A   1      46.770  33.552  30.054  1.00  0.00     0.131 A 
ATOM     93  C   UNL A   1      47.020  35.458  28.067  1.00  0.00     0.055 A 
ATOM     94  C   UNL A   1      47.148  34.853  30.391  1.00  0.00     0.041 A 
ATOM     95  F   UNL A   1      46.691  32.652  31.048  1.00  0.00    -0.206 F 
ATOM     96  C   UNL A   1      47.286  35.811  29.393  1.00  0.00     0.022 A 
BRANCH  93  97
ATOM     97  S   UNL A   1      47.338  36.645  26.733  1.00  0.00     0.124 S 
ATOM     98  O   UNL A   1      46.025  37.254  26.550  1.00  0.00    -0.237 OA
ATOM     99  O   UNL A   1      48.363  37.504  27.317  1.00  0.00    -0.237 OA
ATOM    100  O   UNL A   1      47.792  35.805  25.626  1.00  0.00    -0.744 OA
ENDBRANCH  93  97
ENDBRANCH  67  90
ENDBRANCH  41  42
ENDBRANCH  34  36
ENDBRANCH  33  34
ENDBRANCH  32  33
ENDBRANCH  31  32
ENDBRANCH  30  31
ENDBRANCH  29  30
ENDBRANCH  28  29
ENDBRANCH   1  28
TORSDOF 28
ENDMDL
MODEL 2
REMARK VINA RESULT:      -7.9      6.813      9.932
REMARK SMILES CCC[C@]1(C(=O)OCCOCCOCCOCCOC(=O)c2ccc(-c3c4nc(c(-c5cc(S(=O)(=O)[O-])ccc5F)c5ccc([nH]5)c(-c5cc(S(=O)(=O)[O-])ccc5F)c5nc(c(-c6cc(S(=O)(=O)[O-])ccc6F)c6ccc3[nH]6)C=C5)C=C4)cc2)CCN(c2cncc(C(=O)OC)n2)C1
REMARK SMILES IDX 13 1 12 2 11 3 10 4 9 5 8 6 7 7 5 8 6 9 4 10 85 11 98 12
REMARK SMILES IDX 86 13 87 14 3 15 2 16 1 17 88 18 89 19 97 20 90 21 92 22
REMARK SMILES IDX 91 23 93 24 94 25 95 26 96 27 14 28 15 29 16 30 17 31 18 32
REMARK SMILES IDX 19 33 20 34 21 35 22 36 23 37 84 38 24 39 83 40 25 41 26 42
REMARK SMILES IDX 27 43 77 44 28 45 82 46 76 47 78 48 29 49 81 50 75 51 74 52
REMARK SMILES IDX 30 54 62 55 42 56 61 57 43 58 46 59 60 60 79 61 44 62 45 63
REMARK SMILES IDX 59 65 80 66 47 67 31 68 32 69 40 70 33 71 39 72 41 73 38 74
REMARK SMILES IDX 34 75 35 76 36 77 37 78 63 79 64 80 72 81 65 82 71 83 73 84
REMARK SMILES IDX 70 85 66 86 67 87 68 88 69 89 48 90 49 91 57 92 50 93 56 94
REMARK SMILES IDX 58 95 55 96 51 97 52 98 53 99 54 100
REMARK H PARENT 78 53 46 64
REMARK Flexibility Score: inf
ROOT
ATOM      1  O   UNL A   1      39.816  27.791  27.319  1.00  0.00    -0.377 OA
ENDROOT
BRANCH   1   2
ATOM      2  C   UNL A   1      40.253  26.476  27.583  1.00  0.00     0.188 C 
BRANCH   2   3
ATOM      3  C   UNL A   1      39.145  25.410  27.622  1.00  0.00     0.188 C 
BRANCH   3   4
ATOM      4  O   UNL A   1      39.464  24.038  27.469  1.00  0.00    -0.376 OA
BRANCH   4   5
ATOM      5  C   UNL A   1      38.944  23.317  26.362  1.00  0.00     0.202 C 
BRANCH   5   6
ATOM      6  C   UNL A   1      37.594  23.697  25.710  1.00  0.00     0.261 C 
BRANCH   6   7
ATOM      7  O   UNL A   1      36.669  22.629  25.405  1.00  0.00    -0.463 OA
BRANCH   7   8
ATOM      8  C   UNL A   1      35.793  22.820  24.382  1.00  0.00     0.314 C 
ATOM      9  O   UNL A   1      36.135  23.112  23.240  1.00  0.00    -0.252 OA
BRANCH   8  10
ATOM     10  C   UNL A   1      34.315  22.672  24.791  1.00  0.00     0.087 C 
ATOM     11  C   UNL A   1      33.919  22.953  26.259  1.00  0.00     0.042 C 
ATOM     12  C   UNL A   1      33.632  23.877  24.079  1.00  0.00     0.137 C 
ATOM     13  C   UNL A   1      32.500  23.480  26.172  1.00  0.00     0.119 C 
ATOM     14  N   UNL A   1      32.558  24.295  24.986  1.00  0.00    -0.354 N 
BRANCH  10  15
ATOM     15  C   UNL A   1      33.716  21.338  24.232  1.00  0.00     0.020 C 
BRANCH  15  16
ATOM     16  C   UNL A   1      33.866  20.015  25.005  1.00  0.00    -0.002 C 
ATOM     17  C   UNL A   1      33.646  18.722  24.235  1.00  0.00     0.004 C 
ENDBRANCH  15  16
ENDBRANCH  10  15
BRANCH  14  18
ATOM     18  C   UNL A   1      32.142  25.595  24.901  1.00  0.00     0.148 A 
ATOM     19  C   UNL A   1      31.161  26.046  24.011  1.00  0.00     0.157 A 
ATOM     20  N   UNL A   1      32.705  26.465  25.761  1.00  0.00    -0.221 NA
ATOM     21  N   UNL A   1      30.729  27.332  23.934  1.00  0.00    -0.258 NA
ATOM     22  C   UNL A   1      32.302  27.760  25.683  1.00  0.00     0.169 A 
ATOM     23  C   UNL A   1      31.328  28.183  24.796  1.00  0.00     0.147 A 
BRANCH  22  24
ATOM     24  C   UNL A   1      32.978  28.757  26.546  1.00  0.00     0.358 C 
ATOM     25  O   UNL A   1      33.484  28.496  27.626  1.00  0.00    -0.244 OA
BRANCH  24  26
ATOM     26  O   UNL A   1      32.910  29.988  25.974  1.00  0.00    -0.464 OA
ATOM     27  C   UNL A   1      32.195  30.956  26.734  1.00  0.00     0.282 C 
ENDBRANCH  24  26
ENDBRANCH  22  24
ENDBRANCH  14  18
ENDBRANCH   8  10
ENDBRANCH   7   8
ENDBRANCH   6   7
ENDBRANCH   5   6
ENDBRANCH   4   5
ENDBRANCH   3   4
ENDBRANCH   2   3
ENDBRANCH   1   2
BRANCH   1  28
ATOM     28  C   UNL A   1      39.915  28.700  28.404  1.00  0.00     0.188 C 
BRANCH  28  29
ATOM     29  C   UNL A   1      38.781  29.732  28.553  1.00  0.00     0.188 C 
BRANCH  29  30
ATOM     30  O   UNL A   1      37.883  29.756  27.447  1.00  0.00    -0.376 OA
BRANCH  30  31
ATOM     31  C   UNL A   1      36.494  29.945  27.663  1.00  0.00     0.202 C 
BRANCH  31  32
ATOM     32  C   UNL A   1      35.970  31.335  28.065  1.00  0.00     0.261 C 
BRANCH  32  33
ATOM     33  O   UNL A   1      34.937  31.393  29.058  1.00  0.00    -0.460 OA
BRANCH  33  34
ATOM     34  C   UNL A   1      34.888  32.469  29.872  1.00  0.00     0.338 C 
ATOM     35  O   UNL A   1      34.044  33.348  29.865  1.00  0.00    -0.246 OA
BRANCH  34  36
ATOM     36  C   UNL A   1      35.909  32.265  30.927  1.00  0.00     0.060 A 
ATOM     37  C   UNL A   1      36.939  33.204  31.064  1.00  0.00     0.016 A 
ATOM     38  C   UNL A   1      35.819  31.183  31.807  1.00  0.00     0.016 A 
ATOM     39  C   UNL A   1      37.895  33.055  32.070  1.00  0.00     0.010 A 
ATOM     40  C   UNL A   1      36.796  31.016  32.793  1.00  0.00     0.010 A 
ATOM     41  C   UNL A   1      37.854  31.935  32.910  1.00  0.00    -0.014 A 
BRANCH  41  42
ATOM     42  C   UNL A   1      39.036  31.601  33.742  1.00  0.00     0.031 A 
ATOM     43  C   UNL A   1      39.109  32.196  35.122  1.00  0.00     0.074 A 
ATOM     44  C   UNL A   1      40.003  30.776  33.304  1.00  0.00     0.049 A 
ATOM     45  N   UNL A   1      40.063  32.126  36.012  1.00  0.00    -0.248 NA
ATOM     46  C   UNL A   1      37.942  32.985  35.550  1.00  0.00     0.031 C 
ATOM     47  C   UNL A   1      40.006  30.087  32.014  1.00  0.00     0.029 A 
ATOM     48  N   UNL A   1      41.177  30.384  33.898  1.00  0.00    -0.354 N 
ATOM     49  C   UNL A   1      39.616  32.866  37.102  1.00  0.00     0.074 A 
ATOM     50  C   UNL A   1      38.322  33.406  36.744  1.00  0.00     0.031 C 
ATOM     51  C   UNL A   1      41.138  29.368  31.910  1.00  0.00     0.029 A 
ATOM     52  C   UNL A   1      41.959  29.581  33.101  1.00  0.00     0.049 A 
ATOM     53  H   UNL A   1      41.435  30.654  34.810  1.00  0.00     0.167 HD
ATOM     54  C   UNL A   1      40.228  33.070  38.293  1.00  0.00     0.034 A 
ATOM     55  C   UNL A   1      43.206  29.105  33.301  1.00  0.00     0.034 A 
ATOM     56  C   UNL A   1      41.526  32.538  38.623  1.00  0.00     0.049 A 
ATOM     57  C   UNL A   1      43.920  29.440  34.592  1.00  0.00     0.074 A 
ATOM     58  C   UNL A   1      42.239  32.677  39.800  1.00  0.00     0.029 A 
ATOM     59  N   UNL A   1      42.314  31.778  37.768  1.00  0.00    -0.354 N 
ATOM     60  N   UNL A   1      43.490  30.142  35.617  1.00  0.00    -0.248 NA
ATOM     61  C   UNL A   1      45.283  28.917  34.755  1.00  0.00     0.031 C 
ATOM     62  C   UNL A   1      43.490  32.077  39.627  1.00  0.00     0.029 A 
ATOM     63  C   UNL A   1      43.522  31.478  38.377  1.00  0.00     0.049 A 
ATOM     64  H   UNL A   1      42.052  31.494  36.862  1.00  0.00     0.167 HD
ATOM     65  C   UNL A   1      44.519  30.112  36.558  1.00  0.00     0.074 A 
ATOM     66  C   UNL A   1      45.581  29.314  35.983  1.00  0.00     0.031 C 
ATOM     67  C   UNL A   1      44.577  30.685  37.788  1.00  0.00     0.034 A 
BRANCH  54  68
ATOM     68  C   UNL A   1      39.523  33.957  39.291  1.00  0.00     0.023 A 
ATOM     69  C   UNL A   1      39.573  35.359  39.206  1.00  0.00     0.031 A 
ATOM     70  C   UNL A   1      38.818  33.389  40.367  1.00  0.00     0.131 A 
ATOM     71  C   UNL A   1      38.997  36.143  40.216  1.00  0.00     0.055 A 
ATOM     72  C   UNL A   1      38.171  34.175  41.322  1.00  0.00     0.041 A 
ATOM     73  F   UNL A   1      38.760  32.056  40.519  1.00  0.00    -0.206 F 
ATOM     74  C   UNL A   1      38.272  35.561  41.258  1.00  0.00     0.022 A 
BRANCH  71  75
ATOM     75  S   UNL A   1      39.341  37.924  40.233  1.00  0.00     0.124 S 
ATOM     76  O   UNL A   1      38.165  38.458  39.552  1.00  0.00    -0.237 OA
ATOM     77  O   UNL A   1      39.440  38.212  41.659  1.00  0.00    -0.237 OA
ATOM     78  O   UNL A   1      40.592  38.039  39.485  1.00  0.00    -0.744 OA
ENDBRANCH  71  75
ENDBRANCH  54  68
BRANCH  55  79
ATOM     79  C   UNL A   1      43.894  28.307  32.242  1.00  0.00     0.023 A 
ATOM     80  C   UNL A   1      44.477  28.926  31.125  1.00  0.00     0.031 A 
ATOM     81  C   UNL A   1      43.916  26.901  32.298  1.00  0.00     0.131 A 
ATOM     82  C   UNL A   1      45.012  28.144  30.088  1.00  0.00     0.055 A 
ATOM     83  C   UNL A   1      44.503  26.128  31.294  1.00  0.00     0.041 A 
ATOM     84  F   UNL A   1      43.364  26.253  33.336  1.00  0.00    -0.206 F 
ATOM     85  C   UNL A   1      45.043  26.751  30.172  1.00  0.00     0.022 A 
BRANCH  82  86
ATOM     86  S   UNL A   1      45.574  28.973  28.576  1.00  0.00     0.124 S 
ATOM     87  O   UNL A   1      45.586  27.871  27.621  1.00  0.00    -0.237 OA
ATOM     88  O   UNL A   1      44.538  29.982  28.380  1.00  0.00    -0.237 OA
ATOM     89  O   UNL A   1      46.889  29.496  28.944  1.00  0.00    -0.744 OA
ENDBRANCH  82  86
ENDBRANCH  55  79
BRANCH  67  90
ATOM     90  C   UNL A   1      45.811  30.423  38.619  1.00  0.00     0.023 A 
ATOM     91  C   UNL A   1      46.882  31.331  38.671  1.00  0.00     0.031 A 
ATOM     92  C   UNL A   1      45.909  29.243  39.381  1.00  0.00     0.131 A 
ATOM     93  C   UNL A   1      48.025  31.022  39.426  1.00  0.00     0.055 A 
ATOM     94  C   UNL A   1      47.019  28.974  40.183  1.00  0.00     0.041 A 
ATOM     95  F   UNL A   1      44.918  28.336  39.368  1.00  0.00    -0.206 F 
ATOM     96  C   UNL A   1      48.090  29.860  40.199  1.00  0.00     0.022 A 
BRANCH  93  97
ATOM     97  S   UNL A   1      49.467  32.116  39.311  1.00  0.00     0.124 S 
ATOM     98  O   UNL A   1      50.372  31.337  38.474  1.00  0.00    -0.237 OA
ATOM     99  O   UNL A   1      48.903  33.314  38.698  1.00  0.00    -0.237 OA
ATOM    100  O   UNL A   1      49.890  32.274  40.702  1.00  0.00    -0.744 OA
ENDBRANCH  93  97
ENDBRANCH  67  90
ENDBRANCH  41  42
ENDBRANCH  34  36
ENDBRANCH  33  34
ENDBRANCH  32  33
ENDBRANCH  31  32
ENDBRANCH  30  31
ENDBRANCH  29  30
ENDBRANCH  28  29
ENDBRANCH   1  28
TORSDOF 28
ENDMDL
MODEL 3
REMARK VINA RESULT:      -7.8      6.422     11.872
REMARK SMILES CCC[C@]1(C(=O)OCCOCCOCCOCCOC(=O)c2ccc(-c3c4nc(c(-c5cc(S(=O)(=O)[O-])ccc5F)c5ccc([nH]5)c(-c5cc(S(=O)(=O)[O-])ccc5F)c5nc(c(-c6cc(S(=O)(=O)[O-])ccc6F)c6ccc3[nH]6)C=C5)C=C4)cc2)CCN(c2cncc(C(=O)OC)n2)C1
REMARK SMILES IDX 13 1 12 2 11 3 10 4 9 5 8 6 7 7 5 8 6 9 4 10 85 11 98 12
REMARK SMILES IDX 86 13 87 14 3 15 2 16 1 17 88 18 89 19 97 20 90 21 92 22
REMARK SMILES IDX 91 23 93 24 94 25 95 26 96 27 14 28 15 29 16 30 17 31 18 32
REMARK SMILES IDX 19 33 20 34 21 35 22 36 23 37 84 38 24 39 83 40 25 41 26 42
REMARK SMILES IDX 27 43 77 44 28 45 82 46 76 47 78 48 29 49 81 50 75 51 74 52
REMARK SMILES IDX 30 54 62 55 42 56 61 57 43 58 46 59 60 60 79 61 44 62 45 63
REMARK SMILES IDX 59 65 80 66 47 67 31 68 32 69 40 70 33 71 39 72 41 73 38 74
REMARK SMILES IDX 34 75 35 76 36 77 37 78 63 79 64 80 72 81 65 82 71 83 73 84
REMARK SMILES IDX 70 85 66 86 67 87 68 88 69 89 48 90 49 91 57 92 50 93 56 94
REMARK SMILES IDX 58 95 55 96 51 97 52 98 53 99 54 100
REMARK H PARENT 78 53 46 64
REMARK Flexibility Score: inf
ROOT
ATOM      1  O   UNL A   1      39.791  27.918  26.946  1.00  0.00    -0.377 OA
ENDROOT
BRANCH   1   2
ATOM      2  C   UNL A   1      40.596  26.760  26.902  1.00  0.00     0.188 C 
BRANCH   2   3
ATOM      3  C   UNL A   1      39.885  25.451  27.283  1.00  0.00     0.188 C 
BRANCH   3   4
ATOM      4  O   UNL A   1      40.085  24.276  26.516  1.00  0.00    -0.376 OA
BRANCH   4   5
ATOM      5  C   UNL A   1      38.973  23.454  26.191  1.00  0.00     0.202 C 
BRANCH   5   6
ATOM      6  C   UNL A   1      37.532  23.849  26.587  1.00  0.00     0.261 C 
BRANCH   6   7
ATOM      7  O   UNL A   1      36.449  23.028  26.095  1.00  0.00    -0.463 OA
BRANCH   7   8
ATOM      8  C   UNL A   1      35.861  23.387  24.922  1.00  0.00     0.314 C 
ATOM      9  O   UNL A   1      36.490  23.704  23.916  1.00  0.00    -0.252 OA
BRANCH   8  10
ATOM     10  C   UNL A   1      34.322  23.396  24.972  1.00  0.00     0.087 C 
ATOM     11  C   UNL A   1      33.624  23.806  26.290  1.00  0.00     0.042 C 
ATOM     12  C   UNL A   1      33.949  24.608  24.068  1.00  0.00     0.137 C 
ATOM     13  C   UNL A   1      32.326  24.448  25.846  1.00  0.00     0.119 C 
ATOM     14  N   UNL A   1      32.740  25.176  24.675  1.00  0.00    -0.354 N 
BRANCH  10  15
ATOM     15  C   UNL A   1      33.738  22.087  24.343  1.00  0.00     0.020 C 
BRANCH  15  16
ATOM     16  C   UNL A   1      33.031  22.108  22.975  1.00  0.00    -0.002 C 
ATOM     17  C   UNL A   1      31.512  22.153  22.970  1.00  0.00     0.004 C 
ENDBRANCH  15  16
ENDBRANCH  10  15
BRANCH  14  18
ATOM     18  C   UNL A   1      32.489  26.501  24.438  1.00  0.00     0.148 A 
ATOM     19  C   UNL A   1      33.341  27.540  24.828  1.00  0.00     0.157 A 
ATOM     20  N   UNL A   1      31.361  26.788  23.760  1.00  0.00    -0.221 NA
ATOM     21  N   UNL A   1      33.108  28.855  24.581  1.00  0.00    -0.258 NA
ATOM     22  C   UNL A   1      31.100  28.100  23.523  1.00  0.00     0.169 A 
ATOM     23  C   UNL A   1      31.960  29.111  23.916  1.00  0.00     0.147 A 
BRANCH  22  24
ATOM     24  C   UNL A   1      29.818  28.452  22.871  1.00  0.00     0.358 C 
ATOM     25  O   UNL A   1      28.726  28.052  23.246  1.00  0.00    -0.244 OA
BRANCH  24  26
ATOM     26  O   UNL A   1      30.049  29.240  21.788  1.00  0.00    -0.464 OA
ATOM     27  C   UNL A   1      29.104  30.288  21.604  1.00  0.00     0.282 C 
ENDBRANCH  24  26
ENDBRANCH  22  24
ENDBRANCH  14  18
ENDBRANCH   8  10
ENDBRANCH   7   8
ENDBRANCH   6   7
ENDBRANCH   5   6
ENDBRANCH   4   5
ENDBRANCH   3   4
ENDBRANCH   2   3
ENDBRANCH   1   2
BRANCH   1  28
ATOM     28  C   UNL A   1      40.051  28.806  28.022  1.00  0.00     0.188 C 
BRANCH  28  29
ATOM     29  C   UNL A   1      38.863  29.640  28.538  1.00  0.00     0.188 C 
BRANCH  29  30
ATOM     30  O   UNL A   1      37.697  29.533  27.728  1.00  0.00    -0.376 OA
BRANCH  30  31
ATOM     31  C   UNL A   1      36.423  29.840  28.272  1.00  0.00     0.202 C 
BRANCH  31  32
ATOM     32  C   UNL A   1      35.832  31.247  28.073  1.00  0.00     0.261 C 
BRANCH  32  33
ATOM     33  O   UNL A   1      34.650  31.581  28.814  1.00  0.00    -0.460 OA
BRANCH  33  34
ATOM     34  C   UNL A   1      34.603  32.773  29.444  1.00  0.00     0.338 C 
ATOM     35  O   UNL A   1      33.787  33.661  29.263  1.00  0.00    -0.246 OA
BRANCH  34  36
ATOM     36  C   UNL A   1      35.575  32.716  30.561  1.00  0.00     0.060 A 
ATOM     37  C   UNL A   1      36.495  33.761  30.715  1.00  0.00     0.016 A 
ATOM     38  C   UNL A   1      35.545  31.663  31.480  1.00  0.00     0.016 A 
ATOM     39  C   UNL A   1      37.399  33.750  31.777  1.00  0.00     0.010 A 
ATOM     40  C   UNL A   1      36.475  31.635  32.523  1.00  0.00     0.010 A 
ATOM     41  C   UNL A   1      37.424  32.663  32.659  1.00  0.00    -0.014 A 
BRANCH  41  42
ATOM     42  C   UNL A   1      38.584  32.485  33.568  1.00  0.00     0.031 A 
ATOM     43  C   UNL A   1      39.815  31.827  33.008  1.00  0.00     0.074 A 
ATOM     44  C   UNL A   1      38.560  32.916  34.842  1.00  0.00     0.049 A 
ATOM     45  N   UNL A   1      40.926  31.486  33.608  1.00  0.00    -0.248 NA
ATOM     46  C   UNL A   1      39.781  31.505  31.573  1.00  0.00     0.031 C 
ATOM     47  C   UNL A   1      37.450  33.628  35.473  1.00  0.00     0.029 A 
ATOM     48  N   UNL A   1      39.501  32.810  35.836  1.00  0.00    -0.354 N 
ATOM     49  C   UNL A   1      41.719  30.903  32.625  1.00  0.00     0.074 A 
ATOM     50  C   UNL A   1      40.947  30.904  31.402  1.00  0.00     0.031 C 
ATOM     51  C   UNL A   1      37.771  33.882  36.755  1.00  0.00     0.029 A 
ATOM     52  C   UNL A   1      39.085  33.310  37.047  1.00  0.00     0.049 A 
ATOM     53  H   UNL A   1      40.391  32.412  35.694  1.00  0.00     0.167 HD
ATOM     54  C   UNL A   1      42.979  30.419  32.735  1.00  0.00     0.034 A 
ATOM     55  C   UNL A   1      39.684  33.278  38.256  1.00  0.00     0.034 A 
ATOM     56  C   UNL A   1      43.726  30.411  33.968  1.00  0.00     0.049 A 
ATOM     57  C   UNL A   1      41.045  32.628  38.381  1.00  0.00     0.074 A 
ATOM     58  C   UNL A   1      45.010  29.949  34.194  1.00  0.00     0.029 A 
ATOM     59  N   UNL A   1      43.248  30.873  35.188  1.00  0.00    -0.354 N 
ATOM     60  N   UNL A   1      41.788  32.077  37.447  1.00  0.00    -0.248 NA
ATOM     61  C   UNL A   1      41.648  32.597  39.721  1.00  0.00     0.031 C 
ATOM     62  C   UNL A   1      45.276  30.051  35.563  1.00  0.00     0.029 A 
ATOM     63  C   UNL A   1      44.198  30.668  36.177  1.00  0.00     0.049 A 
ATOM     64  H   UNL A   1      42.366  31.286  35.330  1.00  0.00     0.167 HD
ATOM     65  C   UNL A   1      42.960  31.669  38.083  1.00  0.00     0.074 A 
ATOM     66  C   UNL A   1      42.828  32.048  39.475  1.00  0.00     0.031 C 
ATOM     67  C   UNL A   1      44.048  31.045  37.564  1.00  0.00     0.034 A 
BRANCH  54  68
ATOM     68  C   UNL A   1      43.593  29.800  31.502  1.00  0.00     0.023 A 
ATOM     69  C   UNL A   1      43.514  28.421  31.243  1.00  0.00     0.031 A 
ATOM     70  C   UNL A   1      44.302  30.601  30.588  1.00  0.00     0.131 A 
ATOM     71  C   UNL A   1      44.192  27.874  30.144  1.00  0.00     0.055 A 
ATOM     72  C   UNL A   1      44.902  30.064  29.448  1.00  0.00     0.041 A 
ATOM     73  F   UNL A   1      44.439  31.920  30.797  1.00  0.00    -0.206 F 
ATOM     74  C   UNL A   1      44.862  28.690  29.229  1.00  0.00     0.022 A 
BRANCH  71  75
ATOM     75  S   UNL A   1      44.319  26.069  30.014  1.00  0.00     0.124 S 
ATOM     76  O   UNL A   1      43.144  25.749  29.208  1.00  0.00    -0.237 OA
ATOM     77  O   UNL A   1      45.610  25.891  29.362  1.00  0.00    -0.237 OA
ATOM     78  O   UNL A   1      44.254  25.620  31.404  1.00  0.00    -0.744 OA
ENDBRANCH  71  75
ENDBRANCH  54  68
BRANCH  55  79
ATOM     79  C   UNL A   1      38.993  33.824  39.462  1.00  0.00     0.023 A 
ATOM     80  C   UNL A   1      38.013  33.081  40.139  1.00  0.00     0.031 A 
ATOM     81  C   UNL A   1      39.256  35.130  39.916  1.00  0.00     0.131 A 
ATOM     82  C   UNL A   1      37.296  33.665  41.197  1.00  0.00     0.055 A 
ATOM     83  C   UNL A   1      38.584  35.685  41.007  1.00  0.00     0.041 A 
ATOM     84  F   UNL A   1      40.175  35.891  39.301  1.00  0.00    -0.206 F 
ATOM     85  C   UNL A   1      37.586  34.955  41.646  1.00  0.00     0.022 A 
BRANCH  82  86
ATOM     86  S   UNL A   1      35.904  32.748  41.914  1.00  0.00     0.124 S 
ATOM     87  O   UNL A   1      36.587  31.853  42.841  1.00  0.00    -0.237 OA
ATOM     88  O   UNL A   1      35.115  33.817  42.517  1.00  0.00    -0.237 OA
ATOM     89  O   UNL A   1      35.292  32.100  40.755  1.00  0.00    -0.744 OA
ENDBRANCH  82  86
ENDBRANCH  55  79
BRANCH  67  90
ATOM     90  C   UNL A   1      45.210  30.782  38.496  1.00  0.00     0.023 A 
ATOM     91  C   UNL A   1      45.349  29.568  39.189  1.00  0.00     0.031 A 
ATOM     92  C   UNL A   1      46.199  31.766  38.682  1.00  0.00     0.131 A 
ATOM     93  C   UNL A   1      46.423  29.388  40.075  1.00  0.00     0.055 A 
ATOM     94  C   UNL A   1      47.301  31.555  39.512  1.00  0.00     0.041 A 
ATOM     95  F   UNL A   1      46.116  32.948  38.049  1.00  0.00    -0.206 F 
ATOM     96  C   UNL A   1      47.411  30.365  40.223  1.00  0.00     0.022 A 
BRANCH  93  97
ATOM     97  S   UNL A   1      46.464  27.895  41.104  1.00  0.00     0.124 S 
ATOM     98  O   UNL A   1      45.442  28.187  42.102  1.00  0.00    -0.237 OA
ATOM     99  O   UNL A   1      46.137  26.845  40.144  1.00  0.00    -0.237 OA
ATOM    100  O   UNL A   1      47.835  27.864  41.610  1.00  0.00    -0.744 OA
ENDBRANCH  93  97
ENDBRANCH  67  90
ENDBRANCH  41  42
ENDBRANCH  34  36
ENDBRANCH  33  34
ENDBRANCH  32  33
ENDBRANCH  31  32
ENDBRANCH  30  31
ENDBRANCH  29  30
ENDBRANCH  28  29
ENDBRANCH   1  28
TORSDOF 28
ENDMDL
