MODEL 1
REMARK VINA RESULT:      -9.4      0.000      0.000
REMARK SMILES C[C@@H]1[C@@H](C(=O)OCCOCCOCCOCCOC(=O)c2ccc(-c3c4nc(c(-c5cc(S(=O)(=O)[O-])ccc5F)c5ccc([nH]5)c(-c5cc(S(=O)(=O)[O-])ccc5F)c5nc(c(-c6cc(S(=O)(=O)[O-])ccc6F)c6ccc3[nH]6)C=C5)C=C4)cc2)CCN1c1ccc(F)cc1C(N)=O
REMARK SMILES IDX 13 1 12 2 11 3 10 4 9 5 8 6 7 7 6 8 4 9 5 10 3 11 1 12 2 13
REMARK SMILES IDX 86 14 84 15 85 16 87 17 88 18 93 19 89 20 92 21 90 22 91 23
REMARK SMILES IDX 94 24 95 25 96 26 14 29 15 30 16 31 17 32 18 33 19 34 20 35
REMARK SMILES IDX 21 36 22 37 83 38 23 39 82 40 24 41 25 42 26 43 76 44 27 45
REMARK SMILES IDX 81 46 75 47 77 48 28 49 80 50 74 51 73 52 29 54 61 55 41 56
REMARK SMILES IDX 60 57 42 58 45 59 59 60 78 61 43 62 44 63 58 65 79 66 46 67
REMARK SMILES IDX 30 68 31 69 39 70 32 71 38 72 40 73 37 74 33 75 34 76 35 77
REMARK SMILES IDX 36 78 62 79 63 80 71 81 64 82 70 83 72 84 69 85 65 86 66 87
REMARK SMILES IDX 67 88 68 89 47 90 48 91 56 92 49 93 55 94 57 95 54 96 50 97
REMARK SMILES IDX 51 98 52 99 53 100
REMARK H PARENT 95 27 95 28 77 53 45 64
REMARK Flexibility Score: inf
ROOT
ATOM      1  C   UNL A   1      40.187  23.214  27.375  1.00  0.00     0.188 C 
ENDROOT
BRANCH   1   2
ATOM      2  O   UNL A   1      39.360  23.276  26.220  1.00  0.00    -0.377 OA
BRANCH   2   3
ATOM      3  C   UNL A   1      38.072  23.815  26.405  1.00  0.00     0.188 C 
BRANCH   3   4
ATOM      4  C   UNL A   1      36.962  22.937  25.803  1.00  0.00     0.188 C 
BRANCH   4   5
ATOM      5  O   UNL A   1      35.596  23.309  25.878  1.00  0.00    -0.376 OA
BRANCH   5   6
ATOM      6  C   UNL A   1      34.692  22.931  26.906  1.00  0.00     0.202 C 
BRANCH   6   7
ATOM      7  C   UNL A   1      33.171  22.724  26.778  1.00  0.00     0.261 C 
BRANCH   7   8
ATOM      8  O   UNL A   1      32.400  23.841  26.359  1.00  0.00    -0.463 OA
BRANCH   8   9
ATOM      9  C   UNL A   1      31.384  23.528  25.525  1.00  0.00     0.311 C 
ATOM     10  O   UNL A   1      30.312  23.066  25.890  1.00  0.00    -0.252 OA
BRANCH   9  11
ATOM     11  C   UNL A   1      31.739  23.960  24.119  1.00  0.00     0.123 C 
ATOM     12  C   UNL A   1      33.661  25.194  23.036  1.00  0.00     0.032 C 
ATOM     13  C   UNL A   1      32.647  25.189  24.181  1.00  0.00     0.093 C 
ATOM     14  N   UNL A   1      31.697  26.302  24.050  1.00  0.00    -0.367 N 
ATOM     15  C   UNL A   1      30.539  24.393  23.304  1.00  0.00     0.039 C 
ATOM     16  C   UNL A   1      30.338  25.826  23.763  1.00  0.00     0.118 C 
BRANCH  14  17
ATOM     17  C   UNL A   1      31.845  27.389  24.900  1.00  0.00     0.050 A 
ATOM     18  C   UNL A   1      31.510  27.271  26.265  1.00  0.00     0.030 A 
ATOM     19  C   UNL A   1      32.367  28.620  24.457  1.00  0.00     0.065 A 
ATOM     20  C   UNL A   1      31.654  28.335  27.153  1.00  0.00     0.041 A 
ATOM     21  C   UNL A   1      32.500  29.695  25.349  1.00  0.00     0.055 A 
ATOM     22  C   UNL A   1      32.139  29.540  26.681  1.00  0.00     0.124 A 
ATOM     23  F   UNL A   1      32.259  30.577  27.520  1.00  0.00    -0.207 F 
BRANCH  19  24
ATOM     24  C   UNL A   1      32.752  28.834  23.034  1.00  0.00     0.250 C 
ATOM     25  N   UNL A   1      31.761  29.306  22.212  1.00  0.00    -0.366 N 
ATOM     26  O   UNL A   1      33.863  28.602  22.579  1.00  0.00    -0.269 OA
ATOM     27  H   UNL A   1      30.866  29.492  22.577  1.00  0.00     0.159 HD
ATOM     28  H   UNL A   1      31.945  29.459  21.257  1.00  0.00     0.159 HD
ENDBRANCH  19  24
ENDBRANCH  14  17
ENDBRANCH   9  11
ENDBRANCH   8   9
ENDBRANCH   7   8
ENDBRANCH   6   7
ENDBRANCH   5   6
ENDBRANCH   4   5
ENDBRANCH   3   4
ENDBRANCH   2   3
ENDBRANCH   1   2
BRANCH   1  29
ATOM     29  C   UNL A   1      41.327  22.167  27.435  1.00  0.00     0.188 C 
BRANCH  29  30
ATOM     30  O   UNL A   1      40.896  20.811  27.452  1.00  0.00    -0.376 OA
BRANCH  30  31
ATOM     31  C   UNL A   1      41.879  19.788  27.445  1.00  0.00     0.202 C 
BRANCH  31  32
ATOM     32  C   UNL A   1      42.165  19.094  26.102  1.00  0.00     0.261 C 
BRANCH  32  33
ATOM     33  O   UNL A   1      42.735  19.915  25.074  1.00  0.00    -0.460 OA
BRANCH  33  34
ATOM     34  C   UNL A   1      44.083  19.948  24.991  1.00  0.00     0.338 C 
ATOM     35  O   UNL A   1      44.809  19.049  24.599  1.00  0.00    -0.246 OA
BRANCH  34  36
ATOM     36  C   UNL A   1      44.520  21.337  25.250  1.00  0.00     0.060 A 
ATOM     37  C   UNL A   1      45.051  21.657  26.507  1.00  0.00     0.016 A 
ATOM     38  C   UNL A   1      44.422  22.313  24.256  1.00  0.00     0.016 A 
ATOM     39  C   UNL A   1      45.448  22.964  26.787  1.00  0.00     0.010 A 
ATOM     40  C   UNL A   1      44.796  23.629  24.547  1.00  0.00     0.010 A 
ATOM     41  C   UNL A   1      45.275  23.967  25.825  1.00  0.00    -0.014 A 
BRANCH  41  42
ATOM     42  C   UNL A   1      45.380  25.392  26.228  1.00  0.00     0.031 A 
ATOM     43  C   UNL A   1      46.739  26.039  26.187  1.00  0.00     0.074 A 
ATOM     44  C   UNL A   1      44.299  26.106  26.589  1.00  0.00     0.049 A 
ATOM     45  N   UNL A   1      47.101  27.242  26.544  1.00  0.00    -0.248 NA
ATOM     46  C   UNL A   1      47.839  25.205  25.676  1.00  0.00     0.031 C 
ATOM     47  C   UNL A   1      42.925  25.608  26.609  1.00  0.00     0.029 A 
ATOM     48  N   UNL A   1      44.191  27.407  27.015  1.00  0.00    -0.354 N 
ATOM     49  C   UNL A   1      48.470  27.311  26.308  1.00  0.00     0.074 A 
ATOM     50  C   UNL A   1      48.878  26.013  25.815  1.00  0.00     0.031 C 
ATOM     51  C   UNL A   1      42.113  26.591  27.036  1.00  0.00     0.029 A 
ATOM     52  C   UNL A   1      42.911  27.772  27.361  1.00  0.00     0.049 A 
ATOM     53  H   UNL A   1      44.959  28.022  27.065  1.00  0.00     0.167 HD
ATOM     54  C   UNL A   1      49.308  28.362  26.478  1.00  0.00     0.034 A 
ATOM     55  C   UNL A   1      42.448  28.916  27.909  1.00  0.00     0.034 A 
ATOM     56  C   UNL A   1      48.888  29.645  26.985  1.00  0.00     0.049 A 
ATOM     57  C   UNL A   1      43.420  30.039  28.191  1.00  0.00     0.074 A 
ATOM     58  C   UNL A   1      49.650  30.780  27.191  1.00  0.00     0.029 A 
ATOM     59  N   UNL A   1      47.594  29.959  27.380  1.00  0.00    -0.354 N 
ATOM     60  N   UNL A   1      44.714  30.095  27.963  1.00  0.00    -0.248 NA
ATOM     61  C   UNL A   1      42.868  31.258  28.800  1.00  0.00     0.031 C 
ATOM     62  C   UNL A   1      48.839  31.749  27.789  1.00  0.00     0.029 A 
ATOM     63  C   UNL A   1      47.546  31.257  27.866  1.00  0.00     0.049 A 
ATOM     64  H   UNL A   1      46.822  29.350  27.323  1.00  0.00     0.167 HD
ATOM     65  C   UNL A   1      45.118  31.367  28.365  1.00  0.00     0.074 A 
ATOM     66  C   UNL A   1      43.931  32.049  28.836  1.00  0.00     0.031 C 
ATOM     67  C   UNL A   1      46.356  31.926  28.340  1.00  0.00     0.034 A 
BRANCH  54  68
ATOM     68  C   UNL A   1      50.770  28.142  26.170  1.00  0.00     0.023 A 
ATOM     69  C   UNL A   1      51.272  28.211  24.858  1.00  0.00     0.031 A 
ATOM     70  C   UNL A   1      51.671  27.827  27.202  1.00  0.00     0.131 A 
ATOM     71  C   UNL A   1      52.616  27.900  24.605  1.00  0.00     0.055 A 
ATOM     72  C   UNL A   1      53.026  27.604  26.955  1.00  0.00     0.041 A 
ATOM     73  F   UNL A   1      51.246  27.718  28.471  1.00  0.00    -0.206 F 
ATOM     74  C   UNL A   1      53.503  27.625  25.648  1.00  0.00     0.022 A 
BRANCH  71  75
ATOM     75  S   UNL A   1      53.152  27.709  22.883  1.00  0.00     0.124 S 
ATOM     76  O   UNL A   1      53.417  26.274  22.814  1.00  0.00    -0.237 OA
ATOM     77  O   UNL A   1      51.991  28.181  22.136  1.00  0.00    -0.237 OA
ATOM     78  O   UNL A   1      54.338  28.559  22.797  1.00  0.00    -0.744 OA
ENDBRANCH  71  75
ENDBRANCH  54  68
BRANCH  55  79
ATOM     79  C   UNL A   1      41.006  29.054  28.275  1.00  0.00     0.023 A 
ATOM     80  C   UNL A   1      40.586  28.997  29.612  1.00  0.00     0.031 A 
ATOM     81  C   UNL A   1      40.018  29.172  27.281  1.00  0.00     0.131 A 
ATOM     82  C   UNL A   1      39.215  29.005  29.917  1.00  0.00     0.055 A 
ATOM     83  C   UNL A   1      38.660  29.243  27.592  1.00  0.00     0.041 A 
ATOM     84  F   UNL A   1      40.362  29.222  25.983  1.00  0.00    -0.206 F 
ATOM     85  C   UNL A   1      38.249  29.144  28.918  1.00  0.00     0.022 A 
BRANCH  82  86
ATOM     86  S   UNL A   1      38.705  28.724  31.636  1.00  0.00     0.124 S 
ATOM     87  O   UNL A   1      39.148  27.352  31.855  1.00  0.00    -0.237 OA
ATOM     88  O   UNL A   1      39.449  29.760  32.345  1.00  0.00    -0.237 OA
ATOM     89  O   UNL A   1      37.257  28.916  31.597  1.00  0.00    -0.744 OA
ENDBRANCH  82  86
ENDBRANCH  55  79
BRANCH  67  90
ATOM     90  C   UNL A   1      46.478  33.366  28.783  1.00  0.00     0.023 A 
ATOM     91  C   UNL A   1      46.292  34.439  27.895  1.00  0.00     0.031 A 
ATOM     92  C   UNL A   1      46.791  33.667  30.122  1.00  0.00     0.131 A 
ATOM     93  C   UNL A   1      46.478  35.757  28.340  1.00  0.00     0.055 A 
ATOM     94  C   UNL A   1      46.904  34.981  30.576  1.00  0.00     0.041 A 
ATOM     95  F   UNL A   1      46.986  32.683  31.016  1.00  0.00    -0.206 F 
ATOM     96  C   UNL A   1      46.763  36.035  29.679  1.00  0.00     0.022 A 
BRANCH  93  97
ATOM     97  S   UNL A   1      46.451  37.101  27.123  1.00  0.00     0.124 S 
ATOM     98  O   UNL A   1      46.950  36.435  25.925  1.00  0.00    -0.237 OA
ATOM     99  O   UNL A   1      45.040  37.475  27.103  1.00  0.00    -0.237 OA
ATOM    100  O   UNL A   1      47.348  38.102  27.696  1.00  0.00    -0.744 OA
ENDBRANCH  93  97
ENDBRANCH  67  90
ENDBRANCH  41  42
ENDBRANCH  34  36
ENDBRANCH  33  34
ENDBRANCH  32  33
ENDBRANCH  31  32
ENDBRANCH  30  31
ENDBRANCH  29  30
ENDBRANCH   1  29
TORSDOF 25
ENDMDL
MODEL 2
REMARK VINA RESULT:      -9.2      6.044     11.381
REMARK SMILES C[C@@H]1[C@@H](C(=O)OCCOCCOCCOCCOC(=O)c2ccc(-c3c4nc(c(-c5cc(S(=O)(=O)[O-])ccc5F)c5ccc([nH]5)c(-c5cc(S(=O)(=O)[O-])ccc5F)c5nc(c(-c6cc(S(=O)(=O)[O-])ccc6F)c6ccc3[nH]6)C=C5)C=C4)cc2)CCN1c1ccc(F)cc1C(N)=O
REMARK SMILES IDX 13 1 12 2 11 3 10 4 9 5 8 6 7 7 6 8 4 9 5 10 3 11 1 12 2 13
REMARK SMILES IDX 86 14 84 15 85 16 87 17 88 18 93 19 89 20 92 21 90 22 91 23
REMARK SMILES IDX 94 24 95 25 96 26 14 29 15 30 16 31 17 32 18 33 19 34 20 35
REMARK SMILES IDX 21 36 22 37 83 38 23 39 82 40 24 41 25 42 26 43 76 44 27 45
REMARK SMILES IDX 81 46 75 47 77 48 28 49 80 50 74 51 73 52 29 54 61 55 41 56
REMARK SMILES IDX 60 57 42 58 45 59 59 60 78 61 43 62 44 63 58 65 79 66 46 67
REMARK SMILES IDX 30 68 31 69 39 70 32 71 38 72 40 73 37 74 33 75 34 76 35 77
REMARK SMILES IDX 36 78 62 79 63 80 71 81 64 82 70 83 72 84 69 85 65 86 66 87
REMARK SMILES IDX 67 88 68 89 47 90 48 91 56 92 49 93 55 94 57 95 54 96 50 97
REMARK SMILES IDX 51 98 52 99 53 100
REMARK H PARENT 95 27 95 28 77 53 45 64
REMARK Flexibility Score: inf
ROOT
ATOM      1  C   UNL A   1      34.644  32.289  28.328  1.00  0.00     0.188 C 
ENDROOT
BRANCH   1   2
ATOM      2  O   UNL A   1      33.379  31.915  27.796  1.00  0.00    -0.377 OA
BRANCH   2   3
ATOM      3  C   UNL A   1      33.340  30.711  27.068  1.00  0.00     0.188 C 
BRANCH   3   4
ATOM      4  C   UNL A   1      31.910  30.256  26.736  1.00  0.00     0.188 C 
BRANCH   4   5
ATOM      5  O   UNL A   1      31.562  29.772  25.450  1.00  0.00    -0.376 OA
BRANCH   5   6
ATOM      6  C   UNL A   1      31.972  28.530  24.896  1.00  0.00     0.202 C 
BRANCH   6   7
ATOM      7  C   UNL A   1      32.276  28.225  23.417  1.00  0.00     0.261 C 
BRANCH   7   8
ATOM      8  O   UNL A   1      32.394  26.859  23.049  1.00  0.00    -0.463 OA
BRANCH   8   9
ATOM      9  C   UNL A   1      32.974  26.082  23.991  1.00  0.00     0.311 C 
ATOM     10  O   UNL A   1      34.088  26.278  24.453  1.00  0.00    -0.252 OA
BRANCH   9  11
ATOM     11  C   UNL A   1      31.983  25.037  24.458  1.00  0.00     0.123 C 
ATOM     12  C   UNL A   1      31.775  23.508  26.459  1.00  0.00     0.032 C 
ATOM     13  C   UNL A   1      32.698  24.027  25.357  1.00  0.00     0.093 C 
ATOM     14  N   UNL A   1      33.057  22.955  24.419  1.00  0.00    -0.367 N 
ATOM     15  C   UNL A   1      31.398  24.218  23.326  1.00  0.00     0.039 C 
ATOM     16  C   UNL A   1      32.480  23.180  23.088  1.00  0.00     0.118 C 
BRANCH  14  17
ATOM     17  C   UNL A   1      34.336  22.422  24.497  1.00  0.00     0.050 A 
ATOM     18  C   UNL A   1      35.451  23.199  24.121  1.00  0.00     0.030 A 
ATOM     19  C   UNL A   1      34.577  21.123  24.985  1.00  0.00     0.065 A 
ATOM     20  C   UNL A   1      36.751  22.705  24.195  1.00  0.00     0.041 A 
ATOM     21  C   UNL A   1      35.886  20.620  25.047  1.00  0.00     0.055 A 
ATOM     22  C   UNL A   1      36.953  21.415  24.649  1.00  0.00     0.124 A 
ATOM     23  F   UNL A   1      38.197  20.921  24.701  1.00  0.00    -0.207 F 
BRANCH  19  24
ATOM     24  C   UNL A   1      33.460  20.232  25.408  1.00  0.00     0.250 C 
ATOM     25  N   UNL A   1      33.211  20.186  26.755  1.00  0.00    -0.366 N 
ATOM     26  O   UNL A   1      32.792  19.554  24.640  1.00  0.00    -0.269 OA
ATOM     27  H   UNL A   1      33.749  20.730  27.375  1.00  0.00     0.159 HD
ATOM     28  H   UNL A   1      32.494  19.608  27.104  1.00  0.00     0.159 HD
ENDBRANCH  19  24
ENDBRANCH  14  17
ENDBRANCH   9  11
ENDBRANCH   8   9
ENDBRANCH   7   8
ENDBRANCH   6   7
ENDBRANCH   5   6
ENDBRANCH   4   5
ENDBRANCH   3   4
ENDBRANCH   2   3
ENDBRANCH   1   2
BRANCH   1  29
ATOM     29  C   UNL A   1      35.329  33.580  27.816  1.00  0.00     0.188 C 
BRANCH  29  30
ATOM     30  O   UNL A   1      35.044  34.751  28.571  1.00  0.00    -0.376 OA
BRANCH  30  31
ATOM     31  C   UNL A   1      33.695  35.182  28.668  1.00  0.00     0.202 C 
BRANCH  31  32
ATOM     32  C   UNL A   1      33.145  35.464  30.077  1.00  0.00     0.261 C 
BRANCH  32  33
ATOM     33  O   UNL A   1      33.302  34.412  31.039  1.00  0.00    -0.460 OA
BRANCH  33  34
ATOM     34  C   UNL A   1      34.132  34.649  32.078  1.00  0.00     0.338 C 
ATOM     35  O   UNL A   1      33.884  35.318  33.068  1.00  0.00    -0.246 OA
BRANCH  34  36
ATOM     36  C   UNL A   1      35.318  33.781  31.919  1.00  0.00     0.060 A 
ATOM     37  C   UNL A   1      35.226  32.433  32.295  1.00  0.00     0.016 A 
ATOM     38  C   UNL A   1      36.508  34.286  31.389  1.00  0.00     0.016 A 
ATOM     39  C   UNL A   1      36.336  31.597  32.179  1.00  0.00     0.010 A 
ATOM     40  C   UNL A   1      37.628  33.453  31.299  1.00  0.00     0.010 A 
ATOM     41  C   UNL A   1      37.556  32.115  31.728  1.00  0.00    -0.014 A 
BRANCH  41  42
ATOM     42  C   UNL A   1      38.800  31.328  31.919  1.00  0.00     0.031 A 
ATOM     43  C   UNL A   1      39.655  31.640  33.118  1.00  0.00     0.074 A 
ATOM     44  C   UNL A   1      39.149  30.340  31.076  1.00  0.00     0.049 A 
ATOM     45  N   UNL A   1      40.810  31.141  33.473  1.00  0.00    -0.248 NA
ATOM     46  C   UNL A   1      39.134  32.663  34.039  1.00  0.00     0.031 C 
ATOM     47  C   UNL A   1      38.372  29.905  29.917  1.00  0.00     0.029 A 
ATOM     48  N   UNL A   1      40.256  29.527  31.064  1.00  0.00    -0.354 N 
ATOM     49  C   UNL A   1      41.157  31.791  34.653  1.00  0.00     0.074 A 
ATOM     50  C   UNL A   1      40.108  32.749  34.929  1.00  0.00     0.031 C 
ATOM     51  C   UNL A   1      39.033  28.909  29.301  1.00  0.00     0.029 A 
ATOM     52  C   UNL A   1      40.298  28.666  29.993  1.00  0.00     0.049 A 
ATOM     53  H   UNL A   1      40.952  29.557  31.759  1.00  0.00     0.167 HD
ATOM     54  C   UNL A   1      42.245  31.601  35.437  1.00  0.00     0.034 A 
ATOM     55  C   UNL A   1      41.263  27.807  29.601  1.00  0.00     0.034 A 
ATOM     56  C   UNL A   1      43.289  30.652  35.138  1.00  0.00     0.049 A 
ATOM     57  C   UNL A   1      42.520  27.688  30.434  1.00  0.00     0.074 A 
ATOM     58  C   UNL A   1      44.431  30.372  35.866  1.00  0.00     0.029 A 
ATOM     59  N   UNL A   1      43.326  29.838  34.014  1.00  0.00    -0.354 N 
ATOM     60  N   UNL A   1      42.838  28.307  31.549  1.00  0.00    -0.248 NA
ATOM     61  C   UNL A   1      43.546  26.749  29.958  1.00  0.00     0.031 C 
ATOM     62  C   UNL A   1      45.199  29.456  35.140  1.00  0.00     0.029 A 
ATOM     63  C   UNL A   1      44.491  29.086  34.008  1.00  0.00     0.049 A 
ATOM     64  H   UNL A   1      42.627  29.799  33.321  1.00  0.00     0.167 HD
ATOM     65  C   UNL A   1      44.082  27.801  31.924  1.00  0.00     0.074 A 
ATOM     66  C   UNL A   1      44.448  26.819  30.926  1.00  0.00     0.031 C 
ATOM     67  C   UNL A   1      44.850  28.113  33.001  1.00  0.00     0.034 A 
BRANCH  54  68
ATOM     68  C   UNL A   1      42.385  32.480  36.657  1.00  0.00     0.023 A 
ATOM     69  C   UNL A   1      41.797  32.142  37.888  1.00  0.00     0.031 A 
ATOM     70  C   UNL A   1      43.092  33.692  36.577  1.00  0.00     0.131 A 
ATOM     71  C   UNL A   1      41.866  33.036  38.966  1.00  0.00     0.055 A 
ATOM     72  C   UNL A   1      43.232  34.537  37.679  1.00  0.00     0.041 A 
ATOM     73  F   UNL A   1      43.651  34.084  35.421  1.00  0.00    -0.206 F 
ATOM     74  C   UNL A   1      42.604  34.219  38.879  1.00  0.00     0.022 A 
BRANCH  71  75
ATOM     75  S   UNL A   1      40.851  32.706  40.433  1.00  0.00     0.124 S 
ATOM     76  O   UNL A   1      39.559  32.384  39.832  1.00  0.00    -0.237 OA
ATOM     77  O   UNL A   1      41.558  31.596  41.063  1.00  0.00    -0.237 OA
ATOM     78  O   UNL A   1      40.890  33.968  41.168  1.00  0.00    -0.744 OA
ENDBRANCH  71  75
ENDBRANCH  54  68
BRANCH  55  79
ATOM     79  C   UNL A   1      41.115  27.020  28.340  1.00  0.00     0.023 A 
ATOM     80  C   UNL A   1      40.894  25.635  28.368  1.00  0.00     0.031 A 
ATOM     81  C   UNL A   1      41.267  27.635  27.084  1.00  0.00     0.131 A 
ATOM     82  C   UNL A   1      40.882  24.903  27.170  1.00  0.00     0.055 A 
ATOM     83  C   UNL A   1      41.193  26.913  25.892  1.00  0.00     0.041 A 
ATOM     84  F   UNL A   1      41.490  28.957  26.997  1.00  0.00    -0.206 F 
ATOM     85  C   UNL A   1      41.014  25.534  25.931  1.00  0.00     0.022 A 
BRANCH  82  86
ATOM     86  S   UNL A   1      40.798  23.092  27.259  1.00  0.00     0.124 S 
ATOM     87  O   UNL A   1      41.310  22.838  28.600  1.00  0.00    -0.237 OA
ATOM     88  O   UNL A   1      39.375  22.845  27.056  1.00  0.00    -0.237 OA
ATOM     89  O   UNL A   1      41.666  22.658  26.167  1.00  0.00    -0.744 OA
ENDBRANCH  82  86
ENDBRANCH  55  79
BRANCH  67  90
ATOM     90  C   UNL A   1      46.136  27.341  33.185  1.00  0.00     0.023 A 
ATOM     91  C   UNL A   1      46.196  26.157  33.939  1.00  0.00     0.031 A 
ATOM     92  C   UNL A   1      47.327  27.806  32.595  1.00  0.00     0.131 A 
ATOM     93  C   UNL A   1      47.427  25.511  34.132  1.00  0.00     0.055 A 
ATOM     94  C   UNL A   1      48.534  27.121  32.730  1.00  0.00     0.041 A 
ATOM     95  F   UNL A   1      47.333  28.936  31.867  1.00  0.00    -0.206 F 
ATOM     96  C   UNL A   1      48.592  25.974  33.516  1.00  0.00     0.022 A 
BRANCH  93  97
ATOM     97  S   UNL A   1      47.509  24.116  35.288  1.00  0.00     0.124 S 
ATOM     98  O   UNL A   1      46.425  24.426  36.214  1.00  0.00    -0.237 OA
ATOM     99  O   UNL A   1      47.289  22.970  34.411  1.00  0.00    -0.237 OA
ATOM    100  O   UNL A   1      48.854  24.215  35.851  1.00  0.00    -0.744 OA
ENDBRANCH  93  97
ENDBRANCH  67  90
ENDBRANCH  41  42
ENDBRANCH  34  36
ENDBRANCH  33  34
ENDBRANCH  32  33
ENDBRANCH  31  32
ENDBRANCH  30  31
ENDBRANCH  29  30
ENDBRANCH   1  29
TORSDOF 25
ENDMDL
MODEL 3
REMARK VINA RESULT:      -8.9      6.033     11.309
REMARK SMILES C[C@@H]1[C@@H](C(=O)OCCOCCOCCOCCOC(=O)c2ccc(-c3c4nc(c(-c5cc(S(=O)(=O)[O-])ccc5F)c5ccc([nH]5)c(-c5cc(S(=O)(=O)[O-])ccc5F)c5nc(c(-c6cc(S(=O)(=O)[O-])ccc6F)c6ccc3[nH]6)C=C5)C=C4)cc2)CCN1c1ccc(F)cc1C(N)=O
REMARK SMILES IDX 13 1 12 2 11 3 10 4 9 5 8 6 7 7 6 8 4 9 5 10 3 11 1 12 2 13
REMARK SMILES IDX 86 14 84 15 85 16 87 17 88 18 93 19 89 20 92 21 90 22 91 23
REMARK SMILES IDX 94 24 95 25 96 26 14 29 15 30 16 31 17 32 18 33 19 34 20 35
REMARK SMILES IDX 21 36 22 37 83 38 23 39 82 40 24 41 25 42 26 43 76 44 27 45
REMARK SMILES IDX 81 46 75 47 77 48 28 49 80 50 74 51 73 52 29 54 61 55 41 56
REMARK SMILES IDX 60 57 42 58 45 59 59 60 78 61 43 62 44 63 58 65 79 66 46 67
REMARK SMILES IDX 30 68 31 69 39 70 32 71 38 72 40 73 37 74 33 75 34 76 35 77
REMARK SMILES IDX 36 78 62 79 63 80 71 81 64 82 70 83 72 84 69 85 65 86 66 87
REMARK SMILES IDX 67 88 68 89 47 90 48 91 56 92 49 93 55 94 57 95 54 96 50 97
REMARK SMILES IDX 51 98 52 99 53 100
REMARK H PARENT 95 27 95 28 77 53 45 64
REMARK Flexibility Score: inf
ROOT
ATOM      1  C   UNL A   1      33.272  29.418  25.548  1.00  0.00     0.188 C 
ENDROOT
BRANCH   1   2
ATOM      2  O   UNL A   1      33.540  28.052  25.257  1.00  0.00    -0.377 OA
BRANCH   2   3
ATOM      3  C   UNL A   1      32.744  27.104  25.927  1.00  0.00     0.188 C 
BRANCH   3   4
ATOM      4  C   UNL A   1      33.421  25.729  26.048  1.00  0.00     0.188 C 
BRANCH   4   5
ATOM      5  O   UNL A   1      34.565  25.394  25.281  1.00  0.00    -0.376 OA
BRANCH   5   6
ATOM      6  C   UNL A   1      35.800  24.922  25.802  1.00  0.00     0.202 C 
BRANCH   6   7
ATOM      7  C   UNL A   1      36.669  23.779  25.244  1.00  0.00     0.261 C 
BRANCH   7   8
ATOM      8  O   UNL A   1      36.524  22.502  25.848  1.00  0.00    -0.463 OA
BRANCH   8   9
ATOM      9  C   UNL A   1      36.292  21.500  24.971  1.00  0.00     0.311 C 
ATOM     10  O   UNL A   1      36.965  21.291  23.972  1.00  0.00    -0.252 OA
BRANCH   9  11
ATOM     11  C   UNL A   1      35.171  20.627  25.493  1.00  0.00     0.123 C 
ATOM     12  C   UNL A   1      33.202  19.410  24.478  1.00  0.00     0.032 C 
ATOM     13  C   UNL A   1      33.968  20.732  24.554  1.00  0.00     0.093 C 
ATOM     14  N   UNL A   1      33.154  21.779  25.185  1.00  0.00    -0.367 N 
ATOM     15  C   UNL A   1      34.656  21.061  26.849  1.00  0.00     0.039 C 
ATOM     16  C   UNL A   1      33.700  22.183  26.486  1.00  0.00     0.118 C 
BRANCH  14  17
ATOM     17  C   UNL A   1      32.610  22.761  24.369  1.00  0.00     0.050 A 
ATOM     18  C   UNL A   1      33.281  23.158  23.194  1.00  0.00     0.030 A 
ATOM     19  C   UNL A   1      31.367  23.362  24.649  1.00  0.00     0.065 A 
ATOM     20  C   UNL A   1      32.763  24.132  22.344  1.00  0.00     0.041 A 
ATOM     21  C   UNL A   1      30.851  24.353  23.799  1.00  0.00     0.055 A 
ATOM     22  C   UNL A   1      31.556  24.727  22.663  1.00  0.00     0.124 A 
ATOM     23  F   UNL A   1      31.060  25.681  21.865  1.00  0.00    -0.207 F 
BRANCH  19  24
ATOM     24  C   UNL A   1      30.586  23.002  25.866  1.00  0.00     0.250 C 
ATOM     25  N   UNL A   1      30.517  23.966  26.838  1.00  0.00    -0.366 N 
ATOM     26  O   UNL A   1      30.037  21.923  26.036  1.00  0.00    -0.269 OA
ATOM     27  H   UNL A   1      30.959  24.835  26.702  1.00  0.00     0.159 HD
ATOM     28  H   UNL A   1      30.026  23.789  27.673  1.00  0.00     0.159 HD
ENDBRANCH  19  24
ENDBRANCH  14  17
ENDBRANCH   9  11
ENDBRANCH   8   9
ENDBRANCH   7   8
ENDBRANCH   6   7
ENDBRANCH   5   6
ENDBRANCH   4   5
ENDBRANCH   3   4
ENDBRANCH   2   3
ENDBRANCH   1   2
BRANCH   1  29
ATOM     29  C   UNL A   1      32.513  29.779  26.849  1.00  0.00     0.188 C 
BRANCH  29  30
ATOM     30  O   UNL A   1      32.670  31.126  27.281  1.00  0.00    -0.376 OA
BRANCH  30  31
ATOM     31  C   UNL A   1      31.860  32.127  26.686  1.00  0.00     0.202 C 
BRANCH  31  32
ATOM     32  C   UNL A   1      31.875  33.523  27.333  1.00  0.00     0.261 C 
BRANCH  32  33
ATOM     33  O   UNL A   1      33.155  34.163  27.425  1.00  0.00    -0.460 OA
BRANCH  33  34
ATOM     34  C   UNL A   1      33.592  34.490  28.661  1.00  0.00     0.338 C 
ATOM     35  O   UNL A   1      33.059  35.267  29.437  1.00  0.00    -0.246 OA
BRANCH  34  36
ATOM     36  C   UNL A   1      34.706  33.581  29.005  1.00  0.00     0.060 A 
ATOM     37  C   UNL A   1      34.441  32.451  29.790  1.00  0.00     0.016 A 
ATOM     38  C   UNL A   1      36.001  33.832  28.543  1.00  0.00     0.016 A 
ATOM     39  C   UNL A   1      35.477  31.589  30.150  1.00  0.00     0.010 A 
ATOM     40  C   UNL A   1      37.043  32.983  28.927  1.00  0.00     0.010 A 
ATOM     41  C   UNL A   1      36.791  31.879  29.763  1.00  0.00    -0.014 A 
BRANCH  41  42
ATOM     42  C   UNL A   1      37.919  31.166  30.413  1.00  0.00     0.031 A 
ATOM     43  C   UNL A   1      38.270  31.542  31.828  1.00  0.00     0.074 A 
ATOM     44  C   UNL A   1      38.594  30.187  29.784  1.00  0.00     0.049 A 
ATOM     45  N   UNL A   1      39.242  31.114  32.589  1.00  0.00    -0.248 NA
ATOM     46  C   UNL A   1      37.404  32.547  32.466  1.00  0.00     0.031 C 
ATOM     47  C   UNL A   1      38.308  29.693  28.439  1.00  0.00     0.029 A 
ATOM     48  N   UNL A   1      39.668  29.438  30.197  1.00  0.00    -0.354 N 
ATOM     49  C   UNL A   1      39.109  31.799  33.793  1.00  0.00     0.074 A 
ATOM     50  C   UNL A   1      37.987  32.700  33.643  1.00  0.00     0.031 C 
ATOM     51  C   UNL A   1      39.192  28.728  28.134  1.00  0.00     0.029 A 
ATOM     52  C   UNL A   1      40.134  28.566  29.241  1.00  0.00     0.049 A 
ATOM     53  H   UNL A   1      40.066  29.516  31.094  1.00  0.00     0.167 HD
ATOM     54  C   UNL A   1      39.851  31.681  34.921  1.00  0.00     0.034 A 
ATOM     55  C   UNL A   1      41.215  27.757  29.250  1.00  0.00     0.034 A 
ATOM     56  C   UNL A   1      40.976  30.789  35.048  1.00  0.00     0.049 A 
ATOM     57  C   UNL A   1      42.092  27.720  30.482  1.00  0.00     0.074 A 
ATOM     58  C   UNL A   1      41.792  30.583  36.145  1.00  0.00     0.029 A 
ATOM     59  N   UNL A   1      41.454  29.962  34.039  1.00  0.00    -0.354 N 
ATOM     60  N   UNL A   1      41.958  28.372  31.616  1.00  0.00    -0.248 NA
ATOM     61  C   UNL A   1      43.264  26.834  30.437  1.00  0.00     0.031 C 
ATOM     62  C   UNL A   1      42.812  29.702  35.774  1.00  0.00     0.029 A 
ATOM     63  C   UNL A   1      42.577  29.277  34.476  1.00  0.00     0.049 A 
ATOM     64  H   UNL A   1      41.053  29.875  33.143  1.00  0.00     0.167 HD
ATOM     65  C   UNL A   1      43.007  27.942  32.428  1.00  0.00     0.074 A 
ATOM     66  C   UNL A   1      43.753  26.968  31.660  1.00  0.00     0.031 C 
ATOM     67  C   UNL A   1      43.319  28.311  33.698  1.00  0.00     0.034 A 
BRANCH  54  68
ATOM     68  C   UNL A   1      39.500  32.583  36.080  1.00  0.00     0.023 A 
ATOM     69  C   UNL A   1      40.050  33.870  36.213  1.00  0.00     0.031 A 
ATOM     70  C   UNL A   1      38.626  32.135  37.086  1.00  0.00     0.131 A 
ATOM     71  C   UNL A   1      39.776  34.634  37.357  1.00  0.00     0.055 A 
ATOM     72  C   UNL A   1      38.289  32.934  38.179  1.00  0.00     0.041 A 
ATOM     73  F   UNL A   1      38.093  30.905  37.030  1.00  0.00    -0.206 F 
ATOM     74  C   UNL A   1      38.877  34.187  38.327  1.00  0.00     0.022 A 
BRANCH  71  75
ATOM     75  S   UNL A   1      40.730  36.152  37.634  1.00  0.00     0.124 S 
ATOM     76  O   UNL A   1      39.702  37.057  38.145  1.00  0.00    -0.237 OA
ATOM     77  O   UNL A   1      41.737  35.721  38.596  1.00  0.00    -0.237 OA
ATOM     78  O   UNL A   1      41.237  36.486  36.304  1.00  0.00    -0.744 OA
ENDBRANCH  71  75
ENDBRANCH  54  68
BRANCH  55  79
ATOM     79  C   UNL A   1      41.568  26.946  28.047  1.00  0.00     0.023 A 
ATOM     80  C   UNL A   1      41.288  25.572  27.987  1.00  0.00     0.031 A 
ATOM     81  C   UNL A   1      42.259  27.522  26.965  1.00  0.00     0.131 A 
ATOM     82  C   UNL A   1      41.741  24.811  26.897  1.00  0.00     0.055 A 
ATOM     83  C   UNL A   1      42.654  26.774  25.855  1.00  0.00     0.041 A 
ATOM     84  F   UNL A   1      42.562  28.831  26.972  1.00  0.00    -0.206 F 
ATOM     85  C   UNL A   1      42.408  25.405  25.823  1.00  0.00     0.022 A 
BRANCH  82  86
ATOM     86  S   UNL A   1      41.540  23.008  26.953  1.00  0.00     0.124 S 
ATOM     87  O   UNL A   1      42.073  22.611  25.655  1.00  0.00    -0.237 OA
ATOM     88  O   UNL A   1      42.346  22.650  28.116  1.00  0.00    -0.237 OA
ATOM     89  O   UNL A   1      40.099  22.832  27.117  1.00  0.00    -0.744 OA
ENDBRANCH  82  86
ENDBRANCH  55  79
BRANCH  67  90
ATOM     90  C   UNL A   1      44.489  27.616  34.356  1.00  0.00     0.023 A 
ATOM     91  C   UNL A   1      44.340  26.411  35.064  1.00  0.00     0.031 A 
ATOM     92  C   UNL A   1      45.778  28.176  34.274  1.00  0.00     0.131 A 
ATOM     93  C   UNL A   1      45.446  25.837  35.711  1.00  0.00     0.055 A 
ATOM     94  C   UNL A   1      46.887  27.563  34.858  1.00  0.00     0.041 A 
ATOM     95  F   UNL A   1      45.982  29.329  33.615  1.00  0.00    -0.206 F 
ATOM     96  C   UNL A   1      46.721  26.395  35.595  1.00  0.00     0.022 A 
BRANCH  93  97
ATOM     97  S   UNL A   1      45.177  24.410  36.797  1.00  0.00     0.124 S 
ATOM     98  O   UNL A   1      44.608  25.036  37.985  1.00  0.00    -0.237 OA
ATOM     99  O   UNL A   1      44.264  23.587  36.010  1.00  0.00    -0.237 OA
ATOM    100  O   UNL A   1      46.518  23.853  36.970  1.00  0.00    -0.744 OA
ENDBRANCH  93  97
ENDBRANCH  67  90
ENDBRANCH  41  42
ENDBRANCH  34  36
ENDBRANCH  33  34
ENDBRANCH  32  33
ENDBRANCH  31  32
ENDBRANCH  30  31
ENDBRANCH  29  30
ENDBRANCH   1  29
TORSDOF 25
ENDMDL
