MODEL 1
REMARK VINA RESULT:     -10.2      0.000      0.000
REMARK SMILES Cc1c(NC(=O)[C@@H]2CC=CC[C@@H]2C(=O)OCCOCCOCCOCCOC(=O)c2ccc(-c3c4nc(c(-c5cc(S(=O)(=O)[O-])ccc5F)c5ccc([nH]5)c(-c5cc(S(=O)(=O)[O-])ccc5F)c5nc(c(-c6cc(S(=O)(=O)[O-])ccc6F)c6ccc3[nH]6)C=C5)C=C4)cc2)cccc1C(=O)N1CCOCC1
REMARK SMILES IDX 21 1 20 2 19 3 18 4 17 5 16 6 15 7 13 8 14 9 12 10 7 11 8 12
REMARK SMILES IDX 9 13 11 14 10 15 5 16 4 17 6 19 3 20 1 21 2 22 96 23 93 24
REMARK SMILES IDX 95 25 94 26 97 27 98 28 99 29 100 30 104 31 101 32 103 33
REMARK SMILES IDX 102 34 22 35 23 36 24 37 25 38 26 39 27 40 28 41 29 42 30 43
REMARK SMILES IDX 31 44 92 45 32 46 91 47 33 48 34 49 35 50 85 51 36 52 90 53
REMARK SMILES IDX 84 54 86 55 37 56 89 57 83 58 82 59 38 61 70 62 50 63 69 64
REMARK SMILES IDX 51 65 54 66 68 67 87 68 52 69 53 70 67 72 88 73 55 74 39 75
REMARK SMILES IDX 40 76 48 77 41 78 47 79 49 80 46 81 42 82 43 83 44 84 45 85
REMARK SMILES IDX 71 86 72 87 80 88 73 89 79 90 81 91 78 92 74 93 75 94 76 95
REMARK SMILES IDX 77 96 56 97 57 98 65 99 58 100 64 101 66 102 63 103 59 104
REMARK SMILES IDX 60 105 61 106 62 107
REMARK H PARENT 4 18 86 60 54 71
REMARK Flexibility Score: inf
ROOT
ATOM      1  O   UNL A   1      35.963  23.799  24.584  1.00  0.00    -0.377 OA
ENDROOT
BRANCH   1   2
ATOM      2  C   UNL A   1      35.025  22.917  25.244  1.00  0.00     0.188 C 
BRANCH   2   3
ATOM      3  C   UNL A   1      34.804  21.289  24.827  1.00  0.00     0.188 C 
BRANCH   3   4
ATOM      4  O   UNL A   1      35.880  19.872  25.068  1.00  0.00    -0.376 OA
BRANCH   4   5
ATOM      5  C   UNL A   1      37.615  19.541  24.747  1.00  0.00     0.202 C 
BRANCH   5   6
ATOM      6  C   UNL A   1      39.199  20.293  25.536  1.00  0.00     0.261 C 
BRANCH   6   7
ATOM      7  O   UNL A   1      40.629  19.445  26.289  1.00  0.00    -0.463 OA
BRANCH   7   8
ATOM      8  C   UNL A   1      41.954  18.893  26.093  1.00  0.00     0.310 C 
ATOM      9  O   UNL A   1      42.206  17.741  25.692  1.00  0.00    -0.252 OA
BRANCH   8  10
ATOM     10  C   UNL A   1      43.407  19.705  26.089  1.00  0.00     0.116 C 
ATOM     11  C   UNL A   1      44.032  20.984  25.400  1.00  0.00     0.097 C 
ATOM     12  C   UNL A   1      44.722  20.743  24.024  1.00  0.00     0.041 C 
ATOM     13  C   UNL A   1      45.651  19.575  24.051  1.00  0.00    -0.030 C 
ATOM     14  C   UNL A   1      44.582  18.622  26.120  1.00  0.00     0.043 C 
ATOM     15  C   UNL A   1      45.603  18.644  25.007  1.00  0.00    -0.030 C 
BRANCH  11  16
ATOM     16  C   UNL A   1      43.159  22.199  25.623  1.00  0.00     0.228 C 
ATOM     17  N   UNL A   1      43.515  23.326  26.281  1.00  0.00    -0.326 N 
ATOM     18  H   UNL A   1      42.842  24.034  26.156  1.00  0.00     0.169 HD
ATOM     19  O   UNL A   1      41.988  22.199  25.225  1.00  0.00    -0.274 OA
BRANCH  17  20
ATOM     20  C   UNL A   1      44.570  23.776  27.092  1.00  0.00     0.044 A 
ATOM     21  C   UNL A   1      45.837  24.119  24.946  1.00  0.00     0.047 C 
ATOM     22  C   UNL A   1      45.706  24.329  26.434  1.00  0.00    -0.015 A 
ATOM     23  C   UNL A   1      46.721  24.949  27.197  1.00  0.00     0.045 A 
ATOM     24  C   UNL A   1      44.526  23.760  28.485  1.00  0.00     0.026 A 
ATOM     25  C   UNL A   1      46.687  24.813  28.596  1.00  0.00     0.014 A 
ATOM     26  C   UNL A   1      45.615  24.196  29.234  1.00  0.00     0.003 A 
BRANCH  23  27
ATOM     27  C   UNL A   1      47.946  25.621  26.654  1.00  0.00     0.254 C 
ATOM     28  O   UNL A   1      49.039  25.225  27.068  1.00  0.00    -0.269 OA
ATOM     29  N   UNL A   1      47.885  26.653  25.721  1.00  0.00    -0.334 N 
ATOM     30  C   UNL A   1      46.821  27.652  25.545  1.00  0.00     0.148 C 
ATOM     31  C   UNL A   1      49.099  26.952  24.962  1.00  0.00     0.148 C 
ATOM     32  C   UNL A   1      46.592  27.976  24.053  1.00  0.00     0.181 C 
ATOM     33  C   UNL A   1      48.743  27.173  23.492  1.00  0.00     0.181 C 
ATOM     34  O   UNL A   1      47.825  28.272  23.372  1.00  0.00    -0.378 OA
ENDBRANCH  23  27
ENDBRANCH  17  20
ENDBRANCH  11  16
ENDBRANCH   8  10
ENDBRANCH   7   8
ENDBRANCH   6   7
ENDBRANCH   5   6
ENDBRANCH   4   5
ENDBRANCH   3   4
ENDBRANCH   2   3
ENDBRANCH   1   2
BRANCH   1  35
ATOM     35  C   UNL A   1      37.382  23.672  24.768  1.00  0.00     0.188 C 
BRANCH  35  36
ATOM     36  C   UNL A   1      37.646  23.601  26.248  1.00  0.00     0.188 C 
BRANCH  36  37
ATOM     37  O   UNL A   1      38.776  24.458  26.403  1.00  0.00    -0.376 OA
BRANCH  37  38
ATOM     38  C   UNL A   1      39.814  23.931  27.188  1.00  0.00     0.202 C 
BRANCH  38  39
ATOM     39  C   UNL A   1      40.470  25.089  27.924  1.00  0.00     0.261 C 
BRANCH  39  40
ATOM     40  O   UNL A   1      41.555  25.589  27.102  1.00  0.00    -0.460 OA
BRANCH  40  41
ATOM     41  C   UNL A   1      41.493  26.935  26.837  1.00  0.00     0.338 C 
ATOM     42  O   UNL A   1      40.653  27.468  26.157  1.00  0.00    -0.246 OA
BRANCH  41  43
ATOM     43  C   UNL A   1      42.732  27.597  27.354  1.00  0.00     0.060 A 
ATOM     44  C   UNL A   1      43.538  26.978  28.289  1.00  0.00     0.016 A 
ATOM     45  C   UNL A   1      43.049  28.898  27.062  1.00  0.00     0.016 A 
ATOM     46  C   UNL A   1      44.303  27.770  29.186  1.00  0.00     0.010 A 
ATOM     47  C   UNL A   1      43.888  29.616  27.944  1.00  0.00     0.010 A 
ATOM     48  C   UNL A   1      44.200  29.169  29.274  1.00  0.00    -0.014 A 
BRANCH  48  49
ATOM     49  C   UNL A   1      44.157  30.065  30.886  1.00  0.00     0.031 A 
ATOM     50  C   UNL A   1      42.597  30.569  32.021  1.00  0.00     0.074 A 
ATOM     51  C   UNL A   1      45.452  30.503  31.078  1.00  0.00     0.049 A 
ATOM     52  N   UNL A   1      42.082  31.830  32.083  1.00  0.00    -0.248 NA
ATOM     53  C   UNL A   1      41.258  29.837  32.505  1.00  0.00     0.031 C 
ATOM     54  C   UNL A   1      46.011  31.071  32.246  1.00  0.00     0.029 A 
ATOM     55  N   UNL A   1      46.519  30.722  30.201  1.00  0.00    -0.354 N 
ATOM     56  C   UNL A   1      40.839  32.065  32.596  1.00  0.00     0.074 A 
ATOM     57  C   UNL A   1      40.291  30.763  32.636  1.00  0.00     0.031 C 
ATOM     58  C   UNL A   1      46.918  32.009  31.968  1.00  0.00     0.029 A 
ATOM     59  C   UNL A   1      47.148  31.900  30.578  1.00  0.00     0.049 A 
ATOM     60  H   UNL A   1      46.778  30.142  29.448  1.00  0.00     0.167 HD
ATOM     61  C   UNL A   1      40.393  33.302  33.005  1.00  0.00     0.034 A 
ATOM     62  C   UNL A   1      47.703  32.851  29.818  1.00  0.00     0.034 A 
ATOM     63  C   UNL A   1      41.475  34.313  33.129  1.00  0.00     0.049 A 
ATOM     64  C   UNL A   1      47.026  34.175  30.171  1.00  0.00     0.074 A 
ATOM     65  C   UNL A   1      42.213  34.709  34.238  1.00  0.00     0.029 A 
ATOM     66  N   UNL A   1      42.149  34.883  32.040  1.00  0.00    -0.354 N 
ATOM     67  N   UNL A   1      45.825  34.281  30.729  1.00  0.00    -0.248 NA
ATOM     68  C   UNL A   1      47.699  35.461  30.087  1.00  0.00     0.031 C 
ATOM     69  C   UNL A   1      43.442  35.280  33.785  1.00  0.00     0.029 A 
ATOM     70  C   UNL A   1      43.429  35.364  32.395  1.00  0.00     0.049 A 
ATOM     71  H   UNL A   1      41.773  34.943  31.132  1.00  0.00     0.167 HD
ATOM     72  C   UNL A   1      45.531  35.602  31.022  1.00  0.00     0.074 A 
ATOM     73  C   UNL A   1      46.789  36.267  30.665  1.00  0.00     0.031 C 
ATOM     74  C   UNL A   1      44.331  36.128  31.492  1.00  0.00     0.034 A 
BRANCH  61  75
ATOM     75  C   UNL A   1      39.028  33.382  33.708  1.00  0.00     0.023 A 
ATOM     76  C   UNL A   1      37.859  33.821  33.050  1.00  0.00     0.031 A 
ATOM     77  C   UNL A   1      38.865  33.098  35.086  1.00  0.00     0.131 A 
ATOM     78  C   UNL A   1      36.674  34.106  33.774  1.00  0.00     0.055 A 
ATOM     79  C   UNL A   1      37.722  33.464  35.817  1.00  0.00     0.041 A 
ATOM     80  F   UNL A   1      39.820  32.449  35.773  1.00  0.00    -0.206 F 
ATOM     81  C   UNL A   1      36.626  33.997  35.162  1.00  0.00     0.022 A 
BRANCH  78  82
ATOM     82  S   UNL A   1      35.157  34.592  32.890  1.00  0.00     0.124 S 
ATOM     83  O   UNL A   1      35.498  34.323  31.499  1.00  0.00    -0.237 OA
ATOM     84  O   UNL A   1      34.156  33.721  33.494  1.00  0.00    -0.237 OA
ATOM     85  O   UNL A   1      35.007  36.012  33.220  1.00  0.00    -0.744 OA
ENDBRANCH  78  82
ENDBRANCH  61  75
BRANCH  62  86
ATOM     86  C   UNL A   1      48.533  32.190  28.755  1.00  0.00     0.023 A 
ATOM     87  C   UNL A   1      48.372  32.810  27.470  1.00  0.00     0.031 A 
ATOM     88  C   UNL A   1      49.802  31.659  29.032  1.00  0.00     0.131 A 
ATOM     89  C   UNL A   1      49.495  33.167  26.697  1.00  0.00     0.055 A 
ATOM     90  C   UNL A   1      50.898  31.892  28.172  1.00  0.00     0.041 A 
ATOM     91  F   UNL A   1      50.052  31.087  30.217  1.00  0.00    -0.206 F 
ATOM     92  C   UNL A   1      50.763  32.707  27.042  1.00  0.00     0.022 A 
BRANCH  89  93
ATOM     93  S   UNL A   1      49.375  34.612  25.562  1.00  0.00     0.124 S 
ATOM     94  O   UNL A   1      50.450  34.353  24.613  1.00  0.00    -0.237 OA
ATOM     95  O   UNL A   1      48.015  34.505  25.042  1.00  0.00    -0.237 OA
ATOM     96  O   UNL A   1      49.573  35.745  26.465  1.00  0.00    -0.744 OA
ENDBRANCH  89  93
ENDBRANCH  62  86
BRANCH  74  97
ATOM     97  C   UNL A   1      43.938  37.597  31.264  1.00  0.00     0.023 A 
ATOM     98  C   UNL A   1      43.934  38.559  32.281  1.00  0.00     0.031 A 
ATOM     99  C   UNL A   1      43.663  38.113  29.969  1.00  0.00     0.131 A 
ATOM    100  C   UNL A   1      43.581  39.897  32.043  1.00  0.00     0.055 A 
ATOM    101  C   UNL A   1      43.405  39.464  29.715  1.00  0.00     0.041 A 
ATOM    102  F   UNL A   1      43.667  37.349  28.869  1.00  0.00    -0.206 F 
ATOM    103  C   UNL A   1      43.344  40.368  30.759  1.00  0.00     0.022 A 
BRANCH 100 104
ATOM    104  S   UNL A   1      43.396  40.982  33.477  1.00  0.00     0.124 S 
ATOM    105  O   UNL A   1      43.625  40.055  34.583  1.00  0.00    -0.237 OA
ATOM    106  O   UNL A   1      44.447  41.971  33.260  1.00  0.00    -0.237 OA
ATOM    107  O   UNL A   1      42.031  41.485  33.355  1.00  0.00    -0.744 OA
ENDBRANCH 100 104
ENDBRANCH  74  97
ENDBRANCH  48  49
ENDBRANCH  41  43
ENDBRANCH  40  41
ENDBRANCH  39  40
ENDBRANCH  38  39
ENDBRANCH  37  38
ENDBRANCH  36  37
ENDBRANCH  35  36
ENDBRANCH   1  35
TORSDOF 26
ENDMDL
MODEL 2
REMARK VINA RESULT:      -9.8      4.681     10.982
REMARK SMILES Cc1c(NC(=O)[C@@H]2CC=CC[C@@H]2C(=O)OCCOCCOCCOCCOC(=O)c2ccc(-c3c4nc(c(-c5cc(S(=O)(=O)[O-])ccc5F)c5ccc([nH]5)c(-c5cc(S(=O)(=O)[O-])ccc5F)c5nc(c(-c6cc(S(=O)(=O)[O-])ccc6F)c6ccc3[nH]6)C=C5)C=C4)cc2)cccc1C(=O)N1CCOCC1
REMARK SMILES IDX 21 1 20 2 19 3 18 4 17 5 16 6 15 7 13 8 14 9 12 10 7 11 8 12
REMARK SMILES IDX 9 13 11 14 10 15 5 16 4 17 6 19 3 20 1 21 2 22 96 23 93 24
REMARK SMILES IDX 95 25 94 26 97 27 98 28 99 29 100 30 104 31 101 32 103 33
REMARK SMILES IDX 102 34 22 35 23 36 24 37 25 38 26 39 27 40 28 41 29 42 30 43
REMARK SMILES IDX 31 44 92 45 32 46 91 47 33 48 34 49 35 50 85 51 36 52 90 53
REMARK SMILES IDX 84 54 86 55 37 56 89 57 83 58 82 59 38 61 70 62 50 63 69 64
REMARK SMILES IDX 51 65 54 66 68 67 87 68 52 69 53 70 67 72 88 73 55 74 39 75
REMARK SMILES IDX 40 76 48 77 41 78 47 79 49 80 46 81 42 82 43 83 44 84 45 85
REMARK SMILES IDX 71 86 72 87 80 88 73 89 79 90 81 91 78 92 74 93 75 94 76 95
REMARK SMILES IDX 77 96 56 97 57 98 65 99 58 100 64 101 66 102 63 103 59 104
REMARK SMILES IDX 60 105 61 106 62 107
REMARK H PARENT 4 18 86 60 54 71
REMARK Flexibility Score: inf
ROOT
ATOM      1  O   UNL A   1      44.513  24.341  26.861  1.00  0.00    -0.377 OA
ENDROOT
BRANCH   1   2
ATOM      2  C   UNL A   1      44.426  23.634  28.121  1.00  0.00     0.188 C 
BRANCH   2   3
ATOM      3  C   UNL A   1      43.027  22.852  28.672  1.00  0.00     0.188 C 
BRANCH   3   4
ATOM      4  O   UNL A   1      41.295  23.241  28.397  1.00  0.00    -0.376 OA
BRANCH   4   5
ATOM      5  C   UNL A   1      40.296  23.577  26.944  1.00  0.00     0.202 C 
BRANCH   5   6
ATOM      6  C   UNL A   1      38.443  24.066  26.785  1.00  0.00     0.261 C 
BRANCH   6   7
ATOM      7  O   UNL A   1      37.057  23.121  26.066  1.00  0.00    -0.463 OA
BRANCH   7   8
ATOM      8  C   UNL A   1      35.639  22.826  26.108  1.00  0.00     0.310 C 
ATOM      9  O   UNL A   1      34.840  23.232  26.972  1.00  0.00    -0.252 OA
BRANCH   8  10
ATOM     10  C   UNL A   1      34.707  22.129  24.917  1.00  0.00     0.116 C 
ATOM     11  C   UNL A   1      33.584  22.577  23.897  1.00  0.00     0.097 C 
ATOM     12  C   UNL A   1      32.119  22.481  24.417  1.00  0.00     0.041 C 
ATOM     13  C   UNL A   1      31.833  21.171  25.071  1.00  0.00    -0.030 C 
ATOM     14  C   UNL A   1      34.275  20.673  25.412  1.00  0.00     0.043 C 
ATOM     15  C   UNL A   1      32.802  20.352  25.489  1.00  0.00    -0.030 C 
BRANCH  11  16
ATOM     16  C   UNL A   1      34.037  23.768  23.083  1.00  0.00     0.228 C 
ATOM     17  N   UNL A   1      33.675  25.056  23.284  1.00  0.00    -0.326 N 
ATOM     18  H   UNL A   1      34.222  25.665  22.736  1.00  0.00     0.169 HD
ATOM     19  O   UNL A   1      34.774  23.602  22.103  1.00  0.00    -0.274 OA
BRANCH  17  20
ATOM     20  C   UNL A   1      32.743  25.773  24.053  1.00  0.00     0.044 A 
ATOM     21  C   UNL A   1      31.470  26.074  21.904  1.00  0.00     0.047 C 
ATOM     22  C   UNL A   1      31.537  26.170  23.408  1.00  0.00    -0.015 A 
ATOM     23  C   UNL A   1      30.494  26.743  24.170  1.00  0.00     0.045 A 
ATOM     24  C   UNL A   1      32.919  26.051  25.407  1.00  0.00     0.026 A 
ATOM     25  C   UNL A   1      30.757  27.104  25.503  1.00  0.00     0.014 A 
ATOM     26  C   UNL A   1      31.970  26.789  26.108  1.00  0.00     0.003 A 
BRANCH  23  27
ATOM     27  C   UNL A   1      29.151  27.162  23.653  1.00  0.00     0.254 C 
ATOM     28  O   UNL A   1      28.218  26.364  23.787  1.00  0.00    -0.269 OA
ATOM     29  N   UNL A   1      28.934  28.394  23.041  1.00  0.00    -0.334 N 
ATOM     30  C   UNL A   1      29.885  29.196  22.258  1.00  0.00     0.148 C 
ATOM     31  C   UNL A   1      27.554  28.870  22.949  1.00  0.00     0.148 C 
ATOM     32  C   UNL A   1      29.699  30.705  22.518  1.00  0.00     0.181 C 
ATOM     33  C   UNL A   1      27.500  30.355  23.307  1.00  0.00     0.181 C 
ATOM     34  O   UNL A   1      28.322  31.106  22.399  1.00  0.00    -0.378 OA
ENDBRANCH  23  27
ENDBRANCH  17  20
ENDBRANCH  11  16
ENDBRANCH   8  10
ENDBRANCH   7   8
ENDBRANCH   6   7
ENDBRANCH   5   6
ENDBRANCH   4   5
ENDBRANCH   3   4
ENDBRANCH   2   3
ENDBRANCH   1   2
BRANCH   1  35
ATOM     35  C   UNL A   1      45.402  25.453  26.675  1.00  0.00     0.188 C 
BRANCH  35  36
ATOM     36  C   UNL A   1      46.802  24.968  26.946  1.00  0.00     0.188 C 
BRANCH  36  37
ATOM     37  O   UNL A   1      47.061  25.482  28.252  1.00  0.00    -0.376 OA
BRANCH  37  38
ATOM     38  C   UNL A   1      46.889  26.869  28.384  1.00  0.00     0.202 C 
BRANCH  38  39
ATOM     39  C   UNL A   1      46.503  27.151  29.828  1.00  0.00     0.261 C 
BRANCH  39  40
ATOM     40  O   UNL A   1      45.089  26.867  29.982  1.00  0.00    -0.460 OA
BRANCH  40  41
ATOM     41  C   UNL A   1      44.524  27.396  31.115  1.00  0.00     0.338 C 
ATOM     42  O   UNL A   1      44.849  27.121  32.243  1.00  0.00    -0.246 OA
BRANCH  41  43
ATOM     43  C   UNL A   1      43.323  28.204  30.737  1.00  0.00     0.060 A 
ATOM     44  C   UNL A   1      43.320  28.999  29.608  1.00  0.00     0.016 A 
ATOM     45  C   UNL A   1      42.231  28.330  31.557  1.00  0.00     0.016 A 
ATOM     46  C   UNL A   1      42.500  30.158  29.571  1.00  0.00     0.010 A 
ATOM     47  C   UNL A   1      41.395  29.461  31.419  1.00  0.00     0.010 A 
ATOM     48  C   UNL A   1      41.768  30.632  30.673  1.00  0.00    -0.014 A 
BRANCH  48  49
ATOM     49  C   UNL A   1      41.686  32.419  31.121  1.00  0.00     0.031 A 
ATOM     50  C   UNL A   1      43.093  33.605  31.891  1.00  0.00     0.074 A 
ATOM     51  C   UNL A   1      40.353  32.753  30.988  1.00  0.00     0.049 A 
ATOM     52  N   UNL A   1      43.132  33.979  33.201  1.00  0.00    -0.248 NA
ATOM     53  C   UNL A   1      44.652  33.847  31.618  1.00  0.00     0.031 C 
ATOM     54  C   UNL A   1      39.774  34.042  31.020  1.00  0.00     0.029 A 
ATOM     55  N   UNL A   1      39.180  31.991  30.992  1.00  0.00    -0.354 N 
ATOM     56  C   UNL A   1      44.265  34.504  33.755  1.00  0.00     0.074 A 
ATOM     57  C   UNL A   1      45.238  34.189  32.779  1.00  0.00     0.031 C 
ATOM     58  C   UNL A   1      38.568  34.042  31.590  1.00  0.00     0.029 A 
ATOM     59  C   UNL A   1      38.227  32.678  31.729  1.00  0.00     0.049 A 
ATOM     60  H   UNL A   1      39.054  31.121  30.550  1.00  0.00     0.167 HD
ATOM     61  C   UNL A   1      44.292  35.208  34.938  1.00  0.00     0.034 A 
ATOM     62  C   UNL A   1      37.284  32.206  32.555  1.00  0.00     0.034 A 
ATOM     63  C   UNL A   1      42.946  35.620  35.415  1.00  0.00     0.049 A 
ATOM     64  C   UNL A   1      37.488  32.874  33.914  1.00  0.00     0.074 A 
ATOM     65  C   UNL A   1      42.255  36.812  35.239  1.00  0.00     0.029 A 
ATOM     66  N   UNL A   1      41.988  34.735  35.930  1.00  0.00    -0.354 N 
ATOM     67  N   UNL A   1      38.632  33.409  34.327  1.00  0.00    -0.248 NA
ATOM     68  C   UNL A   1      36.400  33.145  34.840  1.00  0.00     0.031 C 
ATOM     69  C   UNL A   1      40.859  36.556  35.401  1.00  0.00     0.029 A 
ATOM     70  C   UNL A   1      40.674  35.236  35.803  1.00  0.00     0.049 A 
ATOM     71  H   UNL A   1      42.207  33.864  36.334  1.00  0.00     0.167 HD
ATOM     72  C   UNL A   1      38.474  34.027  35.555  1.00  0.00     0.074 A 
ATOM     73  C   UNL A   1      37.029  33.889  35.768  1.00  0.00     0.031 C 
ATOM     74  C   UNL A   1      39.458  34.587  36.365  1.00  0.00     0.034 A 
BRANCH  61  75
ATOM     75  C   UNL A   1      45.615  35.872  35.353  1.00  0.00     0.023 A 
ATOM     76  C   UNL A   1      45.928  37.210  35.028  1.00  0.00     0.031 A 
ATOM     77  C   UNL A   1      46.645  35.165  36.018  1.00  0.00     0.131 A 
ATOM     78  C   UNL A   1      47.236  37.723  35.217  1.00  0.00     0.055 A 
ATOM     79  C   UNL A   1      47.963  35.641  36.123  1.00  0.00     0.041 A 
ATOM     80  F   UNL A   1      46.402  33.976  36.596  1.00  0.00    -0.206 F 
ATOM     81  C   UNL A   1      48.270  36.921  35.695  1.00  0.00     0.022 A 
BRANCH  78  82
ATOM     82  S   UNL A   1      47.590  39.475  34.866  1.00  0.00     0.124 S 
ATOM     83  O   UNL A   1      46.589  39.808  33.860  1.00  0.00    -0.237 OA
ATOM     84  O   UNL A   1      47.424  40.091  36.177  1.00  0.00    -0.237 OA
ATOM     85  O   UNL A   1      48.970  39.455  34.373  1.00  0.00    -0.744 OA
ENDBRANCH  78  82
ENDBRANCH  61  75
BRANCH  62  86
ATOM     86  C   UNL A   1      36.619  31.031  31.899  1.00  0.00     0.023 A 
ATOM     87  C   UNL A   1      35.683  31.426  30.885  1.00  0.00     0.031 A 
ATOM     88  C   UNL A   1      37.302  29.826  31.676  1.00  0.00     0.131 A 
ATOM     89  C   UNL A   1      35.712  30.831  29.607  1.00  0.00     0.055 A 
ATOM     90  C   UNL A   1      37.209  29.148  30.440  1.00  0.00     0.041 A 
ATOM     91  F   UNL A   1      38.215  29.392  32.555  1.00  0.00    -0.206 F 
ATOM     92  C   UNL A   1      36.472  29.688  29.380  1.00  0.00     0.022 A 
BRANCH  89  93
ATOM     93  S   UNL A   1      35.172  31.819  28.150  1.00  0.00     0.124 S 
ATOM     94  O   UNL A   1      36.403  32.490  27.755  1.00  0.00    -0.237 OA
ATOM     95  O   UNL A   1      34.669  30.799  27.234  1.00  0.00    -0.237 OA
ATOM     96  O   UNL A   1      34.126  32.673  28.712  1.00  0.00    -0.744 OA
ENDBRANCH  89  93
ENDBRANCH  62  86
BRANCH  74  97
ATOM     97  C   UNL A   1      39.278  34.739  37.884  1.00  0.00     0.023 A 
ATOM     98  C   UNL A   1      39.438  35.954  38.560  1.00  0.00     0.031 A 
ATOM     99  C   UNL A   1      38.815  33.672  38.700  1.00  0.00     0.131 A 
ATOM    100  C   UNL A   1      39.256  36.067  39.948  1.00  0.00     0.055 A 
ATOM    101  C   UNL A   1      38.541  33.806  40.066  1.00  0.00     0.041 A 
ATOM    102  F   UNL A   1      38.563  32.448  38.218  1.00  0.00    -0.206 F 
ATOM    103  C   UNL A   1      38.778  35.008  40.706  1.00  0.00     0.022 A 
BRANCH 100 104
ATOM    104  S   UNL A   1      39.714  37.633  40.727  1.00  0.00     0.124 S 
ATOM    105  O   UNL A   1      39.943  37.222  42.110  1.00  0.00    -0.237 OA
ATOM    106  O   UNL A   1      40.907  38.018  39.980  1.00  0.00    -0.237 OA
ATOM    107  O   UNL A   1      38.544  38.480  40.513  1.00  0.00    -0.744 OA
ENDBRANCH 100 104
ENDBRANCH  74  97
ENDBRANCH  48  49
ENDBRANCH  41  43
ENDBRANCH  40  41
ENDBRANCH  39  40
ENDBRANCH  38  39
ENDBRANCH  37  38
ENDBRANCH  36  37
ENDBRANCH  35  36
ENDBRANCH   1  35
TORSDOF 26
ENDMDL
MODEL 3
REMARK VINA RESULT:      -8.9      3.708      8.083
REMARK SMILES Cc1c(NC(=O)[C@@H]2CC=CC[C@@H]2C(=O)OCCOCCOCCOCCOC(=O)c2ccc(-c3c4nc(c(-c5cc(S(=O)(=O)[O-])ccc5F)c5ccc([nH]5)c(-c5cc(S(=O)(=O)[O-])ccc5F)c5nc(c(-c6cc(S(=O)(=O)[O-])ccc6F)c6ccc3[nH]6)C=C5)C=C4)cc2)cccc1C(=O)N1CCOCC1
REMARK SMILES IDX 21 1 20 2 19 3 18 4 17 5 16 6 15 7 13 8 14 9 12 10 7 11 8 12
REMARK SMILES IDX 9 13 11 14 10 15 5 16 4 17 6 19 3 20 1 21 2 22 96 23 93 24
REMARK SMILES IDX 95 25 94 26 97 27 98 28 99 29 100 30 104 31 101 32 103 33
REMARK SMILES IDX 102 34 22 35 23 36 24 37 25 38 26 39 27 40 28 41 29 42 30 43
REMARK SMILES IDX 31 44 92 45 32 46 91 47 33 48 34 49 35 50 85 51 36 52 90 53
REMARK SMILES IDX 84 54 86 55 37 56 89 57 83 58 82 59 38 61 70 62 50 63 69 64
REMARK SMILES IDX 51 65 54 66 68 67 87 68 52 69 53 70 67 72 88 73 55 74 39 75
REMARK SMILES IDX 40 76 48 77 41 78 47 79 49 80 46 81 42 82 43 83 44 84 45 85
REMARK SMILES IDX 71 86 72 87 80 88 73 89 79 90 81 91 78 92 74 93 75 94 76 95
REMARK SMILES IDX 77 96 56 97 57 98 65 99 58 100 64 101 66 102 63 103 59 104
REMARK SMILES IDX 60 105 61 106 62 107
REMARK H PARENT 4 18 86 60 54 71
REMARK Flexibility Score: inf
ROOT
ATOM      1  O   UNL A   1      34.404  23.467  26.046  1.00  0.00    -0.377 OA
ENDROOT
BRANCH   1   2
ATOM      2  C   UNL A   1      34.415  22.153  26.653  1.00  0.00     0.188 C 
BRANCH   2   3
ATOM      3  C   UNL A   1      34.180  20.712  25.793  1.00  0.00     0.188 C 
BRANCH   3   4
ATOM      4  O   UNL A   1      35.341  19.725  24.842  1.00  0.00    -0.376 OA
BRANCH   4   5
ATOM      5  C   UNL A   1      37.116  19.466  24.901  1.00  0.00     0.202 C 
BRANCH   5   6
ATOM      6  C   UNL A   1      38.549  20.698  25.255  1.00  0.00     0.261 C 
BRANCH   6   7
ATOM      7  O   UNL A   1      40.142  20.406  26.096  1.00  0.00    -0.463 OA
BRANCH   7   8
ATOM      8  C   UNL A   1      41.475  19.843  26.009  1.00  0.00     0.310 C 
ATOM      9  O   UNL A   1      41.753  18.700  25.600  1.00  0.00    -0.252 OA
BRANCH   8  10
ATOM     10  C   UNL A   1      42.930  20.637  26.166  1.00  0.00     0.116 C 
ATOM     11  C   UNL A   1      43.455  22.129  26.172  1.00  0.00     0.097 C 
ATOM     12  C   UNL A   1      43.843  22.716  24.783  1.00  0.00     0.041 C 
ATOM     13  C   UNL A   1      44.709  21.790  23.996  1.00  0.00    -0.030 C 
ATOM     14  C   UNL A   1      44.040  19.798  25.381  1.00  0.00     0.043 C 
ATOM     15  C   UNL A   1      44.816  20.491  24.286  1.00  0.00    -0.030 C 
BRANCH  11  16
ATOM     16  C   UNL A   1      42.696  22.965  27.178  1.00  0.00     0.228 C 
ATOM     17  N   UNL A   1      42.841  24.295  27.381  1.00  0.00    -0.326 N 
ATOM     18  H   UNL A   1      42.129  24.641  27.968  1.00  0.00     0.169 HD
ATOM     19  O   UNL A   1      41.886  22.427  27.943  1.00  0.00    -0.274 OA
BRANCH  17  20
ATOM     20  C   UNL A   1      43.715  25.324  26.994  1.00  0.00     0.044 A 
ATOM     21  C   UNL A   1      44.456  25.358  29.398  1.00  0.00     0.047 C 
ATOM     22  C   UNL A   1      44.656  25.777  27.963  1.00  0.00    -0.015 A 
ATOM     23  C   UNL A   1      45.668  26.686  27.580  1.00  0.00     0.045 A 
ATOM     24  C   UNL A   1      43.741  25.864  25.709  1.00  0.00     0.026 A 
ATOM     25  C   UNL A   1      45.588  27.285  26.311  1.00  0.00     0.014 A 
ATOM     26  C   UNL A   1      44.615  26.900  25.393  1.00  0.00     0.003 A 
BRANCH  23  27
ATOM     27  C   UNL A   1      46.759  27.214  28.463  1.00  0.00     0.254 C 
ATOM     28  O   UNL A   1      46.480  28.163  29.202  1.00  0.00    -0.269 OA
ATOM     29  N   UNL A   1      48.043  26.677  28.471  1.00  0.00    -0.334 N 
ATOM     30  C   UNL A   1      48.761  26.031  27.363  1.00  0.00     0.148 C 
ATOM     31  C   UNL A   1      48.893  26.972  29.625  1.00  0.00     0.148 C 
ATOM     32  C   UNL A   1      49.618  24.848  27.859  1.00  0.00     0.181 C 
ATOM     33  C   UNL A   1      49.621  25.702  30.062  1.00  0.00     0.181 C 
ATOM     34  O   UNL A   1      50.437  25.211  28.986  1.00  0.00    -0.378 OA
ENDBRANCH  23  27
ENDBRANCH  17  20
ENDBRANCH  11  16
ENDBRANCH   8  10
ENDBRANCH   7   8
ENDBRANCH   6   7
ENDBRANCH   5   6
ENDBRANCH   4   5
ENDBRANCH   3   4
ENDBRANCH   2   3
ENDBRANCH   1   2
BRANCH   1  35
ATOM     35  C   UNL A   1      35.602  24.084  25.551  1.00  0.00     0.188 C 
BRANCH  35  36
ATOM     36  C   UNL A   1      36.771  23.419  26.227  1.00  0.00     0.188 C 
BRANCH  36  37
ATOM     37  O   UNL A   1      37.882  24.163  25.729  1.00  0.00    -0.376 OA
BRANCH  37  38
ATOM     38  C   UNL A   1      39.086  23.961  26.422  1.00  0.00     0.202 C 
BRANCH  38  39
ATOM     39  C   UNL A   1      39.009  24.748  27.721  1.00  0.00     0.261 C 
BRANCH  39  40
ATOM     40  O   UNL A   1      40.255  25.472  27.885  1.00  0.00    -0.460 OA
BRANCH  40  41
ATOM     41  C   UNL A   1      40.246  26.743  27.366  1.00  0.00     0.338 C 
ATOM     42  O   UNL A   1      40.651  27.045  26.272  1.00  0.00    -0.246 OA
BRANCH  41  43
ATOM     43  C   UNL A   1      39.847  27.709  28.436  1.00  0.00     0.060 A 
ATOM     44  C   UNL A   1      39.045  28.799  28.155  1.00  0.00     0.016 A 
ATOM     45  C   UNL A   1      40.373  27.668  29.701  1.00  0.00     0.016 A 
ATOM     46  C   UNL A   1      39.160  29.973  28.945  1.00  0.00     0.010 A 
ATOM     47  C   UNL A   1      40.383  28.847  30.481  1.00  0.00     0.010 A 
ATOM     48  C   UNL A   1      40.140  30.155  29.936  1.00  0.00    -0.014 A 
BRANCH  48  49
ATOM     49  C   UNL A   1      41.071  31.734  30.139  1.00  0.00     0.031 A 
ATOM     50  C   UNL A   1      43.039  32.053  30.207  1.00  0.00     0.074 A 
ATOM     51  C   UNL A   1      40.105  32.676  30.432  1.00  0.00     0.049 A 
ATOM     52  N   UNL A   1      43.727  32.292  31.360  1.00  0.00    -0.248 NA
ATOM     53  C   UNL A   1      44.306  31.527  29.382  1.00  0.00     0.031 C 
ATOM     54  C   UNL A   1      40.251  34.080  30.487  1.00  0.00     0.029 A 
ATOM     55  N   UNL A   1      38.808  32.575  30.943  1.00  0.00    -0.354 N 
ATOM     56  C   UNL A   1      45.086  32.175  31.412  1.00  0.00     0.074 A 
ATOM     57  C   UNL A   1      45.364  31.482  30.213  1.00  0.00     0.031 C 
ATOM     58  C   UNL A   1      39.490  34.632  31.434  1.00  0.00     0.029 A 
ATOM     59  C   UNL A   1      38.631  33.597  31.865  1.00  0.00     0.049 A 
ATOM     60  H   UNL A   1      38.137  31.898  30.693  1.00  0.00     0.167 HD
ATOM     61  C   UNL A   1      45.870  32.716  32.406  1.00  0.00     0.034 A 
ATOM     62  C   UNL A   1      37.955  33.595  33.021  1.00  0.00     0.034 A 
ATOM     63  C   UNL A   1      45.154  33.700  33.260  1.00  0.00     0.049 A 
ATOM     64  C   UNL A   1      38.930  34.009  34.123  1.00  0.00     0.074 A 
ATOM     65  C   UNL A   1      45.089  35.085  33.175  1.00  0.00     0.029 A 
ATOM     66  N   UNL A   1      44.160  33.360  34.188  1.00  0.00    -0.354 N 
ATOM     67  N   UNL A   1      40.252  33.903  34.038  1.00  0.00    -0.248 NA
ATOM     68  C   UNL A   1      38.520  34.722  35.322  1.00  0.00     0.031 C 
ATOM     69  C   UNL A   1      43.905  35.525  33.841  1.00  0.00     0.029 A 
ATOM     70  C   UNL A   1      43.289  34.439  34.457  1.00  0.00     0.049 A 
ATOM     71  H   UNL A   1      44.078  32.472  34.605  1.00  0.00     0.167 HD
ATOM     72  C   UNL A   1      40.864  34.455  35.150  1.00  0.00     0.074 A 
ATOM     73  C   UNL A   1      39.714  35.020  35.866  1.00  0.00     0.031 C 
ATOM     74  C   UNL A   1      42.214  34.428  35.486  1.00  0.00     0.034 A 
BRANCH  61  75
ATOM     75  C   UNL A   1      47.398  32.637  32.245  1.00  0.00     0.023 A 
ATOM     76  C   UNL A   1      48.153  31.535  32.702  1.00  0.00     0.031 A 
ATOM     77  C   UNL A   1      48.161  33.699  31.703  1.00  0.00     0.131 A 
ATOM     78  C   UNL A   1      49.569  31.588  32.752  1.00  0.00     0.055 A 
ATOM     79  C   UNL A   1      49.557  33.789  31.835  1.00  0.00     0.041 A 
ATOM     80  F   UNL A   1      47.570  34.692  31.019  1.00  0.00    -0.206 F 
ATOM     81  C   UNL A   1      50.267  32.738  32.389  1.00  0.00     0.022 A 
BRANCH  78  82
ATOM     82  S   UNL A   1      50.521  30.123  33.268  1.00  0.00     0.124 S 
ATOM     83  O   UNL A   1      49.477  29.191  33.674  1.00  0.00    -0.237 OA
ATOM     84  O   UNL A   1      51.254  29.789  32.051  1.00  0.00    -0.237 OA
ATOM     85  O   UNL A   1      51.356  30.623  34.362  1.00  0.00    -0.744 OA
ENDBRANCH  78  82
ENDBRANCH  61  75
BRANCH  62  86
ATOM     86  C   UNL A   1      36.631  32.922  32.800  1.00  0.00     0.023 A 
ATOM     87  C   UNL A   1      35.729  33.727  32.026  1.00  0.00     0.031 A 
ATOM     88  C   UNL A   1      36.528  31.534  32.625  1.00  0.00     0.131 A 
ATOM     89  C   UNL A   1      35.045  33.181  30.922  1.00  0.00     0.055 A 
ATOM     90  C   UNL A   1      35.718  30.980  31.608  1.00  0.00     0.041 A 
ATOM     91  F   UNL A   1      37.348  30.706  33.285  1.00  0.00    -0.206 F 
ATOM     92  C   UNL A   1      35.032  31.806  30.709  1.00  0.00     0.022 A 
BRANCH  89  93
ATOM     93  S   UNL A   1      34.605  34.281  29.511  1.00  0.00     0.124 S 
ATOM     94  O   UNL A   1      33.711  33.440  28.727  1.00  0.00    -0.237 OA
ATOM     95  O   UNL A   1      33.996  35.431  30.173  1.00  0.00    -0.237 OA
ATOM     96  O   UNL A   1      35.908  34.568  28.912  1.00  0.00    -0.744 OA
ENDBRANCH  89  93
ENDBRANCH  62  86
BRANCH  74  97
ATOM     97  C   UNL A   1      42.697  34.568  36.939  1.00  0.00     0.023 A 
ATOM     98  C   UNL A   1      42.697  33.508  37.855  1.00  0.00     0.031 A 
ATOM     99  C   UNL A   1      43.294  35.762  37.426  1.00  0.00     0.131 A 
ATOM    100  C   UNL A   1      43.155  33.661  39.174  1.00  0.00     0.055 A 
ATOM    101  C   UNL A   1      43.838  35.887  38.709  1.00  0.00     0.041 A 
ATOM    102  F   UNL A   1      43.423  36.864  36.676  1.00  0.00    -0.206 F 
ATOM    103  C   UNL A   1      43.755  34.836  39.603  1.00  0.00     0.022 A 
BRANCH 100 104
ATOM    104  S   UNL A   1      42.890  32.284  40.315  1.00  0.00     0.124 S 
ATOM    105  O   UNL A   1      41.541  31.853  39.953  1.00  0.00    -0.237 OA
ATOM    106  O   UNL A   1      43.962  31.363  39.951  1.00  0.00    -0.237 OA
ATOM    107  O   UNL A   1      43.017  32.899  41.633  1.00  0.00    -0.744 OA
ENDBRANCH 100 104
ENDBRANCH  74  97
ENDBRANCH  48  49
ENDBRANCH  41  43
ENDBRANCH  40  41
ENDBRANCH  39  40
ENDBRANCH  38  39
ENDBRANCH  37  38
ENDBRANCH  36  37
ENDBRANCH  35  36
ENDBRANCH   1  35
TORSDOF 26
ENDMDL
