MODEL 1
REMARK VINA RESULT:      -8.7      0.000      0.000
REMARK SMILES CCc1ncc(C[N@H+]2CCC[C@@H](c3cccc(C(=O)OCCOCCOCCOCCOC(=O)c4ccc(-c5c6nc(c(-c7cc(S(=O)(=O)[O-])ccc7F)c7ccc([nH]7)c(-c7cc(S(=O)(=O)[O-])ccc7F)c7nc(c(-c8cc(S(=O)(=O)[O-])ccc8F)c8ccc5[nH]8)C=C7)C=C6)cc4)c3)C2)cn1
REMARK SMILES IDX 25 1 24 2 23 3 22 4 21 5 20 6 18 7 19 8 17 9 13 10 14 11
REMARK SMILES IDX 98 12 15 13 16 14 12 15 8 16 9 17 99 18 10 20 11 21 7 22
REMARK SMILES IDX 6 23 3 24 4 25 101 26 5 27 100 28 2 29 1 30 26 31 27 32
REMARK SMILES IDX 28 33 29 34 30 35 31 36 32 37 33 38 34 39 35 40 36 41 97 42
REMARK SMILES IDX 37 43 96 44 38 45 39 46 40 47 90 48 41 49 95 50 89 51 91 52
REMARK SMILES IDX 42 53 94 54 88 55 87 56 43 58 75 59 55 60 74 61 56 62 59 63
REMARK SMILES IDX 73 64 92 65 57 66 58 67 72 69 93 70 60 71 44 72 45 73 53 74
REMARK SMILES IDX 46 75 52 76 54 77 51 78 47 79 48 80 49 81 50 82 76 83 77 84
REMARK SMILES IDX 85 85 78 86 84 87 86 88 83 89 79 90 80 91 81 92 82 93 61 94
REMARK SMILES IDX 62 95 70 96 63 97 69 98 71 99 68 100 64 101 65 102 66 103
REMARK SMILES IDX 67 104
REMARK H PARENT 8 19 91 57 59 68
REMARK Flexibility Score: inf
ROOT
ATOM      1  C   UNL A   1      36.911  20.720  24.989  1.00  0.00     0.188 C 
ENDROOT
BRANCH   1   2
ATOM      2  C   UNL A   1      35.370  20.770  24.988  1.00  0.00     0.188 C 
BRANCH   2   3
ATOM      3  O   UNL A   1      34.844  22.047  24.680  1.00  0.00    -0.376 OA
BRANCH   3   4
ATOM      4  C   UNL A   1      33.622  22.478  25.249  1.00  0.00     0.202 C 
BRANCH   4   5
ATOM      5  C   UNL A   1      32.549  23.212  24.426  1.00  0.00     0.261 C 
BRANCH   5   6
ATOM      6  O   UNL A   1      32.360  24.599  24.708  1.00  0.00    -0.460 OA
BRANCH   6   7
ATOM      7  C   UNL A   1      33.168  25.487  24.091  1.00  0.00     0.338 C 
ATOM      8  O   UNL A   1      33.988  25.256  23.222  1.00  0.00    -0.246 OA
BRANCH   7   9
ATOM      9  C   UNL A   1      32.694  26.840  24.475  1.00  0.00     0.060 A 
ATOM     10  C   UNL A   1      32.576  28.687  26.057  1.00  0.00    -0.038 A 
ATOM     11  C   UNL A   1      31.565  29.260  25.267  1.00  0.00     0.004 A 
ATOM     12  C   UNL A   1      33.126  27.459  25.656  1.00  0.00     0.020 A 
ATOM     13  C   UNL A   1      31.129  28.639  24.094  1.00  0.00     0.001 A 
ATOM     14  C   UNL A   1      31.705  27.439  23.687  1.00  0.00     0.016 A 
BRANCH  10  15
ATOM     15  C   UNL A   1      33.224  29.444  27.212  1.00  0.00     0.074 C 
ATOM     16  N   UNL A   1      35.535  29.650  28.241  1.00  0.00    -0.331 N 
ATOM     17  C   UNL A   1      35.467  31.110  28.119  1.00  0.00     0.262 C 
ATOM     18  C   UNL A   1      34.694  28.983  27.245  1.00  0.00     0.270 C 
ATOM     19  H   UNL A   1      35.158  29.433  29.165  1.00  0.00     0.348 HD
ATOM     20  C   UNL A   1      34.022  31.615  28.206  1.00  0.00     0.062 C 
ATOM     21  C   UNL A   1      33.142  30.976  27.130  1.00  0.00     0.020 C 
BRANCH  16  22
ATOM     22  C   UNL A   1      36.915  29.117  28.237  1.00  0.00     0.302 C 
BRANCH  22  23
ATOM     23  C   UNL A   1      37.786  29.531  29.391  1.00  0.00     0.043 A 
ATOM     24  C   UNL A   1      39.175  30.524  31.510  1.00  0.00     0.127 A 
ATOM     25  N   UNL A   1      38.135  29.706  31.765  1.00  0.00    -0.241 NA
ATOM     26  N   UNL A   1      39.606  30.840  30.276  1.00  0.00    -0.241 NA
ATOM     27  C   UNL A   1      37.474  29.219  30.696  1.00  0.00     0.124 A 
ATOM     28  C   UNL A   1      38.908  30.322  29.246  1.00  0.00     0.124 A 
BRANCH  24  29
ATOM     29  C   UNL A   1      39.811  31.257  32.660  1.00  0.00     0.074 C 
ATOM     30  C   UNL A   1      39.727  30.509  33.981  1.00  0.00     0.012 C 
ENDBRANCH  24  29
ENDBRANCH  22  23
ENDBRANCH  16  22
ENDBRANCH  10  15
ENDBRANCH   7   9
ENDBRANCH   6   7
ENDBRANCH   5   6
ENDBRANCH   4   5
ENDBRANCH   3   4
ENDBRANCH   2   3
ENDBRANCH   1   2
BRANCH   1  31
ATOM     31  O   UNL A   1      37.575  21.386  26.049  1.00  0.00    -0.377 OA
BRANCH  31  32
ATOM     32  C   UNL A   1      38.888  21.908  25.843  1.00  0.00     0.188 C 
BRANCH  32  33
ATOM     33  C   UNL A   1      39.604  22.820  26.873  1.00  0.00     0.188 C 
BRANCH  33  34
ATOM     34  O   UNL A   1      40.952  23.136  26.565  1.00  0.00    -0.376 OA
BRANCH  34  35
ATOM     35  C   UNL A   1      41.804  22.082  26.160  1.00  0.00     0.202 C 
BRANCH  35  36
ATOM     36  C   UNL A   1      43.035  22.472  25.332  1.00  0.00     0.261 C 
BRANCH  36  37
ATOM     37  O   UNL A   1      43.101  23.841  24.907  1.00  0.00    -0.460 OA
BRANCH  37  38
ATOM     38  C   UNL A   1      44.323  24.428  24.918  1.00  0.00     0.338 C 
ATOM     39  O   UNL A   1      45.266  24.159  24.211  1.00  0.00    -0.246 OA
BRANCH  38  40
ATOM     40  C   UNL A   1      44.237  25.595  25.825  1.00  0.00     0.060 A 
ATOM     41  C   UNL A   1      45.416  26.167  26.319  1.00  0.00     0.016 A 
ATOM     42  C   UNL A   1      42.993  26.130  26.166  1.00  0.00     0.016 A 
ATOM     43  C   UNL A   1      45.351  27.262  27.182  1.00  0.00     0.010 A 
ATOM     44  C   UNL A   1      42.929  27.212  27.046  1.00  0.00     0.010 A 
ATOM     45  C   UNL A   1      44.106  27.766  27.581  1.00  0.00    -0.014 A 
BRANCH  45  46
ATOM     46  C   UNL A   1      44.022  28.734  28.703  1.00  0.00     0.031 A 
ATOM     47  C   UNL A   1      43.900  28.190  30.101  1.00  0.00     0.074 A 
ATOM     48  C   UNL A   1      44.063  30.062  28.493  1.00  0.00     0.049 A 
ATOM     49  N   UNL A   1      43.734  28.825  31.231  1.00  0.00    -0.248 NA
ATOM     50  C   UNL A   1      43.970  26.726  30.236  1.00  0.00     0.031 C 
ATOM     51  C   UNL A   1      44.233  30.705  27.191  1.00  0.00     0.029 A 
ATOM     52  N   UNL A   1      43.955  31.109  29.374  1.00  0.00    -0.354 N 
ATOM     53  C   UNL A   1      43.670  27.840  32.211  1.00  0.00     0.074 A 
ATOM     54  C   UNL A   1      43.777  26.565  31.535  1.00  0.00     0.031 C 
ATOM     55  C   UNL A   1      44.208  32.039  27.360  1.00  0.00     0.029 A 
ATOM     56  C   UNL A   1      43.972  32.345  28.771  1.00  0.00     0.049 A 
ATOM     57  H   UNL A   1      43.873  30.986  30.348  1.00  0.00     0.167 HD
ATOM     58  C   UNL A   1      43.540  27.988  33.553  1.00  0.00     0.034 A 
ATOM     59  C   UNL A   1      43.787  33.575  29.294  1.00  0.00     0.034 A 
ATOM     60  C   UNL A   1      43.419  29.268  34.208  1.00  0.00     0.049 A 
ATOM     61  C   UNL A   1      43.539  33.710  30.779  1.00  0.00     0.074 A 
ATOM     62  C   UNL A   1      43.297  29.532  35.560  1.00  0.00     0.029 A 
ATOM     63  N   UNL A   1      43.387  30.495  33.558  1.00  0.00    -0.354 N 
ATOM     64  N   UNL A   1      43.487  32.772  31.700  1.00  0.00    -0.248 NA
ATOM     65  C   UNL A   1      43.329  35.069  31.298  1.00  0.00     0.031 C 
ATOM     66  C   UNL A   1      43.103  30.908  35.721  1.00  0.00     0.029 A 
ATOM     67  C   UNL A   1      43.204  31.516  34.479  1.00  0.00     0.049 A 
ATOM     68  H   UNL A   1      43.480  30.622  32.587  1.00  0.00     0.167 HD
ATOM     69  C   UNL A   1      43.276  33.435  32.908  1.00  0.00     0.074 A 
ATOM     70  C   UNL A   1      43.223  34.849  32.600  1.00  0.00     0.031 C 
ATOM     71  C   UNL A   1      43.144  32.924  34.159  1.00  0.00     0.034 A 
BRANCH  58  72
ATOM     72  C   UNL A   1      43.460  26.731  34.385  1.00  0.00     0.023 A 
ATOM     73  C   UNL A   1      44.606  25.997  34.737  1.00  0.00     0.031 A 
ATOM     74  C   UNL A   1      42.212  26.243  34.811  1.00  0.00     0.131 A 
ATOM     75  C   UNL A   1      44.476  24.783  35.427  1.00  0.00     0.055 A 
ATOM     76  C   UNL A   1      42.095  25.079  35.572  1.00  0.00     0.041 A 
ATOM     77  F   UNL A   1      41.079  26.884  34.483  1.00  0.00    -0.206 F 
ATOM     78  C   UNL A   1      43.231  24.333  35.872  1.00  0.00     0.022 A 
BRANCH  75  79
ATOM     79  S   UNL A   1      45.938  23.724  35.602  1.00  0.00     0.124 S 
ATOM     80  O   UNL A   1      46.245  23.411  34.208  1.00  0.00    -0.237 OA
ATOM     81  O   UNL A   1      46.883  24.600  36.283  1.00  0.00    -0.237 OA
ATOM     82  O   UNL A   1      45.452  22.594  36.392  1.00  0.00    -0.744 OA
ENDBRANCH  75  79
ENDBRANCH  58  72
BRANCH  59  83
ATOM     83  C   UNL A   1      43.780  34.781  28.414  1.00  0.00     0.023 A 
ATOM     84  C   UNL A   1      44.975  35.343  27.937  1.00  0.00     0.031 A 
ATOM     85  C   UNL A   1      42.575  35.435  28.095  1.00  0.00     0.131 A 
ATOM     86  C   UNL A   1      44.945  36.545  27.211  1.00  0.00     0.055 A 
ATOM     87  C   UNL A   1      42.545  36.596  27.320  1.00  0.00     0.041 A 
ATOM     88  F   UNL A   1      41.401  34.950  28.533  1.00  0.00    -0.206 F 
ATOM     89  C   UNL A   1      43.737  37.166  26.885  1.00  0.00     0.022 A 
BRANCH  86  90
ATOM     90  S   UNL A   1      46.518  37.343  26.786  1.00  0.00     0.124 S 
ATOM     91  O   UNL A   1      47.197  37.363  28.076  1.00  0.00    -0.237 OA
ATOM     92  O   UNL A   1      47.060  36.430  25.787  1.00  0.00    -0.237 OA
ATOM     93  O   UNL A   1      46.107  38.650  26.276  1.00  0.00    -0.744 OA
ENDBRANCH  86  90
ENDBRANCH  59  83
BRANCH  71  94
ATOM     94  C   UNL A   1      42.986  33.904  35.299  1.00  0.00     0.023 A 
ATOM     95  C   UNL A   1      41.724  34.356  35.725  1.00  0.00     0.031 A 
ATOM     96  C   UNL A   1      44.122  34.394  35.970  1.00  0.00     0.131 A 
ATOM     97  C   UNL A   1      41.633  35.310  36.751  1.00  0.00     0.055 A 
ATOM     98  C   UNL A   1      44.020  35.290  37.035  1.00  0.00     0.041 A 
ATOM     99  F   UNL A   1      45.354  34.003  35.605  1.00  0.00    -0.206 F 
ATOM    100  C   UNL A   1      42.771  35.764  37.422  1.00  0.00     0.022 A 
BRANCH  97 101
ATOM    101  S   UNL A   1      40.012  36.031  37.128  1.00  0.00     0.124 S 
ATOM    102  O   UNL A   1      39.204  34.844  37.387  1.00  0.00    -0.237 OA
ATOM    103  O   UNL A   1      40.305  36.869  38.287  1.00  0.00    -0.237 OA
ATOM    104  O   UNL A   1      39.669  36.761  35.908  1.00  0.00    -0.744 OA
ENDBRANCH  97 101
ENDBRANCH  71  94
ENDBRANCH  45  46
ENDBRANCH  38  40
ENDBRANCH  37  38
ENDBRANCH  36  37
ENDBRANCH  35  36
ENDBRANCH  34  35
ENDBRANCH  33  34
ENDBRANCH  32  33
ENDBRANCH  31  32
ENDBRANCH   1  31
TORSDOF 27
ENDMDL
MODEL 2
REMARK VINA RESULT:      -8.0      1.791      2.188
REMARK SMILES CCc1ncc(C[N@H+]2CCC[C@@H](c3cccc(C(=O)OCCOCCOCCOCCOC(=O)c4ccc(-c5c6nc(c(-c7cc(S(=O)(=O)[O-])ccc7F)c7ccc([nH]7)c(-c7cc(S(=O)(=O)[O-])ccc7F)c7nc(c(-c8cc(S(=O)(=O)[O-])ccc8F)c8ccc5[nH]8)C=C7)C=C6)cc4)c3)C2)cn1
REMARK SMILES IDX 25 1 24 2 23 3 22 4 21 5 20 6 18 7 19 8 17 9 13 10 14 11
REMARK SMILES IDX 98 12 15 13 16 14 12 15 8 16 9 17 99 18 10 20 11 21 7 22
REMARK SMILES IDX 6 23 3 24 4 25 101 26 5 27 100 28 2 29 1 30 26 31 27 32
REMARK SMILES IDX 28 33 29 34 30 35 31 36 32 37 33 38 34 39 35 40 36 41 97 42
REMARK SMILES IDX 37 43 96 44 38 45 39 46 40 47 90 48 41 49 95 50 89 51 91 52
REMARK SMILES IDX 42 53 94 54 88 55 87 56 43 58 75 59 55 60 74 61 56 62 59 63
REMARK SMILES IDX 73 64 92 65 57 66 58 67 72 69 93 70 60 71 44 72 45 73 53 74
REMARK SMILES IDX 46 75 52 76 54 77 51 78 47 79 48 80 49 81 50 82 76 83 77 84
REMARK SMILES IDX 85 85 78 86 84 87 86 88 83 89 79 90 80 91 81 92 82 93 61 94
REMARK SMILES IDX 62 95 70 96 63 97 69 98 71 99 68 100 64 101 65 102 66 103
REMARK SMILES IDX 67 104
REMARK H PARENT 8 19 91 57 59 68
REMARK Flexibility Score: inf
ROOT
ATOM      1  C   UNL A   1      36.152  20.800  24.892  1.00  0.00     0.188 C 
ENDROOT
BRANCH   1   2
ATOM      2  C   UNL A   1      34.642  21.055  25.068  1.00  0.00     0.188 C 
BRANCH   2   3
ATOM      3  O   UNL A   1      34.244  22.369  24.728  1.00  0.00    -0.376 OA
BRANCH   3   4
ATOM      4  C   UNL A   1      33.161  22.990  25.395  1.00  0.00     0.202 C 
BRANCH   4   5
ATOM      5  C   UNL A   1      32.080  23.783  24.641  1.00  0.00     0.261 C 
BRANCH   5   6
ATOM      6  O   UNL A   1      32.000  25.182  24.916  1.00  0.00    -0.460 OA
BRANCH   6   7
ATOM      7  C   UNL A   1      32.871  26.001  24.290  1.00  0.00     0.338 C 
ATOM      8  O   UNL A   1      33.661  25.704  23.413  1.00  0.00    -0.246 OA
BRANCH   7   9
ATOM      9  C   UNL A   1      32.512  27.388  24.679  1.00  0.00     0.060 A 
ATOM     10  C   UNL A   1      32.626  29.264  26.227  1.00  0.00    -0.038 A 
ATOM     11  C   UNL A   1      31.598  29.889  25.498  1.00  0.00     0.004 A 
ATOM     12  C   UNL A   1      33.066  27.996  25.814  1.00  0.00     0.020 A 
ATOM     13  C   UNL A   1      31.042  29.278  24.372  1.00  0.00     0.001 A 
ATOM     14  C   UNL A   1      31.510  28.037  23.950  1.00  0.00     0.016 A 
BRANCH  10  15
ATOM     15  C   UNL A   1      33.400  29.995  27.318  1.00  0.00     0.074 C 
ATOM     16  N   UNL A   1      35.808  30.158  28.103  1.00  0.00    -0.331 N 
ATOM     17  C   UNL A   1      35.749  31.620  28.008  1.00  0.00     0.262 C 
ATOM     18  C   UNL A   1      34.859  29.515  27.191  1.00  0.00     0.270 C 
ATOM     19  H   UNL A   1      35.527  29.932  29.058  1.00  0.00     0.348 HD
ATOM     20  C   UNL A   1      34.328  32.141  28.251  1.00  0.00     0.062 C 
ATOM     21  C   UNL A   1      33.332  31.530  27.265  1.00  0.00     0.020 C 
BRANCH  16  22
ATOM     22  C   UNL A   1      37.173  29.607  27.948  1.00  0.00     0.302 C 
BRANCH  22  23
ATOM     23  C   UNL A   1      37.823  29.091  29.201  1.00  0.00     0.043 A 
ATOM     24  C   UNL A   1      39.115  28.439  31.506  1.00  0.00     0.127 A 
ATOM     25  N   UNL A   1      37.872  28.950  31.603  1.00  0.00    -0.241 NA
ATOM     26  N   UNL A   1      39.740  28.179  30.344  1.00  0.00    -0.241 NA
ATOM     27  C   UNL A   1      37.252  29.251  30.445  1.00  0.00     0.124 A 
ATOM     28  C   UNL A   1      39.069  28.498  29.218  1.00  0.00     0.124 A 
BRANCH  24  29
ATOM     29  C   UNL A   1      39.928  28.283  32.763  1.00  0.00     0.074 C 
ATOM     30  C   UNL A   1      40.648  29.554  33.185  1.00  0.00     0.012 C 
ENDBRANCH  24  29
ENDBRANCH  22  23
ENDBRANCH  16  22
ENDBRANCH  10  15
ENDBRANCH   7   9
ENDBRANCH   6   7
ENDBRANCH   5   6
ENDBRANCH   4   5
ENDBRANCH   3   4
ENDBRANCH   2   3
ENDBRANCH   1   2
BRANCH   1  31
ATOM     31  O   UNL A   1      37.017  21.368  25.860  1.00  0.00    -0.377 OA
BRANCH  31  32
ATOM     32  C   UNL A   1      38.393  21.577  25.542  1.00  0.00     0.188 C 
BRANCH  32  33
ATOM     33  C   UNL A   1      39.383  22.284  26.504  1.00  0.00     0.188 C 
BRANCH  33  34
ATOM     34  O   UNL A   1      40.749  22.210  26.127  1.00  0.00    -0.376 OA
BRANCH  34  35
ATOM     35  C   UNL A   1      41.520  21.138  26.635  1.00  0.00     0.202 C 
BRANCH  35  36
ATOM     36  C   UNL A   1      42.772  20.753  25.836  1.00  0.00     0.261 C 
BRANCH  36  37
ATOM     37  O   UNL A   1      43.336  21.783  25.012  1.00  0.00    -0.460 OA
BRANCH  37  38
ATOM     38  C   UNL A   1      44.663  22.023  25.154  1.00  0.00     0.338 C 
ATOM     39  O   UNL A   1      45.572  21.408  24.646  1.00  0.00    -0.246 OA
BRANCH  38  40
ATOM     40  C   UNL A   1      44.797  23.300  25.893  1.00  0.00     0.060 A 
ATOM     41  C   UNL A   1      46.033  23.635  26.460  1.00  0.00     0.016 A 
ATOM     42  C   UNL A   1      43.708  24.165  26.003  1.00  0.00     0.016 A 
ATOM     43  C   UNL A   1      46.173  24.831  27.166  1.00  0.00     0.010 A 
ATOM     44  C   UNL A   1      43.844  25.351  26.727  1.00  0.00     0.010 A 
ATOM     45  C   UNL A   1      45.070  25.677  27.338  1.00  0.00    -0.014 A 
BRANCH  45  46
ATOM     46  C   UNL A   1      45.134  26.794  28.312  1.00  0.00     0.031 A 
ATOM     47  C   UNL A   1      44.877  26.486  29.762  1.00  0.00     0.074 A 
ATOM     48  C   UNL A   1      45.424  28.050  27.926  1.00  0.00     0.049 A 
ATOM     49  N   UNL A   1      44.800  27.295  30.786  1.00  0.00    -0.248 NA
ATOM     50  C   UNL A   1      44.673  25.068  30.098  1.00  0.00     0.031 C 
ATOM     51  C   UNL A   1      45.744  28.460  26.561  1.00  0.00     0.029 A 
ATOM     52  N   UNL A   1      45.487  29.214  28.651  1.00  0.00    -0.354 N 
ATOM     53  C   UNL A   1      44.530  26.488  31.886  1.00  0.00     0.074 A 
ATOM     54  C   UNL A   1      44.419  25.130  31.395  1.00  0.00     0.031 C 
ATOM     55  C   UNL A   1      45.960  29.788  26.545  1.00  0.00     0.029 A 
ATOM     56  C   UNL A   1      45.747  30.328  27.888  1.00  0.00     0.049 A 
ATOM     57  H   UNL A   1      45.358  29.248  29.626  1.00  0.00     0.167 HD
ATOM     58  C   UNL A   1      44.393  26.846  33.186  1.00  0.00     0.034 A 
ATOM     59  C   UNL A   1      45.777  31.633  28.228  1.00  0.00     0.034 A 
ATOM     60  C   UNL A   1      44.492  28.207  33.655  1.00  0.00     0.049 A 
ATOM     61  C   UNL A   1      45.517  32.021  29.667  1.00  0.00     0.074 A 
ATOM     62  C   UNL A   1      44.384  28.679  34.950  1.00  0.00     0.029 A 
ATOM     63  N   UNL A   1      44.703  29.315  32.844  1.00  0.00    -0.354 N 
ATOM     64  N   UNL A   1      45.269  31.249  30.702  1.00  0.00    -0.248 NA
ATOM     65  C   UNL A   1      45.547  33.456  29.985  1.00  0.00     0.031 C 
ATOM     66  C   UNL A   1      44.442  30.076  34.913  1.00  0.00     0.029 A 
ATOM     67  C   UNL A   1      44.686  30.473  33.607  1.00  0.00     0.049 A 
ATOM     68  H   UNL A   1      44.844  29.283  31.871  1.00  0.00     0.167 HD
ATOM     69  C   UNL A   1      45.151  32.104  31.796  1.00  0.00     0.074 A 
ATOM     70  C   UNL A   1      45.367  33.447  31.298  1.00  0.00     0.031 C 
ATOM     71  C   UNL A   1      44.894  31.809  33.097  1.00  0.00     0.034 A 
BRANCH  58  72
ATOM     72  C   UNL A   1      44.062  25.755  34.176  1.00  0.00     0.023 A 
ATOM     73  C   UNL A   1      45.023  24.824  34.607  1.00  0.00     0.031 A 
ATOM     74  C   UNL A   1      42.754  25.628  34.676  1.00  0.00     0.131 A 
ATOM     75  C   UNL A   1      44.646  23.768  35.450  1.00  0.00     0.055 A 
ATOM     76  C   UNL A   1      42.404  24.627  35.583  1.00  0.00     0.041 A 
ATOM     77  F   UNL A   1      41.785  26.470  34.280  1.00  0.00    -0.206 F 
ATOM     78  C   UNL A   1      43.350  23.679  35.965  1.00  0.00     0.022 A 
BRANCH  75  79
ATOM     79  S   UNL A   1      45.831  22.428  35.745  1.00  0.00     0.124 S 
ATOM     80  O   UNL A   1      45.343  21.396  34.832  1.00  0.00    -0.237 OA
ATOM     81  O   UNL A   1      47.102  23.046  35.388  1.00  0.00    -0.237 OA
ATOM     82  O   UNL A   1      45.661  22.124  37.164  1.00  0.00    -0.744 OA
ENDBRANCH  75  79
ENDBRANCH  58  72
BRANCH  59  83
ATOM     83  C   UNL A   1      46.014  32.684  27.194  1.00  0.00     0.023 A 
ATOM     84  C   UNL A   1      47.291  33.234  26.994  1.00  0.00     0.031 A 
ATOM     85  C   UNL A   1      44.949  33.206  26.437  1.00  0.00     0.131 A 
ATOM     86  C   UNL A   1      47.462  34.303  26.100  1.00  0.00     0.055 A 
ATOM     87  C   UNL A   1      45.135  34.227  25.503  1.00  0.00     0.041 A 
ATOM     88  F   UNL A   1      43.704  32.727  26.594  1.00  0.00    -0.206 F 
ATOM     89  C   UNL A   1      46.396  34.791  25.340  1.00  0.00     0.022 A 
BRANCH  86  90
ATOM     90  S   UNL A   1      49.081  35.117  26.018  1.00  0.00     0.124 S 
ATOM     91  O   UNL A   1      49.125  35.549  24.626  1.00  0.00    -0.237 OA
ATOM     92  O   UNL A   1      48.940  36.172  27.015  1.00  0.00    -0.237 OA
ATOM     93  O   UNL A   1      50.015  34.050  26.370  1.00  0.00    -0.744 OA
ENDBRANCH  86  90
ENDBRANCH  59  83
BRANCH  71  94
ATOM     94  C   UNL A   1      44.888  32.954  34.083  1.00  0.00     0.023 A 
ATOM     95  C   UNL A   1      43.708  33.638  34.426  1.00  0.00     0.031 A 
ATOM     96  C   UNL A   1      46.089  33.367  34.691  1.00  0.00     0.131 A 
ATOM     97  C   UNL A   1      43.763  34.731  35.305  1.00  0.00     0.055 A 
ATOM     98  C   UNL A   1      46.126  34.411  35.617  1.00  0.00     0.041 A 
ATOM     99  F   UNL A   1      47.248  32.757  34.399  1.00  0.00    -0.206 F 
ATOM    100  C   UNL A   1      44.960  35.109  35.917  1.00  0.00     0.022 A 
BRANCH  97 101
ATOM    101  S   UNL A   1      42.265  35.723  35.556  1.00  0.00     0.124 S 
ATOM    102  O   UNL A   1      41.219  34.706  35.523  1.00  0.00    -0.237 OA
ATOM    103  O   UNL A   1      42.514  36.340  36.855  1.00  0.00    -0.237 OA
ATOM    104  O   UNL A   1      42.270  36.645  34.422  1.00  0.00    -0.744 OA
ENDBRANCH  97 101
ENDBRANCH  71  94
ENDBRANCH  45  46
ENDBRANCH  38  40
ENDBRANCH  37  38
ENDBRANCH  36  37
ENDBRANCH  35  36
ENDBRANCH  34  35
ENDBRANCH  33  34
ENDBRANCH  32  33
ENDBRANCH  31  32
ENDBRANCH   1  31
TORSDOF 27
ENDMDL
MODEL 3
REMARK VINA RESULT:      -7.8      7.003     11.589
REMARK SMILES CCc1ncc(C[N@H+]2CCC[C@@H](c3cccc(C(=O)OCCOCCOCCOCCOC(=O)c4ccc(-c5c6nc(c(-c7cc(S(=O)(=O)[O-])ccc7F)c7ccc([nH]7)c(-c7cc(S(=O)(=O)[O-])ccc7F)c7nc(c(-c8cc(S(=O)(=O)[O-])ccc8F)c8ccc5[nH]8)C=C7)C=C6)cc4)c3)C2)cn1
REMARK SMILES IDX 25 1 24 2 23 3 22 4 21 5 20 6 18 7 19 8 17 9 13 10 14 11
REMARK SMILES IDX 98 12 15 13 16 14 12 15 8 16 9 17 99 18 10 20 11 21 7 22
REMARK SMILES IDX 6 23 3 24 4 25 101 26 5 27 100 28 2 29 1 30 26 31 27 32
REMARK SMILES IDX 28 33 29 34 30 35 31 36 32 37 33 38 34 39 35 40 36 41 97 42
REMARK SMILES IDX 37 43 96 44 38 45 39 46 40 47 90 48 41 49 95 50 89 51 91 52
REMARK SMILES IDX 42 53 94 54 88 55 87 56 43 58 75 59 55 60 74 61 56 62 59 63
REMARK SMILES IDX 73 64 92 65 57 66 58 67 72 69 93 70 60 71 44 72 45 73 53 74
REMARK SMILES IDX 46 75 52 76 54 77 51 78 47 79 48 80 49 81 50 82 76 83 77 84
REMARK SMILES IDX 85 85 78 86 84 87 86 88 83 89 79 90 80 91 81 92 82 93 61 94
REMARK SMILES IDX 62 95 70 96 63 97 69 98 71 99 68 100 64 101 65 102 66 103
REMARK SMILES IDX 67 104
REMARK H PARENT 8 19 91 57 59 68
REMARK Flexibility Score: inf
ROOT
ATOM      1  C   UNL A   1      36.441  21.009  24.855  1.00  0.00     0.188 C 
ENDROOT
BRANCH   1   2
ATOM      2  C   UNL A   1      35.018  20.417  24.922  1.00  0.00     0.188 C 
BRANCH   2   3
ATOM      3  O   UNL A   1      34.008  21.323  24.522  1.00  0.00    -0.376 OA
BRANCH   3   4
ATOM      4  C   UNL A   1      32.903  21.588  25.366  1.00  0.00     0.202 C 
BRANCH   4   5
ATOM      5  C   UNL A   1      31.658  22.345  24.873  1.00  0.00     0.261 C 
BRANCH   5   6
ATOM      6  O   UNL A   1      31.293  23.521  25.597  1.00  0.00    -0.460 OA
BRANCH   6   7
ATOM      7  C   UNL A   1      32.282  24.279  26.114  1.00  0.00     0.338 C 
ATOM      8  O   UNL A   1      33.318  23.890  26.623  1.00  0.00    -0.246 OA
BRANCH   7   9
ATOM      9  C   UNL A   1      32.003  25.682  25.717  1.00  0.00     0.060 A 
ATOM     10  C   UNL A   1      31.829  28.052  26.246  1.00  0.00    -0.038 A 
ATOM     11  C   UNL A   1      31.211  28.254  25.000  1.00  0.00     0.004 A 
ATOM     12  C   UNL A   1      32.208  26.748  26.603  1.00  0.00     0.020 A 
ATOM     13  C   UNL A   1      31.000  27.190  24.120  1.00  0.00     0.001 A 
ATOM     14  C   UNL A   1      31.412  25.906  24.469  1.00  0.00     0.016 A 
BRANCH  10  15
ATOM     15  C   UNL A   1      32.271  29.216  27.126  1.00  0.00     0.074 C 
ATOM     16  N   UNL A   1      34.429  30.043  28.176  1.00  0.00    -0.331 N 
ATOM     17  C   UNL A   1      34.225  31.365  27.575  1.00  0.00     0.262 C 
ATOM     18  C   UNL A   1      33.769  28.987  27.404  1.00  0.00     0.270 C 
ATOM     19  H   UNL A   1      33.983  30.086  29.093  1.00  0.00     0.348 HD
ATOM     20  C   UNL A   1      32.734  31.676  27.396  1.00  0.00     0.062 C 
ATOM     21  C   UNL A   1      32.041  30.617  26.537  1.00  0.00     0.020 C 
BRANCH  16  22
ATOM     22  C   UNL A   1      35.849  29.723  28.437  1.00  0.00     0.302 C 
BRANCH  22  23
ATOM     23  C   UNL A   1      36.589  30.681  29.329  1.00  0.00     0.043 A 
ATOM     24  C   UNL A   1      38.146  32.199  30.965  1.00  0.00     0.127 A 
ATOM     25  N   UNL A   1      38.369  32.271  29.638  1.00  0.00    -0.241 NA
ATOM     26  N   UNL A   1      37.170  31.469  31.532  1.00  0.00    -0.241 NA
ATOM     27  C   UNL A   1      37.574  31.518  28.852  1.00  0.00     0.124 A 
ATOM     28  C   UNL A   1      36.405  30.739  30.696  1.00  0.00     0.124 A 
BRANCH  24  29
ATOM     29  C   UNL A   1      39.134  32.851  31.896  1.00  0.00     0.074 C 
ATOM     30  C   UNL A   1      38.677  34.202  32.421  1.00  0.00     0.012 C 
ENDBRANCH  24  29
ENDBRANCH  22  23
ENDBRANCH  16  22
ENDBRANCH  10  15
ENDBRANCH   7   9
ENDBRANCH   6   7
ENDBRANCH   5   6
ENDBRANCH   4   5
ENDBRANCH   3   4
ENDBRANCH   2   3
ENDBRANCH   1   2
BRANCH   1  31
ATOM     31  O   UNL A   1      36.906  21.695  26.004  1.00  0.00    -0.377 OA
BRANCH  31  32
ATOM     32  C   UNL A   1      38.048  22.546  25.905  1.00  0.00     0.188 C 
BRANCH  32  33
ATOM     33  C   UNL A   1      38.036  24.030  26.357  1.00  0.00     0.188 C 
BRANCH  33  34
ATOM     34  O   UNL A   1      39.284  24.698  26.268  1.00  0.00    -0.376 OA
BRANCH  34  35
ATOM     35  C   UNL A   1      40.166  24.606  27.370  1.00  0.00     0.202 C 
BRANCH  35  36
ATOM     36  C   UNL A   1      41.565  24.044  27.086  1.00  0.00     0.261 C 
BRANCH  36  37
ATOM     37  O   UNL A   1      42.166  24.444  25.846  1.00  0.00    -0.460 OA
BRANCH  37  38
ATOM     38  C   UNL A   1      43.024  23.566  25.270  1.00  0.00     0.338 C 
ATOM     39  O   UNL A   1      42.739  22.554  24.672  1.00  0.00    -0.246 OA
BRANCH  38  40
ATOM     40  C   UNL A   1      44.374  24.172  25.336  1.00  0.00     0.060 A 
ATOM     41  C   UNL A   1      45.499  23.355  25.165  1.00  0.00     0.016 A 
ATOM     42  C   UNL A   1      44.519  25.544  25.546  1.00  0.00     0.016 A 
ATOM     43  C   UNL A   1      46.778  23.910  25.232  1.00  0.00     0.010 A 
ATOM     44  C   UNL A   1      45.800  26.093  25.635  1.00  0.00     0.010 A 
ATOM     45  C   UNL A   1      46.937  25.274  25.507  1.00  0.00    -0.014 A 
BRANCH  45  46
ATOM     46  C   UNL A   1      48.275  25.811  25.858  1.00  0.00     0.031 A 
ATOM     47  C   UNL A   1      49.094  26.444  24.765  1.00  0.00     0.074 A 
ATOM     48  C   UNL A   1      48.751  25.751  27.114  1.00  0.00     0.049 A 
ATOM     49  N   UNL A   1      50.314  26.912  24.802  1.00  0.00    -0.248 NA
ATOM     50  C   UNL A   1      48.444  26.556  23.450  1.00  0.00     0.031 C 
ATOM     51  C   UNL A   1      48.030  25.212  28.265  1.00  0.00     0.029 A 
ATOM     52  N   UNL A   1      49.962  26.141  27.630  1.00  0.00    -0.354 N 
ATOM     53  C   UNL A   1      50.583  27.366  23.515  1.00  0.00     0.074 A 
ATOM     54  C   UNL A   1      49.411  27.081  22.714  1.00  0.00     0.031 C 
ATOM     55  C   UNL A   1      48.818  25.297  29.351  1.00  0.00     0.029 A 
ATOM     56  C   UNL A   1      50.116  25.851  28.965  1.00  0.00     0.049 A 
ATOM     57  H   UNL A   1      50.657  26.588  27.093  1.00  0.00     0.167 HD
ATOM     58  C   UNL A   1      51.703  27.970  23.047  1.00  0.00     0.034 A 
ATOM     59  C   UNL A   1      51.189  25.987  29.772  1.00  0.00     0.034 A 
ATOM     60  C   UNL A   1      52.867  28.232  23.857  1.00  0.00     0.049 A 
ATOM     61  C   UNL A   1      52.464  26.568  29.202  1.00  0.00     0.074 A 
ATOM     62  C   UNL A   1      54.049  28.850  23.489  1.00  0.00     0.029 A 
ATOM     63  N   UNL A   1      53.006  27.875  25.193  1.00  0.00    -0.354 N 
ATOM     64  N   UNL A   1      52.707  27.001  27.985  1.00  0.00    -0.248 NA
ATOM     65  C   UNL A   1      53.609  26.683  30.116  1.00  0.00     0.031 C 
ATOM     66  C   UNL A   1      54.931  28.789  24.572  1.00  0.00     0.029 A 
ATOM     67  C   UNL A   1      54.268  28.222  25.649  1.00  0.00     0.049 A 
ATOM     68  H   UNL A   1      52.309  27.440  25.735  1.00  0.00     0.167 HD
ATOM     69  C   UNL A   1      54.018  27.472  28.002  1.00  0.00     0.074 A 
ATOM     70  C   UNL A   1      54.509  27.282  29.351  1.00  0.00     0.031 C 
ATOM     71  C   UNL A   1      54.750  28.019  26.997  1.00  0.00     0.034 A 
BRANCH  58  72
ATOM     72  C   UNL A   1      51.737  28.329  21.581  1.00  0.00     0.023 A 
ATOM     73  C   UNL A   1      51.867  27.354  20.578  1.00  0.00     0.031 A 
ATOM     74  C   UNL A   1      51.666  29.676  21.182  1.00  0.00     0.131 A 
ATOM     75  C   UNL A   1      51.994  27.742  19.236  1.00  0.00     0.055 A 
ATOM     76  C   UNL A   1      51.706  30.051  19.838  1.00  0.00     0.041 A 
ATOM     77  F   UNL A   1      51.570  30.656  22.095  1.00  0.00    -0.206 F 
ATOM     78  C   UNL A   1      51.885  29.081  18.856  1.00  0.00     0.022 A 
BRANCH  75  79
ATOM     79  S   UNL A   1      52.455  26.487  18.010  1.00  0.00     0.124 S 
ATOM     80  O   UNL A   1      51.202  25.750  17.857  1.00  0.00    -0.237 OA
ATOM     81  O   UNL A   1      52.863  27.296  16.868  1.00  0.00    -0.237 OA
ATOM     82  O   UNL A   1      53.529  25.744  18.666  1.00  0.00    -0.744 OA
ENDBRANCH  75  79
ENDBRANCH  58  72
BRANCH  59  83
ATOM     83  C   UNL A   1      51.136  25.529  31.192  1.00  0.00     0.023 A 
ATOM     84  C   UNL A   1      51.390  24.191  31.535  1.00  0.00     0.031 A 
ATOM     85  C   UNL A   1      50.760  26.411  32.222  1.00  0.00     0.131 A 
ATOM     86  C   UNL A   1      51.217  23.763  32.861  1.00  0.00     0.055 A 
ATOM     87  C   UNL A   1      50.650  25.994  33.550  1.00  0.00     0.041 A 
ATOM     88  F   UNL A   1      50.495  27.699  31.951  1.00  0.00    -0.206 F 
ATOM     89  C   UNL A   1      50.866  24.659  33.874  1.00  0.00     0.022 A 
BRANCH  86  90
ATOM     90  S   UNL A   1      51.358  21.992  33.228  1.00  0.00     0.124 S 
ATOM     91  O   UNL A   1      49.958  21.600  33.338  1.00  0.00    -0.237 OA
ATOM     92  O   UNL A   1      52.074  21.496  32.058  1.00  0.00    -0.237 OA
ATOM     93  O   UNL A   1      52.116  21.963  34.478  1.00  0.00    -0.744 OA
ENDBRANCH  86  90
ENDBRANCH  59  83
BRANCH  71  94
ATOM     94  C   UNL A   1      56.142  28.503  27.333  1.00  0.00     0.023 A 
ATOM     95  C   UNL A   1      56.380  29.785  27.859  1.00  0.00     0.031 A 
ATOM     96  C   UNL A   1      57.251  27.662  27.123  1.00  0.00     0.131 A 
ATOM     97  C   UNL A   1      57.696  30.208  28.102  1.00  0.00     0.055 A 
ATOM     98  C   UNL A   1      58.551  28.064  27.432  1.00  0.00     0.041 A 
ATOM     99  F   UNL A   1      57.087  26.428  26.618  1.00  0.00    -0.206 F 
ATOM    100  C   UNL A   1      58.781  29.349  27.911  1.00  0.00     0.022 A 
BRANCH  97 101
ATOM    101  S   UNL A   1      57.983  31.937  28.572  1.00  0.00     0.124 S 
ATOM    102  O   UNL A   1      58.778  32.428  27.451  1.00  0.00    -0.237 OA
ATOM    103  O   UNL A   1      56.625  32.463  28.669  1.00  0.00    -0.237 OA
ATOM    104  O   UNL A   1      58.698  31.833  29.843  1.00  0.00    -0.744 OA
ENDBRANCH  97 101
ENDBRANCH  71  94
ENDBRANCH  45  46
ENDBRANCH  38  40
ENDBRANCH  37  38
ENDBRANCH  36  37
ENDBRANCH  35  36
ENDBRANCH  34  35
ENDBRANCH  33  34
ENDBRANCH  32  33
ENDBRANCH  31  32
ENDBRANCH   1  31
TORSDOF 27
ENDMDL
