MODEL 1
REMARK VINA RESULT:     -10.5      0.000      0.000
REMARK SMILES O=C(OCCOCCOCCOCCOC(=O)[C@H]1[C@H]2CC[C@H](C2)[C@@H]1C(=O)Nc1sc2c(c1C(=O)NC1CCCCC1)CCCC2)c1ccc(-c2c3nc(c(-c4cc(S(=O)(=O)[O-])ccc4F)c4ccc([nH]4)c(-c4cc(S(=O)(=O)[O-])ccc4F)c4nc(c(-c5cc(S(=O)(=O)[O-])ccc5F)c5ccc2[nH]5)C=C4)C=C3)cc1
REMARK SMILES IDX 10 1 9 2 8 3 7 4 6 5 5 6 4 7 3 8 2 9 1 10 46 11 47 12 108 13
REMARK SMILES IDX 48 14 107 15 49 16 50 17 51 18 101 19 52 20 106 21 100 22
REMARK SMILES IDX 102 23 53 24 105 25 99 26 98 27 54 29 86 30 66 31 85 32
REMARK SMILES IDX 67 33 70 34 84 35 103 36 68 37 69 38 83 40 104 41 71 42
REMARK SMILES IDX 55 43 56 44 64 45 57 46 63 47 65 48 62 49 58 50 59 51 60 52
REMARK SMILES IDX 61 53 87 54 88 55 96 56 89 57 95 58 97 59 94 60 90 61 91 62
REMARK SMILES IDX 92 63 93 64 72 65 73 66 81 67 74 68 80 69 82 70 79 71 75 72
REMARK SMILES IDX 76 73 77 74 78 75 11 76 12 77 13 78 14 79 15 80 16 81 17 82
REMARK SMILES IDX 18 83 19 84 24 85 20 86 23 87 22 88 21 89 25 90 26 91 27 92
REMARK SMILES IDX 28 94 29 95 32 96 30 97 31 98 45 99 42 100 44 101 43 102
REMARK SMILES IDX 33 103 34 104 35 105 36 107 37 108 41 109 38 110 40 111
REMARK SMILES IDX 39 112
REMARK H PARENT 102 28 70 39 27 93 35 106
REMARK Flexibility Score: inf
ROOT
ATOM      1  C   UNL A   1      40.750  21.359  26.331  1.00  0.00     0.188 C 
ENDROOT
BRANCH   1   2
ATOM      2  O   UNL A   1      41.880  20.829  25.646  1.00  0.00    -0.377 OA
BRANCH   2   3
ATOM      3  C   UNL A   1      42.117  19.443  25.854  1.00  0.00     0.188 C 
BRANCH   3   4
ATOM      4  C   UNL A   1      43.555  18.986  25.613  1.00  0.00     0.188 C 
BRANCH   4   5
ATOM      5  O   UNL A   1      43.962  19.161  24.252  1.00  0.00    -0.376 OA
BRANCH   5   6
ATOM      6  C   UNL A   1      44.890  20.223  24.007  1.00  0.00     0.202 C 
BRANCH   6   7
ATOM      7  C   UNL A   1      45.331  20.986  25.257  1.00  0.00     0.261 C 
BRANCH   7   8
ATOM      8  O   UNL A   1      44.842  22.333  25.294  1.00  0.00    -0.460 OA
BRANCH   8   9
ATOM      9  C   UNL A   1      44.831  23.196  26.342  1.00  0.00     0.338 C 
ATOM     10  O   UNL A   1      44.389  22.779  27.415  1.00  0.00    -0.246 OA
BRANCH   9  11
ATOM     11  C   UNL A   1      45.276  24.631  26.286  1.00  0.00     0.060 A 
ATOM     12  C   UNL A   1      45.231  25.463  25.166  1.00  0.00     0.016 A 
ATOM     13  C   UNL A   1      45.770  25.187  27.482  1.00  0.00     0.016 A 
ATOM     14  C   UNL A   1      45.719  26.757  25.190  1.00  0.00     0.010 A 
ATOM     15  C   UNL A   1      46.290  26.485  27.519  1.00  0.00     0.010 A 
ATOM     16  C   UNL A   1      46.315  27.243  26.346  1.00  0.00    -0.014 A 
BRANCH  16  17
ATOM     17  C   UNL A   1      47.244  28.367  26.145  1.00  0.00     0.031 A 
ATOM     18  C   UNL A   1      46.682  29.745  26.367  1.00  0.00     0.074 A 
ATOM     19  C   UNL A   1      48.564  28.139  26.040  1.00  0.00     0.049 A 
ATOM     20  N   UNL A   1      47.270  30.906  26.307  1.00  0.00    -0.248 NA
ATOM     21  C   UNL A   1      45.256  29.814  26.739  1.00  0.00     0.031 C 
ATOM     22  C   UNL A   1      49.188  26.813  26.035  1.00  0.00     0.029 A 
ATOM     23  N   UNL A   1      49.617  29.007  25.979  1.00  0.00    -0.354 N 
ATOM     24  C   UNL A   1      46.280  31.841  26.598  1.00  0.00     0.074 A 
ATOM     25  C   UNL A   1      45.055  31.116  26.831  1.00  0.00     0.031 C 
ATOM     26  C   UNL A   1      50.523  26.961  25.996  1.00  0.00     0.029 A 
ATOM     27  C   UNL A   1      50.839  28.382  25.900  1.00  0.00     0.049 A 
ATOM     28  H   UNL A   1      49.511  29.986  25.993  1.00  0.00     0.167 HD
ATOM     29  C   UNL A   1      46.394  33.188  26.655  1.00  0.00     0.034 A 
ATOM     30  C   UNL A   1      52.064  28.918  25.733  1.00  0.00     0.034 A 
ATOM     31  C   UNL A   1      47.645  33.858  26.405  1.00  0.00     0.049 A 
ATOM     32  C   UNL A   1      52.147  30.424  25.657  1.00  0.00     0.074 A 
ATOM     33  C   UNL A   1      47.905  35.211  26.318  1.00  0.00     0.029 A 
ATOM     34  N   UNL A   1      48.855  33.200  26.196  1.00  0.00    -0.354 N 
ATOM     35  N   UNL A   1      51.189  31.314  25.808  1.00  0.00    -0.248 NA
ATOM     36  C   UNL A   1      53.467  30.999  25.385  1.00  0.00     0.031 C 
ATOM     37  C   UNL A   1      49.255  35.367  25.982  1.00  0.00     0.029 A 
ATOM     38  C   UNL A   1      49.860  34.118  25.953  1.00  0.00     0.049 A 
ATOM     39  H   UNL A   1      48.977  32.224  26.217  1.00  0.00     0.167 HD
ATOM     40  C   UNL A   1      51.798  32.557  25.679  1.00  0.00     0.074 A 
ATOM     41  C   UNL A   1      53.209  32.296  25.458  1.00  0.00     0.031 C 
ATOM     42  C   UNL A   1      51.255  33.802  25.738  1.00  0.00     0.034 A 
BRANCH  29  43
ATOM     43  C   UNL A   1      45.120  33.975  26.854  1.00  0.00     0.023 A 
ATOM     44  C   UNL A   1      44.560  34.196  28.125  1.00  0.00     0.031 A 
ATOM     45  C   UNL A   1      44.386  34.397  25.731  1.00  0.00     0.131 A 
ATOM     46  C   UNL A   1      43.266  34.736  28.236  1.00  0.00     0.055 A 
ATOM     47  C   UNL A   1      43.140  35.014  25.853  1.00  0.00     0.041 A 
ATOM     48  F   UNL A   1      44.849  34.179  24.490  1.00  0.00    -0.206 F 
ATOM     49  C   UNL A   1      42.564  35.169  27.109  1.00  0.00     0.022 A 
BRANCH  46  50
ATOM     50  S   UNL A   1      42.440  34.699  29.853  1.00  0.00     0.124 S 
ATOM     51  O   UNL A   1      42.816  33.376  30.346  1.00  0.00    -0.237 OA
ATOM     52  O   UNL A   1      43.043  35.833  30.544  1.00  0.00    -0.237 OA
ATOM     53  O   UNL A   1      41.025  34.852  29.519  1.00  0.00    -0.744 OA
ENDBRANCH  46  50
ENDBRANCH  29  43
BRANCH  30  54
ATOM     54  C   UNL A   1      53.268  28.052  25.551  1.00  0.00     0.023 A 
ATOM     55  C   UNL A   1      54.082  27.685  26.634  1.00  0.00     0.031 A 
ATOM     56  C   UNL A   1      53.660  27.628  24.266  1.00  0.00     0.131 A 
ATOM     57  C   UNL A   1      55.267  26.960  26.409  1.00  0.00     0.055 A 
ATOM     58  C   UNL A   1      54.804  26.855  24.055  1.00  0.00     0.041 A 
ATOM     59  F   UNL A   1      52.932  27.957  23.188  1.00  0.00    -0.206 F 
ATOM     60  C   UNL A   1      55.624  26.531  25.130  1.00  0.00     0.022 A 
BRANCH  57  61
ATOM     61  S   UNL A   1      56.393  26.674  27.802  1.00  0.00     0.124 S 
ATOM     62  O   UNL A   1      56.747  25.271  27.616  1.00  0.00    -0.237 OA
ATOM     63  O   UNL A   1      57.451  27.644  27.541  1.00  0.00    -0.237 OA
ATOM     64  O   UNL A   1      55.565  26.958  28.973  1.00  0.00    -0.744 OA
ENDBRANCH  57  61
ENDBRANCH  30  54
BRANCH  42  65
ATOM     65  C   UNL A   1      52.212  34.959  25.621  1.00  0.00     0.023 A 
ATOM     66  C   UNL A   1      52.750  35.591  26.755  1.00  0.00     0.031 A 
ATOM     67  C   UNL A   1      52.579  35.439  24.352  1.00  0.00     0.131 A 
ATOM     68  C   UNL A   1      53.569  36.716  26.596  1.00  0.00     0.055 A 
ATOM     69  C   UNL A   1      53.457  36.511  24.201  1.00  0.00     0.041 A 
ATOM     70  F   UNL A   1      52.092  34.868  23.238  1.00  0.00    -0.206 F 
ATOM     71  C   UNL A   1      53.943  37.167  25.328  1.00  0.00     0.022 A 
BRANCH  68  72
ATOM     72  S   UNL A   1      54.038  37.656  28.073  1.00  0.00     0.124 S 
ATOM     73  O   UNL A   1      52.746  38.152  28.539  1.00  0.00    -0.237 OA
ATOM     74  O   UNL A   1      54.667  36.637  28.906  1.00  0.00    -0.237 OA
ATOM     75  O   UNL A   1      54.944  38.679  27.553  1.00  0.00    -0.744 OA
ENDBRANCH  68  72
ENDBRANCH  42  65
ENDBRANCH  16  17
ENDBRANCH   9  11
ENDBRANCH   8   9
ENDBRANCH   7   8
ENDBRANCH   6   7
ENDBRANCH   5   6
ENDBRANCH   4   5
ENDBRANCH   3   4
ENDBRANCH   2   3
ENDBRANCH   1   2
BRANCH   1  76
ATOM     76  C   UNL A   1      40.852  22.787  26.925  1.00  0.00     0.188 C 
BRANCH  76  77
ATOM     77  O   UNL A   1      39.846  23.667  26.456  1.00  0.00    -0.376 OA
BRANCH  77  78
ATOM     78  C   UNL A   1      38.579  23.071  26.204  1.00  0.00     0.202 C 
BRANCH  78  79
ATOM     79  C   UNL A   1      37.385  23.998  25.890  1.00  0.00     0.261 C 
BRANCH  79  80
ATOM     80  O   UNL A   1      36.397  23.462  24.970  1.00  0.00    -0.463 OA
BRANCH  80  81
ATOM     81  C   UNL A   1      35.211  24.093  24.866  1.00  0.00     0.310 C 
ATOM     82  O   UNL A   1      34.794  24.828  25.759  1.00  0.00    -0.252 OA
BRANCH  81  83
ATOM     83  C   UNL A   1      34.406  23.700  23.590  1.00  0.00     0.115 C 
ATOM     84  C   UNL A   1      33.891  22.253  23.898  1.00  0.00     0.004 C 
ATOM     85  C   UNL A   1      33.055  24.371  23.127  1.00  0.00     0.096 C 
ATOM     86  C   UNL A   1      32.820  22.227  25.019  1.00  0.00     0.005 C 
ATOM     87  C   UNL A   1      33.024  21.988  22.697  1.00  0.00     0.009 C 
ATOM     88  C   UNL A   1      32.095  23.166  22.954  1.00  0.00     0.003 C 
ATOM     89  C   UNL A   1      31.565  22.794  24.342  1.00  0.00     0.005 C 
BRANCH  85  90
ATOM     90  C   UNL A   1      32.866  25.387  21.956  1.00  0.00     0.229 C 
ATOM     91  O   UNL A   1      33.128  24.979  20.809  1.00  0.00    -0.274 OA
ATOM     92  N   UNL A   1      32.466  26.683  22.022  1.00  0.00    -0.317 N 
ATOM     93  H   UNL A   1      32.309  27.139  21.163  1.00  0.00     0.170 HD
BRANCH  92  94
ATOM     94  C   UNL A   1      32.259  27.421  23.146  1.00  0.00     0.108 A 
ATOM     95  S   UNL A   1      33.199  28.848  23.283  1.00  0.00    -0.122 S 
ATOM     96  C   UNL A   1      31.149  27.552  23.976  1.00  0.00     0.078 A 
ATOM     97  C   UNL A   1      32.835  28.847  24.948  1.00  0.00     0.011 A 
ATOM     98  C   UNL A   1      31.730  28.039  25.224  1.00  0.00    -0.019 A 
ATOM     99  C   UNL A   1      33.750  29.504  25.938  1.00  0.00     0.047 C 
ATOM    100  C   UNL A   1      31.458  27.670  26.659  1.00  0.00     0.037 C 
ATOM    101  C   UNL A   1      33.550  28.899  27.334  1.00  0.00     0.006 C 
ATOM    102  C   UNL A   1      32.065  28.695  27.631  1.00  0.00     0.005 C 
BRANCH  96 103
ATOM    103  C   UNL A   1      29.852  27.002  23.542  1.00  0.00     0.254 C 
ATOM    104  O   UNL A   1      29.673  25.785  23.445  1.00  0.00    -0.269 OA
ATOM    105  N   UNL A   1      28.840  27.793  23.046  1.00  0.00    -0.349 N 
ATOM    106  H   UNL A   1      28.109  27.310  22.598  1.00  0.00     0.164 HD
BRANCH 105 107
ATOM    107  C   UNL A   1      28.695  29.223  23.090  1.00  0.00     0.082 C 
ATOM    108  C   UNL A   1      29.322  29.970  21.915  1.00  0.00     0.025 C 
ATOM    109  C   UNL A   1      27.256  29.699  23.302  1.00  0.00     0.025 C 
ATOM    110  C   UNL A   1      29.387  31.459  22.253  1.00  0.00     0.002 C 
ATOM    111  C   UNL A   1      27.295  31.181  23.693  1.00  0.00     0.002 C 
ATOM    112  C   UNL A   1      28.027  32.032  22.653  1.00  0.00     0.000 C 
ENDBRANCH 105 107
ENDBRANCH  96 103
ENDBRANCH  92  94
ENDBRANCH  85  90
ENDBRANCH  81  83
ENDBRANCH  80  81
ENDBRANCH  79  80
ENDBRANCH  78  79
ENDBRANCH  77  78
ENDBRANCH  76  77
ENDBRANCH   1  76
TORSDOF 27
ENDMDL
MODEL 2
REMARK VINA RESULT:      -9.5      4.038      6.526
REMARK SMILES O=C(OCCOCCOCCOCCOC(=O)[C@H]1[C@H]2CC[C@H](C2)[C@@H]1C(=O)Nc1sc2c(c1C(=O)NC1CCCCC1)CCCC2)c1ccc(-c2c3nc(c(-c4cc(S(=O)(=O)[O-])ccc4F)c4ccc([nH]4)c(-c4cc(S(=O)(=O)[O-])ccc4F)c4nc(c(-c5cc(S(=O)(=O)[O-])ccc5F)c5ccc2[nH]5)C=C4)C=C3)cc1
REMARK SMILES IDX 10 1 9 2 8 3 7 4 6 5 5 6 4 7 3 8 2 9 1 10 46 11 47 12 108 13
REMARK SMILES IDX 48 14 107 15 49 16 50 17 51 18 101 19 52 20 106 21 100 22
REMARK SMILES IDX 102 23 53 24 105 25 99 26 98 27 54 29 86 30 66 31 85 32
REMARK SMILES IDX 67 33 70 34 84 35 103 36 68 37 69 38 83 40 104 41 71 42
REMARK SMILES IDX 55 43 56 44 64 45 57 46 63 47 65 48 62 49 58 50 59 51 60 52
REMARK SMILES IDX 61 53 87 54 88 55 96 56 89 57 95 58 97 59 94 60 90 61 91 62
REMARK SMILES IDX 92 63 93 64 72 65 73 66 81 67 74 68 80 69 82 70 79 71 75 72
REMARK SMILES IDX 76 73 77 74 78 75 11 76 12 77 13 78 14 79 15 80 16 81 17 82
REMARK SMILES IDX 18 83 19 84 24 85 20 86 23 87 22 88 21 89 25 90 26 91 27 92
REMARK SMILES IDX 28 94 29 95 32 96 30 97 31 98 45 99 42 100 44 101 43 102
REMARK SMILES IDX 33 103 34 104 35 105 36 107 37 108 41 109 38 110 40 111
REMARK SMILES IDX 39 112
REMARK H PARENT 102 28 70 39 27 93 35 106
REMARK Flexibility Score: inf
ROOT
ATOM      1  C   UNL A   1      41.066  21.806  26.260  1.00  0.00     0.188 C 
ENDROOT
BRANCH   1   2
ATOM      2  O   UNL A   1      42.171  21.584  25.390  1.00  0.00    -0.377 OA
BRANCH   2   3
ATOM      3  C   UNL A   1      42.988  20.470  25.723  1.00  0.00     0.188 C 
BRANCH   3   4
ATOM      4  C   UNL A   1      44.445  20.574  25.272  1.00  0.00     0.188 C 
BRANCH   4   5
ATOM      5  O   UNL A   1      44.565  20.818  23.868  1.00  0.00    -0.376 OA
BRANCH   5   6
ATOM      6  C   UNL A   1      44.890  22.161  23.491  1.00  0.00     0.202 C 
BRANCH   6   7
ATOM      7  C   UNL A   1      45.500  23.008  24.609  1.00  0.00     0.261 C 
BRANCH   7   8
ATOM      8  O   UNL A   1      44.563  23.918  25.199  1.00  0.00    -0.460 OA
BRANCH   8   9
ATOM      9  C   UNL A   1      44.371  24.194  26.514  1.00  0.00     0.338 C 
ATOM     10  O   UNL A   1      44.534  23.271  27.315  1.00  0.00    -0.246 OA
BRANCH   9  11
ATOM     11  C   UNL A   1      43.934  25.523  27.065  1.00  0.00     0.060 A 
ATOM     12  C   UNL A   1      43.539  26.634  26.318  1.00  0.00     0.016 A 
ATOM     13  C   UNL A   1      43.911  25.649  28.468  1.00  0.00     0.016 A 
ATOM     14  C   UNL A   1      43.209  27.839  26.910  1.00  0.00     0.010 A 
ATOM     15  C   UNL A   1      43.605  26.867  29.083  1.00  0.00     0.010 A 
ATOM     16  C   UNL A   1      43.313  27.978  28.287  1.00  0.00    -0.014 A 
BRANCH  16  17
ATOM     17  C   UNL A   1      43.464  29.362  28.767  1.00  0.00     0.031 A 
ATOM     18  C   UNL A   1      42.288  29.944  29.503  1.00  0.00     0.074 A 
ATOM     19  C   UNL A   1      44.675  29.943  28.775  1.00  0.00     0.049 A 
ATOM     20  N   UNL A   1      42.152  31.109  30.070  1.00  0.00    -0.248 NA
ATOM     21  C   UNL A   1      41.108  29.069  29.640  1.00  0.00     0.031 C 
ATOM     22  C   UNL A   1      45.903  29.330  28.263  1.00  0.00     0.029 A 
ATOM     23  N   UNL A   1      45.084  31.144  29.280  1.00  0.00    -0.354 N 
ATOM     24  C   UNL A   1      40.864  31.118  30.599  1.00  0.00     0.074 A 
ATOM     25  C   UNL A   1      40.257  29.848  30.283  1.00  0.00     0.031 C 
ATOM     26  C   UNL A   1      46.935  30.157  28.503  1.00  0.00     0.029 A 
ATOM     27  C   UNL A   1      46.428  31.380  29.115  1.00  0.00     0.049 A 
ATOM     28  H   UNL A   1      44.474  31.780  29.722  1.00  0.00     0.167 HD
ATOM     29  C   UNL A   1      40.248  32.112  31.280  1.00  0.00     0.034 A 
ATOM     30  C   UNL A   1      47.144  32.485  29.402  1.00  0.00     0.034 A 
ATOM     31  C   UNL A   1      40.902  33.363  31.560  1.00  0.00     0.049 A 
ATOM     32  C   UNL A   1      46.400  33.637  30.035  1.00  0.00     0.074 A 
ATOM     33  C   UNL A   1      40.386  34.505  32.140  1.00  0.00     0.029 A 
ATOM     34  N   UNL A   1      42.237  33.630  31.264  1.00  0.00    -0.354 N 
ATOM     35  N   UNL A   1      45.144  33.695  30.425  1.00  0.00    -0.248 NA
ATOM     36  C   UNL A   1      47.161  34.868  30.262  1.00  0.00     0.031 C 
ATOM     37  C   UNL A   1      41.388  35.483  32.127  1.00  0.00     0.029 A 
ATOM     38  C   UNL A   1      42.556  34.926  31.625  1.00  0.00     0.049 A 
ATOM     39  H   UNL A   1      42.863  32.988  30.857  1.00  0.00     0.167 HD
ATOM     40  C   UNL A   1      44.972  34.962  30.973  1.00  0.00     0.074 A 
ATOM     41  C   UNL A   1      46.262  35.622  30.878  1.00  0.00     0.031 C 
ATOM     42  C   UNL A   1      43.862  35.536  31.508  1.00  0.00     0.034 A 
BRANCH  29  43
ATOM     43  C   UNL A   1      38.789  31.908  31.616  1.00  0.00     0.023 A 
ATOM     44  C   UNL A   1      37.751  32.366  30.783  1.00  0.00     0.031 A 
ATOM     45  C   UNL A   1      38.436  31.360  32.863  1.00  0.00     0.131 A 
ATOM     46  C   UNL A   1      36.424  32.351  31.248  1.00  0.00     0.055 A 
ATOM     47  C   UNL A   1      37.108  31.267  33.279  1.00  0.00     0.041 A 
ATOM     48  F   UNL A   1      39.383  30.943  33.718  1.00  0.00    -0.206 F 
ATOM     49  C   UNL A   1      36.094  31.782  32.479  1.00  0.00     0.022 A 
BRANCH  46  50
ATOM     50  S   UNL A   1      35.158  33.247  30.302  1.00  0.00     0.124 S 
ATOM     51  O   UNL A   1      35.979  34.096  29.442  1.00  0.00    -0.237 OA
ATOM     52  O   UNL A   1      34.438  32.169  29.634  1.00  0.00    -0.237 OA
ATOM     53  O   UNL A   1      34.402  33.960  31.329  1.00  0.00    -0.744 OA
ENDBRANCH  46  50
ENDBRANCH  29  43
BRANCH  30  54
ATOM     54  C   UNL A   1      48.588  32.587  29.034  1.00  0.00     0.023 A 
ATOM     55  C   UNL A   1      49.004  33.222  27.852  1.00  0.00     0.031 A 
ATOM     56  C   UNL A   1      49.579  31.990  29.837  1.00  0.00     0.131 A 
ATOM     57  C   UNL A   1      50.362  33.204  27.485  1.00  0.00     0.055 A 
ATOM     58  C   UNL A   1      50.934  32.029  29.499  1.00  0.00     0.041 A 
ATOM     59  F   UNL A   1      49.246  31.356  30.972  1.00  0.00    -0.206 F 
ATOM     60  C   UNL A   1      51.330  32.625  28.308  1.00  0.00     0.022 A 
BRANCH  57  61
ATOM     61  S   UNL A   1      50.836  33.858  25.861  1.00  0.00     0.124 S 
ATOM     62  O   UNL A   1      49.852  34.918  25.667  1.00  0.00    -0.237 OA
ATOM     63  O   UNL A   1      52.208  34.292  26.097  1.00  0.00    -0.237 OA
ATOM     64  O   UNL A   1      50.693  32.705  24.974  1.00  0.00    -0.744 OA
ENDBRANCH  57  61
ENDBRANCH  30  54
BRANCH  42  65
ATOM     65  C   UNL A   1      44.030  36.918  32.081  1.00  0.00     0.023 A 
ATOM     66  C   UNL A   1      43.771  38.070  31.320  1.00  0.00     0.031 A 
ATOM     67  C   UNL A   1      44.468  37.078  33.407  1.00  0.00     0.131 A 
ATOM     68  C   UNL A   1      44.024  39.334  31.870  1.00  0.00     0.055 A 
ATOM     69  C   UNL A   1      44.643  38.339  33.973  1.00  0.00     0.041 A 
ATOM     70  F   UNL A   1      44.729  36.006  34.175  1.00  0.00    -0.206 F 
ATOM     71  C   UNL A   1      44.438  39.476  33.197  1.00  0.00     0.022 A 
BRANCH  68  72
ATOM     72  S   UNL A   1      43.923  40.783  30.787  1.00  0.00     0.124 S 
ATOM     73  O   UNL A   1      42.544  41.217  30.990  1.00  0.00    -0.237 OA
ATOM     74  O   UNL A   1      44.953  41.657  31.337  1.00  0.00    -0.237 OA
ATOM     75  O   UNL A   1      44.213  40.239  29.461  1.00  0.00    -0.744 OA
ENDBRANCH  68  72
ENDBRANCH  42  65
ENDBRANCH  16  17
ENDBRANCH   9  11
ENDBRANCH   8   9
ENDBRANCH   7   8
ENDBRANCH   6   7
ENDBRANCH   5   6
ENDBRANCH   4   5
ENDBRANCH   3   4
ENDBRANCH   2   3
ENDBRANCH   1   2
BRANCH   1  76
ATOM     76  C   UNL A   1      40.949  23.182  26.965  1.00  0.00     0.188 C 
BRANCH  76  77
ATOM     77  O   UNL A   1      39.857  23.959  26.508  1.00  0.00    -0.376 OA
BRANCH  77  78
ATOM     78  C   UNL A   1      38.576  23.354  26.640  1.00  0.00     0.202 C 
BRANCH  78  79
ATOM     79  C   UNL A   1      37.361  24.074  26.015  1.00  0.00     0.261 C 
BRANCH  79  80
ATOM     80  O   UNL A   1      36.076  23.427  26.214  1.00  0.00    -0.463 OA
BRANCH  80  81
ATOM     81  C   UNL A   1      34.974  24.029  25.726  1.00  0.00     0.310 C 
ATOM     82  O   UNL A   1      34.393  24.911  26.354  1.00  0.00    -0.252 OA
BRANCH  81  83
ATOM     83  C   UNL A   1      34.470  23.414  24.385  1.00  0.00     0.115 C 
ATOM     84  C   UNL A   1      34.151  21.923  24.748  1.00  0.00     0.004 C 
ATOM     85  C   UNL A   1      33.126  23.804  23.656  1.00  0.00     0.096 C 
ATOM     86  C   UNL A   1      32.924  21.787  25.688  1.00  0.00     0.005 C 
ATOM     87  C   UNL A   1      33.554  21.428  23.460  1.00  0.00     0.009 C 
ATOM     88  C   UNL A   1      32.417  22.440  23.454  1.00  0.00     0.003 C 
ATOM     89  C   UNL A   1      31.727  22.078  24.773  1.00  0.00     0.005 C 
BRANCH  85  90
ATOM     90  C   UNL A   1      32.975  24.687  22.377  1.00  0.00     0.229 C 
ATOM     91  O   UNL A   1      33.258  24.154  21.288  1.00  0.00    -0.274 OA
ATOM     92  N   UNL A   1      32.591  25.987  22.292  1.00  0.00    -0.317 N 
ATOM     93  H   UNL A   1      32.458  26.348  21.385  1.00  0.00     0.170 HD
BRANCH  92  94
ATOM     94  C   UNL A   1      32.368  26.845  23.324  1.00  0.00     0.108 A 
ATOM     95  S   UNL A   1      33.344  28.254  23.343  1.00  0.00    -0.122 S 
ATOM     96  C   UNL A   1      31.235  27.092  24.094  1.00  0.00     0.078 A 
ATOM     97  C   UNL A   1      32.925  28.439  24.985  1.00  0.00     0.011 A 
ATOM     98  C   UNL A   1      31.788  27.695  25.304  1.00  0.00    -0.019 A 
ATOM     99  C   UNL A   1      33.825  29.174  25.933  1.00  0.00     0.047 C 
ATOM    100  C   UNL A   1      31.458  27.487  26.759  1.00  0.00     0.037 C 
ATOM    101  C   UNL A   1      33.561  28.727  27.376  1.00  0.00     0.006 C 
ATOM    102  C   UNL A   1      32.062  28.593  27.640  1.00  0.00     0.005 C 
BRANCH  96 103
ATOM    103  C   UNL A   1      29.937  26.533  23.674  1.00  0.00     0.254 C 
ATOM    104  O   UNL A   1      29.764  25.314  23.587  1.00  0.00    -0.269 OA
ATOM    105  N   UNL A   1      28.918  27.316  23.180  1.00  0.00    -0.349 N 
ATOM    106  H   UNL A   1      28.186  26.825  22.740  1.00  0.00     0.164 HD
BRANCH 105 107
ATOM    107  C   UNL A   1      28.766  28.744  23.213  1.00  0.00     0.082 C 
ATOM    108  C   UNL A   1      29.664  29.511  22.246  1.00  0.00     0.025 C 
ATOM    109  C   UNL A   1      27.320  29.224  23.072  1.00  0.00     0.025 C 
ATOM    110  C   UNL A   1      29.644  30.993  22.618  1.00  0.00     0.002 C 
ATOM    111  C   UNL A   1      27.260  30.697  23.489  1.00  0.00     0.002 C 
ATOM    112  C   UNL A   1      28.227  31.565  22.679  1.00  0.00     0.000 C 
ENDBRANCH 105 107
ENDBRANCH  96 103
ENDBRANCH  92  94
ENDBRANCH  85  90
ENDBRANCH  81  83
ENDBRANCH  80  81
ENDBRANCH  79  80
ENDBRANCH  78  79
ENDBRANCH  77  78
ENDBRANCH  76  77
ENDBRANCH   1  76
TORSDOF 27
ENDMDL
MODEL 3
REMARK VINA RESULT:      -9.1      7.778     11.845
REMARK SMILES O=C(OCCOCCOCCOCCOC(=O)[C@H]1[C@H]2CC[C@H](C2)[C@@H]1C(=O)Nc1sc2c(c1C(=O)NC1CCCCC1)CCCC2)c1ccc(-c2c3nc(c(-c4cc(S(=O)(=O)[O-])ccc4F)c4ccc([nH]4)c(-c4cc(S(=O)(=O)[O-])ccc4F)c4nc(c(-c5cc(S(=O)(=O)[O-])ccc5F)c5ccc2[nH]5)C=C4)C=C3)cc1
REMARK SMILES IDX 10 1 9 2 8 3 7 4 6 5 5 6 4 7 3 8 2 9 1 10 46 11 47 12 108 13
REMARK SMILES IDX 48 14 107 15 49 16 50 17 51 18 101 19 52 20 106 21 100 22
REMARK SMILES IDX 102 23 53 24 105 25 99 26 98 27 54 29 86 30 66 31 85 32
REMARK SMILES IDX 67 33 70 34 84 35 103 36 68 37 69 38 83 40 104 41 71 42
REMARK SMILES IDX 55 43 56 44 64 45 57 46 63 47 65 48 62 49 58 50 59 51 60 52
REMARK SMILES IDX 61 53 87 54 88 55 96 56 89 57 95 58 97 59 94 60 90 61 91 62
REMARK SMILES IDX 92 63 93 64 72 65 73 66 81 67 74 68 80 69 82 70 79 71 75 72
REMARK SMILES IDX 76 73 77 74 78 75 11 76 12 77 13 78 14 79 15 80 16 81 17 82
REMARK SMILES IDX 18 83 19 84 24 85 20 86 23 87 22 88 21 89 25 90 26 91 27 92
REMARK SMILES IDX 28 94 29 95 32 96 30 97 31 98 45 99 42 100 44 101 43 102
REMARK SMILES IDX 33 103 34 104 35 105 36 107 37 108 41 109 38 110 40 111
REMARK SMILES IDX 39 112
REMARK H PARENT 102 28 70 39 27 93 35 106
REMARK Flexibility Score: inf
ROOT
ATOM      1  C   UNL A   1      41.061  21.455  27.415  1.00  0.00     0.188 C 
ENDROOT
BRANCH   1   2
ATOM      2  O   UNL A   1      41.992  22.177  28.213  1.00  0.00    -0.377 OA
BRANCH   2   3
ATOM      3  C   UNL A   1      43.186  22.566  27.547  1.00  0.00     0.188 C 
BRANCH   3   4
ATOM      4  C   UNL A   1      43.459  24.069  27.526  1.00  0.00     0.188 C 
BRANCH   4   5
ATOM      5  O   UNL A   1      43.666  24.568  26.201  1.00  0.00    -0.376 OA
BRANCH   5   6
ATOM      6  C   UNL A   1      42.499  25.052  25.525  1.00  0.00     0.202 C 
BRANCH   6   7
ATOM      7  C   UNL A   1      42.426  26.573  25.388  1.00  0.00     0.261 C 
BRANCH   7   8
ATOM      8  O   UNL A   1      43.439  27.253  26.142  1.00  0.00    -0.460 OA
BRANCH   8   9
ATOM      9  C   UNL A   1      43.284  28.071  27.214  1.00  0.00     0.338 C 
ATOM     10  O   UNL A   1      42.871  29.213  27.001  1.00  0.00    -0.246 OA
BRANCH   9  11
ATOM     11  C   UNL A   1      43.615  27.707  28.635  1.00  0.00     0.060 A 
ATOM     12  C   UNL A   1      42.700  27.352  29.628  1.00  0.00     0.016 A 
ATOM     13  C   UNL A   1      44.978  27.713  28.988  1.00  0.00     0.016 A 
ATOM     14  C   UNL A   1      43.090  27.089  30.929  1.00  0.00     0.010 A 
ATOM     15  C   UNL A   1      45.389  27.474  30.304  1.00  0.00     0.010 A 
ATOM     16  C   UNL A   1      44.425  27.223  31.284  1.00  0.00    -0.014 A 
BRANCH  16  17
ATOM     17  C   UNL A   1      44.672  27.446  32.718  1.00  0.00     0.031 A 
ATOM     18  C   UNL A   1      45.319  26.313  33.468  1.00  0.00     0.074 A 
ATOM     19  C   UNL A   1      44.569  28.682  33.233  1.00  0.00     0.049 A 
ATOM     20  N   UNL A   1      45.691  26.243  34.715  1.00  0.00    -0.248 NA
ATOM     21  C   UNL A   1      45.613  25.099  32.685  1.00  0.00     0.031 C 
ATOM     22  C   UNL A   1      44.148  29.870  32.487  1.00  0.00     0.029 A 
ATOM     23  N   UNL A   1      44.867  29.156  34.480  1.00  0.00    -0.354 N 
ATOM     24  C   UNL A   1      46.229  24.968  34.871  1.00  0.00     0.074 A 
ATOM     25  C   UNL A   1      46.131  24.298  33.598  1.00  0.00     0.031 C 
ATOM     26  C   UNL A   1      44.235  30.943  33.291  1.00  0.00     0.029 A 
ATOM     27  C   UNL A   1      44.648  30.506  34.620  1.00  0.00     0.049 A 
ATOM     28  H   UNL A   1      45.207  28.586  35.207  1.00  0.00     0.167 HD
ATOM     29  C   UNL A   1      46.747  24.412  35.991  1.00  0.00     0.034 A 
ATOM     30  C   UNL A   1      44.742  31.278  35.721  1.00  0.00     0.034 A 
ATOM     31  C   UNL A   1      46.812  25.129  37.238  1.00  0.00     0.049 A 
ATOM     32  C   UNL A   1      45.189  30.600  36.995  1.00  0.00     0.074 A 
ATOM     33  C   UNL A   1      47.205  24.678  38.482  1.00  0.00     0.029 A 
ATOM     34  N   UNL A   1      46.458  26.469  37.388  1.00  0.00    -0.354 N 
ATOM     35  N   UNL A   1      45.581  29.357  37.176  1.00  0.00    -0.248 NA
ATOM     36  C   UNL A   1      45.203  31.421  38.208  1.00  0.00     0.031 C 
ATOM     37  C   UNL A   1      47.019  25.723  39.396  1.00  0.00     0.029 A 
ATOM     38  C   UNL A   1      46.599  26.854  38.709  1.00  0.00     0.049 A 
ATOM     39  H   UNL A   1      46.152  27.056  36.660  1.00  0.00     0.167 HD
ATOM     40  C   UNL A   1      45.918  29.255  38.522  1.00  0.00     0.074 A 
ATOM     41  C   UNL A   1      45.700  30.571  39.094  1.00  0.00     0.031 C 
ATOM     42  C   UNL A   1      46.367  28.183  39.227  1.00  0.00     0.034 A 
BRANCH  29  43
ATOM     43  C   UNL A   1      47.132  22.954  35.915  1.00  0.00     0.023 A 
ATOM     44  C   UNL A   1      48.429  22.531  35.570  1.00  0.00     0.031 A 
ATOM     45  C   UNL A   1      46.139  21.968  36.066  1.00  0.00     0.131 A 
ATOM     46  C   UNL A   1      48.672  21.173  35.296  1.00  0.00     0.055 A 
ATOM     47  C   UNL A   1      46.410  20.612  35.879  1.00  0.00     0.041 A 
ATOM     48  F   UNL A   1      44.874  22.312  36.356  1.00  0.00    -0.206 F 
ATOM     49  C   UNL A   1      47.678  20.209  35.473  1.00  0.00     0.022 A 
BRANCH  46  50
ATOM     50  S   UNL A   1      50.253  20.706  34.533  1.00  0.00     0.124 S 
ATOM     51  O   UNL A   1      50.548  19.446  35.213  1.00  0.00    -0.237 OA
ATOM     52  O   UNL A   1      49.906  20.604  33.121  1.00  0.00    -0.237 OA
ATOM     53  O   UNL A   1      51.142  21.814  34.879  1.00  0.00    -0.744 OA
ENDBRANCH  46  50
ENDBRANCH  29  43
BRANCH  30  54
ATOM     54  C   UNL A   1      44.342  32.717  35.692  1.00  0.00     0.023 A 
ATOM     55  C   UNL A   1      42.995  33.109  35.746  1.00  0.00     0.031 A 
ATOM     56  C   UNL A   1      45.311  33.729  35.546  1.00  0.00     0.131 A 
ATOM     57  C   UNL A   1      42.652  34.466  35.608  1.00  0.00     0.055 A 
ATOM     58  C   UNL A   1      44.969  35.081  35.471  1.00  0.00     0.041 A 
ATOM     59  F   UNL A   1      46.615  33.420  35.474  1.00  0.00    -0.206 F 
ATOM     60  C   UNL A   1      43.630  35.455  35.486  1.00  0.00     0.022 A 
BRANCH  57  61
ATOM     61  S   UNL A   1      40.898  34.915  35.484  1.00  0.00     0.124 S 
ATOM     62  O   UNL A   1      40.248  33.734  36.041  1.00  0.00    -0.237 OA
ATOM     63  O   UNL A   1      40.837  36.126  36.295  1.00  0.00    -0.237 OA
ATOM     64  O   UNL A   1      40.699  35.117  34.050  1.00  0.00    -0.744 OA
ENDBRANCH  57  61
ENDBRANCH  30  54
BRANCH  42  65
ATOM     65  C   UNL A   1      46.706  28.426  40.675  1.00  0.00     0.023 A 
ATOM     66  C   UNL A   1      45.722  28.409  41.677  1.00  0.00     0.031 A 
ATOM     67  C   UNL A   1      48.035  28.691  41.048  1.00  0.00     0.131 A 
ATOM     68  C   UNL A   1      46.073  28.725  42.996  1.00  0.00     0.055 A 
ATOM     69  C   UNL A   1      48.389  28.928  42.374  1.00  0.00     0.041 A 
ATOM     70  F   UNL A   1      49.011  28.719  40.125  1.00  0.00    -0.206 F 
ATOM     71  C   UNL A   1      47.402  28.964  43.355  1.00  0.00     0.022 A 
BRANCH  68  72
ATOM     72  S   UNL A   1      44.747  28.941  44.213  1.00  0.00     0.124 S 
ATOM     73  O   UNL A   1      43.746  27.989  43.742  1.00  0.00    -0.237 OA
ATOM     74  O   UNL A   1      45.413  28.598  45.465  1.00  0.00    -0.237 OA
ATOM     75  O   UNL A   1      44.380  30.349  44.071  1.00  0.00    -0.744 OA
ENDBRANCH  68  72
ENDBRANCH  42  65
ENDBRANCH  16  17
ENDBRANCH   9  11
ENDBRANCH   8   9
ENDBRANCH   7   8
ENDBRANCH   6   7
ENDBRANCH   5   6
ENDBRANCH   4   5
ENDBRANCH   3   4
ENDBRANCH   2   3
ENDBRANCH   1   2
BRANCH   1  76
ATOM     76  C   UNL A   1      40.108  22.255  26.491  1.00  0.00     0.188 C 
BRANCH  76  77
ATOM     77  O   UNL A   1      39.459  23.331  27.144  1.00  0.00    -0.376 OA
BRANCH  77  78
ATOM     78  C   UNL A   1      38.523  24.054  26.354  1.00  0.00     0.202 C 
BRANCH  78  79
ATOM     79  C   UNL A   1      37.073  23.528  26.277  1.00  0.00     0.261 C 
BRANCH  79  80
ATOM     80  O   UNL A   1      36.511  23.426  24.942  1.00  0.00    -0.463 OA
BRANCH  80  81
ATOM     81  C   UNL A   1      35.384  24.112  24.667  1.00  0.00     0.310 C 
ATOM     82  O   UNL A   1      35.153  25.201  25.189  1.00  0.00    -0.252 OA
BRANCH  81  83
ATOM     83  C   UNL A   1      34.392  23.339  23.745  1.00  0.00     0.115 C 
ATOM     84  C   UNL A   1      33.811  22.218  24.673  1.00  0.00     0.004 C 
ATOM     85  C   UNL A   1      33.049  23.927  23.163  1.00  0.00     0.096 C 
ATOM     86  C   UNL A   1      32.895  22.782  25.790  1.00  0.00     0.005 C 
ATOM     87  C   UNL A   1      32.778  21.599  23.771  1.00  0.00     0.009 C 
ATOM     88  C   UNL A   1      31.984  22.885  23.591  1.00  0.00     0.003 C 
ATOM     89  C   UNL A   1      31.611  23.177  25.048  1.00  0.00     0.005 C 
BRANCH  85  90
ATOM     90  C   UNL A   1      32.789  24.395  21.697  1.00  0.00     0.229 C 
ATOM     91  O   UNL A   1      33.373  23.769  20.794  1.00  0.00    -0.274 OA
ATOM     92  N   UNL A   1      32.014  25.424  21.266  1.00  0.00    -0.317 N 
ATOM     93  H   UNL A   1      31.893  25.506  20.292  1.00  0.00     0.170 HD
BRANCH  92  94
ATOM     94  C   UNL A   1      31.386  26.356  22.034  1.00  0.00     0.108 A 
ATOM     95  S   UNL A   1      30.024  25.798  22.913  1.00  0.00    -0.122 S 
ATOM     96  C   UNL A   1      31.851  27.517  22.645  1.00  0.00     0.078 A 
ATOM     97  C   UNL A   1      29.557  27.428  23.091  1.00  0.00     0.011 A 
ATOM     98  C   UNL A   1      30.629  28.290  22.847  1.00  0.00    -0.019 A 
ATOM     99  C   UNL A   1      28.120  27.802  23.297  1.00  0.00     0.047 C 
ATOM    100  C   UNL A   1      30.334  29.754  22.651  1.00  0.00     0.037 C 
ATOM    101  C   UNL A   1      27.875  29.251  22.857  1.00  0.00     0.006 C 
ATOM    102  C   UNL A   1      29.011  30.161  23.322  1.00  0.00     0.005 C 
BRANCH  96 103
ATOM    103  C   UNL A   1      33.301  27.772  22.708  1.00  0.00     0.254 C 
ATOM    104  O   UNL A   1      34.018  27.642  21.712  1.00  0.00    -0.269 OA
ATOM    105  N   UNL A   1      33.966  27.981  23.896  1.00  0.00    -0.349 N 
ATOM    106  H   UNL A   1      34.948  27.933  23.843  1.00  0.00     0.164 HD
BRANCH 105 107
ATOM    107  C   UNL A   1      33.435  28.262  25.202  1.00  0.00     0.082 C 
ATOM    108  C   UNL A   1      32.839  29.657  25.369  1.00  0.00     0.025 C 
ATOM    109  C   UNL A   1      32.450  27.210  25.716  1.00  0.00     0.025 C 
ATOM    110  C   UNL A   1      32.626  29.931  26.857  1.00  0.00     0.002 C 
ATOM    111  C   UNL A   1      32.257  27.429  27.220  1.00  0.00     0.002 C 
ATOM    112  C   UNL A   1      31.787  28.850  27.540  1.00  0.00     0.000 C 
ENDBRANCH 105 107
ENDBRANCH  96 103
ENDBRANCH  92  94
ENDBRANCH  85  90
ENDBRANCH  81  83
ENDBRANCH  80  81
ENDBRANCH  79  80
ENDBRANCH  78  79
ENDBRANCH  77  78
ENDBRANCH  76  77
ENDBRANCH   1  76
TORSDOF 27
ENDMDL
