MODEL 1
REMARK VINA RESULT:      -4.9      0.000      0.000
REMARK SMILES O=C(N[C@@H](Cc1ccc(O)cc1)C(=O)N[C@@H](Cc1c[nH]c2ccccc12)C(=O)N[C@@H](CO)C(=O)OCCOCCOCCOCCOC(=O)c1ccc(-c2c3nc(c(-c4cc(S(=O)(=O)[O-])ccc4F)c4ccc([nH]4)c(-c4cc(S(=O)(=O)[O-])ccc4F)c4nc(c(-c5cc(S(=O)(=O)[O-])ccc5F)c5ccc2[nH]5)C=C4)C=C3)cc1)c1ccc(F)cc1
REMARK SMILES IDX 39 1 38 2 37 3 36 4 35 5 33 6 34 7 30 8 29 9 27 10 28 11
REMARK SMILES IDX 16 13 15 14 13 15 14 16 4 18 3 19 1 20 2 21 113 23 114 24
REMARK SMILES IDX 119 25 115 26 118 27 116 28 117 29 5 30 6 31 7 32 12 33 8 34
REMARK SMILES IDX 11 35 9 36 10 37 17 39 18 40 19 41 26 42 20 43 21 44 25 45
REMARK SMILES IDX 22 47 24 48 23 49 31 50 32 51 40 53 41 54 42 55 43 56 44 57
REMARK SMILES IDX 45 58 46 59 47 60 48 61 49 62 50 63 51 64 112 65 52 66
REMARK SMILES IDX 111 67 53 68 54 69 55 70 105 71 56 72 110 73 104 74 106 75
REMARK SMILES IDX 57 76 109 77 103 78 102 79 58 81 90 82 70 83 89 84 71 85
REMARK SMILES IDX 74 86 88 87 107 88 72 89 73 90 87 92 108 93 75 94 59 95
REMARK SMILES IDX 60 96 68 97 61 98 67 99 69 100 66 101 62 102 63 103 64 104
REMARK SMILES IDX 65 105 91 106 92 107 100 108 93 109 99 110 101 111 98 112
REMARK SMILES IDX 94 113 95 114 96 115 97 116 76 117 77 118 85 119 78 120
REMARK SMILES IDX 84 121 86 122 83 123 79 124 80 125 81 126 82 127
REMARK H PARENT 29 12 15 17 3 22 10 38 20 46 32 52 106 80 74 91
REMARK Flexibility Score: inf
ROOT
ATOM      1  C   UNL A   1      52.686  38.639  36.436  1.00  0.00     0.188 C 
ENDROOT
BRANCH   1   2
ATOM      2  O   UNL A   1      52.334  39.263  37.664  1.00  0.00    -0.376 OA
BRANCH   2   3
ATOM      3  C   UNL A   1      51.099  39.973  37.661  1.00  0.00     0.202 C 
BRANCH   3   4
ATOM      4  C   UNL A   1      50.913  40.941  38.835  1.00  0.00     0.261 C 
BRANCH   4   5
ATOM      5  O   UNL A   1      49.550  41.384  39.023  1.00  0.00    -0.462 OA
BRANCH   5   6
ATOM      6  C   UNL A   1      48.568  40.851  38.248  1.00  0.00     0.331 C 
ATOM      7  O   UNL A   1      48.193  39.687  38.323  1.00  0.00    -0.250 OA
BRANCH   6   8
ATOM      8  C   UNL A   1      47.976  41.892  37.251  1.00  0.00     0.218 C 
BRANCH   8   9
ATOM      9  N   UNL A   1      48.271  41.607  35.831  1.00  0.00    -0.339 N 
ATOM     10  C   UNL A   1      48.056  40.492  35.094  1.00  0.00     0.243 C 
ATOM     11  O   UNL A   1      49.090  40.027  34.591  1.00  0.00    -0.273 OA
ATOM     12  H   UNL A   1      48.693  42.349  35.341  1.00  0.00     0.164 HD
BRANCH  10  13
ATOM     13  C   UNL A   1      46.710  39.701  34.910  1.00  0.00     0.175 C 
BRANCH  13  14
ATOM     14  N   UNL A   1      46.632  38.590  35.852  1.00  0.00    -0.342 N 
ATOM     15  C   UNL A   1      47.028  37.293  35.683  1.00  0.00     0.243 C 
ATOM     16  O   UNL A   1      47.109  36.612  36.715  1.00  0.00    -0.273 OA
ATOM     17  H   UNL A   1      46.241  38.805  36.729  1.00  0.00     0.164 HD
BRANCH  15  18
ATOM     18  C   UNL A   1      47.316  36.622  34.300  1.00  0.00     0.176 C 
BRANCH  18  19
ATOM     19  N   UNL A   1      48.729  36.667  33.907  1.00  0.00    -0.340 N 
ATOM     20  O   UNL A   1      50.472  36.901  32.497  1.00  0.00    -0.269 OA
ATOM     21  C   UNL A   1      49.285  37.105  32.730  1.00  0.00     0.251 C 
ATOM     22  H   UNL A   1      49.367  36.338  34.582  1.00  0.00     0.164 HD
BRANCH  21  23
ATOM     23  C   UNL A   1      48.460  37.810  31.724  1.00  0.00     0.040 A 
ATOM     24  C   UNL A   1      47.134  38.163  32.009  1.00  0.00     0.017 A 
ATOM     25  C   UNL A   1      49.036  38.163  30.498  1.00  0.00     0.017 A 
ATOM     26  C   UNL A   1      46.366  38.811  31.041  1.00  0.00     0.040 A 
ATOM     27  C   UNL A   1      48.266  38.821  29.535  1.00  0.00     0.040 A 
ATOM     28  C   UNL A   1      46.937  39.131  29.813  1.00  0.00     0.123 A 
ATOM     29  F   UNL A   1      46.197  39.752  28.886  1.00  0.00    -0.207 F 
ENDBRANCH  21  23
ENDBRANCH  18  19
BRANCH  18  30
ATOM     30  C   UNL A   1      46.565  35.330  33.895  1.00  0.00     0.070 C 
BRANCH  30  31
ATOM     31  C   UNL A   1      45.059  35.202  33.872  1.00  0.00    -0.045 A 
ATOM     32  C   UNL A   1      44.323  36.210  33.220  1.00  0.00     0.007 A 
ATOM     33  C   UNL A   1      44.350  34.118  34.407  1.00  0.00     0.007 A 
ATOM     34  C   UNL A   1      42.929  36.218  33.238  1.00  0.00     0.046 A 
ATOM     35  C   UNL A   1      42.954  34.147  34.469  1.00  0.00     0.046 A 
ATOM     36  C   UNL A   1      42.259  35.210  33.909  1.00  0.00     0.115 A 
BRANCH  36  37
ATOM     37  O   UNL A   1      40.907  35.233  34.029  1.00  0.00    -0.508 OA
ATOM     38  H   UNL A   1      40.446  34.459  34.285  1.00  0.00     0.293 HD
ENDBRANCH  36  37
ENDBRANCH  30  31
ENDBRANCH  18  30
ENDBRANCH  15  18
ENDBRANCH  13  14
BRANCH  13  39
ATOM     39  C   UNL A   1      45.338  40.256  34.470  1.00  0.00     0.072 C 
BRANCH  39  40
ATOM     40  C   UNL A   1      45.257  41.583  33.808  1.00  0.00    -0.020 A 
ATOM     41  C   UNL A   1      46.167  41.989  32.871  1.00  0.00     0.087 A 
ATOM     42  C   UNL A   1      44.239  42.594  33.807  1.00  0.00     0.003 A 
ATOM     43  N   UNL A   1      45.875  43.238  32.434  1.00  0.00    -0.361 N 
ATOM     44  C   UNL A   1      44.682  43.631  32.975  1.00  0.00     0.046 A 
ATOM     45  C   UNL A   1      42.971  42.736  34.402  1.00  0.00     0.010 A 
ATOM     46  H   UNL A   1      46.430  43.776  31.825  1.00  0.00     0.166 HD
ATOM     47  C   UNL A   1      43.974  44.813  32.757  1.00  0.00     0.026 A 
ATOM     48  C   UNL A   1      42.226  43.902  34.164  1.00  0.00     0.001 A 
ATOM     49  C   UNL A   1      42.728  44.930  33.367  1.00  0.00     0.002 A 
ENDBRANCH  39  40
ENDBRANCH  13  39
ENDBRANCH  10  13
ENDBRANCH   8   9
BRANCH   8  50
ATOM     50  C   UNL A   1      46.458  41.909  37.477  1.00  0.00     0.193 C 
BRANCH  50  51
ATOM     51  O   UNL A   1      46.136  41.801  38.863  1.00  0.00    -0.394 OA
ATOM     52  H   UNL A   1      46.325  42.643  39.306  1.00  0.00     0.210 HD
ENDBRANCH  50  51
ENDBRANCH   8  50
ENDBRANCH   6   8
ENDBRANCH   5   6
ENDBRANCH   4   5
ENDBRANCH   3   4
ENDBRANCH   2   3
ENDBRANCH   1   2
BRANCH   1  53
ATOM     53  C   UNL A   1      53.756  37.540  36.562  1.00  0.00     0.188 C 
BRANCH  53  54
ATOM     54  O   UNL A   1      53.955  36.699  35.441  1.00  0.00    -0.377 OA
BRANCH  54  55
ATOM     55  C   UNL A   1      54.541  37.271  34.280  1.00  0.00     0.188 C 
BRANCH  55  56
ATOM     56  C   UNL A   1      54.421  36.518  32.942  1.00  0.00     0.188 C 
BRANCH  56  57
ATOM     57  O   UNL A   1      54.608  35.111  33.073  1.00  0.00    -0.376 OA
BRANCH  57  58
ATOM     58  C   UNL A   1      53.462  34.307  32.848  1.00  0.00     0.202 C 
BRANCH  58  59
ATOM     59  C   UNL A   1      53.689  32.802  33.021  1.00  0.00     0.261 C 
BRANCH  59  60
ATOM     60  O   UNL A   1      52.820  31.963  32.246  1.00  0.00    -0.460 OA
BRANCH  60  61
ATOM     61  C   UNL A   1      51.856  31.324  32.944  1.00  0.00     0.338 C 
ATOM     62  O   UNL A   1      52.019  30.661  33.956  1.00  0.00    -0.246 OA
BRANCH  61  63
ATOM     63  C   UNL A   1      50.538  31.755  32.428  1.00  0.00     0.060 A 
ATOM     64  C   UNL A   1      49.678  32.408  33.322  1.00  0.00     0.016 A 
ATOM     65  C   UNL A   1      50.170  31.587  31.087  1.00  0.00     0.016 A 
ATOM     66  C   UNL A   1      48.428  32.847  32.893  1.00  0.00     0.010 A 
ATOM     67  C   UNL A   1      48.896  31.993  30.665  1.00  0.00     0.010 A 
ATOM     68  C   UNL A   1      48.005  32.577  31.583  1.00  0.00    -0.014 A 
BRANCH  68  69
ATOM     69  C   UNL A   1      46.543  32.572  31.328  1.00  0.00     0.031 A 
ATOM     70  C   UNL A   1      45.772  31.389  31.857  1.00  0.00     0.074 A 
ATOM     71  C   UNL A   1      45.903  33.603  30.747  1.00  0.00     0.049 A 
ATOM     72  N   UNL A   1      44.485  31.164  31.870  1.00  0.00    -0.248 NA
ATOM     73  C   UNL A   1      46.576  30.313  32.464  1.00  0.00     0.031 C 
ATOM     74  C   UNL A   1      46.535  34.820  30.242  1.00  0.00     0.029 A 
ATOM     75  N   UNL A   1      44.566  33.789  30.500  1.00  0.00    -0.354 N 
ATOM     76  C   UNL A   1      44.325  29.941  32.514  1.00  0.00     0.074 A 
ATOM     77  C   UNL A   1      45.647  29.446  32.824  1.00  0.00     0.031 C 
ATOM     78  C   UNL A   1      45.582  35.628  29.740  1.00  0.00     0.029 A 
ATOM     79  C   UNL A   1      44.277  34.980  29.876  1.00  0.00     0.049 A 
ATOM     80  H   UNL A   1      43.877  33.131  30.747  1.00  0.00     0.167 HD
ATOM     81  C   UNL A   1      43.182  29.292  32.834  1.00  0.00     0.034 A 
ATOM     82  C   UNL A   1      43.093  35.479  29.463  1.00  0.00     0.034 A 
ATOM     83  C   UNL A   1      41.873  29.766  32.471  1.00  0.00     0.049 A 
ATOM     84  C   UNL A   1      41.832  34.686  29.735  1.00  0.00     0.074 A 
ATOM     85  C   UNL A   1      40.644  29.171  32.693  1.00  0.00     0.029 A 
ATOM     86  N   UNL A   1      41.625  30.950  31.787  1.00  0.00    -0.354 N 
ATOM     87  N   UNL A   1      41.693  33.534  30.352  1.00  0.00    -0.248 NA
ATOM     88  C   UNL A   1      40.569  35.273  29.271  1.00  0.00     0.031 C 
ATOM     89  C   UNL A   1      39.660  29.963  32.088  1.00  0.00     0.029 A 
ATOM     90  C   UNL A   1      40.266  31.092  31.559  1.00  0.00     0.049 A 
ATOM     91  H   UNL A   1      42.315  31.593  31.505  1.00  0.00     0.167 HD
ATOM     92  C   UNL A   1      40.322  33.283  30.386  1.00  0.00     0.074 A 
ATOM     93  C   UNL A   1      39.681  34.410  29.739  1.00  0.00     0.031 C 
ATOM     94  C   UNL A   1      39.649  32.225  30.908  1.00  0.00     0.034 A 
BRANCH  81  95
ATOM     95  C   UNL A   1      43.328  27.974  33.555  1.00  0.00     0.023 A 
ATOM     96  C   UNL A   1      43.224  27.885  34.956  1.00  0.00     0.031 A 
ATOM     97  C   UNL A   1      43.654  26.807  32.843  1.00  0.00     0.131 A 
ATOM     98  C   UNL A   1      43.521  26.677  35.604  1.00  0.00     0.055 A 
ATOM     99  C   UNL A   1      43.868  25.589  33.488  1.00  0.00     0.041 A 
ATOM    100  F   UNL A   1      43.799  26.839  31.510  1.00  0.00    -0.206 F 
ATOM    101  C   UNL A   1      43.819  25.522  34.879  1.00  0.00     0.022 A 
BRANCH  98 102
ATOM    102  S   UNL A   1      43.668  26.675  37.412  1.00  0.00     0.124 S 
ATOM    103  O   UNL A   1      43.959  28.080  37.686  1.00  0.00    -0.237 OA
ATOM    104  O   UNL A   1      42.357  26.200  37.836  1.00  0.00    -0.237 OA
ATOM    105  O   UNL A   1      44.777  25.757  37.665  1.00  0.00    -0.744 OA
ENDBRANCH  98 102
ENDBRANCH  81  95
BRANCH  82 106
ATOM    106  C   UNL A   1      43.022  36.776  28.727  1.00  0.00     0.023 A 
ATOM    107  C   UNL A   1      43.131  38.007  29.397  1.00  0.00     0.031 A 
ATOM    108  C   UNL A   1      42.755  36.803  27.346  1.00  0.00     0.131 A 
ATOM    109  C   UNL A   1      42.920  39.208  28.698  1.00  0.00     0.055 A 
ATOM    110  C   UNL A   1      42.598  38.001  26.646  1.00  0.00     0.041 A 
ATOM    111  F   UNL A   1      42.636  35.658  26.655  1.00  0.00    -0.206 F 
ATOM    112  C   UNL A   1      42.665  39.213  27.326  1.00  0.00     0.022 A 
BRANCH 109 113
ATOM    113  S   UNL A   1      42.889  40.764  29.631  1.00  0.00     0.124 S 
ATOM    114  O   UNL A   1      41.458  41.030  29.719  1.00  0.00    -0.237 OA
ATOM    115  O   UNL A   1      43.550  40.384  30.874  1.00  0.00    -0.237 OA
ATOM    116  O   UNL A   1      43.645  41.684  28.783  1.00  0.00    -0.744 OA
ENDBRANCH 109 113
ENDBRANCH  82 106
BRANCH  94 117
ATOM    117  C   UNL A   1      38.140  32.273  30.852  1.00  0.00     0.023 A 
ATOM    118  C   UNL A   1      37.377  32.893  31.855  1.00  0.00     0.031 A 
ATOM    119  C   UNL A   1      37.457  31.665  29.783  1.00  0.00     0.131 A 
ATOM    120  C   UNL A   1      35.976  32.833  31.806  1.00  0.00     0.055 A 
ATOM    121  C   UNL A   1      36.063  31.666  29.704  1.00  0.00     0.041 A 
ATOM    122  F   UNL A   1      38.134  31.059  28.795  1.00  0.00    -0.206 F 
ATOM    123  C   UNL A   1      35.315  32.236  30.729  1.00  0.00     0.022 A 
BRANCH 120 124
ATOM    124  S   UNL A   1      35.028  33.438  33.229  1.00  0.00     0.124 S 
ATOM    125  O   UNL A   1      35.229  34.880  33.138  1.00  0.00    -0.237 OA
ATOM    126  O   UNL A   1      33.681  32.962  32.929  1.00  0.00    -0.237 OA
ATOM    127  O   UNL A   1      35.673  32.793  34.371  1.00  0.00    -0.744 OA
ENDBRANCH 120 124
ENDBRANCH  94 117
ENDBRANCH  68  69
ENDBRANCH  61  63
ENDBRANCH  60  61
ENDBRANCH  59  60
ENDBRANCH  58  59
ENDBRANCH  57  58
ENDBRANCH  56  57
ENDBRANCH  55  56
ENDBRANCH  54  55
ENDBRANCH  53  54
ENDBRANCH   1  53
TORSDOF 36
ENDMDL
MODEL 2
REMARK VINA RESULT:      -4.9      4.324     11.684
REMARK SMILES O=C(N[C@@H](Cc1ccc(O)cc1)C(=O)N[C@@H](Cc1c[nH]c2ccccc12)C(=O)N[C@@H](CO)C(=O)OCCOCCOCCOCCOC(=O)c1ccc(-c2c3nc(c(-c4cc(S(=O)(=O)[O-])ccc4F)c4ccc([nH]4)c(-c4cc(S(=O)(=O)[O-])ccc4F)c4nc(c(-c5cc(S(=O)(=O)[O-])ccc5F)c5ccc2[nH]5)C=C4)C=C3)cc1)c1ccc(F)cc1
REMARK SMILES IDX 39 1 38 2 37 3 36 4 35 5 33 6 34 7 30 8 29 9 27 10 28 11
REMARK SMILES IDX 16 13 15 14 13 15 14 16 4 18 3 19 1 20 2 21 113 23 114 24
REMARK SMILES IDX 119 25 115 26 118 27 116 28 117 29 5 30 6 31 7 32 12 33 8 34
REMARK SMILES IDX 11 35 9 36 10 37 17 39 18 40 19 41 26 42 20 43 21 44 25 45
REMARK SMILES IDX 22 47 24 48 23 49 31 50 32 51 40 53 41 54 42 55 43 56 44 57
REMARK SMILES IDX 45 58 46 59 47 60 48 61 49 62 50 63 51 64 112 65 52 66
REMARK SMILES IDX 111 67 53 68 54 69 55 70 105 71 56 72 110 73 104 74 106 75
REMARK SMILES IDX 57 76 109 77 103 78 102 79 58 81 90 82 70 83 89 84 71 85
REMARK SMILES IDX 74 86 88 87 107 88 72 89 73 90 87 92 108 93 75 94 59 95
REMARK SMILES IDX 60 96 68 97 61 98 67 99 69 100 66 101 62 102 63 103 64 104
REMARK SMILES IDX 65 105 91 106 92 107 100 108 93 109 99 110 101 111 98 112
REMARK SMILES IDX 94 113 95 114 96 115 97 116 76 117 77 118 85 119 78 120
REMARK SMILES IDX 84 121 86 122 83 123 79 124 80 125 81 126 82 127
REMARK H PARENT 29 12 15 17 3 22 10 38 20 46 32 52 106 80 74 91
REMARK Flexibility Score: inf
ROOT
ATOM      1  C   UNL A   1      43.331  30.918  44.160  1.00  0.00     0.188 C 
ENDROOT
BRANCH   1   2
ATOM      2  O   UNL A   1      44.637  31.460  44.313  1.00  0.00    -0.376 OA
BRANCH   2   3
ATOM      3  C   UNL A   1      45.549  31.174  43.257  1.00  0.00     0.202 C 
BRANCH   3   4
ATOM      4  C   UNL A   1      45.549  32.197  42.116  1.00  0.00     0.261 C 
BRANCH   4   5
ATOM      5  O   UNL A   1      45.289  31.627  40.813  1.00  0.00    -0.462 OA
BRANCH   5   6
ATOM      6  C   UNL A   1      46.337  31.226  40.045  1.00  0.00     0.331 C 
ATOM      7  O   UNL A   1      47.512  31.377  40.358  1.00  0.00    -0.250 OA
BRANCH   6   8
ATOM      8  C   UNL A   1      45.871  30.554  38.719  1.00  0.00     0.218 C 
BRANCH   8   9
ATOM      9  N   UNL A   1      46.725  30.858  37.552  1.00  0.00    -0.339 N 
ATOM     10  C   UNL A   1      46.739  30.325  36.308  1.00  0.00     0.243 C 
ATOM     11  O   UNL A   1      47.835  29.833  35.996  1.00  0.00    -0.273 OA
ATOM     12  H   UNL A   1      47.393  31.565  37.704  1.00  0.00     0.164 HD
BRANCH  10  13
ATOM     13  C   UNL A   1      45.535  30.171  35.310  1.00  0.00     0.175 C 
BRANCH  13  14
ATOM     14  N   UNL A   1      44.272  30.473  35.975  1.00  0.00    -0.342 N 
ATOM     15  C   UNL A   1      43.238  29.631  36.273  1.00  0.00     0.243 C 
ATOM     16  O   UNL A   1      42.400  30.063  37.077  1.00  0.00    -0.273 OA
ATOM     17  H   UNL A   1      44.148  31.411  36.246  1.00  0.00     0.164 HD
BRANCH  15  18
ATOM     18  C   UNL A   1      43.023  28.220  35.632  1.00  0.00     0.176 C 
BRANCH  18  19
ATOM     19  N   UNL A   1      43.759  27.147  36.310  1.00  0.00    -0.340 N 
ATOM     20  O   UNL A   1      44.746  25.131  36.511  1.00  0.00    -0.269 OA
ATOM     21  C   UNL A   1      44.327  26.017  35.774  1.00  0.00     0.251 C 
ATOM     22  H   UNL A   1      43.860  27.252  37.284  1.00  0.00     0.164 HD
BRANCH  21  23
ATOM     23  C   UNL A   1      44.425  25.847  34.307  1.00  0.00     0.040 A 
ATOM     24  C   UNL A   1      44.303  24.578  33.726  1.00  0.00     0.017 A 
ATOM     25  C   UNL A   1      44.594  26.979  33.501  1.00  0.00     0.017 A 
ATOM     26  C   UNL A   1      44.416  24.435  32.343  1.00  0.00     0.040 A 
ATOM     27  C   UNL A   1      44.695  26.832  32.115  1.00  0.00     0.040 A 
ATOM     28  C   UNL A   1      44.614  25.561  31.551  1.00  0.00     0.123 A 
ATOM     29  F   UNL A   1      44.723  25.421  30.223  1.00  0.00    -0.207 F 
ENDBRANCH  21  23
ENDBRANCH  18  19
BRANCH  18  30
ATOM     30  C   UNL A   1      41.627  27.818  35.094  1.00  0.00     0.070 C 
BRANCH  30  31
ATOM     31  C   UNL A   1      40.971  28.456  33.891  1.00  0.00    -0.045 A 
ATOM     32  C   UNL A   1      40.199  29.615  34.100  1.00  0.00     0.007 A 
ATOM     33  C   UNL A   1      41.126  28.002  32.574  1.00  0.00     0.007 A 
ATOM     34  C   UNL A   1      39.482  30.207  33.061  1.00  0.00     0.046 A 
ATOM     35  C   UNL A   1      40.371  28.563  31.540  1.00  0.00     0.046 A 
ATOM     36  C   UNL A   1      39.536  29.641  31.799  1.00  0.00     0.115 A 
BRANCH  36  37
ATOM     37  O   UNL A   1      38.780  30.132  30.783  1.00  0.00    -0.508 OA
ATOM     38  H   UNL A   1      38.306  30.932  30.896  1.00  0.00     0.293 HD
ENDBRANCH  36  37
ENDBRANCH  30  31
ENDBRANCH  18  30
ENDBRANCH  15  18
ENDBRANCH  13  14
BRANCH  13  39
ATOM     39  C   UNL A   1      45.527  30.433  33.788  1.00  0.00     0.072 C 
BRANCH  39  40
ATOM     40  C   UNL A   1      46.341  31.541  33.227  1.00  0.00    -0.020 A 
ATOM     41  C   UNL A   1      47.045  31.412  32.061  1.00  0.00     0.087 A 
ATOM     42  C   UNL A   1      46.448  32.927  33.581  1.00  0.00     0.003 A 
ATOM     43  N   UNL A   1      47.709  32.560  31.777  1.00  0.00    -0.361 N 
ATOM     44  C   UNL A   1      47.347  33.518  32.683  1.00  0.00     0.046 A 
ATOM     45  C   UNL A   1      45.860  33.759  34.553  1.00  0.00     0.010 A 
ATOM     46  H   UNL A   1      48.349  32.684  31.040  1.00  0.00     0.166 HD
ATOM     47  C   UNL A   1      47.738  34.856  32.737  1.00  0.00     0.026 A 
ATOM     48  C   UNL A   1      46.212  35.118  34.600  1.00  0.00     0.001 A 
ATOM     49  C   UNL A   1      47.148  35.652  33.716  1.00  0.00     0.002 A 
ENDBRANCH  39  40
ENDBRANCH  13  39
ENDBRANCH  10  13
ENDBRANCH   8   9
BRANCH   8  50
ATOM     50  C   UNL A   1      45.851  29.040  38.972  1.00  0.00     0.193 C 
BRANCH  50  51
ATOM     51  O   UNL A   1      45.044  28.711  40.103  1.00  0.00    -0.394 OA
ATOM     52  H   UNL A   1      45.097  27.758  40.272  1.00  0.00     0.210 HD
ENDBRANCH  50  51
ENDBRANCH   8  50
ENDBRANCH   6   8
ENDBRANCH   5   6
ENDBRANCH   4   5
ENDBRANCH   3   4
ENDBRANCH   2   3
ENDBRANCH   1   2
BRANCH   1  53
ATOM     53  C   UNL A   1      42.194  31.860  44.592  1.00  0.00     0.188 C 
BRANCH  53  54
ATOM     54  O   UNL A   1      42.336  33.233  44.280  1.00  0.00    -0.377 OA
BRANCH  54  55
ATOM     55  C   UNL A   1      42.541  33.584  42.919  1.00  0.00     0.188 C 
BRANCH  55  56
ATOM     56  C   UNL A   1      41.347  33.510  41.947  1.00  0.00     0.188 C 
BRANCH  56  57
ATOM     57  O   UNL A   1      41.697  33.837  40.604  1.00  0.00    -0.376 OA
BRANCH  57  58
ATOM     58  C   UNL A   1      41.069  34.984  40.059  1.00  0.00     0.202 C 
BRANCH  58  59
ATOM     59  C   UNL A   1      39.820  34.694  39.219  1.00  0.00     0.261 C 
BRANCH  59  60
ATOM     60  O   UNL A   1      39.966  33.641  38.256  1.00  0.00    -0.460 OA
BRANCH  60  61
ATOM     61  C   UNL A   1      39.166  33.730  37.172  1.00  0.00     0.338 C 
ATOM     62  O   UNL A   1      37.995  34.075  37.168  1.00  0.00    -0.246 OA
BRANCH  61  63
ATOM     63  C   UNL A   1      39.999  33.582  35.958  1.00  0.00     0.060 A 
ATOM     64  C   UNL A   1      41.368  33.343  36.140  1.00  0.00     0.016 A 
ATOM     65  C   UNL A   1      39.452  33.610  34.669  1.00  0.00     0.016 A 
ATOM     66  C   UNL A   1      42.202  33.184  35.037  1.00  0.00     0.010 A 
ATOM     67  C   UNL A   1      40.297  33.490  33.557  1.00  0.00     0.010 A 
ATOM     68  C   UNL A   1      41.682  33.329  33.742  1.00  0.00    -0.014 A 
BRANCH  68  69
ATOM     69  C   UNL A   1      42.637  33.677  32.661  1.00  0.00     0.031 A 
ATOM     70  C   UNL A   1      43.137  35.100  32.638  1.00  0.00     0.074 A 
ATOM     71  C   UNL A   1      43.121  32.767  31.797  1.00  0.00     0.049 A 
ATOM     72  N   UNL A   1      44.042  35.659  31.879  1.00  0.00    -0.248 NA
ATOM     73  C   UNL A   1      42.530  36.014  33.622  1.00  0.00     0.031 C 
ATOM     74  C   UNL A   1      42.750  31.354  31.755  1.00  0.00     0.029 A 
ATOM     75  N   UNL A   1      44.048  32.902  30.795  1.00  0.00    -0.354 N 
ATOM     76  C   UNL A   1      44.135  36.977  32.316  1.00  0.00     0.074 A 
ATOM     77  C   UNL A   1      43.155  37.149  33.365  1.00  0.00     0.031 C 
ATOM     78  C   UNL A   1      43.444  30.752  30.770  1.00  0.00     0.029 A 
ATOM     79  C   UNL A   1      44.295  31.738  30.105  1.00  0.00     0.049 A 
ATOM     80  H   UNL A   1      44.496  33.754  30.588  1.00  0.00     0.167 HD
ATOM     81  C   UNL A   1      44.970  37.955  31.895  1.00  0.00     0.034 A 
ATOM     82  C   UNL A   1      45.114  31.507  29.057  1.00  0.00     0.034 A 
ATOM     83  C   UNL A   1      45.902  37.790  30.812  1.00  0.00     0.049 A 
ATOM     84  C   UNL A   1      45.962  32.644  28.529  1.00  0.00     0.074 A 
ATOM     85  C   UNL A   1      46.763  38.722  30.261  1.00  0.00     0.029 A 
ATOM     86  N   UNL A   1      46.081  36.610  30.099  1.00  0.00    -0.354 N 
ATOM     87  N   UNL A   1      46.047  33.884  28.956  1.00  0.00    -0.248 NA
ATOM     88  C   UNL A   1      46.839  32.340  27.391  1.00  0.00     0.031 C 
ATOM     89  C   UNL A   1      47.415  38.124  29.175  1.00  0.00     0.029 A 
ATOM     90  C   UNL A   1      47.022  36.797  29.099  1.00  0.00     0.049 A 
ATOM     91  H   UNL A   1      45.609  35.766  30.279  1.00  0.00     0.167 HD
ATOM     92  C   UNL A   1      47.019  34.494  28.163  1.00  0.00     0.074 A 
ATOM     93  C   UNL A   1      47.497  33.481  27.245  1.00  0.00     0.031 C 
ATOM     94  C   UNL A   1      47.482  35.771  28.192  1.00  0.00     0.034 A 
BRANCH  81  95
ATOM     95  C   UNL A   1      44.845  39.295  32.578  1.00  0.00     0.023 A 
ATOM     96  C   UNL A   1      44.038  40.319  32.049  1.00  0.00     0.031 A 
ATOM     97  C   UNL A   1      45.601  39.579  33.728  1.00  0.00     0.131 A 
ATOM     98  C   UNL A   1      44.068  41.600  32.620  1.00  0.00     0.055 A 
ATOM     99  C   UNL A   1      45.564  40.832  34.340  1.00  0.00     0.041 A 
ATOM    100  F   UNL A   1      46.413  38.652  34.257  1.00  0.00    -0.206 F 
ATOM    101  C   UNL A   1      44.807  41.857  33.777  1.00  0.00     0.022 A 
BRANCH  98 102
ATOM    102  S   UNL A   1      43.255  42.963  31.741  1.00  0.00     0.124 S 
ATOM    103  O   UNL A   1      41.901  42.441  31.575  1.00  0.00    -0.237 OA
ATOM    104  O   UNL A   1      43.402  44.073  32.674  1.00  0.00    -0.237 OA
ATOM    105  O   UNL A   1      44.025  43.079  30.504  1.00  0.00    -0.744 OA
ENDBRANCH  98 102
ENDBRANCH  81  95
BRANCH  82 106
ATOM    106  C   UNL A   1      45.166  30.164  28.407  1.00  0.00     0.023 A 
ATOM    107  C   UNL A   1      46.089  29.186  28.817  1.00  0.00     0.031 A 
ATOM    108  C   UNL A   1      44.347  29.869  27.303  1.00  0.00     0.131 A 
ATOM    109  C   UNL A   1      46.208  27.987  28.095  1.00  0.00     0.055 A 
ATOM    110  C   UNL A   1      44.433  28.654  26.620  1.00  0.00     0.041 A 
ATOM    111  F   UNL A   1      43.450  30.767  26.864  1.00  0.00    -0.206 F 
ATOM    112  C   UNL A   1      45.380  27.710  27.006  1.00  0.00     0.022 A 
BRANCH 109 113
ATOM    113  S   UNL A   1      47.532  26.829  28.541  1.00  0.00     0.124 S 
ATOM    114  O   UNL A   1      46.959  25.550  28.139  1.00  0.00    -0.237 OA
ATOM    115  O   UNL A   1      48.645  27.317  27.734  1.00  0.00    -0.237 OA
ATOM    116  O   UNL A   1      47.682  27.021  29.982  1.00  0.00    -0.744 OA
ENDBRANCH 109 113
ENDBRANCH  82 106
BRANCH  94 117
ATOM    117  C   UNL A   1      48.603  36.118  27.241  1.00  0.00     0.023 A 
ATOM    118  C   UNL A   1      49.954  35.971  27.596  1.00  0.00     0.031 A 
ATOM    119  C   UNL A   1      48.307  36.627  25.963  1.00  0.00     0.131 A 
ATOM    120  C   UNL A   1      50.959  36.393  26.713  1.00  0.00     0.055 A 
ATOM    121  C   UNL A   1      49.313  36.983  25.062  1.00  0.00     0.041 A 
ATOM    122  F   UNL A   1      47.035  36.788  25.568  1.00  0.00    -0.206 F 
ATOM    123  C   UNL A   1      50.648  36.883  25.443  1.00  0.00     0.022 A 
BRANCH 120 124
ATOM    124  S   UNL A   1      52.678  36.405  27.293  1.00  0.00     0.124 S 
ATOM    125  O   UNL A   1      53.340  37.202  26.265  1.00  0.00    -0.237 OA
ATOM    126  O   UNL A   1      52.557  37.032  28.606  1.00  0.00    -0.237 OA
ATOM    127  O   UNL A   1      53.044  34.991  27.313  1.00  0.00    -0.744 OA
ENDBRANCH 120 124
ENDBRANCH  94 117
ENDBRANCH  68  69
ENDBRANCH  61  63
ENDBRANCH  60  61
ENDBRANCH  59  60
ENDBRANCH  58  59
ENDBRANCH  57  58
ENDBRANCH  56  57
ENDBRANCH  55  56
ENDBRANCH  54  55
ENDBRANCH  53  54
ENDBRANCH   1  53
TORSDOF 36
ENDMDL
MODEL 3
REMARK VINA RESULT:      -4.7      4.553     11.218
REMARK SMILES O=C(N[C@@H](Cc1ccc(O)cc1)C(=O)N[C@@H](Cc1c[nH]c2ccccc12)C(=O)N[C@@H](CO)C(=O)OCCOCCOCCOCCOC(=O)c1ccc(-c2c3nc(c(-c4cc(S(=O)(=O)[O-])ccc4F)c4ccc([nH]4)c(-c4cc(S(=O)(=O)[O-])ccc4F)c4nc(c(-c5cc(S(=O)(=O)[O-])ccc5F)c5ccc2[nH]5)C=C4)C=C3)cc1)c1ccc(F)cc1
REMARK SMILES IDX 39 1 38 2 37 3 36 4 35 5 33 6 34 7 30 8 29 9 27 10 28 11
REMARK SMILES IDX 16 13 15 14 13 15 14 16 4 18 3 19 1 20 2 21 113 23 114 24
REMARK SMILES IDX 119 25 115 26 118 27 116 28 117 29 5 30 6 31 7 32 12 33 8 34
REMARK SMILES IDX 11 35 9 36 10 37 17 39 18 40 19 41 26 42 20 43 21 44 25 45
REMARK SMILES IDX 22 47 24 48 23 49 31 50 32 51 40 53 41 54 42 55 43 56 44 57
REMARK SMILES IDX 45 58 46 59 47 60 48 61 49 62 50 63 51 64 112 65 52 66
REMARK SMILES IDX 111 67 53 68 54 69 55 70 105 71 56 72 110 73 104 74 106 75
REMARK SMILES IDX 57 76 109 77 103 78 102 79 58 81 90 82 70 83 89 84 71 85
REMARK SMILES IDX 74 86 88 87 107 88 72 89 73 90 87 92 108 93 75 94 59 95
REMARK SMILES IDX 60 96 68 97 61 98 67 99 69 100 66 101 62 102 63 103 64 104
REMARK SMILES IDX 65 105 91 106 92 107 100 108 93 109 99 110 101 111 98 112
REMARK SMILES IDX 94 113 95 114 96 115 97 116 76 117 77 118 85 119 78 120
REMARK SMILES IDX 84 121 86 122 83 123 79 124 80 125 81 126 82 127
REMARK H PARENT 29 12 15 17 3 22 10 38 20 46 32 52 106 80 74 91
REMARK Flexibility Score: inf
ROOT
ATOM      1  C   UNL A   1      39.508  33.595  35.393  1.00  0.00     0.188 C 
ENDROOT
BRANCH   1   2
ATOM      2  O   UNL A   1      40.377  34.717  35.320  1.00  0.00    -0.376 OA
BRANCH   2   3
ATOM      3  C   UNL A   1      40.530  35.294  34.026  1.00  0.00     0.202 C 
BRANCH   3   4
ATOM      4  C   UNL A   1      41.772  34.824  33.259  1.00  0.00     0.261 C 
BRANCH   4   5
ATOM      5  O   UNL A   1      42.695  35.886  32.927  1.00  0.00    -0.462 OA
BRANCH   5   6
ATOM      6  C   UNL A   1      43.123  36.723  33.910  1.00  0.00     0.331 C 
ATOM      7  O   UNL A   1      42.411  37.129  34.821  1.00  0.00    -0.250 OA
BRANCH   6   8
ATOM      8  C   UNL A   1      44.624  37.106  33.743  1.00  0.00     0.218 C 
BRANCH   8   9
ATOM      9  N   UNL A   1      44.994  37.523  32.375  1.00  0.00    -0.339 N 
ATOM     10  C   UNL A   1      45.956  37.059  31.543  1.00  0.00     0.243 C 
ATOM     11  O   UNL A   1      46.761  37.933  31.186  1.00  0.00    -0.273 OA
ATOM     12  H   UNL A   1      44.452  38.258  32.007  1.00  0.00     0.164 HD
BRANCH  10  13
ATOM     13  C   UNL A   1      46.211  35.575  31.094  1.00  0.00     0.175 C 
BRANCH  13  14
ATOM     14  N   UNL A   1      47.332  34.999  31.828  1.00  0.00    -0.342 N 
ATOM     15  C   UNL A   1      48.209  34.029  31.432  1.00  0.00     0.243 C 
ATOM     16  O   UNL A   1      49.231  33.907  32.122  1.00  0.00    -0.273 OA
ATOM     17  H   UNL A   1      47.476  35.359  32.733  1.00  0.00     0.164 HD
BRANCH  15  18
ATOM     18  C   UNL A   1      47.976  33.053  30.233  1.00  0.00     0.176 C 
BRANCH  18  19
ATOM     19  N   UNL A   1      46.840  32.145  30.424  1.00  0.00    -0.340 N 
ATOM     20  O   UNL A   1      45.518  30.373  29.985  1.00  0.00    -0.269 OA
ATOM     21  C   UNL A   1      46.610  30.916  29.855  1.00  0.00     0.251 C 
ATOM     22  H   UNL A   1      46.146  32.460  31.048  1.00  0.00     0.164 HD
BRANCH  21  23
ATOM     23  C   UNL A   1      47.666  30.242  29.067  1.00  0.00     0.040 A 
ATOM     24  C   UNL A   1      47.619  30.240  27.666  1.00  0.00     0.017 A 
ATOM     25  C   UNL A   1      48.740  29.646  29.739  1.00  0.00     0.017 A 
ATOM     26  C   UNL A   1      48.614  29.583  26.941  1.00  0.00     0.040 A 
ATOM     27  C   UNL A   1      49.740  28.999  29.007  1.00  0.00     0.040 A 
ATOM     28  C   UNL A   1      49.663  28.967  27.617  1.00  0.00     0.123 A 
ATOM     29  F   UNL A   1      50.616  28.338  26.918  1.00  0.00    -0.207 F 
ENDBRANCH  21  23
ENDBRANCH  18  19
BRANCH  18  30
ATOM     30  C   UNL A   1      48.180  33.549  28.779  1.00  0.00     0.070 C 
BRANCH  30  31
ATOM     31  C   UNL A   1      49.533  33.819  28.162  1.00  0.00    -0.045 A 
ATOM     32  C   UNL A   1      50.556  32.877  28.383  1.00  0.00     0.007 A 
ATOM     33  C   UNL A   1      49.820  34.915  27.338  1.00  0.00     0.007 A 
ATOM     34  C   UNL A   1      51.857  33.099  27.933  1.00  0.00     0.046 A 
ATOM     35  C   UNL A   1      51.132  35.165  26.925  1.00  0.00     0.046 A 
ATOM     36  C   UNL A   1      52.142  34.269  27.250  1.00  0.00     0.115 A 
BRANCH  36  37
ATOM     37  O   UNL A   1      53.413  34.564  26.877  1.00  0.00    -0.508 OA
ATOM     38  H   UNL A   1      54.124  34.403  27.466  1.00  0.00     0.293 HD
ENDBRANCH  36  37
ENDBRANCH  30  31
ENDBRANCH  18  30
ENDBRANCH  15  18
ENDBRANCH  13  14
BRANCH  13  39
ATOM     39  C   UNL A   1      45.172  34.540  30.611  1.00  0.00     0.072 C 
BRANCH  39  40
ATOM     40  C   UNL A   1      44.538  34.700  29.276  1.00  0.00    -0.020 A 
ATOM     41  C   UNL A   1      44.423  33.661  28.393  1.00  0.00     0.087 A 
ATOM     42  C   UNL A   1      43.791  35.776  28.693  1.00  0.00     0.003 A 
ATOM     43  N   UNL A   1      43.819  34.074  27.251  1.00  0.00    -0.361 N 
ATOM     44  C   UNL A   1      43.399  35.365  27.412  1.00  0.00     0.046 A 
ATOM     45  C   UNL A   1      43.377  37.052  29.120  1.00  0.00     0.010 A 
ATOM     46  H   UNL A   1      43.702  33.532  26.438  1.00  0.00     0.166 HD
ATOM     47  C   UNL A   1      42.686  36.166  26.520  1.00  0.00     0.026 A 
ATOM     48  C   UNL A   1      42.624  37.858  28.250  1.00  0.00     0.001 A 
ATOM     49  C   UNL A   1      42.300  37.427  26.965  1.00  0.00     0.002 A 
ENDBRANCH  39  40
ENDBRANCH  13  39
ENDBRANCH  10  13
ENDBRANCH   8   9
BRANCH   8  50
ATOM     50  C   UNL A   1      44.903  38.247  34.732  1.00  0.00     0.193 C 
BRANCH  50  51
ATOM     51  O   UNL A   1      46.300  38.522  34.830  1.00  0.00    -0.394 OA
ATOM     52  H   UNL A   1      46.734  37.813  35.329  1.00  0.00     0.210 HD
ENDBRANCH  50  51
ENDBRANCH   8  50
ENDBRANCH   6   8
ENDBRANCH   5   6
ENDBRANCH   4   5
ENDBRANCH   3   4
ENDBRANCH   2   3
ENDBRANCH   1   2
BRANCH   1  53
ATOM     53  C   UNL A   1      38.332  33.631  34.402  1.00  0.00     0.188 C 
BRANCH  53  54
ATOM     54  O   UNL A   1      37.184  32.870  34.730  1.00  0.00    -0.377 OA
BRANCH  54  55
ATOM     55  C   UNL A   1      35.914  33.414  34.398  1.00  0.00     0.188 C 
BRANCH  55  56
ATOM     56  C   UNL A   1      35.858  34.721  33.585  1.00  0.00     0.188 C 
BRANCH  56  57
ATOM     57  O   UNL A   1      35.285  34.550  32.290  1.00  0.00    -0.376 OA
BRANCH  57  58
ATOM     58  C   UNL A   1      34.350  33.493  32.157  1.00  0.00     0.202 C 
BRANCH  58  59
ATOM     59  C   UNL A   1      34.629  32.532  30.997  1.00  0.00     0.261 C 
BRANCH  59  60
ATOM     60  O   UNL A   1      35.889  31.849  31.062  1.00  0.00    -0.460 OA
BRANCH  60  61
ATOM     61  C   UNL A   1      36.875  32.377  30.304  1.00  0.00     0.338 C 
ATOM     62  O   UNL A   1      36.753  33.280  29.492  1.00  0.00    -0.246 OA
BRANCH  61  63
ATOM     63  C   UNL A   1      38.171  31.856  30.789  1.00  0.00     0.060 A 
ATOM     64  C   UNL A   1      39.333  32.511  30.358  1.00  0.00     0.016 A 
ATOM     65  C   UNL A   1      38.256  30.792  31.697  1.00  0.00     0.016 A 
ATOM     66  C   UNL A   1      40.583  32.074  30.789  1.00  0.00     0.010 A 
ATOM     67  C   UNL A   1      39.515  30.326  32.100  1.00  0.00     0.010 A 
ATOM     68  C   UNL A   1      40.681  30.936  31.603  1.00  0.00    -0.014 A 
BRANCH  68  69
ATOM     69  C   UNL A   1      41.975  30.209  31.603  1.00  0.00     0.031 A 
ATOM     70  C   UNL A   1      42.846  30.386  32.821  1.00  0.00     0.074 A 
ATOM     71  C   UNL A   1      42.329  29.356  30.625  1.00  0.00     0.049 A 
ATOM     72  N   UNL A   1      43.971  29.804  33.140  1.00  0.00    -0.248 NA
ATOM     73  C   UNL A   1      42.366  31.354  33.824  1.00  0.00     0.031 C 
ATOM     74  C   UNL A   1      41.548  29.067  29.425  1.00  0.00     0.029 A 
ATOM     75  N   UNL A   1      43.442  28.562  30.503  1.00  0.00    -0.354 N 
ATOM     76  C   UNL A   1      44.314  30.310  34.390  1.00  0.00     0.074 A 
ATOM     77  C   UNL A   1      43.310  31.287  34.745  1.00  0.00     0.031 C 
ATOM     78  C   UNL A   1      42.211  28.158  28.684  1.00  0.00     0.029 A 
ATOM     79  C   UNL A   1      43.467  27.814  29.349  1.00  0.00     0.049 A 
ATOM     80  H   UNL A   1      44.157  28.531  31.179  1.00  0.00     0.167 HD
ATOM     81  C   UNL A   1      45.361  29.982  35.182  1.00  0.00     0.034 A 
ATOM     82  C   UNL A   1      44.403  26.955  28.891  1.00  0.00     0.034 A 
ATOM     83  C   UNL A   1      46.387  29.050  34.795  1.00  0.00     0.049 A 
ATOM     84  C   UNL A   1      45.623  26.683  29.745  1.00  0.00     0.074 A 
ATOM     85  C   UNL A   1      47.523  28.676  35.488  1.00  0.00     0.029 A 
ATOM     86  N   UNL A   1      46.406  28.354  33.591  1.00  0.00    -0.354 N 
ATOM     87  N   UNL A   1      45.932  27.162  30.929  1.00  0.00    -0.248 NA
ATOM     88  C   UNL A   1      46.609  25.738  29.204  1.00  0.00     0.031 C 
ATOM     89  C   UNL A   1      48.261  27.804  34.678  1.00  0.00     0.029 A 
ATOM     90  C   UNL A   1      47.547  27.571  33.513  1.00  0.00     0.049 A 
ATOM     91  H   UNL A   1      45.712  28.411  32.896  1.00  0.00     0.167 HD
ATOM     92  C   UNL A   1      47.127  26.541  31.291  1.00  0.00     0.074 A 
ATOM     93  C   UNL A   1      47.472  25.647  30.204  1.00  0.00     0.031 C 
ATOM     94  C   UNL A   1      47.871  26.688  32.418  1.00  0.00     0.034 A 
BRANCH  81  95
ATOM     95  C   UNL A   1      45.461  30.698  36.506  1.00  0.00     0.023 A 
ATOM     96  C   UNL A   1      46.150  31.919  36.634  1.00  0.00     0.031 A 
ATOM     97  C   UNL A   1      44.931  30.116  37.671  1.00  0.00     0.131 A 
ATOM     98  C   UNL A   1      46.358  32.476  37.904  1.00  0.00     0.055 A 
ATOM     99  C   UNL A   1      45.071  30.718  38.922  1.00  0.00     0.041 A 
ATOM    100  F   UNL A   1      44.293  28.937  37.615  1.00  0.00    -0.206 F 
ATOM    101  C   UNL A   1      45.803  31.897  39.047  1.00  0.00     0.022 A 
BRANCH  98 102
ATOM    102  S   UNL A   1      47.497  33.879  38.061  1.00  0.00     0.124 S 
ATOM    103  O   UNL A   1      48.033  33.675  39.405  1.00  0.00    -0.237 OA
ATOM    104  O   UNL A   1      48.427  33.657  36.961  1.00  0.00    -0.237 OA
ATOM    105  O   UNL A   1      46.626  35.044  37.918  1.00  0.00    -0.744 OA
ENDBRANCH  98 102
ENDBRANCH  81  95
BRANCH  82 106
ATOM    106  C   UNL A   1      44.257  26.303  27.556  1.00  0.00     0.023 A 
ATOM    107  C   UNL A   1      43.502  25.129  27.392  1.00  0.00     0.031 A 
ATOM    108  C   UNL A   1      44.946  26.802  26.436  1.00  0.00     0.131 A 
ATOM    109  C   UNL A   1      43.499  24.464  26.154  1.00  0.00     0.055 A 
ATOM    110  C   UNL A   1      44.898  26.164  25.194  1.00  0.00     0.041 A 
ATOM    111  F   UNL A   1      45.686  27.917  26.535  1.00  0.00    -0.206 F 
ATOM    112  C   UNL A   1      44.183  24.979  25.052  1.00  0.00     0.022 A 
BRANCH 109 113
ATOM    113  S   UNL A   1      42.664  22.857  26.030  1.00  0.00     0.124 S 
ATOM    114  O   UNL A   1      42.992  22.455  24.668  1.00  0.00    -0.237 OA
ATOM    115  O   UNL A   1      43.308  22.099  27.097  1.00  0.00    -0.237 OA
ATOM    116  O   UNL A   1      41.259  23.185  26.264  1.00  0.00    -0.744 OA
ENDBRANCH 109 113
ENDBRANCH  82 106
BRANCH  94 117
ATOM    117  C   UNL A   1      49.097  25.815  32.552  1.00  0.00     0.023 A 
ATOM    118  C   UNL A   1      49.038  24.532  33.123  1.00  0.00     0.031 A 
ATOM    119  C   UNL A   1      50.348  26.289  32.119  1.00  0.00     0.131 A 
ATOM    120  C   UNL A   1      50.217  23.796  33.310  1.00  0.00     0.055 A 
ATOM    121  C   UNL A   1      51.509  25.524  32.247  1.00  0.00     0.041 A 
ATOM    122  F   UNL A   1      50.465  27.506  31.565  1.00  0.00    -0.206 F 
ATOM    123  C   UNL A   1      51.450  24.277  32.862  1.00  0.00     0.022 A 
BRANCH 120 124
ATOM    124  S   UNL A   1      50.138  22.250  34.257  1.00  0.00     0.124 S 
ATOM    125  O   UNL A   1      51.244  22.411  35.194  1.00  0.00    -0.237 OA
ATOM    126  O   UNL A   1      48.799  22.311  34.835  1.00  0.00    -0.237 OA
ATOM    127  O   UNL A   1      50.329  21.217  33.243  1.00  0.00    -0.744 OA
ENDBRANCH 120 124
ENDBRANCH  94 117
ENDBRANCH  68  69
ENDBRANCH  61  63
ENDBRANCH  60  61
ENDBRANCH  59  60
ENDBRANCH  58  59
ENDBRANCH  57  58
ENDBRANCH  56  57
ENDBRANCH  55  56
ENDBRANCH  54  55
ENDBRANCH  53  54
ENDBRANCH   1  53
TORSDOF 36
ENDMDL
