MODEL 1
REMARK VINA RESULT:     -10.4      0.000      0.000
REMARK SMILES CCc1ccc2c(c1)C=C(C(=O)OCCOCCOCCOCCOC(=O)c1ccc(-c3c4nc(c(-c5cc(S(=O)(=O)[O-])ccc5F)c5ccc([nH]5)c(-c5cc(S(=O)(=O)[O-])ccc5F)c5nc(c(-c6cc(S(=O)(=O)[O-])ccc6F)c6ccc3[nH]6)C=C5)C=C4)cc1)[C@H](C(F)(F)F)O2
REMARK SMILES IDX 20 1 19 2 18 3 17 4 16 5 15 6 14 7 13 8 11 9 12 10 10 11
REMARK SMILES IDX 3 12 4 13 8 14 5 15 7 16 6 17 9 18 96 19 91 20 2 21 1 22
REMARK SMILES IDX 92 23 93 24 94 25 95 26 21 27 22 28 23 29 24 30 25 31 26 32
REMARK SMILES IDX 27 33 28 34 29 35 90 36 30 37 89 38 31 39 32 40 33 41 83 42
REMARK SMILES IDX 34 43 88 44 82 45 84 46 35 47 87 48 81 49 80 50 36 52 68 53
REMARK SMILES IDX 48 54 67 55 49 56 52 57 66 58 85 59 50 60 51 61 65 63 86 64
REMARK SMILES IDX 53 65 37 66 38 67 46 68 39 69 45 70 47 71 44 72 40 73 41 74
REMARK SMILES IDX 42 75 43 76 69 77 70 78 78 79 71 80 77 81 79 82 76 83 72 84
REMARK SMILES IDX 73 85 74 86 75 87 54 88 55 89 63 90 56 91 62 92 64 93 61 94
REMARK SMILES IDX 57 95 58 96 59 97 60 98
REMARK H PARENT 84 51 52 62
REMARK Flexibility Score: inf
ROOT
ATOM      1  C   UNL A   1      30.983  29.373  24.031  1.00  0.00     0.188 C 
ENDROOT
BRANCH   1   2
ATOM      2  O   UNL A   1      30.978  28.181  23.243  1.00  0.00    -0.377 OA
BRANCH   2   3
ATOM      3  C   UNL A   1      29.748  27.537  22.965  1.00  0.00     0.188 C 
BRANCH   3   4
ATOM      4  C   UNL A   1      29.384  26.332  23.853  1.00  0.00     0.188 C 
BRANCH   4   5
ATOM      5  O   UNL A   1      30.012  26.347  25.121  1.00  0.00    -0.376 OA
BRANCH   5   6
ATOM      6  C   UNL A   1      29.778  25.284  26.028  1.00  0.00     0.202 C 
BRANCH   6   7
ATOM      7  C   UNL A   1      30.653  24.020  25.982  1.00  0.00     0.261 C 
BRANCH   7   8
ATOM      8  O   UNL A   1      32.020  24.209  25.593  1.00  0.00    -0.460 OA
BRANCH   8   9
ATOM      9  C   UNL A   1      32.426  23.668  24.425  1.00  0.00     0.338 C 
ATOM     10  O   UNL A   1      32.187  24.092  23.311  1.00  0.00    -0.246 OA
BRANCH   9  11
ATOM     11  C   UNL A   1      33.363  22.559  24.709  1.00  0.00     0.087 C 
ATOM     12  C   UNL A   1      34.593  17.883  24.615  1.00  0.00    -0.047 A 
ATOM     13  C   UNL A   1      35.940  18.266  24.701  1.00  0.00     0.007 A 
ATOM     14  C   UNL A   1      33.599  18.877  24.638  1.00  0.00     0.015 A 
ATOM     15  C   UNL A   1      36.289  19.610  24.824  1.00  0.00     0.047 A 
ATOM     16  C   UNL A   1      33.948  20.231  24.718  1.00  0.00     0.018 A 
ATOM     17  C   UNL A   1      35.297  20.583  24.834  1.00  0.00     0.128 A 
ATOM     18  C   UNL A   1      32.960  21.290  24.524  1.00  0.00     0.027 C 
ATOM     19  O   UNL A   1      35.723  21.884  24.862  1.00  0.00    -0.475 OA
ATOM     20  C   UNL A   1      34.729  22.851  25.294  1.00  0.00     0.316 C 
BRANCH  12  21
ATOM     21  C   UNL A   1      34.224  16.437  24.378  1.00  0.00     0.032 C 
ATOM     22  C   UNL A   1      32.808  16.080  24.811  1.00  0.00     0.009 C 
ENDBRANCH  12  21
BRANCH  20  23
ATOM     23  C   UNL A   1      35.337  24.252  25.117  1.00  0.00     0.430 C 
ATOM     24  F   UNL A   1      35.130  24.746  23.875  1.00  0.00    -0.167 F 
ATOM     25  F   UNL A   1      34.725  25.131  25.960  1.00  0.00    -0.167 F 
ATOM     26  F   UNL A   1      36.655  24.300  25.388  1.00  0.00    -0.167 F 
ENDBRANCH  20  23
ENDBRANCH   9  11
ENDBRANCH   8   9
ENDBRANCH   7   8
ENDBRANCH   6   7
ENDBRANCH   5   6
ENDBRANCH   4   5
ENDBRANCH   3   4
ENDBRANCH   2   3
ENDBRANCH   1   2
BRANCH   1  27
ATOM     27  C   UNL A   1      32.005  29.623  25.171  1.00  0.00     0.188 C 
BRANCH  27  28
ATOM     28  O   UNL A   1      31.487  30.286  26.315  1.00  0.00    -0.376 OA
BRANCH  28  29
ATOM     29  C   UNL A   1      31.142  31.653  26.185  1.00  0.00     0.202 C 
BRANCH  29  30
ATOM     30  C   UNL A   1      31.974  32.635  27.021  1.00  0.00     0.261 C 
BRANCH  30  31
ATOM     31  O   UNL A   1      33.211  32.120  27.536  1.00  0.00    -0.460 OA
BRANCH  31  32
ATOM     32  C   UNL A   1      34.091  33.026  28.017  1.00  0.00     0.338 C 
ATOM     33  O   UNL A   1      33.859  34.194  28.288  1.00  0.00    -0.246 OA
BRANCH  32  34
ATOM     34  C   UNL A   1      35.341  32.315  28.350  1.00  0.00     0.060 A 
ATOM     35  C   UNL A   1      35.293  30.935  28.588  1.00  0.00     0.016 A 
ATOM     36  C   UNL A   1      36.554  33.005  28.412  1.00  0.00     0.016 A 
ATOM     37  C   UNL A   1      36.457  30.250  28.932  1.00  0.00     0.010 A 
ATOM     38  C   UNL A   1      37.716  32.318  28.775  1.00  0.00     0.010 A 
ATOM     39  C   UNL A   1      37.666  30.945  29.073  1.00  0.00    -0.014 A 
BRANCH  39  40
ATOM     40  C   UNL A   1      38.820  30.271  29.717  1.00  0.00     0.031 A 
ATOM     41  C   UNL A   1      39.187  30.669  31.122  1.00  0.00     0.074 A 
ATOM     42  C   UNL A   1      39.495  29.292  29.089  1.00  0.00     0.049 A 
ATOM     43  N   UNL A   1      40.147  30.224  31.890  1.00  0.00    -0.248 NA
ATOM     44  C   UNL A   1      38.355  31.713  31.740  1.00  0.00     0.031 C 
ATOM     45  C   UNL A   1      39.204  28.794  27.745  1.00  0.00     0.029 A 
ATOM     46  N   UNL A   1      40.567  28.540  29.501  1.00  0.00    -0.354 N 
ATOM     47  C   UNL A   1      40.037  30.932  33.082  1.00  0.00     0.074 A 
ATOM     48  C   UNL A   1      38.945  31.868  32.915  1.00  0.00     0.031 C 
ATOM     49  C   UNL A   1      40.076  27.816  27.445  1.00  0.00     0.029 A 
ATOM     50  C   UNL A   1      41.010  27.645  28.557  1.00  0.00     0.049 A 
ATOM     51  H   UNL A   1      40.978  28.633  30.390  1.00  0.00     0.167 HD
ATOM     52  C   UNL A   1      40.770  30.804  34.215  1.00  0.00     0.034 A 
ATOM     53  C   UNL A   1      42.061  26.799  28.582  1.00  0.00     0.034 A 
ATOM     54  C   UNL A   1      41.867  29.878  34.358  1.00  0.00     0.049 A 
ATOM     55  C   UNL A   1      42.918  26.735  29.825  1.00  0.00     0.074 A 
ATOM     56  C   UNL A   1      42.674  29.661  35.462  1.00  0.00     0.029 A 
ATOM     57  N   UNL A   1      42.322  29.023  33.362  1.00  0.00    -0.354 N 
ATOM     58  N   UNL A   1      42.798  27.402  30.952  1.00  0.00    -0.248 NA
ATOM     59  C   UNL A   1      44.042  25.791  29.804  1.00  0.00     0.031 C 
ATOM     60  C   UNL A   1      43.666  28.741  35.106  1.00  0.00     0.029 A 
ATOM     61  C   UNL A   1      43.420  28.305  33.814  1.00  0.00     0.049 A 
ATOM     62  H   UNL A   1      41.924  28.938  32.465  1.00  0.00     0.167 HD
ATOM     63  C   UNL A   1      43.810  26.928  31.785  1.00  0.00     0.074 A 
ATOM     64  C   UNL A   1      44.513  25.907  31.036  1.00  0.00     0.031 C 
ATOM     65  C   UNL A   1      44.125  27.297  33.054  1.00  0.00     0.034 A 
BRANCH  52  66
ATOM     66  C   UNL A   1      40.440  31.730  35.363  1.00  0.00     0.023 A 
ATOM     67  C   UNL A   1      39.444  31.422  36.307  1.00  0.00     0.031 A 
ATOM     68  C   UNL A   1      41.113  32.958  35.498  1.00  0.00     0.131 A 
ATOM     69  C   UNL A   1      39.101  32.356  37.297  1.00  0.00     0.055 A 
ATOM     70  C   UNL A   1      40.828  33.846  36.537  1.00  0.00     0.041 A 
ATOM     71  F   UNL A   1      42.054  33.324  34.612  1.00  0.00    -0.206 F 
ATOM     72  C   UNL A   1      39.806  33.554  37.436  1.00  0.00     0.022 A 
BRANCH  69  73
ATOM     73  S   UNL A   1      37.622  32.053  38.302  1.00  0.00     0.124 S 
ATOM     74  O   UNL A   1      36.725  33.107  37.832  1.00  0.00    -0.237 OA
ATOM     75  O   UNL A   1      37.259  30.692  37.927  1.00  0.00    -0.237 OA
ATOM     76  O   UNL A   1      38.100  32.217  39.674  1.00  0.00    -0.744 OA
ENDBRANCH  69  73
ENDBRANCH  52  66
BRANCH  53  77
ATOM     77  C   UNL A   1      42.391  25.962  27.390  1.00  0.00     0.023 A 
ATOM     78  C   UNL A   1      41.988  24.620  27.305  1.00  0.00     0.031 A 
ATOM     79  C   UNL A   1      43.177  26.480  26.344  1.00  0.00     0.131 A 
ATOM     80  C   UNL A   1      42.413  23.828  26.227  1.00  0.00     0.055 A 
ATOM     81  C   UNL A   1      43.546  25.705  25.243  1.00  0.00     0.041 A 
ATOM     82  F   UNL A   1      43.596  27.754  26.375  1.00  0.00    -0.206 F 
ATOM     83  C   UNL A   1      43.176  24.365  25.188  1.00  0.00     0.022 A 
BRANCH  80  84
ATOM     84  S   UNL A   1      42.039  22.053  26.251  1.00  0.00     0.124 S 
ATOM     85  O   UNL A   1      42.455  21.681  27.598  1.00  0.00    -0.237 OA
ATOM     86  O   UNL A   1      40.602  22.043  25.996  1.00  0.00    -0.237 OA
ATOM     87  O   UNL A   1      42.864  21.517  25.171  1.00  0.00    -0.744 OA
ENDBRANCH  80  84
ENDBRANCH  53  77
BRANCH  65  88
ATOM     88  C   UNL A   1      45.252  26.546  33.729  1.00  0.00     0.023 A 
ATOM     89  C   UNL A   1      45.062  25.279  34.308  1.00  0.00     0.031 A 
ATOM     90  C   UNL A   1      46.530  27.127  33.828  1.00  0.00     0.131 A 
ATOM     91  C   UNL A   1      46.102  24.674  35.029  1.00  0.00     0.055 A 
ATOM     92  C   UNL A   1      47.585  26.484  34.477  1.00  0.00     0.041 A 
ATOM     93  F   UNL A   1      46.776  28.336  33.299  1.00  0.00    -0.206 F 
ATOM     94  C   UNL A   1      47.369  25.258  35.101  1.00  0.00     0.022 A 
BRANCH  91  95
ATOM     95  S   UNL A   1      45.737  23.182  35.995  1.00  0.00     0.124 S 
ATOM     96  O   UNL A   1      46.843  22.305  35.625  1.00  0.00    -0.237 OA
ATOM     97  O   UNL A   1      45.752  23.685  37.364  1.00  0.00    -0.237 OA
ATOM     98  O   UNL A   1      44.425  22.766  35.501  1.00  0.00    -0.744 OA
ENDBRANCH  91  95
ENDBRANCH  65  88
ENDBRANCH  39  40
ENDBRANCH  32  34
ENDBRANCH  31  32
ENDBRANCH  30  31
ENDBRANCH  29  30
ENDBRANCH  28  29
ENDBRANCH  27  28
ENDBRANCH   1  27
TORSDOF 25
ENDMDL
MODEL 2
REMARK VINA RESULT:     -10.4      4.694     10.756
REMARK SMILES CCc1ccc2c(c1)C=C(C(=O)OCCOCCOCCOCCOC(=O)c1ccc(-c3c4nc(c(-c5cc(S(=O)(=O)[O-])ccc5F)c5ccc([nH]5)c(-c5cc(S(=O)(=O)[O-])ccc5F)c5nc(c(-c6cc(S(=O)(=O)[O-])ccc6F)c6ccc3[nH]6)C=C5)C=C4)cc1)[C@H](C(F)(F)F)O2
REMARK SMILES IDX 20 1 19 2 18 3 17 4 16 5 15 6 14 7 13 8 11 9 12 10 10 11
REMARK SMILES IDX 3 12 4 13 8 14 5 15 7 16 6 17 9 18 96 19 91 20 2 21 1 22
REMARK SMILES IDX 92 23 93 24 94 25 95 26 21 27 22 28 23 29 24 30 25 31 26 32
REMARK SMILES IDX 27 33 28 34 29 35 90 36 30 37 89 38 31 39 32 40 33 41 83 42
REMARK SMILES IDX 34 43 88 44 82 45 84 46 35 47 87 48 81 49 80 50 36 52 68 53
REMARK SMILES IDX 48 54 67 55 49 56 52 57 66 58 85 59 50 60 51 61 65 63 86 64
REMARK SMILES IDX 53 65 37 66 38 67 46 68 39 69 45 70 47 71 44 72 40 73 41 74
REMARK SMILES IDX 42 75 43 76 69 77 70 78 78 79 71 80 77 81 79 82 76 83 72 84
REMARK SMILES IDX 73 85 74 86 75 87 54 88 55 89 63 90 56 91 62 92 64 93 61 94
REMARK SMILES IDX 57 95 58 96 59 97 60 98
REMARK H PARENT 84 51 52 62
REMARK Flexibility Score: inf
ROOT
ATOM      1  C   UNL A   1      35.714  23.189  26.181  1.00  0.00     0.188 C 
ENDROOT
BRANCH   1   2
ATOM      2  O   UNL A   1      34.500  22.572  26.614  1.00  0.00    -0.377 OA
BRANCH   2   3
ATOM      3  C   UNL A   1      33.866  21.623  25.777  1.00  0.00     0.188 C 
BRANCH   3   4
ATOM      4  C   UNL A   1      32.802  22.164  24.803  1.00  0.00     0.188 C 
BRANCH   4   5
ATOM      5  O   UNL A   1      33.287  22.384  23.492  1.00  0.00    -0.376 OA
BRANCH   5   6
ATOM      6  C   UNL A   1      33.687  23.685  23.104  1.00  0.00     0.202 C 
BRANCH   6   7
ATOM      7  C   UNL A   1      32.936  24.427  21.986  1.00  0.00     0.261 C 
BRANCH   7   8
ATOM      8  O   UNL A   1      32.399  25.712  22.327  1.00  0.00    -0.460 OA
BRANCH   8   9
ATOM      9  C   UNL A   1      31.337  25.753  23.158  1.00  0.00     0.338 C 
ATOM     10  O   UNL A   1      30.425  24.950  23.207  1.00  0.00    -0.246 OA
BRANCH   9  11
ATOM     11  C   UNL A   1      31.533  26.847  24.134  1.00  0.00     0.087 C 
ATOM     12  C   UNL A   1      34.223  29.275  27.338  1.00  0.00    -0.047 A 
ATOM     13  C   UNL A   1      33.408  30.396  27.127  1.00  0.00     0.007 A 
ATOM     14  C   UNL A   1      33.925  28.079  26.661  1.00  0.00     0.015 A 
ATOM     15  C   UNL A   1      32.308  30.325  26.274  1.00  0.00     0.047 A 
ATOM     16  C   UNL A   1      32.847  28.016  25.770  1.00  0.00     0.018 A 
ATOM     17  C   UNL A   1      32.031  29.140  25.602  1.00  0.00     0.128 A 
ATOM     18  C   UNL A   1      32.644  26.865  24.892  1.00  0.00     0.027 C 
ATOM     19  O   UNL A   1      30.993  29.176  24.710  1.00  0.00    -0.475 OA
ATOM     20  C   UNL A   1      30.447  27.881  24.344  1.00  0.00     0.316 C 
BRANCH  12  21
ATOM     21  C   UNL A   1      35.471  29.384  28.182  1.00  0.00     0.032 C 
ATOM     22  C   UNL A   1      36.686  29.908  27.428  1.00  0.00     0.009 C 
ENDBRANCH  12  21
BRANCH  20  23
ATOM     23  C   UNL A   1      29.408  28.113  23.235  1.00  0.00     0.430 C 
ATOM     24  F   UNL A   1      29.943  27.993  21.999  1.00  0.00    -0.167 F 
ATOM     25  F   UNL A   1      28.440  27.155  23.302  1.00  0.00    -0.167 F 
ATOM     26  F   UNL A   1      28.787  29.304  23.326  1.00  0.00    -0.167 F 
ENDBRANCH  20  23
ENDBRANCH   9  11
ENDBRANCH   8   9
ENDBRANCH   7   8
ENDBRANCH   6   7
ENDBRANCH   5   6
ENDBRANCH   4   5
ENDBRANCH   3   4
ENDBRANCH   2   3
ENDBRANCH   1   2
BRANCH   1  27
ATOM     27  C   UNL A   1      36.647  22.555  25.117  1.00  0.00     0.188 C 
BRANCH  27  28
ATOM     28  O   UNL A   1      37.709  21.767  25.633  1.00  0.00    -0.376 OA
BRANCH  28  29
ATOM     29  C   UNL A   1      37.878  20.462  25.111  1.00  0.00     0.202 C 
BRANCH  29  30
ATOM     30  C   UNL A   1      39.143  19.721  25.561  1.00  0.00     0.261 C 
BRANCH  30  31
ATOM     31  O   UNL A   1      40.334  20.517  25.647  1.00  0.00    -0.460 OA
BRANCH  31  32
ATOM     32  C   UNL A   1      40.977  20.517  26.836  1.00  0.00     0.338 C 
ATOM     33  O   UNL A   1      41.489  19.557  27.388  1.00  0.00    -0.246 OA
BRANCH  32  34
ATOM     34  C   UNL A   1      41.132  21.920  27.269  1.00  0.00     0.060 A 
ATOM     35  C   UNL A   1      40.566  22.937  26.489  1.00  0.00     0.016 A 
ATOM     36  C   UNL A   1      41.820  22.227  28.446  1.00  0.00     0.016 A 
ATOM     37  C   UNL A   1      40.725  24.270  26.865  1.00  0.00     0.010 A 
ATOM     38  C   UNL A   1      41.995  23.565  28.809  1.00  0.00     0.010 A 
ATOM     39  C   UNL A   1      41.480  24.594  28.000  1.00  0.00    -0.014 A 
BRANCH  39  40
ATOM     40  C   UNL A   1      41.887  26.003  28.224  1.00  0.00     0.031 A 
ATOM     41  C   UNL A   1      43.232  26.448  27.713  1.00  0.00     0.074 A 
ATOM     42  C   UNL A   1      41.061  26.881  28.821  1.00  0.00     0.049 A 
ATOM     43  N   UNL A   1      43.803  27.621  27.786  1.00  0.00    -0.248 NA
ATOM     44  C   UNL A   1      44.038  25.425  27.030  1.00  0.00     0.031 C 
ATOM     45  C   UNL A   1      39.721  26.575  29.317  1.00  0.00     0.029 A 
ATOM     46  N   UNL A   1      41.231  28.212  29.108  1.00  0.00    -0.354 N 
ATOM     47  C   UNL A   1      45.037  27.481  27.159  1.00  0.00     0.074 A 
ATOM     48  C   UNL A   1      45.146  26.095  26.754  1.00  0.00     0.031 C 
ATOM     49  C   UNL A   1      39.188  27.690  29.848  1.00  0.00     0.029 A 
ATOM     50  C   UNL A   1      40.162  28.777  29.764  1.00  0.00     0.049 A 
ATOM     51  H   UNL A   1      42.042  28.716  28.867  1.00  0.00     0.167 HD
ATOM     52  C   UNL A   1      45.984  28.422  26.929  1.00  0.00     0.034 A 
ATOM     53  C   UNL A   1      39.999  30.024  30.254  1.00  0.00     0.034 A 
ATOM     54  C   UNL A   1      45.867  29.796  27.355  1.00  0.00     0.049 A 
ATOM     55  C   UNL A   1      41.106  31.035  30.063  1.00  0.00     0.074 A 
ATOM     56  C   UNL A   1      46.762  30.835  27.172  1.00  0.00     0.029 A 
ATOM     57  N   UNL A   1      44.792  30.321  28.063  1.00  0.00    -0.354 N 
ATOM     58  N   UNL A   1      42.265  30.893  29.458  1.00  0.00    -0.248 NA
ATOM     59  C   UNL A   1      40.874  32.378  30.607  1.00  0.00     0.031 C 
ATOM     60  C   UNL A   1      46.270  31.962  27.840  1.00  0.00     0.029 A 
ATOM     61  C   UNL A   1      45.020  31.658  28.355  1.00  0.00     0.049 A 
ATOM     62  H   UNL A   1      43.986  29.817  28.321  1.00  0.00     0.167 HD
ATOM     63  C   UNL A   1      42.880  32.142  29.518  1.00  0.00     0.074 A 
ATOM     64  C   UNL A   1      41.955  33.024  30.198  1.00  0.00     0.031 C 
ATOM     65  C   UNL A   1      44.096  32.528  29.048  1.00  0.00     0.034 A 
BRANCH  52  66
ATOM     66  C   UNL A   1      47.251  27.978  26.236  1.00  0.00     0.023 A 
ATOM     67  C   UNL A   1      47.420  28.097  24.844  1.00  0.00     0.031 A 
ATOM     68  C   UNL A   1      48.297  27.397  26.976  1.00  0.00     0.131 A 
ATOM     69  C   UNL A   1      48.571  27.579  24.230  1.00  0.00     0.055 A 
ATOM     70  C   UNL A   1      49.477  26.962  26.370  1.00  0.00     0.041 A 
ATOM     71  F   UNL A   1      48.185  27.229  28.303  1.00  0.00    -0.206 F 
ATOM     72  C   UNL A   1      49.614  27.037  24.986  1.00  0.00     0.022 A 
BRANCH  69  73
ATOM     73  S   UNL A   1      48.621  27.481  22.420  1.00  0.00     0.124 S 
ATOM     74  O   UNL A   1      49.908  28.106  22.125  1.00  0.00    -0.237 OA
ATOM     75  O   UNL A   1      48.539  26.044  22.180  1.00  0.00    -0.237 OA
ATOM     76  O   UNL A   1      47.452  28.251  22.002  1.00  0.00    -0.744 OA
ENDBRANCH  69  73
ENDBRANCH  52  66
BRANCH  53  77
ATOM     77  C   UNL A   1      38.760  30.389  31.002  1.00  0.00     0.023 A 
ATOM     78  C   UNL A   1      37.810  31.269  30.458  1.00  0.00     0.031 A 
ATOM     79  C   UNL A   1      38.540  29.911  32.307  1.00  0.00     0.131 A 
ATOM     80  C   UNL A   1      36.715  31.683  31.231  1.00  0.00     0.055 A 
ATOM     81  C   UNL A   1      37.417  30.279  33.050  1.00  0.00     0.041 A 
ATOM     82  F   UNL A   1      39.417  29.073  32.881  1.00  0.00    -0.206 F 
ATOM     83  C   UNL A   1      36.503  31.183  32.517  1.00  0.00     0.022 A 
BRANCH  80  84
ATOM     84  S   UNL A   1      35.620  32.970  30.570  1.00  0.00     0.124 S 
ATOM     85  O   UNL A   1      35.303  33.735  31.770  1.00  0.00    -0.237 OA
ATOM     86  O   UNL A   1      36.483  33.630  29.596  1.00  0.00    -0.237 OA
ATOM     87  O   UNL A   1      34.509  32.210  30.000  1.00  0.00    -0.744 OA
ENDBRANCH  80  84
ENDBRANCH  53  77
BRANCH  65  88
ATOM     88  C   UNL A   1      44.465  33.986  29.209  1.00  0.00     0.023 A 
ATOM     89  C   UNL A   1      43.843  35.000  28.459  1.00  0.00     0.031 A 
ATOM     90  C   UNL A   1      45.485  34.363  30.103  1.00  0.00     0.131 A 
ATOM     91  C   UNL A   1      44.302  36.323  28.553  1.00  0.00     0.055 A 
ATOM     92  C   UNL A   1      45.882  35.692  30.252  1.00  0.00     0.041 A 
ATOM     93  F   UNL A   1      46.120  33.441  30.845  1.00  0.00    -0.206 F 
ATOM     94  C   UNL A   1      45.304  36.679  29.459  1.00  0.00     0.022 A 
BRANCH  91  95
ATOM     95  S   UNL A   1      43.672  37.546  27.371  1.00  0.00     0.124 S 
ATOM     96  O   UNL A   1      43.043  36.697  26.364  1.00  0.00    -0.237 OA
ATOM     97  O   UNL A   1      42.765  38.337  28.195  1.00  0.00    -0.237 OA
ATOM     98  O   UNL A   1      44.877  38.246  26.926  1.00  0.00    -0.744 OA
ENDBRANCH  91  95
ENDBRANCH  65  88
ENDBRANCH  39  40
ENDBRANCH  32  34
ENDBRANCH  31  32
ENDBRANCH  30  31
ENDBRANCH  29  30
ENDBRANCH  28  29
ENDBRANCH  27  28
ENDBRANCH   1  27
TORSDOF 25
ENDMDL
MODEL 3
REMARK VINA RESULT:     -10.2      2.202      7.766
REMARK SMILES CCc1ccc2c(c1)C=C(C(=O)OCCOCCOCCOCCOC(=O)c1ccc(-c3c4nc(c(-c5cc(S(=O)(=O)[O-])ccc5F)c5ccc([nH]5)c(-c5cc(S(=O)(=O)[O-])ccc5F)c5nc(c(-c6cc(S(=O)(=O)[O-])ccc6F)c6ccc3[nH]6)C=C5)C=C4)cc1)[C@H](C(F)(F)F)O2
REMARK SMILES IDX 20 1 19 2 18 3 17 4 16 5 15 6 14 7 13 8 11 9 12 10 10 11
REMARK SMILES IDX 3 12 4 13 8 14 5 15 7 16 6 17 9 18 96 19 91 20 2 21 1 22
REMARK SMILES IDX 92 23 93 24 94 25 95 26 21 27 22 28 23 29 24 30 25 31 26 32
REMARK SMILES IDX 27 33 28 34 29 35 90 36 30 37 89 38 31 39 32 40 33 41 83 42
REMARK SMILES IDX 34 43 88 44 82 45 84 46 35 47 87 48 81 49 80 50 36 52 68 53
REMARK SMILES IDX 48 54 67 55 49 56 52 57 66 58 85 59 50 60 51 61 65 63 86 64
REMARK SMILES IDX 53 65 37 66 38 67 46 68 39 69 45 70 47 71 44 72 40 73 41 74
REMARK SMILES IDX 42 75 43 76 69 77 70 78 78 79 71 80 77 81 79 82 76 83 72 84
REMARK SMILES IDX 73 85 74 86 75 87 54 88 55 89 63 90 56 91 62 92 64 93 61 94
REMARK SMILES IDX 57 95 58 96 59 97 60 98
REMARK H PARENT 84 51 52 62
REMARK Flexibility Score: inf
ROOT
ATOM      1  C   UNL A   1      31.890  29.742  25.012  1.00  0.00     0.188 C 
ENDROOT
BRANCH   1   2
ATOM      2  O   UNL A   1      30.681  29.870  24.262  1.00  0.00    -0.377 OA
BRANCH   2   3
ATOM      3  C   UNL A   1      30.562  29.209  23.015  1.00  0.00     0.188 C 
BRANCH   3   4
ATOM      4  C   UNL A   1      30.374  27.681  23.061  1.00  0.00     0.188 C 
BRANCH   4   5
ATOM      5  O   UNL A   1      29.198  27.270  23.733  1.00  0.00    -0.376 OA
BRANCH   5   6
ATOM      6  C   UNL A   1      29.172  26.015  24.388  1.00  0.00     0.202 C 
BRANCH   6   7
ATOM      7  C   UNL A   1      30.430  25.482  25.094  1.00  0.00     0.261 C 
BRANCH   7   8
ATOM      8  O   UNL A   1      30.770  24.113  24.836  1.00  0.00    -0.460 OA
BRANCH   8   9
ATOM      9  C   UNL A   1      31.650  23.855  23.847  1.00  0.00     0.338 C 
ATOM     10  O   UNL A   1      31.756  24.460  22.797  1.00  0.00    -0.246 OA
BRANCH   9  11
ATOM     11  C   UNL A   1      32.598  22.816  24.305  1.00  0.00     0.087 C 
ATOM     12  C   UNL A   1      34.265  18.276  24.337  1.00  0.00    -0.047 A 
ATOM     13  C   UNL A   1      35.510  18.768  24.756  1.00  0.00     0.007 A 
ATOM     14  C   UNL A   1      33.201  19.178  24.157  1.00  0.00     0.015 A 
ATOM     15  C   UNL A   1      35.688  20.127  25.008  1.00  0.00     0.047 A 
ATOM     16  C   UNL A   1      33.388  20.550  24.369  1.00  0.00     0.018 A 
ATOM     17  C   UNL A   1      34.631  21.009  24.816  1.00  0.00     0.128 A 
ATOM     18  C   UNL A   1      32.375  21.529  23.983  1.00  0.00     0.027 C 
ATOM     19  O   UNL A   1      34.910  22.338  24.993  1.00  0.00    -0.475 OA
ATOM     20  C   UNL A   1      33.753  23.189  25.210  1.00  0.00     0.316 C 
BRANCH  12  21
ATOM     21  C   UNL A   1      34.104  16.820  23.966  1.00  0.00     0.032 C 
ATOM     22  C   UNL A   1      34.337  15.856  25.122  1.00  0.00     0.009 C 
ENDBRANCH  12  21
BRANCH  20  23
ATOM     23  C   UNL A   1      34.247  24.645  25.235  1.00  0.00     0.430 C 
ATOM     24  F   UNL A   1      35.575  24.731  25.475  1.00  0.00    -0.167 F 
ATOM     25  F   UNL A   1      34.065  25.215  24.010  1.00  0.00    -0.167 F 
ATOM     26  F   UNL A   1      33.594  25.415  26.127  1.00  0.00    -0.167 F 
ENDBRANCH  20  23
ENDBRANCH   9  11
ENDBRANCH   8   9
ENDBRANCH   7   8
ENDBRANCH   6   7
ENDBRANCH   5   6
ENDBRANCH   4   5
ENDBRANCH   3   4
ENDBRANCH   2   3
ENDBRANCH   1   2
BRANCH   1  27
ATOM     27  C   UNL A   1      31.928  29.788  26.562  1.00  0.00     0.188 C 
BRANCH  27  28
ATOM     28  O   UNL A   1      33.224  29.745  27.138  1.00  0.00    -0.376 OA
BRANCH  28  29
ATOM     29  C   UNL A   1      33.870  30.977  27.405  1.00  0.00     0.202 C 
BRANCH  29  30
ATOM     30  C   UNL A   1      32.945  32.177  27.647  1.00  0.00     0.261 C 
BRANCH  30  31
ATOM     31  O   UNL A   1      33.555  33.470  27.511  1.00  0.00    -0.460 OA
BRANCH  31  32
ATOM     32  C   UNL A   1      33.523  34.271  28.599  1.00  0.00     0.338 C 
ATOM     33  O   UNL A   1      32.650  35.075  28.887  1.00  0.00    -0.246 OA
BRANCH  32  34
ATOM     34  C   UNL A   1      34.628  33.870  29.492  1.00  0.00     0.060 A 
ATOM     35  C   UNL A   1      35.947  34.126  29.097  1.00  0.00     0.016 A 
ATOM     36  C   UNL A   1      34.360  33.257  30.719  1.00  0.00     0.016 A 
ATOM     37  C   UNL A   1      37.005  33.730  29.913  1.00  0.00     0.010 A 
ATOM     38  C   UNL A   1      35.424  32.844  31.526  1.00  0.00     0.010 A 
ATOM     39  C   UNL A   1      36.752  33.045  31.108  1.00  0.00    -0.014 A 
BRANCH  39  40
ATOM     40  C   UNL A   1      37.873  32.377  31.814  1.00  0.00     0.031 A 
ATOM     41  C   UNL A   1      38.577  31.241  31.121  1.00  0.00     0.074 A 
ATOM     42  C   UNL A   1      38.290  32.801  33.020  1.00  0.00     0.049 A 
ATOM     43  N   UNL A   1      39.579  30.507  31.531  1.00  0.00    -0.248 NA
ATOM     44  C   UNL A   1      38.077  30.885  29.784  1.00  0.00     0.031 C 
ATOM     45  C   UNL A   1      37.714  33.918  33.767  1.00  0.00     0.029 A 
ATOM     46  N   UNL A   1      39.301  32.342  33.827  1.00  0.00    -0.354 N 
ATOM     47  C   UNL A   1      39.831  29.604  30.505  1.00  0.00     0.074 A 
ATOM     48  C   UNL A   1      38.846  29.853  29.474  1.00  0.00     0.031 C 
ATOM     49  C   UNL A   1      38.382  34.058  34.925  1.00  0.00     0.029 A 
ATOM     50  C   UNL A   1      39.407  33.020  35.019  1.00  0.00     0.049 A 
ATOM     51  H   UNL A   1      39.894  31.598  33.576  1.00  0.00     0.167 HD
ATOM     52  C   UNL A   1      40.803  28.662  30.423  1.00  0.00     0.034 A 
ATOM     53  C   UNL A   1      40.227  32.811  36.071  1.00  0.00     0.034 A 
ATOM     54  C   UNL A   1      41.767  28.415  31.468  1.00  0.00     0.049 A 
ATOM     55  C   UNL A   1      41.247  31.699  35.993  1.00  0.00     0.074 A 
ATOM     56  C   UNL A   1      42.798  27.491  31.489  1.00  0.00     0.029 A 
ATOM     57  N   UNL A   1      41.812  29.086  32.685  1.00  0.00    -0.354 N 
ATOM     58  N   UNL A   1      41.484  30.856  35.012  1.00  0.00    -0.248 NA
ATOM     59  C   UNL A   1      42.120  31.521  37.160  1.00  0.00     0.031 C 
ATOM     60  C   UNL A   1      43.408  27.544  32.747  1.00  0.00     0.029 A 
ATOM     61  C   UNL A   1      42.828  28.570  33.476  1.00  0.00     0.049 A 
ATOM     62  H   UNL A   1      41.210  29.819  32.947  1.00  0.00     0.167 HD
ATOM     63  C   UNL A   1      42.559  30.076  35.432  1.00  0.00     0.074 A 
ATOM     64  C   UNL A   1      42.934  30.564  36.744  1.00  0.00     0.031 C 
ATOM     65  C   UNL A   1      43.186  29.054  34.791  1.00  0.00     0.034 A 
BRANCH  52  66
ATOM     66  C   UNL A   1      40.829  27.796  29.185  1.00  0.00     0.023 A 
ATOM     67  C   UNL A   1      41.763  28.000  28.153  1.00  0.00     0.031 A 
ATOM     68  C   UNL A   1      39.883  26.768  29.020  1.00  0.00     0.131 A 
ATOM     69  C   UNL A   1      41.686  27.238  26.977  1.00  0.00     0.055 A 
ATOM     70  C   UNL A   1      39.867  25.956  27.885  1.00  0.00     0.041 A 
ATOM     71  F   UNL A   1      38.948  26.542  29.956  1.00  0.00    -0.206 F 
ATOM     72  C   UNL A   1      40.762  26.198  26.847  1.00  0.00     0.022 A 
BRANCH  69  73
ATOM     73  S   UNL A   1      42.706  27.724  25.557  1.00  0.00     0.124 S 
ATOM     74  O   UNL A   1      43.985  28.019  26.200  1.00  0.00    -0.237 OA
ATOM     75  O   UNL A   1      42.672  26.530  24.721  1.00  0.00    -0.237 OA
ATOM     76  O   UNL A   1      42.007  28.887  25.015  1.00  0.00    -0.744 OA
ENDBRANCH  69  73
ENDBRANCH  52  66
BRANCH  53  77
ATOM     77  C   UNL A   1      40.107  33.645  37.303  1.00  0.00     0.023 A 
ATOM     78  C   UNL A   1      39.546  33.130  38.483  1.00  0.00     0.031 A 
ATOM     79  C   UNL A   1      40.492  34.999  37.296  1.00  0.00     0.131 A 
ATOM     80  C   UNL A   1      39.340  33.972  39.587  1.00  0.00     0.055 A 
ATOM     81  C   UNL A   1      40.342  35.816  38.417  1.00  0.00     0.041 A 
ATOM     82  F   UNL A   1      41.028  35.547  36.195  1.00  0.00    -0.206 F 
ATOM     83  C   UNL A   1      39.748  35.307  39.568  1.00  0.00     0.022 A 
BRANCH  80  84
ATOM     84  S   UNL A   1      38.435  33.323  41.019  1.00  0.00     0.124 S 
ATOM     85  O   UNL A   1      38.909  31.944  41.069  1.00  0.00    -0.237 OA
ATOM     86  O   UNL A   1      38.897  34.199  42.091  1.00  0.00    -0.237 OA
ATOM     87  O   UNL A   1      37.034  33.490  40.641  1.00  0.00    -0.744 OA
ENDBRANCH  80  84
ENDBRANCH  53  77
BRANCH  65  88
ATOM     88  C   UNL A   1      44.379  28.435  35.485  1.00  0.00     0.023 A 
ATOM     89  C   UNL A   1      44.244  27.365  36.387  1.00  0.00     0.031 A 
ATOM     90  C   UNL A   1      45.670  28.951  35.268  1.00  0.00     0.131 A 
ATOM     91  C   UNL A   1      45.362  26.903  37.099  1.00  0.00     0.055 A 
ATOM     92  C   UNL A   1      46.791  28.433  35.918  1.00  0.00     0.041 A 
ATOM     93  F   UNL A   1      45.865  29.974  34.420  1.00  0.00    -0.206 F 
ATOM     94  C   UNL A   1      46.638  27.417  36.856  1.00  0.00     0.022 A 
BRANCH  91  95
ATOM     95  S   UNL A   1      45.103  25.723  38.452  1.00  0.00     0.124 S 
ATOM     96  O   UNL A   1      44.236  26.479  39.351  1.00  0.00    -0.237 OA
ATOM     97  O   UNL A   1      44.482  24.594  37.767  1.00  0.00    -0.237 OA
ATOM     98  O   UNL A   1      46.453  25.476  38.956  1.00  0.00    -0.744 OA
ENDBRANCH  91  95
ENDBRANCH  65  88
ENDBRANCH  39  40
ENDBRANCH  32  34
ENDBRANCH  31  32
ENDBRANCH  30  31
ENDBRANCH  29  30
ENDBRANCH  28  29
ENDBRANCH  27  28
ENDBRANCH   1  27
TORSDOF 25
ENDMDL
