MODEL 1
REMARK VINA RESULT:      -8.8      0.000      0.000
REMARK SMILES C[C@](NC(=O)/C=C/c1ccco1)(C(=O)OCCOCCOCCOCCOC(=O)c1ccc(-c2c3nc(c(-c4cc(S(=O)(=O)[O-])ccc4F)c4ccc([nH]4)c(-c4cc(S(=O)(=O)[O-])ccc4F)c4nc(c(-c5cc(S(=O)(=O)[O-])ccc5F)c5ccc2[nH]5)C=C4)C=C3)cc1)C(F)(F)F
REMARK SMILES IDX 21 1 20 2 19 3 18 4 17 5 16 6 15 7 13 8 14 9 2 10 1 11 93 12
REMARK SMILES IDX 94 13 95 14 96 15 3 16 4 17 5 19 6 20 7 21 8 22 9 23 12 24
REMARK SMILES IDX 10 25 11 26 22 27 23 28 24 29 25 30 26 31 27 32 28 33 29 34
REMARK SMILES IDX 30 35 31 36 92 37 32 38 91 39 33 40 34 41 35 42 85 43 36 44
REMARK SMILES IDX 90 45 84 46 86 47 37 48 89 49 83 50 82 51 38 53 70 54 50 55
REMARK SMILES IDX 69 56 51 57 54 58 68 59 87 60 52 61 53 62 67 64 88 65 55 66
REMARK SMILES IDX 39 67 40 68 48 69 41 70 47 71 49 72 46 73 42 74 43 75 44 76
REMARK SMILES IDX 45 77 71 78 72 79 80 80 73 81 79 82 81 83 78 84 74 85 75 86
REMARK SMILES IDX 76 87 77 88 56 89 57 90 65 91 58 92 64 93 66 94 63 95 59 96
REMARK SMILES IDX 60 97 61 98 62 99
REMARK H PARENT 3 18 86 52 54 63
REMARK Flexibility Score: inf
ROOT
ATOM      1  O   UNL A   1      33.498  30.749  27.296  1.00  0.00    -0.377 OA
ENDROOT
BRANCH   1   2
ATOM      2  C   UNL A   1      34.675  29.985  27.463  1.00  0.00     0.188 C 
BRANCH   2   3
ATOM      3  C   UNL A   1      34.640  28.591  26.797  1.00  0.00     0.188 C 
BRANCH   3   4
ATOM      4  O   UNL A   1      33.488  27.765  26.902  1.00  0.00    -0.376 OA
BRANCH   4   5
ATOM      5  C   UNL A   1      33.087  26.981  25.789  1.00  0.00     0.202 C 
BRANCH   5   6
ATOM      6  C   UNL A   1      33.755  25.620  25.501  1.00  0.00     0.261 C 
BRANCH   6   7
ATOM      7  O   UNL A   1      33.248  24.874  24.369  1.00  0.00    -0.461 OA
BRANCH   7   8
ATOM      8  C   UNL A   1      32.245  23.984  24.592  1.00  0.00     0.341 C 
ATOM      9  O   UNL A   1      31.110  24.322  24.911  1.00  0.00    -0.249 OA
BRANCH   8  10
ATOM     10  C   UNL A   1      32.658  22.504  24.386  1.00  0.00     0.231 C 
ATOM     11  C   UNL A   1      31.785  21.634  25.298  1.00  0.00     0.058 C 
BRANCH  10  12
ATOM     12  C   UNL A   1      32.218  22.190  22.933  1.00  0.00     0.422 C 
ATOM     13  F   UNL A   1      32.202  20.857  22.691  1.00  0.00    -0.168 F 
ATOM     14  F   UNL A   1      30.936  22.601  22.731  1.00  0.00    -0.168 F 
ATOM     15  F   UNL A   1      32.963  22.775  21.976  1.00  0.00    -0.168 F 
ENDBRANCH  10  12
BRANCH  10  16
ATOM     16  N   UNL A   1      34.127  22.163  24.518  1.00  0.00    -0.329 N 
ATOM     17  C   UNL A   1      34.836  21.070  24.892  1.00  0.00     0.245 C 
ATOM     18  H   UNL A   1      34.709  22.918  24.270  1.00  0.00     0.165 HD
ATOM     19  O   UNL A   1      36.062  21.090  24.836  1.00  0.00    -0.270 OA
BRANCH  17  20
ATOM     20  C   UNL A   1      34.124  19.832  25.200  1.00  0.00     0.075 C 
ATOM     21  C   UNL A   1      34.094  18.812  24.337  1.00  0.00     0.053 C 
BRANCH  21  22
ATOM     22  C   UNL A   1      33.653  17.554  24.808  1.00  0.00     0.126 A 
ATOM     23  C   UNL A   1      32.449  17.176  25.379  1.00  0.00     0.050 A 
ATOM     24  O   UNL A   1      34.453  16.436  24.737  1.00  0.00    -0.465 OA
ATOM     25  C   UNL A   1      32.524  15.788  25.655  1.00  0.00     0.042 A 
ATOM     26  C   UNL A   1      33.765  15.384  25.236  1.00  0.00     0.195 A 
ENDBRANCH  21  22
ENDBRANCH  17  20
ENDBRANCH  10  16
ENDBRANCH   8  10
ENDBRANCH   7   8
ENDBRANCH   6   7
ENDBRANCH   5   6
ENDBRANCH   4   5
ENDBRANCH   3   4
ENDBRANCH   2   3
ENDBRANCH   1   2
BRANCH   1  27
ATOM     27  C   UNL A   1      33.604  32.116  27.680  1.00  0.00     0.188 C 
BRANCH  27  28
ATOM     28  C   UNL A   1      32.381  33.011  27.393  1.00  0.00     0.188 C 
BRANCH  28  29
ATOM     29  O   UNL A   1      32.435  34.281  28.038  1.00  0.00    -0.376 OA
BRANCH  29  30
ATOM     30  C   UNL A   1      33.689  34.805  28.450  1.00  0.00     0.202 C 
BRANCH  30  31
ATOM     31  C   UNL A   1      34.058  34.737  29.944  1.00  0.00     0.261 C 
BRANCH  31  32
ATOM     32  O   UNL A   1      33.486  35.736  30.796  1.00  0.00    -0.460 OA
BRANCH  32  33
ATOM     33  C   UNL A   1      33.074  35.340  32.016  1.00  0.00     0.338 C 
ATOM     34  O   UNL A   1      31.917  35.265  32.402  1.00  0.00    -0.246 OA
BRANCH  33  35
ATOM     35  C   UNL A   1      34.236  34.790  32.746  1.00  0.00     0.060 A 
ATOM     36  C   UNL A   1      35.469  35.444  32.621  1.00  0.00     0.016 A 
ATOM     37  C   UNL A   1      34.122  33.634  33.524  1.00  0.00     0.016 A 
ATOM     38  C   UNL A   1      36.608  34.899  33.204  1.00  0.00     0.010 A 
ATOM     39  C   UNL A   1      35.272  33.074  34.089  1.00  0.00     0.010 A 
ATOM     40  C   UNL A   1      36.528  33.672  33.875  1.00  0.00    -0.014 A 
BRANCH  40  41
ATOM     41  C   UNL A   1      37.778  32.897  34.067  1.00  0.00     0.031 A 
ATOM     42  C   UNL A   1      38.626  33.227  35.270  1.00  0.00     0.074 A 
ATOM     43  C   UNL A   1      38.108  31.873  33.261  1.00  0.00     0.049 A 
ATOM     44  N   UNL A   1      39.740  32.681  35.683  1.00  0.00    -0.248 NA
ATOM     45  C   UNL A   1      38.144  34.326  36.124  1.00  0.00     0.031 C 
ATOM     46  C   UNL A   1      37.331  31.421  32.109  1.00  0.00     0.029 A 
ATOM     47  N   UNL A   1      39.181  31.019  33.301  1.00  0.00    -0.354 N 
ATOM     48  C   UNL A   1      40.096  33.376  36.834  1.00  0.00     0.074 A 
ATOM     49  C   UNL A   1      39.105  34.411  37.028  1.00  0.00     0.031 C 
ATOM     50  C   UNL A   1      37.953  30.364  31.554  1.00  0.00     0.029 A 
ATOM     51  C   UNL A   1      39.186  30.089  32.289  1.00  0.00     0.049 A 
ATOM     52  H   UNL A   1      39.881  31.069  33.991  1.00  0.00     0.167 HD
ATOM     53  C   UNL A   1      41.149  33.166  37.662  1.00  0.00     0.034 A 
ATOM     54  C   UNL A   1      40.093  29.137  31.987  1.00  0.00     0.034 A 
ATOM     55  C   UNL A   1      42.133  32.134  37.449  1.00  0.00     0.049 A 
ATOM     56  C   UNL A   1      41.308  28.978  32.874  1.00  0.00     0.074 A 
ATOM     57  C   UNL A   1      43.236  31.822  38.224  1.00  0.00     0.029 A 
ATOM     58  N   UNL A   1      42.141  31.252  36.375  1.00  0.00    -0.354 N 
ATOM     59  N   UNL A   1      41.636  29.639  33.961  1.00  0.00    -0.248 NA
ATOM     60  C   UNL A   1      42.265  27.930  32.498  1.00  0.00     0.031 C 
ATOM     61  C   UNL A   1      43.957  30.816  37.573  1.00  0.00     0.029 A 
ATOM     62  C   UNL A   1      43.250  30.423  36.448  1.00  0.00     0.049 A 
ATOM     63  H   UNL A   1      41.459  31.221  35.665  1.00  0.00     0.167 HD
ATOM     64  C   UNL A   1      42.811  29.049  34.426  1.00  0.00     0.074 A 
ATOM     65  C   UNL A   1      43.125  27.978  33.504  1.00  0.00     0.031 C 
ATOM     66  C   UNL A   1      43.555  29.356  35.521  1.00  0.00     0.034 A 
BRANCH  53  67
ATOM     67  C   UNL A   1      41.320  34.117  38.824  1.00  0.00     0.023 A 
ATOM     68  C   UNL A   1      40.749  33.871  40.085  1.00  0.00     0.031 A 
ATOM     69  C   UNL A   1      42.030  35.319  38.650  1.00  0.00     0.131 A 
ATOM     70  C   UNL A   1      40.829  34.844  41.093  1.00  0.00     0.055 A 
ATOM     71  C   UNL A   1      42.185  36.242  39.686  1.00  0.00     0.041 A 
ATOM     72  F   UNL A   1      42.573  35.626  37.461  1.00  0.00    -0.206 F 
ATOM     73  C   UNL A   1      41.569  36.015  40.912  1.00  0.00     0.022 A 
BRANCH  70  74
ATOM     74  S   UNL A   1      39.816  34.635  42.584  1.00  0.00     0.124 S 
ATOM     75  O   UNL A   1      40.490  33.518  43.243  1.00  0.00    -0.237 OA
ATOM     76  O   UNL A   1      39.942  35.932  43.236  1.00  0.00    -0.237 OA
ATOM     77  O   UNL A   1      38.489  34.328  42.055  1.00  0.00    -0.744 OA
ENDBRANCH  70  74
ENDBRANCH  53  67
BRANCH  54  78
ATOM     78  C   UNL A   1      39.914  28.269  30.786  1.00  0.00     0.023 A 
ATOM     79  C   UNL A   1      40.569  28.555  29.577  1.00  0.00     0.031 A 
ATOM     80  C   UNL A   1      39.027  27.177  30.810  1.00  0.00     0.131 A 
ATOM     81  C   UNL A   1      40.285  27.796  28.430  1.00  0.00     0.055 A 
ATOM     82  C   UNL A   1      38.794  26.387  29.684  1.00  0.00     0.041 A 
ATOM     83  F   UNL A   1      38.370  26.861  31.938  1.00  0.00    -0.206 F 
ATOM     84  C   UNL A   1      39.415  26.705  28.480  1.00  0.00     0.022 A 
BRANCH  81  85
ATOM     85  S   UNL A   1      40.995  28.317  26.845  1.00  0.00     0.124 S 
ATOM     86  O   UNL A   1      40.944  27.078  26.077  1.00  0.00    -0.237 OA
ATOM     87  O   UNL A   1      40.072  29.367  26.430  1.00  0.00    -0.237 OA
ATOM     88  O   UNL A   1      42.335  28.774  27.206  1.00  0.00    -0.744 OA
ENDBRANCH  81  85
ENDBRANCH  54  78
BRANCH  66  89
ATOM     89  C   UNL A   1      44.741  28.468  35.825  1.00  0.00     0.023 A 
ATOM     90  C   UNL A   1      44.655  27.372  36.701  1.00  0.00     0.031 A 
ATOM     91  C   UNL A   1      45.993  28.745  35.242  1.00  0.00     0.131 A 
ATOM     92  C   UNL A   1      45.810  26.646  37.030  1.00  0.00     0.055 A 
ATOM     93  C   UNL A   1      47.121  27.969  35.510  1.00  0.00     0.041 A 
ATOM     94  F   UNL A   1      46.141  29.781  34.400  1.00  0.00    -0.206 F 
ATOM     95  C   UNL A   1      47.038  26.924  36.424  1.00  0.00     0.022 A 
BRANCH  92  96
ATOM     96  S   UNL A   1      45.717  25.422  38.366  1.00  0.00     0.124 S 
ATOM     97  O   UNL A   1      44.409  25.707  38.947  1.00  0.00    -0.237 OA
ATOM     98  O   UNL A   1      45.832  24.161  37.642  1.00  0.00    -0.237 OA
ATOM     99  O   UNL A   1      46.859  25.755  39.216  1.00  0.00    -0.744 OA
ENDBRANCH  92  96
ENDBRANCH  66  89
ENDBRANCH  40  41
ENDBRANCH  33  35
ENDBRANCH  32  33
ENDBRANCH  31  32
ENDBRANCH  30  31
ENDBRANCH  29  30
ENDBRANCH  28  29
ENDBRANCH  27  28
ENDBRANCH   1  27
TORSDOF 27
ENDMDL
MODEL 2
REMARK VINA RESULT:      -8.7      1.838      3.585
REMARK SMILES C[C@](NC(=O)/C=C/c1ccco1)(C(=O)OCCOCCOCCOCCOC(=O)c1ccc(-c2c3nc(c(-c4cc(S(=O)(=O)[O-])ccc4F)c4ccc([nH]4)c(-c4cc(S(=O)(=O)[O-])ccc4F)c4nc(c(-c5cc(S(=O)(=O)[O-])ccc5F)c5ccc2[nH]5)C=C4)C=C3)cc1)C(F)(F)F
REMARK SMILES IDX 21 1 20 2 19 3 18 4 17 5 16 6 15 7 13 8 14 9 2 10 1 11 93 12
REMARK SMILES IDX 94 13 95 14 96 15 3 16 4 17 5 19 6 20 7 21 8 22 9 23 12 24
REMARK SMILES IDX 10 25 11 26 22 27 23 28 24 29 25 30 26 31 27 32 28 33 29 34
REMARK SMILES IDX 30 35 31 36 92 37 32 38 91 39 33 40 34 41 35 42 85 43 36 44
REMARK SMILES IDX 90 45 84 46 86 47 37 48 89 49 83 50 82 51 38 53 70 54 50 55
REMARK SMILES IDX 69 56 51 57 54 58 68 59 87 60 52 61 53 62 67 64 88 65 55 66
REMARK SMILES IDX 39 67 40 68 48 69 41 70 47 71 49 72 46 73 42 74 43 75 44 76
REMARK SMILES IDX 45 77 71 78 72 79 80 80 73 81 79 82 81 83 78 84 74 85 75 86
REMARK SMILES IDX 76 87 77 88 56 89 57 90 65 91 58 92 64 93 66 94 63 95 59 96
REMARK SMILES IDX 60 97 61 98 62 99
REMARK H PARENT 3 18 86 52 54 63
REMARK Flexibility Score: inf
ROOT
ATOM      1  O   UNL A   1      33.639  30.938  27.372  1.00  0.00    -0.377 OA
ENDROOT
BRANCH   1   2
ATOM      2  C   UNL A   1      34.888  30.285  27.474  1.00  0.00     0.188 C 
BRANCH   2   3
ATOM      3  C   UNL A   1      34.950  28.900  26.792  1.00  0.00     0.188 C 
BRANCH   3   4
ATOM      4  O   UNL A   1      33.815  28.046  26.779  1.00  0.00    -0.376 OA
BRANCH   4   5
ATOM      5  C   UNL A   1      33.716  27.030  25.792  1.00  0.00     0.202 C 
BRANCH   5   6
ATOM      6  C   UNL A   1      33.507  25.556  26.195  1.00  0.00     0.261 C 
BRANCH   6   7
ATOM      7  O   UNL A   1      33.727  24.562  25.166  1.00  0.00    -0.461 OA
BRANCH   7   8
ATOM      8  C   UNL A   1      32.824  24.487  24.152  1.00  0.00     0.341 C 
ATOM      9  O   UNL A   1      32.963  25.081  23.088  1.00  0.00    -0.249 OA
BRANCH   8  10
ATOM     10  C   UNL A   1      31.615  23.566  24.453  1.00  0.00     0.231 C 
ATOM     11  C   UNL A   1      30.884  23.291  23.133  1.00  0.00     0.058 C 
BRANCH  10  12
ATOM     12  C   UNL A   1      32.262  22.223  24.880  1.00  0.00     0.422 C 
ATOM     13  F   UNL A   1      32.793  22.294  26.124  1.00  0.00    -0.168 F 
ATOM     14  F   UNL A   1      31.315  21.248  24.956  1.00  0.00    -0.168 F 
ATOM     15  F   UNL A   1      33.217  21.766  24.049  1.00  0.00    -0.168 F 
ENDBRANCH  10  12
BRANCH  10  16
ATOM     16  N   UNL A   1      30.660  23.998  25.547  1.00  0.00    -0.329 N 
ATOM     17  C   UNL A   1      30.045  25.154  25.893  1.00  0.00     0.245 C 
ATOM     18  H   UNL A   1      30.430  23.256  26.153  1.00  0.00     0.165 HD
ATOM     19  O   UNL A   1      29.257  25.168  26.832  1.00  0.00    -0.270 OA
BRANCH  17  20
ATOM     20  C   UNL A   1      30.208  26.329  25.038  1.00  0.00     0.075 C 
ATOM     21  C   UNL A   1      29.651  26.390  23.825  1.00  0.00     0.053 C 
BRANCH  21  22
ATOM     22  C   UNL A   1      29.593  27.648  23.181  1.00  0.00     0.126 A 
ATOM     23  C   UNL A   1      30.543  28.324  22.434  1.00  0.00     0.050 A 
ATOM     24  O   UNL A   1      28.458  28.426  23.219  1.00  0.00    -0.465 OA
ATOM     25  C   UNL A   1      29.962  29.543  22.006  1.00  0.00     0.042 A 
ATOM     26  C   UNL A   1      28.685  29.551  22.505  1.00  0.00     0.195 A 
ENDBRANCH  21  22
ENDBRANCH  17  20
ENDBRANCH  10  16
ENDBRANCH   8  10
ENDBRANCH   7   8
ENDBRANCH   6   7
ENDBRANCH   5   6
ENDBRANCH   4   5
ENDBRANCH   3   4
ENDBRANCH   2   3
ENDBRANCH   1   2
BRANCH   1  27
ATOM     27  C   UNL A   1      33.629  32.297  27.796  1.00  0.00     0.188 C 
BRANCH  27  28
ATOM     28  C   UNL A   1      32.385  33.129  27.421  1.00  0.00     0.188 C 
BRANCH  28  29
ATOM     29  O   UNL A   1      32.338  34.407  28.050  1.00  0.00    -0.376 OA
BRANCH  29  30
ATOM     30  C   UNL A   1      33.546  35.032  28.459  1.00  0.00     0.202 C 
BRANCH  30  31
ATOM     31  C   UNL A   1      33.998  34.869  29.922  1.00  0.00     0.261 C 
BRANCH  31  32
ATOM     32  O   UNL A   1      33.534  35.853  30.855  1.00  0.00    -0.460 OA
BRANCH  32  33
ATOM     33  C   UNL A   1      33.067  35.407  32.037  1.00  0.00     0.338 C 
ATOM     34  O   UNL A   1      31.893  35.310  32.363  1.00  0.00    -0.246 OA
BRANCH  33  35
ATOM     35  C   UNL A   1      34.197  34.834  32.800  1.00  0.00     0.060 A 
ATOM     36  C   UNL A   1      35.410  35.534  32.814  1.00  0.00     0.016 A 
ATOM     37  C   UNL A   1      34.073  33.616  33.473  1.00  0.00     0.016 A 
ATOM     38  C   UNL A   1      36.527  34.979  33.429  1.00  0.00     0.010 A 
ATOM     39  C   UNL A   1      35.202  33.046  34.070  1.00  0.00     0.010 A 
ATOM     40  C   UNL A   1      36.446  33.699  33.993  1.00  0.00    -0.014 A 
BRANCH  40  41
ATOM     41  C   UNL A   1      37.708  32.949  34.209  1.00  0.00     0.031 A 
ATOM     42  C   UNL A   1      38.497  33.255  35.458  1.00  0.00     0.074 A 
ATOM     43  C   UNL A   1      38.099  31.965  33.381  1.00  0.00     0.049 A 
ATOM     44  N   UNL A   1      39.607  32.723  35.897  1.00  0.00    -0.248 NA
ATOM     45  C   UNL A   1      37.950  34.309  36.330  1.00  0.00     0.031 C 
ATOM     46  C   UNL A   1      37.383  31.536  32.181  1.00  0.00     0.029 A 
ATOM     47  N   UNL A   1      39.192  31.138  33.435  1.00  0.00    -0.354 N 
ATOM     48  C   UNL A   1      39.897  33.384  37.087  1.00  0.00     0.074 A 
ATOM     49  C   UNL A   1      38.871  34.385  37.276  1.00  0.00     0.031 C 
ATOM     50  C   UNL A   1      38.055  30.518  31.615  1.00  0.00     0.029 A 
ATOM     51  C   UNL A   1      39.264  30.247  32.391  1.00  0.00     0.049 A 
ATOM     52  H   UNL A   1      39.862  31.179  34.155  1.00  0.00     0.167 HD
ATOM     53  C   UNL A   1      40.921  33.170  37.950  1.00  0.00     0.034 A 
ATOM     54  C   UNL A   1      40.209  29.330  32.093  1.00  0.00     0.034 A 
ATOM     55  C   UNL A   1      41.940  32.172  37.741  1.00  0.00     0.049 A 
ATOM     56  C   UNL A   1      41.390  29.170  33.023  1.00  0.00     0.074 A 
ATOM     57  C   UNL A   1      43.018  31.860  38.550  1.00  0.00     0.029 A 
ATOM     58  N   UNL A   1      42.016  31.332  36.637  1.00  0.00    -0.354 N 
ATOM     59  N   UNL A   1      41.655  29.798  34.147  1.00  0.00    -0.248 NA
ATOM     60  C   UNL A   1      42.390  28.161  32.650  1.00  0.00     0.031 C 
ATOM     61  C   UNL A   1      43.793  30.898  37.894  1.00  0.00     0.029 A 
ATOM     62  C   UNL A   1      43.144  30.529  36.726  1.00  0.00     0.049 A 
ATOM     63  H   UNL A   1      41.365  31.310  35.898  1.00  0.00     0.167 HD
ATOM     64  C   UNL A   1      42.825  29.221  34.639  1.00  0.00     0.074 A 
ATOM     65  C   UNL A   1      43.206  28.194  33.693  1.00  0.00     0.031 C 
ATOM     66  C   UNL A   1      43.515  29.506  35.775  1.00  0.00     0.034 A 
BRANCH  53  67
ATOM     67  C   UNL A   1      41.018  34.081  39.151  1.00  0.00     0.023 A 
ATOM     68  C   UNL A   1      40.221  33.900  40.297  1.00  0.00     0.031 A 
ATOM     69  C   UNL A   1      41.893  35.182  39.130  1.00  0.00     0.131 A 
ATOM     70  C   UNL A   1      40.258  34.846  41.332  1.00  0.00     0.055 A 
ATOM     71  C   UNL A   1      41.992  36.068  40.204  1.00  0.00     0.041 A 
ATOM     72  F   UNL A   1      42.658  35.427  38.054  1.00  0.00    -0.206 F 
ATOM     73  C   UNL A   1      41.159  35.912  41.307  1.00  0.00     0.022 A 
BRANCH  70  74
ATOM     74  S   UNL A   1      38.996  34.758  42.634  1.00  0.00     0.124 S 
ATOM     75  O   UNL A   1      38.807  33.314  42.763  1.00  0.00    -0.237 OA
ATOM     76  O   UNL A   1      39.651  35.420  43.755  1.00  0.00    -0.237 OA
ATOM     77  O   UNL A   1      37.861  35.478  42.059  1.00  0.00    -0.744 OA
ENDBRANCH  70  74
ENDBRANCH  53  67
BRANCH  54  78
ATOM     78  C   UNL A   1      40.103  28.503  30.855  1.00  0.00     0.023 A 
ATOM     79  C   UNL A   1      40.854  28.810  29.708  1.00  0.00     0.031 A 
ATOM     80  C   UNL A   1      39.193  27.433  30.777  1.00  0.00     0.131 A 
ATOM     81  C   UNL A   1      40.642  28.093  28.519  1.00  0.00     0.055 A 
ATOM     82  C   UNL A   1      39.030  26.683  29.612  1.00  0.00     0.041 A 
ATOM     83  F   UNL A   1      38.446  27.098  31.842  1.00  0.00    -0.206 F 
ATOM     84  C   UNL A   1      39.747  27.023  28.468  1.00  0.00     0.022 A 
BRANCH  81  85
ATOM     85  S   UNL A   1      41.481  28.645  27.009  1.00  0.00     0.124 S 
ATOM     86  O   UNL A   1      42.103  27.409  26.548  1.00  0.00    -0.237 OA
ATOM     87  O   UNL A   1      40.368  29.141  26.208  1.00  0.00    -0.237 OA
ATOM     88  O   UNL A   1      42.406  29.669  27.490  1.00  0.00    -0.744 OA
ENDBRANCH  81  85
ENDBRANCH  54  78
BRANCH  66  89
ATOM     89  C   UNL A   1      44.711  28.638  36.096  1.00  0.00     0.023 A 
ATOM     90  C   UNL A   1      44.587  27.393  36.737  1.00  0.00     0.031 A 
ATOM     91  C   UNL A   1      46.008  29.083  35.774  1.00  0.00     0.131 A 
ATOM     92  C   UNL A   1      45.736  26.678  37.108  1.00  0.00     0.055 A 
ATOM     93  C   UNL A   1      47.144  28.329  36.072  1.00  0.00     0.041 A 
ATOM     94  F   UNL A   1      46.194  30.265  35.164  1.00  0.00    -0.206 F 
ATOM     95  C   UNL A   1      47.013  27.127  36.760  1.00  0.00     0.022 A 
BRANCH  92  96
ATOM     96  S   UNL A   1      45.549  25.221  38.172  1.00  0.00     0.124 S 
ATOM     97  O   UNL A   1      46.528  24.301  37.601  1.00  0.00    -0.237 OA
ATOM     98  O   UNL A   1      45.871  25.755  39.491  1.00  0.00    -0.237 OA
ATOM     99  O   UNL A   1      44.152  24.835  37.984  1.00  0.00    -0.744 OA
ENDBRANCH  92  96
ENDBRANCH  66  89
ENDBRANCH  40  41
ENDBRANCH  33  35
ENDBRANCH  32  33
ENDBRANCH  31  32
ENDBRANCH  30  31
ENDBRANCH  29  30
ENDBRANCH  28  29
ENDBRANCH  27  28
ENDBRANCH   1  27
TORSDOF 27
ENDMDL
MODEL 3
REMARK VINA RESULT:      -8.4      1.672      2.089
REMARK SMILES C[C@](NC(=O)/C=C/c1ccco1)(C(=O)OCCOCCOCCOCCOC(=O)c1ccc(-c2c3nc(c(-c4cc(S(=O)(=O)[O-])ccc4F)c4ccc([nH]4)c(-c4cc(S(=O)(=O)[O-])ccc4F)c4nc(c(-c5cc(S(=O)(=O)[O-])ccc5F)c5ccc2[nH]5)C=C4)C=C3)cc1)C(F)(F)F
REMARK SMILES IDX 21 1 20 2 19 3 18 4 17 5 16 6 15 7 13 8 14 9 2 10 1 11 93 12
REMARK SMILES IDX 94 13 95 14 96 15 3 16 4 17 5 19 6 20 7 21 8 22 9 23 12 24
REMARK SMILES IDX 10 25 11 26 22 27 23 28 24 29 25 30 26 31 27 32 28 33 29 34
REMARK SMILES IDX 30 35 31 36 92 37 32 38 91 39 33 40 34 41 35 42 85 43 36 44
REMARK SMILES IDX 90 45 84 46 86 47 37 48 89 49 83 50 82 51 38 53 70 54 50 55
REMARK SMILES IDX 69 56 51 57 54 58 68 59 87 60 52 61 53 62 67 64 88 65 55 66
REMARK SMILES IDX 39 67 40 68 48 69 41 70 47 71 49 72 46 73 42 74 43 75 44 76
REMARK SMILES IDX 45 77 71 78 72 79 80 80 73 81 79 82 81 83 78 84 74 85 75 86
REMARK SMILES IDX 76 87 77 88 56 89 57 90 65 91 58 92 64 93 66 94 63 95 59 96
REMARK SMILES IDX 60 97 61 98 62 99
REMARK H PARENT 3 18 86 52 54 63
REMARK Flexibility Score: inf
ROOT
ATOM      1  O   UNL A   1      32.257  30.127  27.061  1.00  0.00    -0.377 OA
ENDROOT
BRANCH   1   2
ATOM      2  C   UNL A   1      33.161  29.067  27.300  1.00  0.00     0.188 C 
BRANCH   2   3
ATOM      3  C   UNL A   1      32.535  27.656  27.233  1.00  0.00     0.188 C 
BRANCH   3   4
ATOM      4  O   UNL A   1      31.150  27.489  26.961  1.00  0.00    -0.376 OA
BRANCH   4   5
ATOM      5  C   UNL A   1      30.747  26.737  25.826  1.00  0.00     0.202 C 
BRANCH   5   6
ATOM      6  C   UNL A   1      31.633  26.678  24.564  1.00  0.00     0.261 C 
BRANCH   6   7
ATOM      7  O   UNL A   1      31.218  25.766  23.520  1.00  0.00    -0.461 OA
BRANCH   7   8
ATOM      8  C   UNL A   1      31.669  24.485  23.580  1.00  0.00     0.341 C 
ATOM      9  O   UNL A   1      31.113  23.611  24.237  1.00  0.00    -0.249 OA
BRANCH   8  10
ATOM     10  C   UNL A   1      32.934  24.223  22.724  1.00  0.00     0.231 C 
ATOM     11  C   UNL A   1      32.799  22.835  22.086  1.00  0.00     0.058 C 
BRANCH  10  12
ATOM     12  C   UNL A   1      32.825  25.247  21.566  1.00  0.00     0.422 C 
ATOM     13  F   UNL A   1      31.544  25.636  21.359  1.00  0.00    -0.168 F 
ATOM     14  F   UNL A   1      33.493  26.390  21.884  1.00  0.00    -0.168 F 
ATOM     15  F   UNL A   1      33.324  24.826  20.388  1.00  0.00    -0.168 F 
ENDBRANCH  10  12
BRANCH  10  16
ATOM     16  N   UNL A   1      34.281  24.407  23.391  1.00  0.00    -0.329 N 
ATOM     17  C   UNL A   1      35.172  23.597  24.012  1.00  0.00     0.245 C 
ATOM     18  H   UNL A   1      34.583  25.344  23.367  1.00  0.00     0.165 HD
ATOM     19  O   UNL A   1      36.238  24.055  24.410  1.00  0.00    -0.270 OA
BRANCH  17  20
ATOM     20  C   UNL A   1      34.917  22.158  24.050  1.00  0.00     0.075 C 
ATOM     21  C   UNL A   1      34.284  21.589  25.079  1.00  0.00     0.053 C 
BRANCH  21  22
ATOM     22  C   UNL A   1      33.808  20.267  24.921  1.00  0.00     0.126 A 
ATOM     23  C   UNL A   1      32.523  19.755  24.998  1.00  0.00     0.050 A 
ATOM     24  O   UNL A   1      34.659  19.224  24.631  1.00  0.00    -0.465 OA
ATOM     25  C   UNL A   1      32.602  18.363  24.743  1.00  0.00     0.042 A 
ATOM     26  C   UNL A   1      33.927  18.093  24.516  1.00  0.00     0.195 A 
ENDBRANCH  21  22
ENDBRANCH  17  20
ENDBRANCH  10  16
ENDBRANCH   8  10
ENDBRANCH   7   8
ENDBRANCH   6   7
ENDBRANCH   5   6
ENDBRANCH   4   5
ENDBRANCH   3   4
ENDBRANCH   2   3
ENDBRANCH   1   2
BRANCH   1  27
ATOM     27  C   UNL A   1      32.790  31.433  27.250  1.00  0.00     0.188 C 
BRANCH  27  28
ATOM     28  C   UNL A   1      31.869  32.615  26.884  1.00  0.00     0.188 C 
BRANCH  28  29
ATOM     29  O   UNL A   1      32.129  33.799  27.635  1.00  0.00    -0.376 OA
BRANCH  29  30
ATOM     30  C   UNL A   1      33.461  34.114  28.009  1.00  0.00     0.202 C 
BRANCH  30  31
ATOM     31  C   UNL A   1      33.813  34.159  29.508  1.00  0.00     0.261 C 
BRANCH  31  32
ATOM     32  O   UNL A   1      33.515  35.376  30.203  1.00  0.00    -0.460 OA
BRANCH  32  33
ATOM     33  C   UNL A   1      33.125  35.269  31.488  1.00  0.00     0.338 C 
ATOM     34  O   UNL A   1      31.986  35.401  31.914  1.00  0.00    -0.246 OA
BRANCH  33  35
ATOM     35  C   UNL A   1      34.256  34.739  32.278  1.00  0.00     0.060 A 
ATOM     36  C   UNL A   1      35.503  35.364  32.153  1.00  0.00     0.016 A 
ATOM     37  C   UNL A   1      34.100  33.629  33.112  1.00  0.00     0.016 A 
ATOM     38  C   UNL A   1      36.617  34.832  32.795  1.00  0.00     0.010 A 
ATOM     39  C   UNL A   1      35.225  33.079  33.737  1.00  0.00     0.010 A 
ATOM     40  C   UNL A   1      36.496  33.645  33.527  1.00  0.00    -0.014 A 
BRANCH  40  41
ATOM     41  C   UNL A   1      37.726  32.859  33.794  1.00  0.00     0.031 A 
ATOM     42  C   UNL A   1      38.503  33.185  35.045  1.00  0.00     0.074 A 
ATOM     43  C   UNL A   1      38.095  31.831  33.011  1.00  0.00     0.049 A 
ATOM     44  N   UNL A   1      39.587  32.631  35.524  1.00  0.00    -0.248 NA
ATOM     45  C   UNL A   1      37.981  34.290  35.867  1.00  0.00     0.031 C 
ATOM     46  C   UNL A   1      37.384  31.383  31.816  1.00  0.00     0.029 A 
ATOM     47  N   UNL A   1      39.156  30.968  33.116  1.00  0.00    -0.354 N 
ATOM     48  C   UNL A   1      39.880  33.326  36.693  1.00  0.00     0.074 A 
ATOM     49  C   UNL A   1      38.888  34.369  36.827  1.00  0.00     0.031 C 
ATOM     50  C   UNL A   1      38.029  30.320  31.301  1.00  0.00     0.029 A 
ATOM     51  C   UNL A   1      39.214  30.036  32.108  1.00  0.00     0.049 A 
ATOM     52  H   UNL A   1      39.815  31.014  33.846  1.00  0.00     0.167 HD
ATOM     53  C   UNL A   1      40.880  33.109  37.582  1.00  0.00     0.034 A 
ATOM     54  C   UNL A   1      40.129  29.076  31.861  1.00  0.00     0.034 A 
ATOM     55  C   UNL A   1      41.866  32.068  37.430  1.00  0.00     0.049 A 
ATOM     56  C   UNL A   1      41.289  28.909  32.819  1.00  0.00     0.074 A 
ATOM     57  C   UNL A   1      42.918  31.749  38.269  1.00  0.00     0.029 A 
ATOM     58  N   UNL A   1      41.931  31.184  36.359  1.00  0.00    -0.354 N 
ATOM     59  N   UNL A   1      41.557  29.570  33.923  1.00  0.00    -0.248 NA
ATOM     60  C   UNL A   1      42.257  27.853  32.502  1.00  0.00     0.031 C 
ATOM     61  C   UNL A   1      43.669  30.736  37.664  1.00  0.00     0.029 A 
ATOM     62  C   UNL A   1      43.027  30.346  36.500  1.00  0.00     0.049 A 
ATOM     63  H   UNL A   1      41.292  31.157  35.610  1.00  0.00     0.167 HD
ATOM     64  C   UNL A   1      42.697  28.972  34.458  1.00  0.00     0.074 A 
ATOM     65  C   UNL A   1      43.056  27.896  33.558  1.00  0.00     0.031 C 
ATOM     66  C   UNL A   1      43.377  29.275  35.594  1.00  0.00     0.034 A 
BRANCH  53  67
ATOM     67  C   UNL A   1      40.990  34.061  38.751  1.00  0.00     0.023 A 
ATOM     68  C   UNL A   1      41.748  35.244  38.686  1.00  0.00     0.031 A 
ATOM     69  C   UNL A   1      40.360  33.752  39.970  1.00  0.00     0.131 A 
ATOM     70  C   UNL A   1      41.921  36.028  39.837  1.00  0.00     0.055 A 
ATOM     71  C   UNL A   1      40.461  34.585  41.086  1.00  0.00     0.041 A 
ATOM     72  F   UNL A   1      39.648  32.622  40.105  1.00  0.00    -0.206 F 
ATOM     73  C   UNL A   1      41.259  35.723  41.028  1.00  0.00     0.022 A 
BRANCH  70  74
ATOM     74  S   UNL A   1      43.155  37.358  39.803  1.00  0.00     0.124 S 
ATOM     75  O   UNL A   1      44.399  36.611  39.978  1.00  0.00    -0.237 OA
ATOM     76  O   UNL A   1      42.945  37.951  38.488  1.00  0.00    -0.237 OA
ATOM     77  O   UNL A   1      42.780  38.202  40.936  1.00  0.00    -0.744 OA
ENDBRANCH  70  74
ENDBRANCH  53  67
BRANCH  54  78
ATOM     78  C   UNL A   1      40.014  28.207  30.654  1.00  0.00     0.023 A 
ATOM     79  C   UNL A   1      40.791  28.446  29.508  1.00  0.00     0.031 A 
ATOM     80  C   UNL A   1      39.072  27.163  30.602  1.00  0.00     0.131 A 
ATOM     81  C   UNL A   1      40.573  27.692  28.344  1.00  0.00     0.055 A 
ATOM     82  C   UNL A   1      38.902  26.376  29.463  1.00  0.00     0.041 A 
ATOM     83  F   UNL A   1      38.300  26.893  31.667  1.00  0.00    -0.206 F 
ATOM     84  C   UNL A   1      39.645  26.649  28.319  1.00  0.00     0.022 A 
BRANCH  81  85
ATOM     85  S   UNL A   1      41.451  28.160  26.827  1.00  0.00     0.124 S 
ATOM     86  O   UNL A   1      40.442  28.955  26.136  1.00  0.00    -0.237 OA
ATOM     87  O   UNL A   1      42.596  28.894  27.354  1.00  0.00    -0.237 OA
ATOM     88  O   UNL A   1      41.767  26.875  26.208  1.00  0.00    -0.744 OA
ENDBRANCH  81  85
ENDBRANCH  54  78
BRANCH  66  89
ATOM     89  C   UNL A   1      44.536  28.377  35.969  1.00  0.00     0.023 A 
ATOM     90  C   UNL A   1      44.385  27.274  36.827  1.00  0.00     0.031 A 
ATOM     91  C   UNL A   1      45.825  28.653  35.475  1.00  0.00     0.131 A 
ATOM     92  C   UNL A   1      45.512  26.539  37.228  1.00  0.00     0.055 A 
ATOM     93  C   UNL A   1      46.929  27.869  35.812  1.00  0.00     0.041 A 
ATOM     94  F   UNL A   1      46.035  29.695  34.655  1.00  0.00    -0.206 F 
ATOM     95  C   UNL A   1      46.779  26.816  36.709  1.00  0.00     0.022 A 
BRANCH  92  96
ATOM     96  S   UNL A   1      45.323  25.304  38.543  1.00  0.00     0.124 S 
ATOM     97  O   UNL A   1      45.226  24.063  37.781  1.00  0.00    -0.237 OA
ATOM     98  O   UNL A   1      46.547  25.483  39.316  1.00  0.00    -0.237 OA
ATOM     99  O   UNL A   1      44.095  25.712  39.223  1.00  0.00    -0.744 OA
ENDBRANCH  92  96
ENDBRANCH  66  89
ENDBRANCH  40  41
ENDBRANCH  33  35
ENDBRANCH  32  33
ENDBRANCH  31  32
ENDBRANCH  30  31
ENDBRANCH  29  30
ENDBRANCH  28  29
ENDBRANCH  27  28
ENDBRANCH   1  27
TORSDOF 27
ENDMDL
