MODEL 1
REMARK VINA RESULT:      -9.7      0.000      0.000
REMARK SMILES Cc1ccc(-c2noc(CCC(=O)OCCOCCOCCOCCOC(=O)c3ccc(-c4c5nc(c(-c6cc(S(=O)(=O)[O-])ccc6F)c6ccc([nH]6)c(-c6cc(S(=O)(=O)[O-])ccc6F)c6nc(c(-c7cc(S(=O)(=O)[O-])ccc7F)c7ccc4[nH]7)C=C6)C=C5)cc3)n2)cc1C
REMARK SMILES IDX 20 1 19 2 18 3 17 4 16 5 15 6 14 7 12 8 13 9 11 10 10 11
REMARK SMILES IDX 9 12 6 13 7 14 92 15 8 16 5 17 1 18 2 19 3 20 94 21 4 22
REMARK SMILES IDX 93 23 95 24 21 25 22 26 23 27 24 28 25 29 26 30 27 31 28 32
REMARK SMILES IDX 29 33 30 34 91 35 31 36 90 37 32 38 33 39 34 40 84 41 35 42
REMARK SMILES IDX 89 43 83 44 85 45 36 46 88 47 82 48 81 49 37 51 69 52 49 53
REMARK SMILES IDX 68 54 50 55 53 56 67 57 86 58 51 59 52 60 66 62 87 63 54 64
REMARK SMILES IDX 38 65 39 66 47 67 40 68 46 69 48 70 45 71 41 72 42 73 43 74
REMARK SMILES IDX 44 75 70 76 71 77 79 78 72 79 78 80 80 81 77 82 73 83 74 84
REMARK SMILES IDX 75 85 76 86 55 87 56 88 64 89 57 90 63 91 65 92 62 93 58 94
REMARK SMILES IDX 59 95 60 96 61 97
REMARK H PARENT 85 50 53 61
REMARK Flexibility Score: inf
ROOT
ATOM      1  O   UNL A   1      35.549  24.484  24.568  1.00  0.00    -0.377 OA
ENDROOT
BRANCH   1   2
ATOM      2  C   UNL A   1      34.772  24.705  25.731  1.00  0.00     0.188 C 
BRANCH   2   3
ATOM      3  C   UNL A   1      33.713  25.818  25.757  1.00  0.00     0.188 C 
BRANCH   3   4
ATOM      4  O   UNL A   1      32.396  25.409  26.038  1.00  0.00    -0.376 OA
BRANCH   4   5
ATOM      5  C   UNL A   1      31.319  26.327  25.986  1.00  0.00     0.202 C 
BRANCH   5   6
ATOM      6  C   UNL A   1      31.451  27.852  26.154  1.00  0.00     0.261 C 
BRANCH   6   7
ATOM      7  O   UNL A   1      31.348  28.658  24.974  1.00  0.00    -0.463 OA
BRANCH   7   8
ATOM      8  C   UNL A   1      32.366  28.593  24.095  1.00  0.00     0.306 C 
ATOM      9  O   UNL A   1      33.541  28.801  24.387  1.00  0.00    -0.252 OA
BRANCH   8  10
ATOM     10  C   UNL A   1      31.983  28.183  22.689  1.00  0.00     0.132 C 
BRANCH  10  11
ATOM     11  C   UNL A   1      31.207  26.918  22.347  1.00  0.00     0.112 C 
BRANCH  11  12
ATOM     12  C   UNL A   1      31.933  25.633  22.346  1.00  0.00     0.227 A 
ATOM     13  C   UNL A   1      32.573  23.649  22.474  1.00  0.00     0.202 A 
ATOM     14  N   UNL A   1      33.569  24.252  21.811  1.00  0.00    -0.057 NA
ATOM     15  N   UNL A   1      31.528  24.476  22.815  1.00  0.00    -0.191 NA
ATOM     16  O   UNL A   1      33.123  25.560  21.694  1.00  0.00    -0.339 OA
BRANCH  13  17
ATOM     17  C   UNL A   1      32.649  22.301  22.976  1.00  0.00     0.023 A 
ATOM     18  C   UNL A   1      32.500  18.368  24.719  1.00  0.00     0.044 C 
ATOM     19  C   UNL A   1      32.592  19.746  24.126  1.00  0.00    -0.048 A 
ATOM     20  C   UNL A   1      32.138  19.952  22.811  1.00  0.00     0.004 A 
ATOM     21  C   UNL A   1      33.106  20.830  24.861  1.00  0.00    -0.047 A 
ATOM     22  C   UNL A   1      32.154  21.226  22.240  1.00  0.00     0.012 A 
ATOM     23  C   UNL A   1      33.144  22.097  24.265  1.00  0.00     0.015 A 
ATOM     24  C   UNL A   1      33.602  20.729  26.276  1.00  0.00     0.044 C 
ENDBRANCH  13  17
ENDBRANCH  11  12
ENDBRANCH  10  11
ENDBRANCH   8  10
ENDBRANCH   7   8
ENDBRANCH   6   7
ENDBRANCH   5   6
ENDBRANCH   4   5
ENDBRANCH   3   4
ENDBRANCH   2   3
ENDBRANCH   1   2
BRANCH   1  25
ATOM     25  C   UNL A   1      36.510  23.429  24.532  1.00  0.00     0.188 C 
BRANCH  25  26
ATOM     26  C   UNL A   1      36.886  22.659  25.817  1.00  0.00     0.188 C 
BRANCH  26  27
ATOM     27  O   UNL A   1      37.486  21.393  25.597  1.00  0.00    -0.376 OA
BRANCH  27  28
ATOM     28  C   UNL A   1      38.888  21.290  25.795  1.00  0.00     0.202 C 
BRANCH  28  29
ATOM     29  C   UNL A   1      39.512  19.885  25.774  1.00  0.00     0.261 C 
BRANCH  29  30
ATOM     30  O   UNL A   1      40.571  19.642  26.715  1.00  0.00    -0.460 OA
BRANCH  30  31
ATOM     31  C   UNL A   1      41.835  19.600  26.232  1.00  0.00     0.338 C 
ATOM     32  O   UNL A   1      42.336  18.718  25.570  1.00  0.00    -0.246 OA
BRANCH  31  33
ATOM     33  C   UNL A   1      42.454  20.916  26.502  1.00  0.00     0.060 A 
ATOM     34  C   UNL A   1      42.583  21.351  27.828  1.00  0.00     0.016 A 
ATOM     35  C   UNL A   1      42.896  21.716  25.446  1.00  0.00     0.016 A 
ATOM     36  C   UNL A   1      43.121  22.609  28.098  1.00  0.00     0.010 A 
ATOM     37  C   UNL A   1      43.417  22.982  25.719  1.00  0.00     0.010 A 
ATOM     38  C   UNL A   1      43.498  23.450  27.043  1.00  0.00    -0.014 A 
BRANCH  38  39
ATOM     39  C   UNL A   1      43.775  24.885  27.308  1.00  0.00     0.031 A 
ATOM     40  C   UNL A   1      45.182  25.385  27.119  1.00  0.00     0.074 A 
ATOM     41  C   UNL A   1      42.800  25.733  27.676  1.00  0.00     0.049 A 
ATOM     42  N   UNL A   1      45.682  26.574  27.328  1.00  0.00    -0.248 NA
ATOM     43  C   UNL A   1      46.156  24.395  26.634  1.00  0.00     0.031 C 
ATOM     44  C   UNL A   1      41.391  25.383  27.834  1.00  0.00     0.029 A 
ATOM     45  N   UNL A   1      42.853  27.070  27.982  1.00  0.00    -0.354 N 
ATOM     46  C   UNL A   1      47.032  26.478  27.002  1.00  0.00     0.074 A 
ATOM     47  C   UNL A   1      47.276  25.098  26.637  1.00  0.00     0.031 C 
ATOM     48  C   UNL A   1      40.709  26.481  28.203  1.00  0.00     0.029 A 
ATOM     49  C   UNL A   1      41.640  27.600  28.353  1.00  0.00     0.049 A 
ATOM     50  H   UNL A   1      43.682  27.599  27.941  1.00  0.00     0.167 HD
ATOM     51  C   UNL A   1      47.976  27.452  26.993  1.00  0.00     0.034 A 
ATOM     52  C   UNL A   1      41.326  28.839  28.782  1.00  0.00     0.034 A 
ATOM     53  C   UNL A   1      47.720  28.815  27.390  1.00  0.00     0.049 A 
ATOM     54  C   UNL A   1      42.417  29.878  28.893  1.00  0.00     0.074 A 
ATOM     55  C   UNL A   1      48.599  29.884  27.429  1.00  0.00     0.029 A 
ATOM     56  N   UNL A   1      46.495  29.298  27.837  1.00  0.00    -0.354 N 
ATOM     57  N   UNL A   1      43.692  29.780  28.589  1.00  0.00    -0.248 NA
ATOM     58  C   UNL A   1      42.023  31.198  29.402  1.00  0.00     0.031 C 
ATOM     59  C   UNL A   1      47.931  30.982  27.980  1.00  0.00     0.029 A 
ATOM     60  C   UNL A   1      46.607  30.634  28.192  1.00  0.00     0.049 A 
ATOM     61  H   UNL A   1      45.667  28.767  27.892  1.00  0.00     0.167 HD
ATOM     62  C   UNL A   1      44.242  31.036  28.834  1.00  0.00     0.074 A 
ATOM     63  C   UNL A   1      43.157  31.876  29.303  1.00  0.00     0.031 C 
ATOM     64  C   UNL A   1      45.523  31.461  28.675  1.00  0.00     0.034 A 
BRANCH  51  65
ATOM     65  C   UNL A   1      49.378  27.042  26.602  1.00  0.00     0.023 A 
ATOM     66  C   UNL A   1      50.380  26.825  27.565  1.00  0.00     0.031 A 
ATOM     67  C   UNL A   1      49.741  26.943  25.247  1.00  0.00     0.131 A 
ATOM     68  C   UNL A   1      51.710  26.629  27.162  1.00  0.00     0.055 A 
ATOM     69  C   UNL A   1      51.047  26.644  24.852  1.00  0.00     0.041 A 
ATOM     70  F   UNL A   1      48.839  27.163  24.278  1.00  0.00    -0.206 F 
ATOM     71  C   UNL A   1      52.046  26.509  25.813  1.00  0.00     0.022 A 
BRANCH  68  72
ATOM     72  S   UNL A   1      53.017  26.740  28.417  1.00  0.00     0.124 S 
ATOM     73  O   UNL A   1      54.082  25.950  27.803  1.00  0.00    -0.237 OA
ATOM     74  O   UNL A   1      53.251  28.176  28.502  1.00  0.00    -0.237 OA
ATOM     75  O   UNL A   1      52.407  26.134  29.600  1.00  0.00    -0.744 OA
ENDBRANCH  68  72
ENDBRANCH  51  65
BRANCH  52  76
ATOM     76  C   UNL A   1      39.922  29.171  29.162  1.00  0.00     0.023 A 
ATOM     77  C   UNL A   1      39.529  29.210  30.510  1.00  0.00     0.031 A 
ATOM     78  C   UNL A   1      38.941  29.413  28.184  1.00  0.00     0.131 A 
ATOM     79  C   UNL A   1      38.187  29.450  30.842  1.00  0.00     0.055 A 
ATOM     80  C   UNL A   1      37.618  29.706  28.521  1.00  0.00     0.041 A 
ATOM     81  F   UNL A   1      39.257  29.378  26.879  1.00  0.00    -0.206 F 
ATOM     82  C   UNL A   1      37.233  29.716  29.858  1.00  0.00     0.022 A 
BRANCH  79  83
ATOM     83  S   UNL A   1      37.687  29.336  32.582  1.00  0.00     0.124 S 
ATOM     84  O   UNL A   1      38.738  30.101  33.243  1.00  0.00    -0.237 OA
ATOM     85  O   UNL A   1      36.363  29.948  32.559  1.00  0.00    -0.237 OA
ATOM     86  O   UNL A   1      37.702  27.899  32.846  1.00  0.00    -0.744 OA
ENDBRANCH  79  83
ENDBRANCH  52  76
BRANCH  64  87
ATOM     87  C   UNL A   1      45.811  32.918  28.963  1.00  0.00     0.023 A 
ATOM     88  C   UNL A   1      45.458  33.942  28.067  1.00  0.00     0.031 A 
ATOM     89  C   UNL A   1      46.459  33.285  30.158  1.00  0.00     0.131 A 
ATOM     90  C   UNL A   1      45.807  35.273  28.350  1.00  0.00     0.055 A 
ATOM     91  C   UNL A   1      46.740  34.617  30.467  1.00  0.00     0.041 A 
ATOM     92  F   UNL A   1      46.827  32.352  31.051  1.00  0.00    -0.206 F 
ATOM     93  C   UNL A   1      46.426  35.618  29.553  1.00  0.00     0.022 A 
BRANCH  90  94
ATOM     94  S   UNL A   1      45.540  36.535  27.075  1.00  0.00     0.124 S 
ATOM     95  O   UNL A   1      45.792  37.769  27.813  1.00  0.00    -0.237 OA
ATOM     96  O   UNL A   1      46.536  36.179  26.069  1.00  0.00    -0.237 OA
ATOM     97  O   UNL A   1      44.151  36.326  26.670  1.00  0.00    -0.744 OA
ENDBRANCH  90  94
ENDBRANCH  64  87
ENDBRANCH  38  39
ENDBRANCH  31  33
ENDBRANCH  30  31
ENDBRANCH  29  30
ENDBRANCH  28  29
ENDBRANCH  27  28
ENDBRANCH  26  27
ENDBRANCH  25  26
ENDBRANCH   1  25
TORSDOF 26
ENDMDL
MODEL 2
REMARK VINA RESULT:      -9.6      2.034      2.422
REMARK SMILES Cc1ccc(-c2noc(CCC(=O)OCCOCCOCCOCCOC(=O)c3ccc(-c4c5nc(c(-c6cc(S(=O)(=O)[O-])ccc6F)c6ccc([nH]6)c(-c6cc(S(=O)(=O)[O-])ccc6F)c6nc(c(-c7cc(S(=O)(=O)[O-])ccc7F)c7ccc4[nH]7)C=C6)C=C5)cc3)n2)cc1C
REMARK SMILES IDX 20 1 19 2 18 3 17 4 16 5 15 6 14 7 12 8 13 9 11 10 10 11
REMARK SMILES IDX 9 12 6 13 7 14 92 15 8 16 5 17 1 18 2 19 3 20 94 21 4 22
REMARK SMILES IDX 93 23 95 24 21 25 22 26 23 27 24 28 25 29 26 30 27 31 28 32
REMARK SMILES IDX 29 33 30 34 91 35 31 36 90 37 32 38 33 39 34 40 84 41 35 42
REMARK SMILES IDX 89 43 83 44 85 45 36 46 88 47 82 48 81 49 37 51 69 52 49 53
REMARK SMILES IDX 68 54 50 55 53 56 67 57 86 58 51 59 52 60 66 62 87 63 54 64
REMARK SMILES IDX 38 65 39 66 47 67 40 68 46 69 48 70 45 71 41 72 42 73 43 74
REMARK SMILES IDX 44 75 70 76 71 77 79 78 72 79 78 80 80 81 77 82 73 83 74 84
REMARK SMILES IDX 75 85 76 86 55 87 56 88 64 89 57 90 63 91 65 92 62 93 58 94
REMARK SMILES IDX 59 95 60 96 61 97
REMARK H PARENT 85 50 53 61
REMARK Flexibility Score: inf
ROOT
ATOM      1  O   UNL A   1      34.585  24.793  24.600  1.00  0.00    -0.377 OA
ENDROOT
BRANCH   1   2
ATOM      2  C   UNL A   1      34.098  25.188  25.869  1.00  0.00     0.188 C 
BRANCH   2   3
ATOM      3  C   UNL A   1      33.606  26.625  26.099  1.00  0.00     0.188 C 
BRANCH   3   4
ATOM      4  O   UNL A   1      32.248  26.864  25.821  1.00  0.00    -0.376 OA
BRANCH   4   5
ATOM      5  C   UNL A   1      31.685  28.153  25.980  1.00  0.00     0.202 C 
BRANCH   5   6
ATOM      6  C   UNL A   1      31.959  29.355  25.057  1.00  0.00     0.261 C 
BRANCH   6   7
ATOM      7  O   UNL A   1      31.515  29.259  23.698  1.00  0.00    -0.463 OA
BRANCH   7   8
ATOM      8  C   UNL A   1      32.046  28.276  22.947  1.00  0.00     0.306 C 
ATOM      9  O   UNL A   1      33.252  28.112  22.780  1.00  0.00    -0.252 OA
BRANCH   8  10
ATOM     10  C   UNL A   1      31.047  27.313  22.341  1.00  0.00     0.132 C 
BRANCH  10  11
ATOM     11  C   UNL A   1      30.510  26.077  23.049  1.00  0.00     0.112 C 
BRANCH  11  12
ATOM     12  C   UNL A   1      31.297  24.831  22.969  1.00  0.00     0.227 A 
ATOM     13  C   UNL A   1      32.067  22.892  23.071  1.00  0.00     0.202 A 
ATOM     14  N   UNL A   1      32.872  23.497  22.187  1.00  0.00    -0.057 NA
ATOM     15  N   UNL A   1      31.065  23.689  23.573  1.00  0.00    -0.191 NA
ATOM     16  O   UNL A   1      32.333  24.772  22.092  1.00  0.00    -0.339 OA
BRANCH  13  17
ATOM     17  C   UNL A   1      32.324  21.585  23.619  1.00  0.00     0.023 A 
ATOM     18  C   UNL A   1      33.487  17.684  25.021  1.00  0.00     0.044 C 
ATOM     19  C   UNL A   1      33.044  19.029  24.516  1.00  0.00    -0.048 A 
ATOM     20  C   UNL A   1      33.193  20.152  25.349  1.00  0.00     0.004 A 
ATOM     21  C   UNL A   1      32.501  19.188  23.227  1.00  0.00    -0.047 A 
ATOM     22  C   UNL A   1      32.847  21.427  24.901  1.00  0.00     0.012 A 
ATOM     23  C   UNL A   1      32.130  20.470  22.801  1.00  0.00     0.015 A 
ATOM     24  C   UNL A   1      32.314  18.065  22.247  1.00  0.00     0.044 C 
ENDBRANCH  13  17
ENDBRANCH  11  12
ENDBRANCH  10  11
ENDBRANCH   8  10
ENDBRANCH   7   8
ENDBRANCH   6   7
ENDBRANCH   5   6
ENDBRANCH   4   5
ENDBRANCH   3   4
ENDBRANCH   2   3
ENDBRANCH   1   2
BRANCH   1  25
ATOM     25  C   UNL A   1      35.652  23.850  24.499  1.00  0.00     0.188 C 
BRANCH  25  26
ATOM     26  C   UNL A   1      36.105  23.034  25.729  1.00  0.00     0.188 C 
BRANCH  26  27
ATOM     27  O   UNL A   1      36.792  21.831  25.424  1.00  0.00    -0.376 OA
BRANCH  27  28
ATOM     28  C   UNL A   1      38.163  21.753  25.783  1.00  0.00     0.202 C 
BRANCH  28  29
ATOM     29  C   UNL A   1      38.888  20.416  25.555  1.00  0.00     0.261 C 
BRANCH  29  30
ATOM     30  O   UNL A   1      39.775  19.984  26.599  1.00  0.00    -0.460 OA
BRANCH  30  31
ATOM     31  C   UNL A   1      41.093  19.903  26.302  1.00  0.00     0.338 C 
ATOM     32  O   UNL A   1      41.665  18.983  25.758  1.00  0.00    -0.246 OA
BRANCH  31  33
ATOM     33  C   UNL A   1      41.694  21.222  26.596  1.00  0.00     0.060 A 
ATOM     34  C   UNL A   1      41.925  21.584  27.930  1.00  0.00     0.016 A 
ATOM     35  C   UNL A   1      42.018  22.096  25.557  1.00  0.00     0.016 A 
ATOM     36  C   UNL A   1      42.446  22.843  28.229  1.00  0.00     0.010 A 
ATOM     37  C   UNL A   1      42.523  23.362  25.859  1.00  0.00     0.010 A 
ATOM     38  C   UNL A   1      42.705  23.756  27.198  1.00  0.00    -0.014 A 
BRANCH  38  39
ATOM     39  C   UNL A   1      42.960  25.182  27.523  1.00  0.00     0.031 A 
ATOM     40  C   UNL A   1      44.319  25.750  27.214  1.00  0.00     0.074 A 
ATOM     41  C   UNL A   1      42.005  25.965  28.051  1.00  0.00     0.049 A 
ATOM     42  N   UNL A   1      44.799  26.944  27.444  1.00  0.00    -0.248 NA
ATOM     43  C   UNL A   1      45.266  24.833  26.561  1.00  0.00     0.031 C 
ATOM     44  C   UNL A   1      40.635  25.548  28.341  1.00  0.00     0.029 A 
ATOM     45  N   UNL A   1      42.047  27.282  28.437  1.00  0.00    -0.354 N 
ATOM     46  C   UNL A   1      46.106  26.923  26.965  1.00  0.00     0.074 A 
ATOM     47  C   UNL A   1      46.354  25.580  26.486  1.00  0.00     0.031 C 
ATOM     48  C   UNL A   1      39.963  26.593  28.854  1.00  0.00     0.029 A 
ATOM     49  C   UNL A   1      40.866  27.737  28.973  1.00  0.00     0.049 A 
ATOM     50  H   UNL A   1      42.847  27.846  28.339  1.00  0.00     0.167 HD
ATOM     51  C   UNL A   1      47.009  27.935  26.916  1.00  0.00     0.034 A 
ATOM     52  C   UNL A   1      40.560  28.934  29.515  1.00  0.00     0.034 A 
ATOM     53  C   UNL A   1      46.754  29.259  27.426  1.00  0.00     0.049 A 
ATOM     54  C   UNL A   1      41.621  30.009  29.572  1.00  0.00     0.074 A 
ATOM     55  C   UNL A   1      47.594  30.359  27.438  1.00  0.00     0.029 A 
ATOM     56  N   UNL A   1      45.571  29.662  28.036  1.00  0.00    -0.354 N 
ATOM     57  N   UNL A   1      42.856  29.982  29.123  1.00  0.00    -0.248 NA
ATOM     58  C   UNL A   1      41.242  31.278  30.207  1.00  0.00     0.031 C 
ATOM     59  C   UNL A   1      46.956  31.393  28.130  1.00  0.00     0.029 A 
ATOM     60  C   UNL A   1      45.676  30.978  28.465  1.00  0.00     0.049 A 
ATOM     61  H   UNL A   1      44.773  29.096  28.148  1.00  0.00     0.167 HD
ATOM     62  C   UNL A   1      43.386  31.242  29.388  1.00  0.00     0.074 A 
ATOM     63  C   UNL A   1      42.334  32.006  30.027  1.00  0.00     0.031 C 
ATOM     64  C   UNL A   1      44.626  31.729  29.117  1.00  0.00     0.034 A 
BRANCH  51  65
ATOM     65  C   UNL A   1      48.372  27.608  26.347  1.00  0.00     0.023 A 
ATOM     66  C   UNL A   1      48.678  27.825  24.991  1.00  0.00     0.031 A 
ATOM     67  C   UNL A   1      49.353  26.998  27.149  1.00  0.00     0.131 A 
ATOM     68  C   UNL A   1      49.881  27.340  24.457  1.00  0.00     0.055 A 
ATOM     69  C   UNL A   1      50.592  26.611  26.634  1.00  0.00     0.041 A 
ATOM     70  F   UNL A   1      49.116  26.740  28.444  1.00  0.00    -0.206 F 
ATOM     71  C   UNL A   1      50.852  26.760  25.274  1.00  0.00     0.022 A 
BRANCH  68  72
ATOM     72  S   UNL A   1      50.067  27.293  22.652  1.00  0.00     0.124 S 
ATOM     73  O   UNL A   1      49.916  28.705  22.304  1.00  0.00    -0.237 OA
ATOM     74  O   UNL A   1      51.402  26.733  22.487  1.00  0.00    -0.237 OA
ATOM     75  O   UNL A   1      48.969  26.434  22.217  1.00  0.00    -0.744 OA
ENDBRANCH  68  72
ENDBRANCH  51  65
BRANCH  52  76
ATOM     76  C   UNL A   1      39.197  29.184  30.068  1.00  0.00     0.023 A 
ATOM     77  C   UNL A   1      38.241  29.902  29.332  1.00  0.00     0.031 A 
ATOM     78  C   UNL A   1      38.842  28.744  31.356  1.00  0.00     0.131 A 
ATOM     79  C   UNL A   1      36.990  30.190  29.901  1.00  0.00     0.055 A 
ATOM     80  C   UNL A   1      37.577  28.986  31.896  1.00  0.00     0.041 A 
ATOM     81  F   UNL A   1      39.721  28.062  32.109  1.00  0.00    -0.206 F 
ATOM     82  C   UNL A   1      36.646  29.722  31.171  1.00  0.00     0.022 A 
BRANCH  79  83
ATOM     83  S   UNL A   1      35.842  31.254  28.985  1.00  0.00     0.124 S 
ATOM     84  O   UNL A   1      35.086  31.875  30.068  1.00  0.00    -0.237 OA
ATOM     85  O   UNL A   1      36.754  32.128  28.255  1.00  0.00    -0.237 OA
ATOM     86  O   UNL A   1      35.091  30.312  28.159  1.00  0.00    -0.744 OA
ENDBRANCH  79  83
ENDBRANCH  52  76
BRANCH  64  87
ATOM     87  C   UNL A   1      44.896  33.176  29.466  1.00  0.00     0.023 A 
ATOM     88  C   UNL A   1      44.469  34.235  28.646  1.00  0.00     0.031 A 
ATOM     89  C   UNL A   1      45.599  33.497  30.642  1.00  0.00     0.131 A 
ATOM     90  C   UNL A   1      44.801  35.558  28.981  1.00  0.00     0.055 A 
ATOM     91  C   UNL A   1      45.866  34.818  31.005  1.00  0.00     0.041 A 
ATOM     92  F   UNL A   1      46.039  32.529  31.463  1.00  0.00    -0.206 F 
ATOM     93  C   UNL A   1      45.478  35.857  30.165  1.00  0.00     0.022 A 
BRANCH  90  94
ATOM     94  S   UNL A   1      44.434  36.878  27.790  1.00  0.00     0.124 S 
ATOM     95  O   UNL A   1      45.170  38.006  28.352  1.00  0.00    -0.237 OA
ATOM     96  O   UNL A   1      44.961  36.329  26.544  1.00  0.00    -0.237 OA
ATOM     97  O   UNL A   1      42.978  36.995  27.847  1.00  0.00    -0.744 OA
ENDBRANCH  90  94
ENDBRANCH  64  87
ENDBRANCH  38  39
ENDBRANCH  31  33
ENDBRANCH  30  31
ENDBRANCH  29  30
ENDBRANCH  28  29
ENDBRANCH  27  28
ENDBRANCH  26  27
ENDBRANCH  25  26
ENDBRANCH   1  25
TORSDOF 26
ENDMDL
MODEL 3
REMARK VINA RESULT:      -9.0      1.989      2.558
REMARK SMILES Cc1ccc(-c2noc(CCC(=O)OCCOCCOCCOCCOC(=O)c3ccc(-c4c5nc(c(-c6cc(S(=O)(=O)[O-])ccc6F)c6ccc([nH]6)c(-c6cc(S(=O)(=O)[O-])ccc6F)c6nc(c(-c7cc(S(=O)(=O)[O-])ccc7F)c7ccc4[nH]7)C=C6)C=C5)cc3)n2)cc1C
REMARK SMILES IDX 20 1 19 2 18 3 17 4 16 5 15 6 14 7 12 8 13 9 11 10 10 11
REMARK SMILES IDX 9 12 6 13 7 14 92 15 8 16 5 17 1 18 2 19 3 20 94 21 4 22
REMARK SMILES IDX 93 23 95 24 21 25 22 26 23 27 24 28 25 29 26 30 27 31 28 32
REMARK SMILES IDX 29 33 30 34 91 35 31 36 90 37 32 38 33 39 34 40 84 41 35 42
REMARK SMILES IDX 89 43 83 44 85 45 36 46 88 47 82 48 81 49 37 51 69 52 49 53
REMARK SMILES IDX 68 54 50 55 53 56 67 57 86 58 51 59 52 60 66 62 87 63 54 64
REMARK SMILES IDX 38 65 39 66 47 67 40 68 46 69 48 70 45 71 41 72 42 73 43 74
REMARK SMILES IDX 44 75 70 76 71 77 79 78 72 79 78 80 80 81 77 82 73 83 74 84
REMARK SMILES IDX 75 85 76 86 55 87 56 88 64 89 57 90 63 91 65 92 62 93 58 94
REMARK SMILES IDX 59 95 60 96 61 97
REMARK H PARENT 85 50 53 61
REMARK Flexibility Score: inf
ROOT
ATOM      1  O   UNL A   1      35.432  24.095  24.507  1.00  0.00    -0.377 OA
ENDROOT
BRANCH   1   2
ATOM      2  C   UNL A   1      34.521  24.076  25.591  1.00  0.00     0.188 C 
BRANCH   2   3
ATOM      3  C   UNL A   1      33.756  25.349  25.984  1.00  0.00     0.188 C 
BRANCH   3   4
ATOM      4  O   UNL A   1      33.935  26.461  25.141  1.00  0.00    -0.376 OA
BRANCH   4   5
ATOM      5  C   UNL A   1      32.856  27.322  24.826  1.00  0.00     0.202 C 
BRANCH   5   6
ATOM      6  C   UNL A   1      32.687  28.074  23.493  1.00  0.00     0.261 C 
BRANCH   6   7
ATOM      7  O   UNL A   1      31.984  27.402  22.440  1.00  0.00    -0.463 OA
BRANCH   7   8
ATOM      8  C   UNL A   1      32.581  26.328  21.891  1.00  0.00     0.306 C 
ATOM      9  O   UNL A   1      33.681  26.356  21.344  1.00  0.00    -0.252 OA
BRANCH   8  10
ATOM     10  C   UNL A   1      31.826  25.024  22.034  1.00  0.00     0.132 C 
BRANCH  10  11
ATOM     11  C   UNL A   1      31.087  24.596  23.294  1.00  0.00     0.112 C 
BRANCH  11  12
ATOM     12  C   UNL A   1      31.405  23.277  23.875  1.00  0.00     0.227 A 
ATOM     13  C   UNL A   1      32.179  21.409  24.399  1.00  0.00     0.202 A 
ATOM     14  N   UNL A   1      31.352  21.694  25.413  1.00  0.00    -0.057 NA
ATOM     15  N   UNL A   1      32.247  22.377  23.424  1.00  0.00    -0.191 NA
ATOM     16  O   UNL A   1      30.870  22.953  25.082  1.00  0.00    -0.339 OA
BRANCH  13  17
ATOM     17  C   UNL A   1      32.801  20.122  24.215  1.00  0.00     0.023 A 
ATOM     18  C   UNL A   1      34.634  16.229  24.122  1.00  0.00     0.044 C 
ATOM     19  C   UNL A   1      34.029  17.604  24.135  1.00  0.00    -0.048 A 
ATOM     20  C   UNL A   1      32.675  17.755  23.786  1.00  0.00     0.004 A 
ATOM     21  C   UNL A   1      34.782  18.736  24.501  1.00  0.00    -0.047 A 
ATOM     22  C   UNL A   1      32.058  19.006  23.837  1.00  0.00     0.012 A 
ATOM     23  C   UNL A   1      34.157  19.989  24.520  1.00  0.00     0.015 A 
ATOM     24  C   UNL A   1      36.227  18.690  24.909  1.00  0.00     0.044 C 
ENDBRANCH  13  17
ENDBRANCH  11  12
ENDBRANCH  10  11
ENDBRANCH   8  10
ENDBRANCH   7   8
ENDBRANCH   6   7
ENDBRANCH   5   6
ENDBRANCH   4   5
ENDBRANCH   3   4
ENDBRANCH   2   3
ENDBRANCH   1   2
BRANCH   1  25
ATOM     25  C   UNL A   1      36.787  23.687  24.697  1.00  0.00     0.188 C 
BRANCH  25  26
ATOM     26  C   UNL A   1      37.183  22.792  25.891  1.00  0.00     0.188 C 
BRANCH  26  27
ATOM     27  O   UNL A   1      37.756  21.545  25.535  1.00  0.00    -0.376 OA
BRANCH  27  28
ATOM     28  C   UNL A   1      39.096  21.302  25.938  1.00  0.00     0.202 C 
BRANCH  28  29
ATOM     29  C   UNL A   1      39.664  19.891  25.719  1.00  0.00     0.261 C 
BRANCH  29  30
ATOM     30  O   UNL A   1      40.718  19.482  26.606  1.00  0.00    -0.460 OA
BRANCH  30  31
ATOM     31  C   UNL A   1      41.988  19.558  26.141  1.00  0.00     0.338 C 
ATOM     32  O   UNL A   1      42.560  18.751  25.441  1.00  0.00    -0.246 OA
BRANCH  31  33
ATOM     33  C   UNL A   1      42.506  20.899  26.488  1.00  0.00     0.060 A 
ATOM     34  C   UNL A   1      42.453  21.326  27.822  1.00  0.00     0.016 A 
ATOM     35  C   UNL A   1      43.032  21.729  25.497  1.00  0.00     0.016 A 
ATOM     36  C   UNL A   1      42.893  22.605  28.161  1.00  0.00     0.010 A 
ATOM     37  C   UNL A   1      43.455  23.016  25.836  1.00  0.00     0.010 A 
ATOM     38  C   UNL A   1      43.354  23.474  27.163  1.00  0.00    -0.014 A 
BRANCH  38  39
ATOM     39  C   UNL A   1      43.527  24.917  27.465  1.00  0.00     0.031 A 
ATOM     40  C   UNL A   1      44.865  25.547  27.184  1.00  0.00     0.074 A 
ATOM     41  C   UNL A   1      42.517  25.662  27.946  1.00  0.00     0.049 A 
ATOM     42  N   UNL A   1      45.276  26.769  27.402  1.00  0.00    -0.248 NA
ATOM     43  C   UNL A   1      45.876  24.667  26.580  1.00  0.00     0.031 C 
ATOM     44  C   UNL A   1      41.162  25.181  28.203  1.00  0.00     0.029 A 
ATOM     45  N   UNL A   1      42.481  26.986  28.304  1.00  0.00    -0.354 N 
ATOM     46  C   UNL A   1      46.597  26.805  26.964  1.00  0.00     0.074 A 
ATOM     47  C   UNL A   1      46.927  25.467  26.522  1.00  0.00     0.031 C 
ATOM     48  C   UNL A   1      40.422  26.201  28.673  1.00  0.00     0.029 A 
ATOM     49  C   UNL A   1      41.263  27.392  28.794  1.00  0.00     0.049 A 
ATOM     50  H   UNL A   1      43.255  27.588  28.219  1.00  0.00     0.167 HD
ATOM     51  C   UNL A   1      47.450  27.860  26.920  1.00  0.00     0.034 A 
ATOM     52  C   UNL A   1      40.880  28.583  29.300  1.00  0.00     0.034 A 
ATOM     53  C   UNL A   1      47.112  29.180  27.394  1.00  0.00     0.049 A 
ATOM     54  C   UNL A   1      41.883  29.710  29.366  1.00  0.00     0.074 A 
ATOM     55  C   UNL A   1      47.896  30.320  27.407  1.00  0.00     0.029 A 
ATOM     56  N   UNL A   1      45.892  29.534  27.959  1.00  0.00    -0.354 N 
ATOM     57  N   UNL A   1      43.131  29.737  28.956  1.00  0.00    -0.248 NA
ATOM     58  C   UNL A   1      41.422  30.971  29.961  1.00  0.00     0.031 C 
ATOM     59  C   UNL A   1      47.185  31.334  28.057  1.00  0.00     0.029 A 
ATOM     60  C   UNL A   1      45.918  30.862  28.361  1.00  0.00     0.049 A 
ATOM     61  H   UNL A   1      45.121  28.931  28.059  1.00  0.00     0.167 HD
ATOM     62  C   UNL A   1      43.590  31.028  29.209  1.00  0.00     0.074 A 
ATOM     63  C   UNL A   1      42.481  31.750  29.799  1.00  0.00     0.031 C 
ATOM     64  C   UNL A   1      44.812  31.571  28.965  1.00  0.00     0.034 A 
BRANCH  51  65
ATOM     65  C   UNL A   1      48.844  27.591  26.400  1.00  0.00     0.023 A 
ATOM     66  C   UNL A   1      49.929  27.375  27.269  1.00  0.00     0.031 A 
ATOM     67  C   UNL A   1      49.110  27.627  25.019  1.00  0.00     0.131 A 
ATOM     68  C   UNL A   1      51.235  27.315  26.760  1.00  0.00     0.055 A 
ATOM     69  C   UNL A   1      50.400  27.462  24.511  1.00  0.00     0.041 A 
ATOM     70  F   UNL A   1      48.124  27.853  24.137  1.00  0.00    -0.206 F 
ATOM     71  C   UNL A   1      51.475  27.328  25.385  1.00  0.00     0.022 A 
BRANCH  68  72
ATOM     72  S   UNL A   1      52.621  27.426  27.926  1.00  0.00     0.124 S 
ATOM     73  O   UNL A   1      53.034  28.818  27.760  1.00  0.00    -0.237 OA
ATOM     74  O   UNL A   1      51.991  27.093  29.197  1.00  0.00    -0.237 OA
ATOM     75  O   UNL A   1      53.573  26.439  27.421  1.00  0.00    -0.744 OA
ENDBRANCH  68  72
ENDBRANCH  51  65
BRANCH  52  76
ATOM     76  C   UNL A   1      39.490  28.774  29.806  1.00  0.00     0.023 A 
ATOM     77  C   UNL A   1      38.490  29.313  28.981  1.00  0.00     0.031 A 
ATOM     78  C   UNL A   1      39.148  28.458  31.134  1.00  0.00     0.131 A 
ATOM     79  C   UNL A   1      37.208  29.554  29.499  1.00  0.00     0.055 A 
ATOM     80  C   UNL A   1      37.856  28.649  31.629  1.00  0.00     0.041 A 
ATOM     81  F   UNL A   1      40.067  27.949  31.971  1.00  0.00    -0.206 F 
ATOM     82  C   UNL A   1      36.880  29.210  30.812  1.00  0.00     0.022 A 
BRANCH  79  83
ATOM     83  S   UNL A   1      35.990  30.398  28.453  1.00  0.00     0.124 S 
ATOM     84  O   UNL A   1      35.031  29.330  28.194  1.00  0.00    -0.237 OA
ATOM     85  O   UNL A   1      35.534  31.475  29.325  1.00  0.00    -0.237 OA
ATOM     86  O   UNL A   1      36.775  30.826  27.297  1.00  0.00    -0.744 OA
ENDBRANCH  79  83
ENDBRANCH  52  76
BRANCH  64  87
ATOM     87  C   UNL A   1      44.997  33.037  29.290  1.00  0.00     0.023 A 
ATOM     88  C   UNL A   1      45.498  33.470  30.531  1.00  0.00     0.031 A 
ATOM     89  C   UNL A   1      44.658  34.018  28.340  1.00  0.00     0.131 A 
ATOM     90  C   UNL A   1      45.589  34.843  30.809  1.00  0.00     0.055 A 
ATOM     91  C   UNL A   1      44.817  35.381  28.597  1.00  0.00     0.041 A 
ATOM     92  F   UNL A   1      44.168  33.668  27.139  1.00  0.00    -0.206 F 
ATOM     93  C   UNL A   1      45.272  35.801  29.843  1.00  0.00     0.022 A 
BRANCH  90  94
ATOM     94  S   UNL A   1      46.023  35.366  32.492  1.00  0.00     0.124 S 
ATOM     95  O   UNL A   1      45.910  36.817  32.397  1.00  0.00    -0.237 OA
ATOM     96  O   UNL A   1      45.007  34.697  33.298  1.00  0.00    -0.237 OA
ATOM     97  O   UNL A   1      47.383  34.859  32.668  1.00  0.00    -0.744 OA
ENDBRANCH  90  94
ENDBRANCH  64  87
ENDBRANCH  38  39
ENDBRANCH  31  33
ENDBRANCH  30  31
ENDBRANCH  29  30
ENDBRANCH  28  29
ENDBRANCH  27  28
ENDBRANCH  26  27
ENDBRANCH  25  26
ENDBRANCH   1  25
TORSDOF 26
ENDMDL
