MODEL 1
REMARK VINA RESULT:     -11.7      0.000      0.000
REMARK SMILES Cc1ccc(-c2nn(-c3ccccc3)cc2[C@@H]2[NH2+][C@H](C(=O)OCCOCCOCCOCCOC(=O)c3ccc(-c4c5nc(c(-c6cc(S(=O)(=O)[O-])ccc6F)c6ccc([nH]6)c(-c6cc(S(=O)(=O)[O-])ccc6F)c6nc(c(-c7cc(S(=O)(=O)[O-])ccc7F)c7ccc4[nH]7)C=C6)C=C5)cc3)CS2)cc1
REMARK SMILES IDX 29 1 28 2 27 3 26 4 25 5 24 6 23 7 22 8 20 9 21 10 19 11
REMARK SMILES IDX 17 12 18 13 101 14 100 17 16 18 6 19 7 20 8 21 15 22 5 23
REMARK SMILES IDX 1 24 2 25 3 26 103 27 4 28 102 29 9 30 10 31 14 32 11 33
REMARK SMILES IDX 13 34 12 35 30 36 31 37 32 38 33 39 34 40 35 41 36 42 37 43
REMARK SMILES IDX 38 44 99 45 39 46 98 47 40 48 41 49 42 50 92 51 43 52 97 53
REMARK SMILES IDX 91 54 93 55 44 56 96 57 90 58 89 59 45 61 77 62 57 63 76 64
REMARK SMILES IDX 58 65 61 66 75 67 94 68 59 69 60 70 74 72 95 73 62 74 46 75
REMARK SMILES IDX 47 76 55 77 48 78 54 79 56 80 53 81 49 82 50 83 51 84 52 85
REMARK SMILES IDX 78 86 79 87 87 88 80 89 86 90 88 91 85 92 81 93 82 94 83 95
REMARK SMILES IDX 84 96 63 97 64 98 72 99 65 100 71 101 73 102 70 103 66 104
REMARK SMILES IDX 67 105 68 106 69 107
REMARK H PARENT 18 15 18 16 93 60 61 71
REMARK Flexibility Score: inf
ROOT
ATOM      1  C   UNL A   1      34.052  35.682  31.382  1.00  0.00     0.188 C 
ENDROOT
BRANCH   1   2
ATOM      2  O   UNL A   1      32.812  36.096  30.816  1.00  0.00    -0.377 OA
BRANCH   2   3
ATOM      3  C   UNL A   1      32.635  36.061  29.400  1.00  0.00     0.188 C 
BRANCH   3   4
ATOM      4  C   UNL A   1      33.877  35.861  28.518  1.00  0.00     0.188 C 
BRANCH   4   5
ATOM      5  O   UNL A   1      34.279  34.547  28.164  1.00  0.00    -0.376 OA
BRANCH   5   6
ATOM      6  C   UNL A   1      33.238  33.563  28.240  1.00  0.00     0.202 C 
BRANCH   6   7
ATOM      7  C   UNL A   1      32.153  33.496  27.138  1.00  0.00     0.261 C 
BRANCH   7   8
ATOM      8  O   UNL A   1      32.336  32.287  26.369  1.00  0.00    -0.459 OA
BRANCH   8   9
ATOM      9  C   UNL A   1      31.325  31.444  26.054  1.00  0.00     0.365 C 
ATOM     10  O   UNL A   1      30.456  31.668  25.223  1.00  0.00    -0.245 OA
BRANCH   9  11
ATOM     11  C   UNL A   1      31.574  30.052  26.711  1.00  0.00     0.304 C 
ATOM     12  C   UNL A   1      32.049  27.716  26.072  1.00  0.00     0.278 C 
ATOM     13  N   UNL A   1      31.440  28.976  25.680  1.00  0.00    -0.319 N 
ATOM     14  S   UNL A   1      33.299  28.187  27.392  1.00  0.00    -0.087 SA
ATOM     15  H   UNL A   1      30.446  28.814  25.509  1.00  0.00     0.348 HD
ATOM     16  H   UNL A   1      31.928  29.298  24.845  1.00  0.00     0.348 HD
ATOM     17  C   UNL A   1      32.909  29.963  27.407  1.00  0.00     0.153 C 
BRANCH  12  18
ATOM     18  C   UNL A   1      32.649  26.606  24.839  1.00  0.00     0.067 A 
ATOM     19  C   UNL A   1      31.010  25.834  24.096  1.00  0.00     0.103 A 
ATOM     20  N   UNL A   1      31.238  24.195  23.722  1.00  0.00    -0.167 NA
ATOM     21  N   UNL A   1      32.993  23.664  24.052  1.00  0.00    -0.240 N 
ATOM     22  C   UNL A   1      33.959  25.240  24.638  1.00  0.00     0.126 A 
BRANCH  19  23
ATOM     23  C   UNL A   1      30.019  26.867  23.333  1.00  0.00     0.003 A 
ATOM     24  C   UNL A   1      27.367  30.407  23.093  1.00  0.00     0.044 C 
ATOM     25  C   UNL A   1      28.234  29.179  22.987  1.00  0.00    -0.051 A 
ATOM     26  C   UNL A   1      27.786  28.025  23.585  1.00  0.00     0.004 A 
ATOM     27  C   UNL A   1      29.546  29.151  22.481  1.00  0.00     0.004 A 
ATOM     28  C   UNL A   1      28.642  26.914  23.700  1.00  0.00     0.011 A 
ATOM     29  C   UNL A   1      30.432  28.022  22.660  1.00  0.00     0.011 A 
ENDBRANCH  19  23
BRANCH  21  30
ATOM     30  C   UNL A   1      33.363  22.235  23.900  1.00  0.00     0.065 A 
ATOM     31  C   UNL A   1      34.485  21.640  24.489  1.00  0.00     0.028 A 
ATOM     32  C   UNL A   1      32.457  21.366  23.286  1.00  0.00     0.028 A 
ATOM     33  C   UNL A   1      34.527  20.287  24.800  1.00  0.00     0.002 A 
ATOM     34  C   UNL A   1      32.444  20.014  23.669  1.00  0.00     0.002 A 
ATOM     35  C   UNL A   1      33.445  19.493  24.485  1.00  0.00     0.000 A 
ENDBRANCH  21  30
ENDBRANCH  12  18
ENDBRANCH   9  11
ENDBRANCH   8   9
ENDBRANCH   7   8
ENDBRANCH   6   7
ENDBRANCH   5   6
ENDBRANCH   4   5
ENDBRANCH   3   4
ENDBRANCH   2   3
ENDBRANCH   1   2
BRANCH   1  36
ATOM     36  C   UNL A   1      34.063  34.554  32.349  1.00  0.00     0.188 C 
BRANCH  36  37
ATOM     37  O   UNL A   1      34.168  33.343  31.618  1.00  0.00    -0.376 OA
BRANCH  37  38
ATOM     38  C   UNL A   1      35.470  33.074  31.136  1.00  0.00     0.202 C 
BRANCH  38  39
ATOM     39  C   UNL A   1      35.592  31.712  30.449  1.00  0.00     0.261 C 
BRANCH  39  40
ATOM     40  O   UNL A   1      36.818  31.682  29.680  1.00  0.00    -0.460 OA
BRANCH  40  41
ATOM     41  C   UNL A   1      36.769  30.991  28.503  1.00  0.00     0.338 C 
ATOM     42  O   UNL A   1      36.058  31.293  27.559  1.00  0.00    -0.246 OA
BRANCH  41  43
ATOM     43  C   UNL A   1      37.676  29.796  28.529  1.00  0.00     0.060 A 
ATOM     44  C   UNL A   1      37.620  28.874  29.583  1.00  0.00     0.016 A 
ATOM     45  C   UNL A   1      38.756  29.730  27.657  1.00  0.00     0.016 A 
ATOM     46  C   UNL A   1      38.727  28.035  29.858  1.00  0.00     0.010 A 
ATOM     47  C   UNL A   1      39.881  28.984  28.008  1.00  0.00     0.010 A 
ATOM     48  C   UNL A   1      39.929  28.173  29.151  1.00  0.00    -0.014 A 
BRANCH  48  49
ATOM     49  C   UNL A   1      41.215  27.451  29.451  1.00  0.00     0.031 A 
ATOM     50  C   UNL A   1      41.277  26.023  29.065  1.00  0.00     0.074 A 
ATOM     51  C   UNL A   1      42.416  28.035  29.770  1.00  0.00     0.049 A 
ATOM     52  N   UNL A   1      42.253  25.242  29.358  1.00  0.00    -0.248 NA
ATOM     53  C   UNL A   1      40.338  25.384  28.147  1.00  0.00     0.031 C 
ATOM     54  C   UNL A   1      43.765  27.563  29.990  1.00  0.00     0.029 A 
ATOM     55  N   UNL A   1      42.718  29.347  30.003  1.00  0.00    -0.354 N 
ATOM     56  C   UNL A   1      42.401  24.407  28.275  1.00  0.00     0.074 A 
ATOM     57  C   UNL A   1      41.092  24.384  27.673  1.00  0.00     0.031 C 
ATOM     58  C   UNL A   1      44.508  28.397  30.767  1.00  0.00     0.029 A 
ATOM     59  C   UNL A   1      43.606  29.458  31.185  1.00  0.00     0.049 A 
ATOM     60  H   UNL A   1      42.394  30.106  29.466  1.00  0.00     0.167 HD
ATOM     61  C   UNL A   1      43.668  24.037  27.917  1.00  0.00     0.034 A 
ATOM     62  C   UNL A   1      43.242  30.290  32.475  1.00  0.00     0.034 A 
ATOM     63  C   UNL A   1      44.690  24.465  28.927  1.00  0.00     0.049 A 
ATOM     64  C   UNL A   1      43.838  28.759  33.223  1.00  0.00     0.074 A 
ATOM     65  C   UNL A   1      45.952  25.043  28.877  1.00  0.00     0.029 A 
ATOM     66  N   UNL A   1      44.348  24.492  30.296  1.00  0.00    -0.354 N 
ATOM     67  N   UNL A   1      43.505  27.509  32.829  1.00  0.00    -0.248 NA
ATOM     68  C   UNL A   1      45.027  28.692  34.097  1.00  0.00     0.031 C 
ATOM     69  C   UNL A   1      46.275  25.534  30.193  1.00  0.00     0.029 A 
ATOM     70  C   UNL A   1      45.197  25.297  31.052  1.00  0.00     0.049 A 
ATOM     71  H   UNL A   1      43.590  23.994  30.678  1.00  0.00     0.167 HD
ATOM     72  C   UNL A   1      44.523  26.583  33.167  1.00  0.00     0.074 A 
ATOM     73  C   UNL A   1      45.356  27.379  34.084  1.00  0.00     0.031 C 
ATOM     74  C   UNL A   1      44.999  25.432  32.507  1.00  0.00     0.034 A 
BRANCH  61  75
ATOM     75  C   UNL A   1      44.045  23.466  26.547  1.00  0.00     0.023 A 
ATOM     76  C   UNL A   1      43.913  22.078  26.343  1.00  0.00     0.031 A 
ATOM     77  C   UNL A   1      44.609  24.165  25.449  1.00  0.00     0.131 A 
ATOM     78  C   UNL A   1      44.327  21.449  25.151  1.00  0.00     0.055 A 
ATOM     79  C   UNL A   1      44.950  23.550  24.230  1.00  0.00     0.041 A 
ATOM     80  F   UNL A   1      44.918  25.465  25.503  1.00  0.00    -0.206 F 
ATOM     81  C   UNL A   1      44.818  22.181  24.076  1.00  0.00     0.022 A 
BRANCH  78  82
ATOM     82  S   UNL A   1      44.253  19.641  25.049  1.00  0.00     0.124 S 
ATOM     83  O   UNL A   1      43.045  19.350  25.814  1.00  0.00    -0.237 OA
ATOM     84  O   UNL A   1      44.177  19.413  23.611  1.00  0.00    -0.237 OA
ATOM     85  O   UNL A   1      45.503  19.214  25.677  1.00  0.00    -0.744 OA
ENDBRANCH  78  82
ENDBRANCH  61  75
BRANCH  62  86
ATOM     86  C   UNL A   1      41.563  31.700  32.735  1.00  0.00     0.023 A 
ATOM     87  C   UNL A   1      40.143  31.579  33.382  1.00  0.00     0.031 A 
ATOM     88  C   UNL A   1      41.657  33.296  33.162  1.00  0.00     0.131 A 
ATOM     89  C   UNL A   1      39.274  32.548  34.077  1.00  0.00     0.055 A 
ATOM     90  C   UNL A   1      40.780  34.271  33.721  1.00  0.00     0.041 A 
ATOM     91  F   UNL A   1      42.857  33.751  33.567  1.00  0.00    -0.206 F 
ATOM     92  C   UNL A   1      39.592  33.878  34.240  1.00  0.00     0.022 A 
BRANCH  89  93
ATOM     93  S   UNL A   1      37.864  31.944  35.096  1.00  0.00     0.124 S 
ATOM     94  O   UNL A   1      37.618  33.080  35.975  1.00  0.00    -0.237 OA
ATOM     95  O   UNL A   1      36.829  31.657  34.106  1.00  0.00    -0.237 OA
ATOM     96  O   UNL A   1      38.397  30.752  35.754  1.00  0.00    -0.744 OA
ENDBRANCH  89  93
ENDBRANCH  62  86
BRANCH  74  97
ATOM     97  C   UNL A   1      45.438  24.174  33.265  1.00  0.00     0.023 A 
ATOM     98  C   UNL A   1      46.715  24.059  33.799  1.00  0.00     0.031 A 
ATOM     99  C   UNL A   1      44.537  23.106  33.587  1.00  0.00     0.131 A 
ATOM    100  C   UNL A   1      47.071  22.926  34.551  1.00  0.00     0.055 A 
ATOM    101  C   UNL A   1      44.872  22.027  34.404  1.00  0.00     0.041 A 
ATOM    102  F   UNL A   1      43.274  23.045  33.143  1.00  0.00    -0.206 F 
ATOM    103  C   UNL A   1      46.159  21.925  34.885  1.00  0.00     0.022 A 
BRANCH 100 104
ATOM    104  S   UNL A   1      48.804  22.762  35.009  1.00  0.00     0.124 S 
ATOM    105  O   UNL A   1      49.358  24.015  34.503  1.00  0.00    -0.237 OA
ATOM    106  O   UNL A   1      48.728  22.641  36.461  1.00  0.00    -0.237 OA
ATOM    107  O   UNL A   1      49.234  21.559  34.301  1.00  0.00    -0.744 OA
ENDBRANCH 100 104
ENDBRANCH  74  97
ENDBRANCH  48  49
ENDBRANCH  41  43
ENDBRANCH  40  41
ENDBRANCH  39  40
ENDBRANCH  38  39
ENDBRANCH  37  38
ENDBRANCH  36  37
ENDBRANCH   1  36
TORSDOF 26
ENDMDL
MODEL 2
REMARK VINA RESULT:     -10.6      5.210     12.645
REMARK SMILES Cc1ccc(-c2nn(-c3ccccc3)cc2[C@@H]2[NH2+][C@H](C(=O)OCCOCCOCCOCCOC(=O)c3ccc(-c4c5nc(c(-c6cc(S(=O)(=O)[O-])ccc6F)c6ccc([nH]6)c(-c6cc(S(=O)(=O)[O-])ccc6F)c6nc(c(-c7cc(S(=O)(=O)[O-])ccc7F)c7ccc4[nH]7)C=C6)C=C5)cc3)CS2)cc1
REMARK SMILES IDX 29 1 28 2 27 3 26 4 25 5 24 6 23 7 22 8 20 9 21 10 19 11
REMARK SMILES IDX 17 12 18 13 101 14 100 17 16 18 6 19 7 20 8 21 15 22 5 23
REMARK SMILES IDX 1 24 2 25 3 26 103 27 4 28 102 29 9 30 10 31 14 32 11 33
REMARK SMILES IDX 13 34 12 35 30 36 31 37 32 38 33 39 34 40 35 41 36 42 37 43
REMARK SMILES IDX 38 44 99 45 39 46 98 47 40 48 41 49 42 50 92 51 43 52 97 53
REMARK SMILES IDX 91 54 93 55 44 56 96 57 90 58 89 59 45 61 77 62 57 63 76 64
REMARK SMILES IDX 58 65 61 66 75 67 94 68 59 69 60 70 74 72 95 73 62 74 46 75
REMARK SMILES IDX 47 76 55 77 48 78 54 79 56 80 53 81 49 82 50 83 51 84 52 85
REMARK SMILES IDX 78 86 79 87 87 88 80 89 86 90 88 91 85 92 81 93 82 94 83 95
REMARK SMILES IDX 84 96 63 97 64 98 72 99 65 100 71 101 73 102 70 103 66 104
REMARK SMILES IDX 67 105 68 106 69 107
REMARK H PARENT 18 15 18 16 93 60 61 71
REMARK Flexibility Score: inf
ROOT
ATOM      1  C   UNL A   1      31.729  29.209  26.343  1.00  0.00     0.188 C 
ENDROOT
BRANCH   1   2
ATOM      2  O   UNL A   1      31.913  27.875  25.878  1.00  0.00    -0.377 OA
BRANCH   2   3
ATOM      3  C   UNL A   1      31.258  27.447  24.685  1.00  0.00     0.188 C 
BRANCH   3   4
ATOM      4  C   UNL A   1      30.862  25.967  24.565  1.00  0.00     0.188 C 
BRANCH   4   5
ATOM      5  O   UNL A   1      31.492  25.150  23.591  1.00  0.00    -0.376 OA
BRANCH   5   6
ATOM      6  C   UNL A   1      32.379  24.158  24.128  1.00  0.00     0.202 C 
BRANCH   6   7
ATOM      7  C   UNL A   1      33.419  24.549  25.206  1.00  0.00     0.261 C 
BRANCH   7   8
ATOM      8  O   UNL A   1      33.275  23.669  26.342  1.00  0.00    -0.459 OA
BRANCH   8   9
ATOM      9  C   UNL A   1      34.295  22.942  26.856  1.00  0.00     0.365 C 
ATOM     10  O   UNL A   1      34.262  22.341  27.921  1.00  0.00    -0.245 OA
BRANCH   9  11
ATOM     11  C   UNL A   1      35.416  22.772  25.785  1.00  0.00     0.304 C 
ATOM     12  C   UNL A   1      37.864  22.507  25.636  1.00  0.00     0.278 C 
ATOM     13  N   UNL A   1      36.751  23.035  26.407  1.00  0.00    -0.319 N 
ATOM     14  S   UNL A   1      37.103  21.167  24.564  1.00  0.00    -0.087 SA
ATOM     15  H   UNL A   1      36.872  24.044  26.499  1.00  0.00     0.348 HD
ATOM     16  H   UNL A   1      36.761  22.561  27.310  1.00  0.00     0.348 HD
ATOM     17  C   UNL A   1      35.391  21.418  25.122  1.00  0.00     0.153 C 
BRANCH  12  18
ATOM     18  C   UNL A   1      39.361  22.050  26.450  1.00  0.00     0.067 A 
ATOM     19  C   UNL A   1      40.531  23.587  26.131  1.00  0.00     0.103 A 
ATOM     20  N   UNL A   1      42.130  23.079  25.876  1.00  0.00    -0.167 NA
ATOM     21  N   UNL A   1      42.289  21.232  26.063  1.00  0.00    -0.240 N 
ATOM     22  C   UNL A   1      40.543  20.563  26.576  1.00  0.00     0.126 A 
BRANCH  19  23
ATOM     23  C   UNL A   1      40.062  24.990  26.799  1.00  0.00     0.003 A 
ATOM     24  C   UNL A   1      40.219  28.208  29.839  1.00  0.00     0.044 C 
ATOM     25  C   UNL A   1      40.028  27.217  28.719  1.00  0.00    -0.051 A 
ATOM     26  C   UNL A   1      39.433  26.015  29.022  1.00  0.00     0.004 A 
ATOM     27  C   UNL A   1      40.563  27.340  27.424  1.00  0.00     0.004 A 
ATOM     28  C   UNL A   1      39.421  24.977  28.073  1.00  0.00     0.011 A 
ATOM     29  C   UNL A   1      40.594  26.244  26.481  1.00  0.00     0.011 A 
ENDBRANCH  19  23
BRANCH  21  30
ATOM     30  C   UNL A   1      43.587  20.579  25.762  1.00  0.00     0.065 A 
ATOM     31  C   UNL A   1      43.741  19.218  25.470  1.00  0.00     0.028 A 
ATOM     32  C   UNL A   1      44.717  21.379  25.573  1.00  0.00     0.028 A 
ATOM     33  C   UNL A   1      44.784  18.742  24.686  1.00  0.00     0.002 A 
ATOM     34  C   UNL A   1      45.731  20.932  24.709  1.00  0.00     0.002 A 
ATOM     35  C   UNL A   1      45.724  19.632  24.211  1.00  0.00     0.000 A 
ENDBRANCH  21  30
ENDBRANCH  12  18
ENDBRANCH   9  11
ENDBRANCH   8   9
ENDBRANCH   7   8
ENDBRANCH   6   7
ENDBRANCH   5   6
ENDBRANCH   4   5
ENDBRANCH   3   4
ENDBRANCH   2   3
ENDBRANCH   1   2
BRANCH   1  36
ATOM     36  C   UNL A   1      32.842  30.183  26.200  1.00  0.00     0.188 C 
BRANCH  36  37
ATOM     37  O   UNL A   1      33.448  30.356  27.470  1.00  0.00    -0.376 OA
BRANCH  37  38
ATOM     38  C   UNL A   1      34.529  31.268  27.473  1.00  0.00     0.202 C 
BRANCH  38  39
ATOM     39  C   UNL A   1      34.887  31.779  28.870  1.00  0.00     0.261 C 
BRANCH  39  40
ATOM     40  O   UNL A   1      36.327  31.865  28.985  1.00  0.00    -0.460 OA
BRANCH  40  41
ATOM     41  C   UNL A   1      36.930  30.877  29.708  1.00  0.00     0.338 C 
ATOM     42  O   UNL A   1      36.475  29.754  29.849  1.00  0.00    -0.246 OA
BRANCH  41  43
ATOM     43  C   UNL A   1      38.208  31.354  30.334  1.00  0.00     0.060 A 
ATOM     44  C   UNL A   1      38.724  30.731  31.478  1.00  0.00     0.016 A 
ATOM     45  C   UNL A   1      38.750  32.574  29.951  1.00  0.00     0.016 A 
ATOM     46  C   UNL A   1      39.630  31.420  32.320  1.00  0.00     0.010 A 
ATOM     47  C   UNL A   1      39.550  33.285  30.846  1.00  0.00     0.010 A 
ATOM     48  C   UNL A   1      39.955  32.763  32.083  1.00  0.00    -0.014 A 
BRANCH  48  49
ATOM     49  C   UNL A   1      40.779  33.641  32.985  1.00  0.00     0.031 A 
ATOM     50  C   UNL A   1      40.033  34.556  33.879  1.00  0.00     0.074 A 
ATOM     51  C   UNL A   1      42.111  33.481  33.275  1.00  0.00     0.049 A 
ATOM     52  N   UNL A   1      40.587  35.447  34.619  1.00  0.00    -0.248 NA
ATOM     53  C   UNL A   1      38.608  34.430  34.172  1.00  0.00     0.031 C 
ATOM     54  C   UNL A   1      43.057  34.117  34.165  1.00  0.00     0.029 A 
ATOM     55  N   UNL A   1      43.021  32.602  32.757  1.00  0.00    -0.354 N 
ATOM     56  C   UNL A   1      39.849  35.483  35.778  1.00  0.00     0.074 A 
ATOM     57  C   UNL A   1      38.546  35.018  35.374  1.00  0.00     0.031 C 
ATOM     58  C   UNL A   1      44.349  33.986  33.762  1.00  0.00     0.029 A 
ATOM     59  C   UNL A   1      44.297  33.301  32.479  1.00  0.00     0.049 A 
ATOM     60  H   UNL A   1      42.853  31.645  32.593  1.00  0.00     0.167 HD
ATOM     61  C   UNL A   1      40.511  35.686  36.957  1.00  0.00     0.034 A 
ATOM     62  C   UNL A   1      44.961  33.371  31.050  1.00  0.00     0.034 A 
ATOM     63  C   UNL A   1      41.951  36.044  36.743  1.00  0.00     0.049 A 
ATOM     64  C   UNL A   1      45.102  35.095  31.567  1.00  0.00     0.074 A 
ATOM     65  C   UNL A   1      43.161  35.674  37.317  1.00  0.00     0.029 A 
ATOM     66  N   UNL A   1      42.320  36.805  35.613  1.00  0.00    -0.354 N 
ATOM     67  N   UNL A   1      44.122  35.826  32.146  1.00  0.00    -0.248 NA
ATOM     68  C   UNL A   1      46.396  35.783  31.754  1.00  0.00     0.031 C 
ATOM     69  C   UNL A   1      44.224  36.097  36.439  1.00  0.00     0.029 A 
ATOM     70  C   UNL A   1      43.673  36.695  35.301  1.00  0.00     0.049 A 
ATOM     71  H   UNL A   1      41.688  37.357  35.098  1.00  0.00     0.167 HD
ATOM     72  C   UNL A   1      44.667  36.863  32.943  1.00  0.00     0.074 A 
ATOM     73  C   UNL A   1      46.077  36.854  32.518  1.00  0.00     0.031 C 
ATOM     74  C   UNL A   1      44.239  37.435  34.158  1.00  0.00     0.034 A 
BRANCH  61  75
ATOM     75  C   UNL A   1      39.934  35.362  38.338  1.00  0.00     0.023 A 
ATOM     76  C   UNL A   1      40.071  36.323  39.361  1.00  0.00     0.031 A 
ATOM     77  C   UNL A   1      39.337  34.146  38.757  1.00  0.00     0.131 A 
ATOM     78  C   UNL A   1      39.660  36.074  40.686  1.00  0.00     0.055 A 
ATOM     79  C   UNL A   1      38.856  33.927  40.062  1.00  0.00     0.041 A 
ATOM     80  F   UNL A   1      39.233  33.080  37.956  1.00  0.00    -0.206 F 
ATOM     81  C   UNL A   1      39.022  34.890  41.040  1.00  0.00     0.022 A 
BRANCH  78  82
ATOM     82  S   UNL A   1      40.017  37.317  41.956  1.00  0.00     0.124 S 
ATOM     83  O   UNL A   1      39.395  36.723  43.135  1.00  0.00    -0.237 OA
ATOM     84  O   UNL A   1      41.474  37.362  41.947  1.00  0.00    -0.237 OA
ATOM     85  O   UNL A   1      39.359  38.520  41.448  1.00  0.00    -0.744 OA
ENDBRANCH  78  82
ENDBRANCH  61  75
BRANCH  62  86
ATOM     86  C   UNL A   1      44.384  32.240  29.244  1.00  0.00     0.023 A 
ATOM     87  C   UNL A   1      45.193  31.453  28.160  1.00  0.00     0.031 A 
ATOM     88  C   UNL A   1      43.100  31.210  29.080  1.00  0.00     0.131 A 
ATOM     89  C   UNL A   1      44.876  30.269  27.338  1.00  0.00     0.055 A 
ATOM     90  C   UNL A   1      42.733  30.143  28.208  1.00  0.00     0.041 A 
ATOM     91  F   UNL A   1      42.432  30.881  30.201  1.00  0.00    -0.206 F 
ATOM     92  C   UNL A   1      43.658  29.626  27.363  1.00  0.00     0.022 A 
BRANCH  89  93
ATOM     93  S   UNL A   1      46.232  29.355  26.490  1.00  0.00     0.124 S 
ATOM     94  O   UNL A   1      46.329  30.066  25.222  1.00  0.00    -0.237 OA
ATOM     95  O   UNL A   1      47.363  29.504  27.403  1.00  0.00    -0.237 OA
ATOM     96  O   UNL A   1      45.724  27.987  26.400  1.00  0.00    -0.744 OA
ENDBRANCH  89  93
ENDBRANCH  62  86
BRANCH  74  97
ATOM     97  C   UNL A   1      44.381  38.931  34.457  1.00  0.00     0.023 A 
ATOM     98  C   UNL A   1      43.484  39.861  33.944  1.00  0.00     0.031 A 
ATOM     99  C   UNL A   1      45.348  39.452  35.379  1.00  0.00     0.131 A 
ATOM    100  C   UNL A   1      43.593  41.218  34.291  1.00  0.00     0.055 A 
ATOM    101  C   UNL A   1      45.396  40.785  35.783  1.00  0.00     0.041 A 
ATOM    102  F   UNL A   1      46.297  38.702  35.956  1.00  0.00    -0.206 F 
ATOM    103  C   UNL A   1      44.517  41.687  35.225  1.00  0.00     0.022 A 
BRANCH 100 104
ATOM    104  S   UNL A   1      42.534  42.373  33.406  1.00  0.00     0.124 S 
ATOM    105  O   UNL A   1      41.692  41.463  32.635  1.00  0.00    -0.237 OA
ATOM    106  O   UNL A   1      41.873  43.082  34.497  1.00  0.00    -0.237 OA
ATOM    107  O   UNL A   1      43.475  43.170  32.621  1.00  0.00    -0.744 OA
ENDBRANCH 100 104
ENDBRANCH  74  97
ENDBRANCH  48  49
ENDBRANCH  41  43
ENDBRANCH  40  41
ENDBRANCH  39  40
ENDBRANCH  38  39
ENDBRANCH  37  38
ENDBRANCH  36  37
ENDBRANCH   1  36
TORSDOF 26
ENDMDL
MODEL 3
REMARK VINA RESULT:     -10.2      2.426      2.811
REMARK SMILES Cc1ccc(-c2nn(-c3ccccc3)cc2[C@@H]2[NH2+][C@H](C(=O)OCCOCCOCCOCCOC(=O)c3ccc(-c4c5nc(c(-c6cc(S(=O)(=O)[O-])ccc6F)c6ccc([nH]6)c(-c6cc(S(=O)(=O)[O-])ccc6F)c6nc(c(-c7cc(S(=O)(=O)[O-])ccc7F)c7ccc4[nH]7)C=C6)C=C5)cc3)CS2)cc1
REMARK SMILES IDX 29 1 28 2 27 3 26 4 25 5 24 6 23 7 22 8 20 9 21 10 19 11
REMARK SMILES IDX 17 12 18 13 101 14 100 17 16 18 6 19 7 20 8 21 15 22 5 23
REMARK SMILES IDX 1 24 2 25 3 26 103 27 4 28 102 29 9 30 10 31 14 32 11 33
REMARK SMILES IDX 13 34 12 35 30 36 31 37 32 38 33 39 34 40 35 41 36 42 37 43
REMARK SMILES IDX 38 44 99 45 39 46 98 47 40 48 41 49 42 50 92 51 43 52 97 53
REMARK SMILES IDX 91 54 93 55 44 56 96 57 90 58 89 59 45 61 77 62 57 63 76 64
REMARK SMILES IDX 58 65 61 66 75 67 94 68 59 69 60 70 74 72 95 73 62 74 46 75
REMARK SMILES IDX 47 76 55 77 48 78 54 79 56 80 53 81 49 82 50 83 51 84 52 85
REMARK SMILES IDX 78 86 79 87 87 88 80 89 86 90 88 91 85 92 81 93 82 94 83 95
REMARK SMILES IDX 84 96 63 97 64 98 72 99 65 100 71 101 73 102 70 103 66 104
REMARK SMILES IDX 67 105 68 106 69 107
REMARK H PARENT 18 15 18 16 93 60 61 71
REMARK Flexibility Score: inf
ROOT
ATOM      1  C   UNL A   1      33.617  36.102  31.480  1.00  0.00     0.188 C 
ENDROOT
BRANCH   1   2
ATOM      2  O   UNL A   1      32.540  36.557  30.666  1.00  0.00    -0.377 OA
BRANCH   2   3
ATOM      3  C   UNL A   1      32.612  36.409  29.249  1.00  0.00     0.188 C 
BRANCH   3   4
ATOM      4  C   UNL A   1      33.951  35.975  28.632  1.00  0.00     0.188 C 
BRANCH   4   5
ATOM      5  O   UNL A   1      34.432  34.660  28.860  1.00  0.00    -0.376 OA
BRANCH   5   6
ATOM      6  C   UNL A   1      33.477  33.621  28.600  1.00  0.00     0.202 C 
BRANCH   6   7
ATOM      7  C   UNL A   1      32.751  33.560  27.234  1.00  0.00     0.261 C 
BRANCH   7   8
ATOM      8  O   UNL A   1      32.688  32.185  26.795  1.00  0.00    -0.459 OA
BRANCH   8   9
ATOM      9  C   UNL A   1      31.558  31.602  26.332  1.00  0.00     0.365 C 
ATOM     10  O   UNL A   1      30.802  32.092  25.504  1.00  0.00    -0.245 OA
BRANCH   9  11
ATOM     11  C   UNL A   1      31.495  30.118  26.810  1.00  0.00     0.304 C 
ATOM     12  C   UNL A   1      31.708  27.831  25.910  1.00  0.00     0.278 C 
ATOM     13  N   UNL A   1      31.359  29.213  25.626  1.00  0.00    -0.319 N 
ATOM     14  S   UNL A   1      32.801  27.923  27.435  1.00  0.00    -0.087 SA
ATOM     15  H   UNL A   1      30.390  29.242  25.306  1.00  0.00     0.348 HD
ATOM     16  H   UNL A   1      32.011  29.546  24.916  1.00  0.00     0.348 HD
ATOM     17  C   UNL A   1      32.681  29.724  27.653  1.00  0.00     0.153 C 
BRANCH  12  18
ATOM     18  C   UNL A   1      32.316  26.793  24.620  1.00  0.00     0.067 A 
ATOM     19  C   UNL A   1      30.683  26.200  23.715  1.00  0.00     0.103 A 
ATOM     20  N   UNL A   1      30.831  24.588  23.209  1.00  0.00    -0.167 NA
ATOM     21  N   UNL A   1      32.526  23.913  23.592  1.00  0.00    -0.240 N 
ATOM     22  C   UNL A   1      33.548  25.363  24.372  1.00  0.00     0.126 A 
BRANCH  19  23
ATOM     23  C   UNL A   1      29.809  27.360  22.992  1.00  0.00     0.003 A 
ATOM     24  C   UNL A   1      27.847  31.325  22.777  1.00  0.00     0.044 C 
ATOM     25  C   UNL A   1      28.451  29.949  22.671  1.00  0.00    -0.051 A 
ATOM     26  C   UNL A   1      27.879  28.939  23.408  1.00  0.00     0.004 A 
ATOM     27  C   UNL A   1      29.659  29.639  22.019  1.00  0.00     0.004 A 
ATOM     28  C   UNL A   1      28.523  27.693  23.511  1.00  0.00     0.011 A 
ATOM     29  C   UNL A   1      30.337  28.373  22.184  1.00  0.00     0.011 A 
ENDBRANCH  19  23
BRANCH  21  30
ATOM     30  C   UNL A   1      32.814  22.481  23.334  1.00  0.00     0.065 A 
ATOM     31  C   UNL A   1      33.427  21.618  24.251  1.00  0.00     0.028 A 
ATOM     32  C   UNL A   1      32.292  21.884  22.183  1.00  0.00     0.028 A 
ATOM     33  C   UNL A   1      33.204  20.247  24.241  1.00  0.00     0.002 A 
ATOM     34  C   UNL A   1      31.984  20.513  22.207  1.00  0.00     0.002 A 
ATOM     35  C   UNL A   1      32.382  19.710  23.272  1.00  0.00     0.000 A 
ENDBRANCH  21  30
ENDBRANCH  12  18
ENDBRANCH   9  11
ENDBRANCH   8   9
ENDBRANCH   7   8
ENDBRANCH   6   7
ENDBRANCH   5   6
ENDBRANCH   4   5
ENDBRANCH   3   4
ENDBRANCH   2   3
ENDBRANCH   1   2
BRANCH   1  36
ATOM     36  C   UNL A   1      33.364  35.034  32.481  1.00  0.00     0.188 C 
BRANCH  36  37
ATOM     37  O   UNL A   1      33.862  33.812  31.961  1.00  0.00    -0.376 OA
BRANCH  37  38
ATOM     38  C   UNL A   1      35.273  33.735  31.924  1.00  0.00     0.202 C 
BRANCH  38  39
ATOM     39  C   UNL A   1      35.802  32.299  31.900  1.00  0.00     0.261 C 
BRANCH  39  40
ATOM     40  O   UNL A   1      37.174  32.310  31.440  1.00  0.00    -0.460 OA
BRANCH  40  41
ATOM     41  C   UNL A   1      37.376  31.907  30.151  1.00  0.00     0.338 C 
ATOM     42  O   UNL A   1      36.868  32.438  29.178  1.00  0.00    -0.246 OA
BRANCH  41  43
ATOM     43  C   UNL A   1      38.276  30.707  30.085  1.00  0.00     0.060 A 
ATOM     44  C   UNL A   1      38.158  29.668  31.018  1.00  0.00     0.016 A 
ATOM     45  C   UNL A   1      39.401  30.733  29.271  1.00  0.00     0.016 A 
ATOM     46  C   UNL A   1      39.245  28.792  31.252  1.00  0.00     0.010 A 
ATOM     47  C   UNL A   1      40.503  29.940  29.592  1.00  0.00     0.010 A 
ATOM     48  C   UNL A   1      40.485  29.000  30.633  1.00  0.00    -0.014 A 
BRANCH  48  49
ATOM     49  C   UNL A   1      41.749  28.235  30.915  1.00  0.00     0.031 A 
ATOM     50  C   UNL A   1      42.001  27.041  30.076  1.00  0.00     0.074 A 
ATOM     51  C   UNL A   1      42.818  28.680  31.653  1.00  0.00     0.049 A 
ATOM     52  N   UNL A   1      42.968  26.219  30.269  1.00  0.00    -0.248 NA
ATOM     53  C   UNL A   1      41.304  26.761  28.824  1.00  0.00     0.031 C 
ATOM     54  C   UNL A   1      44.139  28.178  31.962  1.00  0.00     0.029 A 
ATOM     55  N   UNL A   1      42.961  29.825  32.385  1.00  0.00    -0.354 N 
ATOM     56  C   UNL A   1      43.383  25.830  29.017  1.00  0.00     0.074 A 
ATOM     57  C   UNL A   1      42.213  26.007  28.193  1.00  0.00     0.031 C 
ATOM     58  C   UNL A   1      44.653  28.687  33.113  1.00  0.00     0.029 A 
ATOM     59  C   UNL A   1      43.603  29.517  33.684  1.00  0.00     0.049 A 
ATOM     60  H   UNL A   1      42.678  30.723  32.093  1.00  0.00     0.167 HD
ATOM     61  C   UNL A   1      44.721  25.628  28.815  1.00  0.00     0.034 A 
ATOM     62  C   UNL A   1      42.940  29.826  35.082  1.00  0.00     0.034 A 
ATOM     63  C   UNL A   1      45.500  25.678  30.095  1.00  0.00     0.049 A 
ATOM     64  C   UNL A   1      43.514  28.137  35.353  1.00  0.00     0.074 A 
ATOM     65  C   UNL A   1      46.697  26.253  30.506  1.00  0.00     0.029 A 
ATOM     66  N   UNL A   1      44.911  25.209  31.289  1.00  0.00    -0.354 N 
ATOM     67  N   UNL A   1      43.366  27.107  34.489  1.00  0.00    -0.248 NA
ATOM     68  C   UNL A   1      44.524  27.776  36.369  1.00  0.00     0.031 C 
ATOM     69  C   UNL A   1      46.729  26.243  31.947  1.00  0.00     0.029 A 
ATOM     70  C   UNL A   1      45.536  25.700  32.433  1.00  0.00     0.049 A 
ATOM     71  H   UNL A   1      44.140  24.598  31.312  1.00  0.00     0.167 HD
ATOM     72  C   UNL A   1      44.378  26.134  34.681  1.00  0.00     0.074 A 
ATOM     73  C   UNL A   1      44.958  26.559  35.966  1.00  0.00     0.031 C 
ATOM     74  C   UNL A   1      45.062  25.302  33.772  1.00  0.00     0.034 A 
BRANCH  61  75
ATOM     75  C   UNL A   1      45.390  25.592  27.438  1.00  0.00     0.023 A 
ATOM     76  C   UNL A   1      46.152  26.708  27.037  1.00  0.00     0.031 A 
ATOM     77  C   UNL A   1      45.268  24.584  26.448  1.00  0.00     0.131 A 
ATOM     78  C   UNL A   1      46.722  26.806  25.752  1.00  0.00     0.055 A 
ATOM     79  C   UNL A   1      45.902  24.647  25.194  1.00  0.00     0.041 A 
ATOM     80  F   UNL A   1      44.488  23.509  26.607  1.00  0.00    -0.206 F 
ATOM     81  C   UNL A   1      46.629  25.767  24.833  1.00  0.00     0.022 A 
BRANCH  78  82
ATOM     82  S   UNL A   1      47.555  28.347  25.285  1.00  0.00     0.124 S 
ATOM     83  O   UNL A   1      48.613  27.858  24.407  1.00  0.00    -0.237 OA
ATOM     84  O   UNL A   1      46.482  29.100  24.646  1.00  0.00    -0.237 OA
ATOM     85  O   UNL A   1      48.012  28.888  26.564  1.00  0.00    -0.744 OA
ENDBRANCH  78  82
ENDBRANCH  61  75
BRANCH  62  86
ATOM     86  C   UNL A   1      41.130  31.028  35.472  1.00  0.00     0.023 A 
ATOM     87  C   UNL A   1      40.516  31.664  36.764  1.00  0.00     0.031 A 
ATOM     88  C   UNL A   1      40.528  32.257  34.542  1.00  0.00     0.131 A 
ATOM     89  C   UNL A   1      39.712  32.880  36.996  1.00  0.00     0.055 A 
ATOM     90  C   UNL A   1      39.651  33.366  34.732  1.00  0.00     0.041 A 
ATOM     91  F   UNL A   1      41.304  32.699  33.535  1.00  0.00    -0.206 F 
ATOM     92  C   UNL A   1      39.285  33.717  35.988  1.00  0.00     0.022 A 
BRANCH  89  93
ATOM     93  S   UNL A   1      39.542  33.551  38.703  1.00  0.00     0.124 S 
ATOM     94  O   UNL A   1      38.782  32.500  39.366  1.00  0.00    -0.237 OA
ATOM     95  O   UNL A   1      40.926  33.723  39.139  1.00  0.00    -0.237 OA
ATOM     96  O   UNL A   1      38.825  34.811  38.510  1.00  0.00    -0.744 OA
ENDBRANCH  89  93
ENDBRANCH  62  86
BRANCH  74  97
ATOM     97  C   UNL A   1      45.459  23.862  34.115  1.00  0.00     0.023 A 
ATOM     98  C   UNL A   1      46.762  23.533  34.466  1.00  0.00     0.031 A 
ATOM     99  C   UNL A   1      44.503  22.798  34.229  1.00  0.00     0.131 A 
ATOM    100  C   UNL A   1      47.085  22.219  34.846  1.00  0.00     0.055 A 
ATOM    101  C   UNL A   1      44.816  21.520  34.688  1.00  0.00     0.041 A 
ATOM    102  F   UNL A   1      43.208  22.932  33.916  1.00  0.00    -0.206 F 
ATOM    103  C   UNL A   1      46.125  21.217  34.990  1.00  0.00     0.022 A 
BRANCH 100 104
ATOM    104  S   UNL A   1      48.831  21.839  35.064  1.00  0.00     0.124 S 
ATOM    105  O   UNL A   1      48.935  20.553  34.381  1.00  0.00    -0.237 OA
ATOM    106  O   UNL A   1      49.476  22.967  34.399  1.00  0.00    -0.237 OA
ATOM    107  O   UNL A   1      48.994  21.790  36.515  1.00  0.00    -0.744 OA
ENDBRANCH 100 104
ENDBRANCH  74  97
ENDBRANCH  48  49
ENDBRANCH  41  43
ENDBRANCH  40  41
ENDBRANCH  39  40
ENDBRANCH  38  39
ENDBRANCH  37  38
ENDBRANCH  36  37
ENDBRANCH   1  36
TORSDOF 26
ENDMDL
