MODEL 1
REMARK VINA RESULT:      -9.6      0.000      0.000
REMARK SMILES Cc1ccc(Nc2c(F)cccc2Cl)c(CC(=O)OCCOCCOCCOCCOC(=O)c2ccc(-c3c4nc(c(-c5cc(S(=O)(=O)[O-])ccc5F)c5ccc([nH]5)c(-c5cc(S(=O)(=O)[O-])ccc5F)c5nc(c(-c6cc(S(=O)(=O)[O-])ccc6F)c6ccc3[nH]6)C=C5)C=C4)cc2)c1
REMARK SMILES IDX 25 1 24 2 23 3 22 4 21 5 20 6 19 7 17 8 18 9 16 10 15 11
REMARK SMILES IDX 1 12 2 13 3 14 97 15 4 16 5 17 6 18 7 20 8 21 13 22 9 23
REMARK SMILES IDX 10 24 12 25 14 26 11 27 26 28 27 29 28 30 29 31 30 32 31 33
REMARK SMILES IDX 32 34 33 35 34 36 35 37 96 38 36 39 95 40 37 41 38 42 39 43
REMARK SMILES IDX 89 44 40 45 94 46 88 47 90 48 41 49 93 50 87 51 86 52 42 54
REMARK SMILES IDX 74 55 54 56 73 57 55 58 58 59 72 60 91 61 56 62 57 63 71 65
REMARK SMILES IDX 92 66 59 67 43 68 44 69 52 70 45 71 51 72 53 73 50 74 46 75
REMARK SMILES IDX 47 76 48 77 49 78 75 79 76 80 84 81 77 82 83 83 85 84 82 85
REMARK SMILES IDX 78 86 79 87 80 88 81 89 60 90 61 91 69 92 62 93 68 94 70 95
REMARK SMILES IDX 67 96 63 97 64 98 65 99 66 100
REMARK H PARENT 6 19 90 53 58 64
REMARK Flexibility Score: inf
ROOT
ATOM      1  O   UNL A   1      42.807  20.578  26.552  1.00  0.00    -0.377 OA
ENDROOT
BRANCH   1   2
ATOM      2  C   UNL A   1      41.491  20.296  26.113  1.00  0.00     0.188 C 
BRANCH   2   3
ATOM      3  C   UNL A   1      40.392  20.989  26.877  1.00  0.00     0.188 C 
BRANCH   3   4
ATOM      4  O   UNL A   1      39.756  22.103  26.288  1.00  0.00    -0.376 OA
BRANCH   4   5
ATOM      5  C   UNL A   1      38.512  21.747  25.725  1.00  0.00     0.202 C 
BRANCH   5   6
ATOM      6  C   UNL A   1      37.443  22.831  25.701  1.00  0.00     0.261 C 
BRANCH   6   7
ATOM      7  O   UNL A   1      36.121  22.290  25.852  1.00  0.00    -0.463 OA
BRANCH   7   8
ATOM      8  C   UNL A   1      35.222  23.138  26.396  1.00  0.00     0.310 C 
ATOM      9  O   UNL A   1      34.715  23.006  27.505  1.00  0.00    -0.252 OA
BRANCH   8  10
ATOM     10  C   UNL A   1      34.825  24.280  25.502  1.00  0.00     0.160 C 
BRANCH  10  11
ATOM     11  C   UNL A   1      33.438  24.335  24.882  1.00  0.00    -0.013 A 
ATOM     12  C   UNL A   1      30.863  27.198  24.606  1.00  0.00     0.044 C 
ATOM     13  C   UNL A   1      31.532  25.864  24.475  1.00  0.00    -0.051 A 
ATOM     14  C   UNL A   1      30.936  24.872  23.718  1.00  0.00     0.005 A 
ATOM     15  C   UNL A   1      32.758  25.577  25.076  1.00  0.00     0.009 A 
ATOM     16  C   UNL A   1      31.552  23.624  23.573  1.00  0.00     0.026 A 
ATOM     17  C   UNL A   1      32.818  23.306  24.110  1.00  0.00     0.042 A 
BRANCH  17  18
ATOM     18  N   UNL A   1      33.396  22.000  23.898  1.00  0.00    -0.352 N 
ATOM     19  H   UNL A   1      34.323  21.999  23.566  1.00  0.00     0.167 HD
BRANCH  18  20
ATOM     20  C   UNL A   1      32.812  20.693  24.103  1.00  0.00     0.094 A 
ATOM     21  C   UNL A   1      32.901  20.001  25.316  1.00  0.00     0.148 A 
ATOM     22  C   UNL A   1      32.340  19.916  23.019  1.00  0.00     0.067 A 
ATOM     23  F   UNL A   1      33.030  20.675  26.470  1.00  0.00    -0.205 F 
ATOM     24  C   UNL A   1      32.865  18.604  25.393  1.00  0.00     0.041 A 
ATOM     25  C   UNL A   1      32.364  18.505  23.063  1.00  0.00     0.023 A 
ATOM     26  Cl  UNL A   1      31.757  20.657  21.562  1.00  0.00    -0.082 Cl
ATOM     27  C   UNL A   1      32.681  17.847  24.245  1.00  0.00     0.005 A 
ENDBRANCH  18  20
ENDBRANCH  17  18
ENDBRANCH  10  11
ENDBRANCH   8  10
ENDBRANCH   7   8
ENDBRANCH   6   7
ENDBRANCH   5   6
ENDBRANCH   4   5
ENDBRANCH   3   4
ENDBRANCH   2   3
ENDBRANCH   1   2
BRANCH   1  28
ATOM     28  C   UNL A   1      43.781  20.218  25.563  1.00  0.00     0.188 C 
BRANCH  28  29
ATOM     29  C   UNL A   1      44.464  21.345  24.784  1.00  0.00     0.188 C 
BRANCH  29  30
ATOM     30  O   UNL A   1      44.445  22.546  25.553  1.00  0.00    -0.376 OA
BRANCH  30  31
ATOM     31  C   UNL A   1      43.917  23.707  24.936  1.00  0.00     0.202 C 
BRANCH  31  32
ATOM     32  C   UNL A   1      43.776  24.777  26.012  1.00  0.00     0.261 C 
BRANCH  32  33
ATOM     33  O   UNL A   1      44.229  24.223  27.269  1.00  0.00    -0.460 OA
BRANCH  33  34
ATOM     34  C   UNL A   1      43.266  24.206  28.238  1.00  0.00     0.338 C 
ATOM     35  O   UNL A   1      42.645  23.216  28.573  1.00  0.00    -0.246 OA
BRANCH  34  36
ATOM     36  C   UNL A   1      43.017  25.583  28.771  1.00  0.00     0.060 A 
ATOM     37  C   UNL A   1      44.039  26.246  29.470  1.00  0.00     0.016 A 
ATOM     38  C   UNL A   1      41.738  26.134  28.755  1.00  0.00     0.016 A 
ATOM     39  C   UNL A   1      43.754  27.386  30.245  1.00  0.00     0.010 A 
ATOM     40  C   UNL A   1      41.457  27.241  29.554  1.00  0.00     0.010 A 
ATOM     41  C   UNL A   1      42.442  27.849  30.353  1.00  0.00    -0.014 A 
BRANCH  41  42
ATOM     42  C   UNL A   1      41.952  28.781  31.402  1.00  0.00     0.031 A 
ATOM     43  C   UNL A   1      41.143  29.993  31.037  1.00  0.00     0.074 A 
ATOM     44  C   UNL A   1      41.862  28.293  32.669  1.00  0.00     0.049 A 
ATOM     45  N   UNL A   1      40.547  30.766  31.885  1.00  0.00    -0.248 NA
ATOM     46  C   UNL A   1      40.912  30.436  29.661  1.00  0.00     0.031 C 
ATOM     47  C   UNL A   1      40.851  28.622  33.679  1.00  0.00     0.029 A 
ATOM     48  N   UNL A   1      42.610  27.336  33.331  1.00  0.00    -0.354 N 
ATOM     49  C   UNL A   1      39.572  31.483  31.213  1.00  0.00     0.074 A 
ATOM     50  C   UNL A   1      39.955  31.362  29.826  1.00  0.00     0.031 C 
ATOM     51  C   UNL A   1      41.065  27.937  34.811  1.00  0.00     0.029 A 
ATOM     52  C   UNL A   1      42.419  27.462  34.712  1.00  0.00     0.049 A 
ATOM     53  H   UNL A   1      43.187  26.668  32.897  1.00  0.00     0.167 HD
ATOM     54  C   UNL A   1      38.466  31.928  31.897  1.00  0.00     0.034 A 
ATOM     55  C   UNL A   1      43.429  27.901  35.524  1.00  0.00     0.034 A 
ATOM     56  C   UNL A   1      38.611  31.806  33.369  1.00  0.00     0.049 A 
ATOM     57  C   UNL A   1      43.163  29.342  36.010  1.00  0.00     0.074 A 
ATOM     58  C   UNL A   1      37.801  31.458  34.441  1.00  0.00     0.029 A 
ATOM     59  N   UNL A   1      39.868  32.008  33.933  1.00  0.00    -0.354 N 
ATOM     60  N   UNL A   1      42.075  30.019  35.718  1.00  0.00    -0.248 NA
ATOM     61  C   UNL A   1      44.055  30.151  36.835  1.00  0.00     0.031 C 
ATOM     62  C   UNL A   1      38.614  31.372  35.618  1.00  0.00     0.029 A 
ATOM     63  C   UNL A   1      39.895  31.769  35.285  1.00  0.00     0.049 A 
ATOM     64  H   UNL A   1      40.656  32.290  33.415  1.00  0.00     0.167 HD
ATOM     65  C   UNL A   1      42.102  31.283  36.222  1.00  0.00     0.074 A 
ATOM     66  C   UNL A   1      43.388  31.323  36.908  1.00  0.00     0.031 C 
ATOM     67  C   UNL A   1      41.081  32.182  36.020  1.00  0.00     0.034 A 
BRANCH  54  68
ATOM     68  C   UNL A   1      37.131  32.346  31.260  1.00  0.00     0.023 A 
ATOM     69  C   UNL A   1      36.430  33.466  31.776  1.00  0.00     0.031 A 
ATOM     70  C   UNL A   1      36.432  31.633  30.259  1.00  0.00     0.131 A 
ATOM     71  C   UNL A   1      35.126  33.803  31.343  1.00  0.00     0.055 A 
ATOM     72  C   UNL A   1      35.167  32.014  29.776  1.00  0.00     0.041 A 
ATOM     73  F   UNL A   1      36.901  30.497  29.731  1.00  0.00    -0.206 F 
ATOM     74  C   UNL A   1      34.499  33.094  30.325  1.00  0.00     0.022 A 
BRANCH  71  75
ATOM     75  S   UNL A   1      34.226  35.157  32.161  1.00  0.00     0.124 S 
ATOM     76  O   UNL A   1      33.187  34.438  32.889  1.00  0.00    -0.237 OA
ATOM     77  O   UNL A   1      35.265  35.783  32.969  1.00  0.00    -0.237 OA
ATOM     78  O   UNL A   1      33.746  35.970  31.043  1.00  0.00    -0.744 OA
ENDBRANCH  71  75
ENDBRANCH  54  68
BRANCH  55  79
ATOM     79  C   UNL A   1      44.698  27.172  35.166  1.00  0.00     0.023 A 
ATOM     80  C   UNL A   1      44.614  25.757  35.307  1.00  0.00     0.031 A 
ATOM     81  C   UNL A   1      45.548  27.667  34.163  1.00  0.00     0.131 A 
ATOM     82  C   UNL A   1      45.140  24.907  34.317  1.00  0.00     0.055 A 
ATOM     83  C   UNL A   1      46.115  26.806  33.205  1.00  0.00     0.041 A 
ATOM     84  F   UNL A   1      45.649  28.987  33.947  1.00  0.00    -0.206 F 
ATOM     85  C   UNL A   1      45.856  25.432  33.241  1.00  0.00     0.022 A 
BRANCH  82  86
ATOM     86  S   UNL A   1      44.625  23.152  34.286  1.00  0.00     0.124 S 
ATOM     87  O   UNL A   1      45.866  22.465  34.617  1.00  0.00    -0.237 OA
ATOM     88  O   UNL A   1      43.576  23.101  35.300  1.00  0.00    -0.237 OA
ATOM     89  O   UNL A   1      44.151  22.962  32.917  1.00  0.00    -0.744 OA
ENDBRANCH  82  86
ENDBRANCH  55  79
BRANCH  67  90
ATOM     90  C   UNL A   1      41.119  33.632  36.433  1.00  0.00     0.023 A 
ATOM     91  C   UNL A   1      40.314  34.117  37.456  1.00  0.00     0.031 A 
ATOM     92  C   UNL A   1      41.973  34.580  35.806  1.00  0.00     0.131 A 
ATOM     93  C   UNL A   1      40.510  35.410  37.955  1.00  0.00     0.055 A 
ATOM     94  C   UNL A   1      42.080  35.904  36.228  1.00  0.00     0.041 A 
ATOM     95  F   UNL A   1      42.779  34.264  34.784  1.00  0.00    -0.206 F 
ATOM     96  C   UNL A   1      41.375  36.317  37.343  1.00  0.00     0.022 A 
BRANCH  93  97
ATOM     97  S   UNL A   1      39.726  35.806  39.529  1.00  0.00     0.124 S 
ATOM     98  O   UNL A   1      38.613  34.863  39.573  1.00  0.00    -0.237 OA
ATOM     99  O   UNL A   1      40.815  35.541  40.468  1.00  0.00    -0.237 OA
ATOM    100  O   UNL A   1      39.355  37.211  39.385  1.00  0.00    -0.744 OA
ENDBRANCH  93  97
ENDBRANCH  67  90
ENDBRANCH  41  42
ENDBRANCH  34  36
ENDBRANCH  33  34
ENDBRANCH  32  33
ENDBRANCH  31  32
ENDBRANCH  30  31
ENDBRANCH  29  30
ENDBRANCH  28  29
ENDBRANCH   1  28
TORSDOF 26
ENDMDL
MODEL 2
REMARK VINA RESULT:      -8.7      5.350     11.549
REMARK SMILES Cc1ccc(Nc2c(F)cccc2Cl)c(CC(=O)OCCOCCOCCOCCOC(=O)c2ccc(-c3c4nc(c(-c5cc(S(=O)(=O)[O-])ccc5F)c5ccc([nH]5)c(-c5cc(S(=O)(=O)[O-])ccc5F)c5nc(c(-c6cc(S(=O)(=O)[O-])ccc6F)c6ccc3[nH]6)C=C5)C=C4)cc2)c1
REMARK SMILES IDX 25 1 24 2 23 3 22 4 21 5 20 6 19 7 17 8 18 9 16 10 15 11
REMARK SMILES IDX 1 12 2 13 3 14 97 15 4 16 5 17 6 18 7 20 8 21 13 22 9 23
REMARK SMILES IDX 10 24 12 25 14 26 11 27 26 28 27 29 28 30 29 31 30 32 31 33
REMARK SMILES IDX 32 34 33 35 34 36 35 37 96 38 36 39 95 40 37 41 38 42 39 43
REMARK SMILES IDX 89 44 40 45 94 46 88 47 90 48 41 49 93 50 87 51 86 52 42 54
REMARK SMILES IDX 74 55 54 56 73 57 55 58 58 59 72 60 91 61 56 62 57 63 71 65
REMARK SMILES IDX 92 66 59 67 43 68 44 69 52 70 45 71 51 72 53 73 50 74 46 75
REMARK SMILES IDX 47 76 48 77 49 78 75 79 76 80 84 81 77 82 83 83 85 84 82 85
REMARK SMILES IDX 78 86 79 87 80 88 81 89 60 90 61 91 69 92 62 93 68 94 70 95
REMARK SMILES IDX 67 96 63 97 64 98 65 99 66 100
REMARK H PARENT 6 19 90 53 58 64
REMARK Flexibility Score: inf
ROOT
ATOM      1  O   UNL A   1      36.622  31.755  28.344  1.00  0.00    -0.377 OA
ENDROOT
BRANCH   1   2
ATOM      2  C   UNL A   1      36.558  30.384  27.998  1.00  0.00     0.188 C 
BRANCH   2   3
ATOM      3  C   UNL A   1      35.170  29.802  27.914  1.00  0.00     0.188 C 
BRANCH   3   4
ATOM      4  O   UNL A   1      34.473  29.884  26.690  1.00  0.00    -0.376 OA
BRANCH   4   5
ATOM      5  C   UNL A   1      33.219  30.511  26.853  1.00  0.00     0.202 C 
BRANCH   5   6
ATOM      6  C   UNL A   1      32.174  30.228  25.783  1.00  0.00     0.261 C 
BRANCH   6   7
ATOM      7  O   UNL A   1      32.239  28.875  25.306  1.00  0.00    -0.463 OA
BRANCH   7   8
ATOM      8  C   UNL A   1      32.778  28.733  24.076  1.00  0.00     0.310 C 
ATOM      9  O   UNL A   1      33.946  28.434  23.853  1.00  0.00    -0.252 OA
BRANCH   8  10
ATOM     10  C   UNL A   1      31.830  29.024  22.946  1.00  0.00     0.160 C 
BRANCH  10  11
ATOM     11  C   UNL A   1      30.328  28.900  23.141  1.00  0.00    -0.013 A 
ATOM     12  C   UNL A   1      27.545  31.565  23.394  1.00  0.00     0.044 C 
ATOM     13  C   UNL A   1      28.259  30.249  23.340  1.00  0.00    -0.051 A 
ATOM     14  C   UNL A   1      27.527  29.075  23.328  1.00  0.00     0.005 A 
ATOM     15  C   UNL A   1      29.650  30.151  23.279  1.00  0.00     0.009 A 
ATOM     16  C   UNL A   1      28.176  27.837  23.264  1.00  0.00     0.026 A 
ATOM     17  C   UNL A   1      29.573  27.687  23.141  1.00  0.00     0.042 A 
BRANCH  17  18
ATOM     18  N   UNL A   1      30.165  26.372  23.060  1.00  0.00    -0.352 N 
ATOM     19  H   UNL A   1      29.988  25.882  22.224  1.00  0.00     0.167 HD
BRANCH  18  20
ATOM     20  C   UNL A   1      30.979  25.670  24.027  1.00  0.00     0.094 A 
ATOM     21  C   UNL A   1      30.691  25.654  25.396  1.00  0.00     0.148 A 
ATOM     22  C   UNL A   1      32.260  25.172  23.692  1.00  0.00     0.067 A 
ATOM     23  F   UNL A   1      29.426  25.798  25.822  1.00  0.00    -0.205 F 
ATOM     24  C   UNL A   1      31.680  25.494  26.374  1.00  0.00     0.041 A 
ATOM     25  C   UNL A   1      33.284  25.073  24.659  1.00  0.00     0.023 A 
ATOM     26  Cl  UNL A   1      32.654  24.710  22.066  1.00  0.00    -0.082 Cl
ATOM     27  C   UNL A   1      33.001  25.287  26.003  1.00  0.00     0.005 A 
ENDBRANCH  18  20
ENDBRANCH  17  18
ENDBRANCH  10  11
ENDBRANCH   8  10
ENDBRANCH   7   8
ENDBRANCH   6   7
ENDBRANCH   5   6
ENDBRANCH   4   5
ENDBRANCH   3   4
ENDBRANCH   2   3
ENDBRANCH   1   2
BRANCH   1  28
ATOM     28  C   UNL A   1      37.658  32.009  29.302  1.00  0.00     0.188 C 
BRANCH  28  29
ATOM     29  C   UNL A   1      37.310  32.856  30.530  1.00  0.00     0.188 C 
BRANCH  29  30
ATOM     30  O   UNL A   1      36.623  32.056  31.490  1.00  0.00    -0.376 OA
BRANCH  30  31
ATOM     31  C   UNL A   1      37.014  30.698  31.608  1.00  0.00     0.202 C 
BRANCH  31  32
ATOM     32  C   UNL A   1      38.240  30.649  32.512  1.00  0.00     0.261 C 
BRANCH  32  33
ATOM     33  O   UNL A   1      39.222  29.780  31.903  1.00  0.00    -0.460 OA
BRANCH  33  34
ATOM     34  C   UNL A   1      40.341  30.437  31.473  1.00  0.00     0.338 C 
ATOM     35  O   UNL A   1      40.505  31.639  31.549  1.00  0.00    -0.246 OA
BRANCH  34  36
ATOM     36  C   UNL A   1      41.300  29.491  30.819  1.00  0.00     0.060 A 
ATOM     37  C   UNL A   1      41.890  28.471  31.582  1.00  0.00     0.016 A 
ATOM     38  C   UNL A   1      41.761  29.723  29.525  1.00  0.00     0.016 A 
ATOM     39  C   UNL A   1      43.011  27.771  31.099  1.00  0.00     0.010 A 
ATOM     40  C   UNL A   1      42.893  29.052  29.069  1.00  0.00     0.010 A 
ATOM     41  C   UNL A   1      43.569  28.110  29.865  1.00  0.00    -0.014 A 
BRANCH  41  42
ATOM     42  C   UNL A   1      44.932  27.727  29.413  1.00  0.00     0.031 A 
ATOM     43  C   UNL A   1      46.145  28.445  29.933  1.00  0.00     0.074 A 
ATOM     44  C   UNL A   1      45.085  26.476  28.900  1.00  0.00     0.049 A 
ATOM     45  N   UNL A   1      47.367  28.082  29.720  1.00  0.00    -0.248 NA
ATOM     46  C   UNL A   1      46.086  29.644  30.771  1.00  0.00     0.031 C 
ATOM     47  C   UNL A   1      46.248  25.594  29.038  1.00  0.00     0.029 A 
ATOM     48  N   UNL A   1      44.211  25.670  28.194  1.00  0.00    -0.354 N 
ATOM     49  C   UNL A   1      48.174  28.678  30.673  1.00  0.00     0.074 A 
ATOM     50  C   UNL A   1      47.358  29.754  31.184  1.00  0.00     0.031 C 
ATOM     51  C   UNL A   1      46.039  24.426  28.414  1.00  0.00     0.029 A 
ATOM     52  C   UNL A   1      44.927  24.664  27.534  1.00  0.00     0.049 A 
ATOM     53  H   UNL A   1      43.234  25.784  28.161  1.00  0.00     0.167 HD
ATOM     54  C   UNL A   1      49.353  28.073  31.038  1.00  0.00     0.034 A 
ATOM     55  C   UNL A   1      45.036  24.658  26.170  1.00  0.00     0.034 A 
ATOM     56  C   UNL A   1      49.737  26.966  30.129  1.00  0.00     0.049 A 
ATOM     57  C   UNL A   1      46.458  25.065  25.725  1.00  0.00     0.074 A 
ATOM     58  C   UNL A   1      50.302  25.704  30.253  1.00  0.00     0.029 A 
ATOM     59  N   UNL A   1      49.442  27.084  28.774  1.00  0.00    -0.354 N 
ATOM     60  N   UNL A   1      47.436  25.322  26.564  1.00  0.00    -0.248 NA
ATOM     61  C   UNL A   1      46.915  25.228  24.349  1.00  0.00     0.031 C 
ATOM     62  C   UNL A   1      50.251  25.054  28.977  1.00  0.00     0.029 A 
ATOM     63  C   UNL A   1      49.755  25.957  28.055  1.00  0.00     0.049 A 
ATOM     64  H   UNL A   1      49.048  27.892  28.373  1.00  0.00     0.167 HD
ATOM     65  C   UNL A   1      48.576  25.706  25.926  1.00  0.00     0.074 A 
ATOM     66  C   UNL A   1      48.187  25.648  24.522  1.00  0.00     0.031 C 
ATOM     67  C   UNL A   1      49.723  26.050  26.604  1.00  0.00     0.034 A 
BRANCH  54  68
ATOM     68  C   UNL A   1      50.135  28.350  32.333  1.00  0.00     0.023 A 
ATOM     69  C   UNL A   1      49.690  27.781  33.554  1.00  0.00     0.031 A 
ATOM     70  C   UNL A   1      51.217  29.250  32.469  1.00  0.00     0.131 A 
ATOM     71  C   UNL A   1      50.266  28.127  34.798  1.00  0.00     0.055 A 
ATOM     72  C   UNL A   1      51.838  29.534  33.700  1.00  0.00     0.041 A 
ATOM     73  F   UNL A   1      51.700  29.950  31.437  1.00  0.00    -0.206 F 
ATOM     74  C   UNL A   1      51.356  28.984  34.875  1.00  0.00     0.022 A 
BRANCH  71  75
ATOM     75  S   UNL A   1      49.542  27.479  36.337  1.00  0.00     0.124 S 
ATOM     76  O   UNL A   1      50.728  27.102  37.099  1.00  0.00    -0.237 OA
ATOM     77  O   UNL A   1      48.790  28.623  36.838  1.00  0.00    -0.237 OA
ATOM     78  O   UNL A   1      48.721  26.357  35.881  1.00  0.00    -0.744 OA
ENDBRANCH  71  75
ENDBRANCH  54  68
BRANCH  55  79
ATOM     79  C   UNL A   1      43.678  24.909  25.569  1.00  0.00     0.023 A 
ATOM     80  C   UNL A   1      42.692  23.951  25.941  1.00  0.00     0.031 A 
ATOM     81  C   UNL A   1      43.236  26.220  25.321  1.00  0.00     0.131 A 
ATOM     82  C   UNL A   1      41.397  24.361  26.308  1.00  0.00     0.055 A 
ATOM     83  C   UNL A   1      41.923  26.613  25.641  1.00  0.00     0.041 A 
ATOM     84  F   UNL A   1      44.112  27.184  25.003  1.00  0.00    -0.206 F 
ATOM     85  C   UNL A   1      41.022  25.701  26.199  1.00  0.00     0.022 A 
BRANCH  82  86
ATOM     86  S   UNL A   1      40.314  23.193  27.207  1.00  0.00     0.124 S 
ATOM     87  O   UNL A   1      39.252  24.069  27.684  1.00  0.00    -0.237 OA
ATOM     88  O   UNL A   1      39.937  22.234  26.173  1.00  0.00    -0.237 OA
ATOM     89  O   UNL A   1      41.189  22.650  28.244  1.00  0.00    -0.744 OA
ENDBRANCH  82  86
ENDBRANCH  55  79
BRANCH  67  90
ATOM     90  C   UNL A   1      50.963  26.615  25.960  1.00  0.00     0.023 A 
ATOM     91  C   UNL A   1      51.070  27.965  25.651  1.00  0.00     0.031 A 
ATOM     92  C   UNL A   1      52.088  25.807  25.634  1.00  0.00     0.131 A 
ATOM     93  C   UNL A   1      52.298  28.500  25.243  1.00  0.00     0.055 A 
ATOM     94  C   UNL A   1      53.272  26.326  25.114  1.00  0.00     0.041 A 
ATOM     95  F   UNL A   1      52.114  24.485  25.845  1.00  0.00    -0.206 F 
ATOM     96  C   UNL A   1      53.399  27.693  24.957  1.00  0.00     0.022 A 
BRANCH  93  97
ATOM     97  S   UNL A   1      52.456  30.295  25.266  1.00  0.00     0.124 S 
ATOM     98  O   UNL A   1      51.065  30.733  25.350  1.00  0.00    -0.237 OA
ATOM     99  O   UNL A   1      53.254  30.499  26.474  1.00  0.00    -0.237 OA
ATOM    100  O   UNL A   1      53.135  30.599  24.010  1.00  0.00    -0.744 OA
ENDBRANCH  93  97
ENDBRANCH  67  90
ENDBRANCH  41  42
ENDBRANCH  34  36
ENDBRANCH  33  34
ENDBRANCH  32  33
ENDBRANCH  31  32
ENDBRANCH  30  31
ENDBRANCH  29  30
ENDBRANCH  28  29
ENDBRANCH   1  28
TORSDOF 26
ENDMDL
MODEL 3
REMARK VINA RESULT:      -8.5      7.384     13.320
REMARK SMILES Cc1ccc(Nc2c(F)cccc2Cl)c(CC(=O)OCCOCCOCCOCCOC(=O)c2ccc(-c3c4nc(c(-c5cc(S(=O)(=O)[O-])ccc5F)c5ccc([nH]5)c(-c5cc(S(=O)(=O)[O-])ccc5F)c5nc(c(-c6cc(S(=O)(=O)[O-])ccc6F)c6ccc3[nH]6)C=C5)C=C4)cc2)c1
REMARK SMILES IDX 25 1 24 2 23 3 22 4 21 5 20 6 19 7 17 8 18 9 16 10 15 11
REMARK SMILES IDX 1 12 2 13 3 14 97 15 4 16 5 17 6 18 7 20 8 21 13 22 9 23
REMARK SMILES IDX 10 24 12 25 14 26 11 27 26 28 27 29 28 30 29 31 30 32 31 33
REMARK SMILES IDX 32 34 33 35 34 36 35 37 96 38 36 39 95 40 37 41 38 42 39 43
REMARK SMILES IDX 89 44 40 45 94 46 88 47 90 48 41 49 93 50 87 51 86 52 42 54
REMARK SMILES IDX 74 55 54 56 73 57 55 58 58 59 72 60 91 61 56 62 57 63 71 65
REMARK SMILES IDX 92 66 59 67 43 68 44 69 52 70 45 71 51 72 53 73 50 74 46 75
REMARK SMILES IDX 47 76 48 77 49 78 75 79 76 80 84 81 77 82 83 83 85 84 82 85
REMARK SMILES IDX 78 86 79 87 80 88 81 89 60 90 61 91 69 92 62 93 68 94 70 95
REMARK SMILES IDX 67 96 63 97 64 98 65 99 66 100
REMARK H PARENT 6 19 90 53 58 64
REMARK Flexibility Score: inf
ROOT
ATOM      1  O   UNL A   1      50.222  21.267  37.622  1.00  0.00    -0.377 OA
ENDROOT
BRANCH   1   2
ATOM      2  C   UNL A   1      49.251  21.210  38.650  1.00  0.00     0.188 C 
BRANCH   2   3
ATOM      3  C   UNL A   1      48.758  19.830  39.000  1.00  0.00     0.188 C 
BRANCH   3   4
ATOM      4  O   UNL A   1      49.001  19.331  40.297  1.00  0.00    -0.376 OA
BRANCH   4   5
ATOM      5  C   UNL A   1      47.819  18.841  40.890  1.00  0.00     0.202 C 
BRANCH   5   6
ATOM      6  C   UNL A   1      46.531  19.577  40.548  1.00  0.00     0.261 C 
BRANCH   6   7
ATOM      7  O   UNL A   1      45.365  18.865  40.990  1.00  0.00    -0.463 OA
BRANCH   7   8
ATOM      8  C   UNL A   1      44.880  19.261  42.187  1.00  0.00     0.310 C 
ATOM      9  O   UNL A   1      45.239  20.266  42.791  1.00  0.00    -0.252 OA
BRANCH   8  10
ATOM     10  C   UNL A   1      43.863  18.329  42.784  1.00  0.00     0.160 C 
BRANCH  10  11
ATOM     11  C   UNL A   1      44.168  17.559  44.058  1.00  0.00    -0.013 A 
ATOM     12  C   UNL A   1      44.784  18.739  47.683  1.00  0.00     0.044 C 
ATOM     13  C   UNL A   1      44.602  17.867  46.478  1.00  0.00    -0.051 A 
ATOM     14  C   UNL A   1      44.584  16.491  46.626  1.00  0.00     0.005 A 
ATOM     15  C   UNL A   1      44.427  18.387  45.195  1.00  0.00     0.009 A 
ATOM     16  C   UNL A   1      44.401  15.662  45.515  1.00  0.00     0.026 A 
ATOM     17  C   UNL A   1      44.161  16.139  44.209  1.00  0.00     0.042 A 
BRANCH  17  18
ATOM     18  N   UNL A   1      43.962  15.215  43.117  1.00  0.00    -0.352 N 
ATOM     19  H   UNL A   1      44.783  14.928  42.654  1.00  0.00     0.167 HD
BRANCH  18  20
ATOM     20  C   UNL A   1      42.735  14.649  42.604  1.00  0.00     0.094 A 
ATOM     21  C   UNL A   1      41.962  13.729  43.322  1.00  0.00     0.148 A 
ATOM     22  C   UNL A   1      42.369  14.786  41.245  1.00  0.00     0.067 A 
ATOM     23  F   UNL A   1      41.989  13.726  44.664  1.00  0.00    -0.205 F 
ATOM     24  C   UNL A   1      41.142  12.781  42.698  1.00  0.00     0.041 A 
ATOM     25  C   UNL A   1      41.599  13.800  40.590  1.00  0.00     0.023 A 
ATOM     26  Cl  UNL A   1      42.891  16.144  40.300  1.00  0.00    -0.082 Cl
ATOM     27  C   UNL A   1      41.027  12.761  41.316  1.00  0.00     0.005 A 
ENDBRANCH  18  20
ENDBRANCH  17  18
ENDBRANCH  10  11
ENDBRANCH   8  10
ENDBRANCH   7   8
ENDBRANCH   6   7
ENDBRANCH   5   6
ENDBRANCH   4   5
ENDBRANCH   3   4
ENDBRANCH   2   3
ENDBRANCH   1   2
BRANCH   1  28
ATOM     28  C   UNL A   1      49.683  21.832  36.419  1.00  0.00     0.188 C 
BRANCH  28  29
ATOM     29  C   UNL A   1      48.576  22.881  36.551  1.00  0.00     0.188 C 
BRANCH  29  30
ATOM     30  O   UNL A   1      47.499  22.562  35.671  1.00  0.00    -0.376 OA
BRANCH  30  31
ATOM     31  C   UNL A   1      46.383  23.436  35.662  1.00  0.00     0.202 C 
BRANCH  31  32
ATOM     32  C   UNL A   1      45.981  23.685  37.111  1.00  0.00     0.261 C 
BRANCH  32  33
ATOM     33  O   UNL A   1      44.600  24.113  37.135  1.00  0.00    -0.460 OA
BRANCH  33  34
ATOM     34  C   UNL A   1      44.333  25.047  38.096  1.00  0.00     0.338 C 
ATOM     35  O   UNL A   1      44.680  24.957  39.257  1.00  0.00    -0.246 OA
BRANCH  34  36
ATOM     36  C   UNL A   1      43.483  26.152  37.549  1.00  0.00     0.060 A 
ATOM     37  C   UNL A   1      42.223  25.848  37.007  1.00  0.00     0.016 A 
ATOM     38  C   UNL A   1      43.997  27.437  37.392  1.00  0.00     0.016 A 
ATOM     39  C   UNL A   1      41.539  26.787  36.213  1.00  0.00     0.010 A 
ATOM     40  C   UNL A   1      43.331  28.348  36.575  1.00  0.00     0.010 A 
ATOM     41  C   UNL A   1      42.125  28.021  35.928  1.00  0.00    -0.014 A 
BRANCH  41  42
ATOM     42  C   UNL A   1      41.702  28.931  34.832  1.00  0.00     0.031 A 
ATOM     43  C   UNL A   1      42.121  28.672  33.412  1.00  0.00     0.074 A 
ATOM     44  C   UNL A   1      40.604  29.703  35.058  1.00  0.00     0.049 A 
ATOM     45  N   UNL A   1      41.675  29.314  32.382  1.00  0.00    -0.248 NA
ATOM     46  C   UNL A   1      43.078  27.637  33.020  1.00  0.00     0.031 C 
ATOM     47  C   UNL A   1      39.581  30.101  34.086  1.00  0.00     0.029 A 
ATOM     48  N   UNL A   1      40.105  30.255  36.223  1.00  0.00    -0.354 N 
ATOM     49  C   UNL A   1      41.921  28.552  31.253  1.00  0.00     0.074 A 
ATOM     50  C   UNL A   1      42.930  27.616  31.686  1.00  0.00     0.031 C 
ATOM     51  C   UNL A   1      38.634  30.850  34.668  1.00  0.00     0.029 A 
ATOM     52  C   UNL A   1      39.212  31.287  35.911  1.00  0.00     0.049 A 
ATOM     53  H   UNL A   1      40.341  29.967  37.134  1.00  0.00     0.167 HD
ATOM     54  C   UNL A   1      41.107  28.689  30.153  1.00  0.00     0.034 A 
ATOM     55  C   UNL A   1      39.524  32.592  36.175  1.00  0.00     0.034 A 
ATOM     56  C   UNL A   1      40.216  29.872  30.240  1.00  0.00     0.049 A 
ATOM     57  C   UNL A   1      39.852  33.358  34.874  1.00  0.00     0.074 A 
ATOM     58  C   UNL A   1      38.903  30.177  29.908  1.00  0.00     0.029 A 
ATOM     59  N   UNL A   1      40.695  31.022  30.860  1.00  0.00    -0.354 N 
ATOM     60  N   UNL A   1      39.778  32.822  33.676  1.00  0.00    -0.248 NA
ATOM     61  C   UNL A   1      40.289  34.747  34.780  1.00  0.00     0.031 C 
ATOM     62  C   UNL A   1      38.594  31.479  30.418  1.00  0.00     0.029 A 
ATOM     63  C   UNL A   1      39.747  32.010  30.967  1.00  0.00     0.049 A 
ATOM     64  H   UNL A   1      41.617  31.117  31.190  1.00  0.00     0.167 HD
ATOM     65  C   UNL A   1      40.165  33.686  32.699  1.00  0.00     0.074 A 
ATOM     66  C   UNL A   1      40.497  34.888  33.453  1.00  0.00     0.031 C 
ATOM     67  C   UNL A   1      40.193  33.335  31.369  1.00  0.00     0.034 A 
BRANCH  54  68
ATOM     68  C   UNL A   1      40.965  27.664  29.015  1.00  0.00     0.023 A 
ATOM     69  C   UNL A   1      41.884  27.686  27.936  1.00  0.00     0.031 A 
ATOM     70  C   UNL A   1      39.900  26.749  28.855  1.00  0.00     0.131 A 
ATOM     71  C   UNL A   1      41.712  26.882  26.785  1.00  0.00     0.055 A 
ATOM     72  C   UNL A   1      39.772  25.895  27.744  1.00  0.00     0.041 A 
ATOM     73  F   UNL A   1      38.891  26.665  29.730  1.00  0.00    -0.206 F 
ATOM     74  C   UNL A   1      40.671  25.966  26.694  1.00  0.00     0.022 A 
BRANCH  71  75
ATOM     75  S   UNL A   1      42.842  27.077  25.372  1.00  0.00     0.124 S 
ATOM     76  O   UNL A   1      44.110  27.370  26.031  1.00  0.00    -0.237 OA
ATOM     77  O   UNL A   1      42.744  25.782  24.709  1.00  0.00    -0.237 OA
ATOM     78  O   UNL A   1      42.263  28.194  24.625  1.00  0.00    -0.744 OA
ENDBRANCH  71  75
ENDBRANCH  54  68
BRANCH  55  79
ATOM     79  C   UNL A   1      40.076  32.691  37.573  1.00  0.00     0.023 A 
ATOM     80  C   UNL A   1      41.483  32.906  37.628  1.00  0.00     0.031 A 
ATOM     81  C   UNL A   1      39.302  33.239  38.610  1.00  0.00     0.131 A 
ATOM     82  C   UNL A   1      42.028  33.847  38.521  1.00  0.00     0.055 A 
ATOM     83  C   UNL A   1      39.865  34.140  39.534  1.00  0.00     0.041 A 
ATOM     84  F   UNL A   1      37.967  33.109  38.604  1.00  0.00    -0.206 F 
ATOM     85  C   UNL A   1      41.214  34.498  39.448  1.00  0.00     0.022 A 
BRANCH  82  86
ATOM     86  S   UNL A   1      43.742  34.432  38.259  1.00  0.00     0.124 S 
ATOM     87  O   UNL A   1      43.720  35.736  38.910  1.00  0.00    -0.237 OA
ATOM     88  O   UNL A   1      44.542  33.403  38.915  1.00  0.00    -0.237 OA
ATOM     89  O   UNL A   1      43.871  34.462  36.804  1.00  0.00    -0.744 OA
ENDBRANCH  82  86
ENDBRANCH  55  79
BRANCH  67  90
ATOM     90  C   UNL A   1      40.744  34.199  30.264  1.00  0.00     0.023 A 
ATOM     91  C   UNL A   1      42.110  34.310  30.041  1.00  0.00     0.031 A 
ATOM     92  C   UNL A   1      39.905  34.946  29.391  1.00  0.00     0.131 A 
ATOM     93  C   UNL A   1      42.587  34.952  28.892  1.00  0.00     0.055 A 
ATOM     94  C   UNL A   1      40.392  35.685  28.315  1.00  0.00     0.041 A 
ATOM     95  F   UNL A   1      38.571  34.961  29.508  1.00  0.00    -0.206 F 
ATOM     96  C   UNL A   1      41.745  35.655  28.031  1.00  0.00     0.022 A 
BRANCH  93  97
ATOM     97  S   UNL A   1      44.321  34.692  28.471  1.00  0.00     0.124 S 
ATOM     98  O   UNL A   1      44.875  34.176  29.719  1.00  0.00    -0.237 OA
ATOM     99  O   UNL A   1      44.210  33.722  27.382  1.00  0.00    -0.237 OA
ATOM    100  O   UNL A   1      44.784  36.020  28.079  1.00  0.00    -0.744 OA
ENDBRANCH  93  97
ENDBRANCH  67  90
ENDBRANCH  41  42
ENDBRANCH  34  36
ENDBRANCH  33  34
ENDBRANCH  32  33
ENDBRANCH  31  32
ENDBRANCH  30  31
ENDBRANCH  29  30
ENDBRANCH  28  29
ENDBRANCH   1  28
TORSDOF 26
ENDMDL
