MODEL 1
REMARK VINA RESULT:     -10.3      0.000      0.000
REMARK SMILES Cc1ccc(OCCC(=O)N2C[C@H](O)C[C@@H]2C(=O)OCCOCCOCCOCCOC(=O)c2ccc(-c3c4nc(c(-c5cc(S(=O)(=O)[O-])ccc5F)c5ccc([nH]5)c(-c5cc(S(=O)(=O)[O-])ccc5F)c5nc(c(-c6cc(S(=O)(=O)[O-])ccc6F)c6ccc3[nH]6)C=C5)C=C4)cc2)cc1
REMARK SMILES IDX 24 1 23 2 22 3 21 4 20 5 19 6 17 7 18 8 16 9 11 10 12 11
REMARK SMILES IDX 13 12 15 13 9 14 10 15 8 16 7 17 6 18 5 19 1 20 2 21 3 22
REMARK SMILES IDX 98 23 4 24 97 25 14 26 25 28 26 29 27 30 28 31 29 32 30 33
REMARK SMILES IDX 31 34 32 35 33 36 34 37 35 38 96 39 36 40 95 41 37 42 38 43
REMARK SMILES IDX 39 44 89 45 40 46 94 47 88 48 90 49 41 50 93 51 87 52 86 53
REMARK SMILES IDX 42 55 74 56 54 57 73 58 55 59 58 60 72 61 91 62 56 63 57 64
REMARK SMILES IDX 71 66 92 67 59 68 43 69 44 70 52 71 45 72 51 73 53 74 50 75
REMARK SMILES IDX 46 76 47 77 48 78 49 79 75 80 76 81 84 82 77 83 83 84 85 85
REMARK SMILES IDX 82 86 78 87 79 88 80 89 81 90 60 91 61 92 69 93 62 94 68 95
REMARK SMILES IDX 70 96 67 97 63 98 64 99 65 100 66 101
REMARK H PARENT 14 27 90 54 58 65
REMARK Flexibility Score: inf
ROOT
ATOM      1  C   UNL A   1      34.225  31.544  27.530  1.00  0.00     0.188 C 
ENDROOT
BRANCH   1   2
ATOM      2  C   UNL A   1      33.269  30.345  27.538  1.00  0.00     0.188 C 
BRANCH   2   3
ATOM      3  O   UNL A   1      33.953  29.118  27.294  1.00  0.00    -0.376 OA
BRANCH   3   4
ATOM      4  C   UNL A   1      33.082  28.031  26.970  1.00  0.00     0.202 C 
BRANCH   4   5
ATOM      5  C   UNL A   1      32.330  28.195  25.650  1.00  0.00     0.261 C 
BRANCH   5   6
ATOM      6  O   UNL A   1      32.242  26.975  24.877  1.00  0.00    -0.462 OA
BRANCH   6   7
ATOM      7  C   UNL A   1      31.330  26.063  25.308  1.00  0.00     0.329 C 
ATOM      8  O   UNL A   1      30.115  26.202  25.183  1.00  0.00    -0.250 OA
BRANCH   7   9
ATOM      9  C   UNL A   1      31.946  24.691  25.640  1.00  0.00     0.197 C 
ATOM     10  N   UNL A   1      32.133  23.620  24.646  1.00  0.00    -0.326 N 
ATOM     11  C   UNL A   1      30.997  22.727  24.680  1.00  0.00     0.152 C 
ATOM     12  C   UNL A   1      30.699  22.655  26.167  1.00  0.00     0.136 C 
ATOM     13  C   UNL A   1      31.015  24.048  26.689  1.00  0.00     0.070 C 
BRANCH  10  14
ATOM     14  C   UNL A   1      33.385  23.317  24.155  1.00  0.00     0.226 C 
ATOM     15  O   UNL A   1      34.280  24.164  24.081  1.00  0.00    -0.275 OA
BRANCH  14  16
ATOM     16  C   UNL A   1      33.699  21.877  23.782  1.00  0.00     0.141 C 
BRANCH  16  17
ATOM     17  C   UNL A   1      34.049  21.000  24.995  1.00  0.00     0.239 C 
BRANCH  17  18
ATOM     18  O   UNL A   1      34.773  19.789  24.730  1.00  0.00    -0.493 OA
BRANCH  18  19
ATOM     19  C   UNL A   1      34.100  18.604  24.585  1.00  0.00     0.119 A 
ATOM     20  C   UNL A   1      32.645  14.673  25.517  1.00  0.00     0.044 C 
ATOM     21  C   UNL A   1      32.987  16.056  25.037  1.00  0.00    -0.051 A 
ATOM     22  C   UNL A   1      32.435  17.180  25.657  1.00  0.00     0.007 A 
ATOM     23  C   UNL A   1      33.979  16.242  24.067  1.00  0.00     0.007 A 
ATOM     24  C   UNL A   1      32.978  18.452  25.416  1.00  0.00     0.046 A 
ATOM     25  C   UNL A   1      34.531  17.510  23.841  1.00  0.00     0.046 A 
ENDBRANCH  18  19
ENDBRANCH  17  18
ENDBRANCH  16  17
ENDBRANCH  14  16
ENDBRANCH  10  14
BRANCH  12  26
ATOM     26  O   UNL A   1      29.442  22.136  26.550  1.00  0.00    -0.391 OA
ATOM     27  H   UNL A   1      29.156  21.470  25.904  1.00  0.00     0.211 HD
ENDBRANCH  12  26
ENDBRANCH   7   9
ENDBRANCH   6   7
ENDBRANCH   5   6
ENDBRANCH   4   5
ENDBRANCH   3   4
ENDBRANCH   2   3
ENDBRANCH   1   2
BRANCH   1  28
ATOM     28  O   UNL A   1      34.937  31.684  28.757  1.00  0.00    -0.377 OA
BRANCH  28  29
ATOM     29  C   UNL A   1      35.915  32.721  28.894  1.00  0.00     0.188 C 
BRANCH  29  30
ATOM     30  C   UNL A   1      35.583  33.884  29.814  1.00  0.00     0.188 C 
BRANCH  30  31
ATOM     31  O   UNL A   1      34.213  34.182  29.585  1.00  0.00    -0.376 OA
BRANCH  31  32
ATOM     32  C   UNL A   1      33.940  35.440  29.002  1.00  0.00     0.202 C 
BRANCH  32  33
ATOM     33  C   UNL A   1      32.691  36.024  29.642  1.00  0.00     0.261 C 
BRANCH  33  34
ATOM     34  O   UNL A   1      33.046  36.461  30.973  1.00  0.00    -0.460 OA
BRANCH  34  35
ATOM     35  C   UNL A   1      32.552  35.662  31.961  1.00  0.00     0.338 C 
ATOM     36  O   UNL A   1      31.369  35.553  32.224  1.00  0.00    -0.246 OA
BRANCH  35  37
ATOM     37  C   UNL A   1      33.656  35.053  32.767  1.00  0.00     0.060 A 
ATOM     38  C   UNL A   1      34.824  35.796  33.000  1.00  0.00     0.016 A 
ATOM     39  C   UNL A   1      33.636  33.703  33.114  1.00  0.00     0.016 A 
ATOM     40  C   UNL A   1      35.991  35.165  33.468  1.00  0.00     0.010 A 
ATOM     41  C   UNL A   1      34.812  33.075  33.523  1.00  0.00     0.010 A 
ATOM     42  C   UNL A   1      36.023  33.780  33.663  1.00  0.00    -0.014 A 
BRANCH  42  43
ATOM     43  C   UNL A   1      37.279  32.978  33.723  1.00  0.00     0.031 A 
ATOM     44  C   UNL A   1      37.432  31.656  33.000  1.00  0.00     0.074 A 
ATOM     45  C   UNL A   1      38.418  33.597  34.145  1.00  0.00     0.049 A 
ATOM     46  N   UNL A   1      38.532  30.971  32.948  1.00  0.00    -0.248 NA
ATOM     47  C   UNL A   1      36.368  30.965  32.265  1.00  0.00     0.031 C 
ATOM     48  C   UNL A   1      39.772  33.286  33.706  1.00  0.00     0.029 A 
ATOM     49  N   UNL A   1      38.632  34.649  35.043  1.00  0.00    -0.354 N 
ATOM     50  C   UNL A   1      38.466  30.116  31.868  1.00  0.00     0.074 A 
ATOM     51  C   UNL A   1      37.054  30.025  31.596  1.00  0.00     0.031 C 
ATOM     52  C   UNL A   1      40.681  34.041  34.324  1.00  0.00     0.029 A 
ATOM     53  C   UNL A   1      39.992  34.618  35.439  1.00  0.00     0.049 A 
ATOM     54  H   UNL A   1      37.956  35.297  35.346  1.00  0.00     0.167 HD
ATOM     55  C   UNL A   1      39.624  29.745  31.230  1.00  0.00     0.034 A 
ATOM     56  C   UNL A   1      40.368  34.341  36.725  1.00  0.00     0.034 A 
ATOM     57  C   UNL A   1      40.833  30.107  31.994  1.00  0.00     0.049 A 
ATOM     58  C   UNL A   1      41.145  33.042  36.864  1.00  0.00     0.074 A 
ATOM     59  C   UNL A   1      42.018  30.772  31.705  1.00  0.00     0.029 A 
ATOM     60  N   UNL A   1      40.859  29.876  33.366  1.00  0.00    -0.354 N 
ATOM     61  N   UNL A   1      41.120  32.108  35.946  1.00  0.00    -0.248 NA
ATOM     62  C   UNL A   1      42.063  32.695  37.945  1.00  0.00     0.031 C 
ATOM     63  C   UNL A   1      42.711  30.999  32.928  1.00  0.00     0.029 A 
ATOM     64  C   UNL A   1      41.987  30.405  33.947  1.00  0.00     0.049 A 
ATOM     65  H   UNL A   1      40.157  29.393  33.860  1.00  0.00     0.167 HD
ATOM     66  C   UNL A   1      42.032  31.129  36.224  1.00  0.00     0.074 A 
ATOM     67  C   UNL A   1      42.557  31.512  37.523  1.00  0.00     0.031 C 
ATOM     68  C   UNL A   1      42.286  30.115  35.341  1.00  0.00     0.034 A 
BRANCH  55  69
ATOM     69  C   UNL A   1      39.733  29.211  29.798  1.00  0.00     0.023 A 
ATOM     70  C   UNL A   1      40.517  28.058  29.534  1.00  0.00     0.031 A 
ATOM     71  C   UNL A   1      39.211  29.843  28.649  1.00  0.00     0.131 A 
ATOM     72  C   UNL A   1      40.747  27.594  28.218  1.00  0.00     0.055 A 
ATOM     73  C   UNL A   1      39.380  29.340  27.348  1.00  0.00     0.041 A 
ATOM     74  F   UNL A   1      38.563  31.012  28.707  1.00  0.00    -0.206 F 
ATOM     75  C   UNL A   1      40.152  28.214  27.125  1.00  0.00     0.022 A 
BRANCH  72  76
ATOM     76  S   UNL A   1      41.854  26.180  27.924  1.00  0.00     0.124 S 
ATOM     77  O   UNL A   1      41.092  25.070  28.486  1.00  0.00    -0.237 OA
ATOM     78  O   UNL A   1      42.011  26.191  26.473  1.00  0.00    -0.237 OA
ATOM     79  O   UNL A   1      43.061  26.535  28.670  1.00  0.00    -0.744 OA
ENDBRANCH  72  76
ENDBRANCH  55  69
BRANCH  56  80
ATOM     80  C   UNL A   1      39.552  35.126  37.690  1.00  0.00     0.023 A 
ATOM     81  C   UNL A   1      38.713  34.309  38.485  1.00  0.00     0.031 A 
ATOM     82  C   UNL A   1      40.070  36.296  38.269  1.00  0.00     0.131 A 
ATOM     83  C   UNL A   1      38.677  34.498  39.874  1.00  0.00     0.055 A 
ATOM     84  C   UNL A   1      39.931  36.540  39.644  1.00  0.00     0.041 A 
ATOM     85  F   UNL A   1      40.880  37.101  37.567  1.00  0.00    -0.206 F 
ATOM     86  C   UNL A   1      39.290  35.605  40.463  1.00  0.00     0.022 A 
BRANCH  83  87
ATOM     87  S   UNL A   1      38.147  33.084  40.895  1.00  0.00     0.124 S 
ATOM     88  O   UNL A   1      39.134  32.070  40.546  1.00  0.00    -0.237 OA
ATOM     89  O   UNL A   1      38.235  33.625  42.252  1.00  0.00    -0.237 OA
ATOM     90  O   UNL A   1      36.783  32.827  40.442  1.00  0.00    -0.744 OA
ENDBRANCH  83  87
ENDBRANCH  56  80
BRANCH  68  91
ATOM     91  C   UNL A   1      42.875  28.749  35.647  1.00  0.00     0.023 A 
ATOM     92  C   UNL A   1      42.102  27.595  35.785  1.00  0.00     0.031 A 
ATOM     93  C   UNL A   1      44.285  28.543  35.645  1.00  0.00     0.131 A 
ATOM     94  C   UNL A   1      42.707  26.332  35.930  1.00  0.00     0.055 A 
ATOM     95  C   UNL A   1      44.881  27.284  35.730  1.00  0.00     0.041 A 
ATOM     96  F   UNL A   1      45.162  29.549  35.521  1.00  0.00    -0.206 F 
ATOM     97  C   UNL A   1      44.089  26.163  35.877  1.00  0.00     0.022 A 
BRANCH  94  98
ATOM     98  S   UNL A   1      41.633  24.902  36.203  1.00  0.00     0.124 S 
ATOM     99  O   UNL A   1      41.402  24.972  37.643  1.00  0.00    -0.237 OA
ATOM    100  O   UNL A   1      40.481  25.212  35.362  1.00  0.00    -0.237 OA
ATOM    101  O   UNL A   1      42.442  23.770  35.756  1.00  0.00    -0.744 OA
ENDBRANCH  94  98
ENDBRANCH  68  91
ENDBRANCH  42  43
ENDBRANCH  35  37
ENDBRANCH  34  35
ENDBRANCH  33  34
ENDBRANCH  32  33
ENDBRANCH  31  32
ENDBRANCH  30  31
ENDBRANCH  29  30
ENDBRANCH  28  29
ENDBRANCH   1  28
TORSDOF 29
ENDMDL
MODEL 2
REMARK VINA RESULT:     -10.0      1.636      2.666
REMARK SMILES Cc1ccc(OCCC(=O)N2C[C@H](O)C[C@@H]2C(=O)OCCOCCOCCOCCOC(=O)c2ccc(-c3c4nc(c(-c5cc(S(=O)(=O)[O-])ccc5F)c5ccc([nH]5)c(-c5cc(S(=O)(=O)[O-])ccc5F)c5nc(c(-c6cc(S(=O)(=O)[O-])ccc6F)c6ccc3[nH]6)C=C5)C=C4)cc2)cc1
REMARK SMILES IDX 24 1 23 2 22 3 21 4 20 5 19 6 17 7 18 8 16 9 11 10 12 11
REMARK SMILES IDX 13 12 15 13 9 14 10 15 8 16 7 17 6 18 5 19 1 20 2 21 3 22
REMARK SMILES IDX 98 23 4 24 97 25 14 26 25 28 26 29 27 30 28 31 29 32 30 33
REMARK SMILES IDX 31 34 32 35 33 36 34 37 35 38 96 39 36 40 95 41 37 42 38 43
REMARK SMILES IDX 39 44 89 45 40 46 94 47 88 48 90 49 41 50 93 51 87 52 86 53
REMARK SMILES IDX 42 55 74 56 54 57 73 58 55 59 58 60 72 61 91 62 56 63 57 64
REMARK SMILES IDX 71 66 92 67 59 68 43 69 44 70 52 71 45 72 51 73 53 74 50 75
REMARK SMILES IDX 46 76 47 77 48 78 49 79 75 80 76 81 84 82 77 83 83 84 85 85
REMARK SMILES IDX 82 86 78 87 79 88 80 89 81 90 60 91 61 92 69 93 62 94 68 95
REMARK SMILES IDX 70 96 67 97 63 98 64 99 65 100 66 101
REMARK H PARENT 14 27 90 54 58 65
REMARK Flexibility Score: inf
ROOT
ATOM      1  C   UNL A   1      33.287  31.338  26.971  1.00  0.00     0.188 C 
ENDROOT
BRANCH   1   2
ATOM      2  C   UNL A   1      32.040  30.449  26.914  1.00  0.00     0.188 C 
BRANCH   2   3
ATOM      3  O   UNL A   1      32.274  29.252  26.175  1.00  0.00    -0.376 OA
BRANCH   3   4
ATOM      4  C   UNL A   1      32.378  28.084  26.995  1.00  0.00     0.202 C 
BRANCH   4   5
ATOM      5  C   UNL A   1      31.377  26.981  26.654  1.00  0.00     0.261 C 
BRANCH   5   6
ATOM      6  O   UNL A   1      31.942  25.907  25.868  1.00  0.00    -0.462 OA
BRANCH   6   7
ATOM      7  C   UNL A   1      32.190  24.749  26.536  1.00  0.00     0.329 C 
ATOM      8  O   UNL A   1      31.365  24.183  27.249  1.00  0.00    -0.250 OA
BRANCH   7   9
ATOM      9  C   UNL A   1      33.456  24.020  26.046  1.00  0.00     0.197 C 
ATOM     10  N   UNL A   1      33.517  23.246  24.793  1.00  0.00    -0.326 N 
ATOM     11  C   UNL A   1      33.247  21.854  25.073  1.00  0.00     0.152 C 
ATOM     12  C   UNL A   1      33.966  21.654  26.395  1.00  0.00     0.136 C 
ATOM     13  C   UNL A   1      33.791  22.974  27.130  1.00  0.00     0.070 C 
BRANCH  10  14
ATOM     14  C   UNL A   1      34.180  23.735  23.688  1.00  0.00     0.226 C 
ATOM     15  O   UNL A   1      34.059  24.906  23.320  1.00  0.00    -0.275 OA
BRANCH  14  16
ATOM     16  C   UNL A   1      35.160  22.829  22.960  1.00  0.00     0.141 C 
BRANCH  16  17
ATOM     17  C   UNL A   1      36.615  23.011  23.427  1.00  0.00     0.239 C 
BRANCH  17  18
ATOM     18  O   UNL A   1      36.812  23.667  24.688  1.00  0.00    -0.493 OA
BRANCH  18  19
ATOM     19  C   UNL A   1      37.708  23.160  25.593  1.00  0.00     0.119 A 
ATOM     20  C   UNL A   1      41.451  22.465  27.581  1.00  0.00     0.044 C 
ATOM     21  C   UNL A   1      40.044  22.626  27.073  1.00  0.00    -0.051 A 
ATOM     22  C   UNL A   1      39.350  23.823  27.270  1.00  0.00     0.007 A 
ATOM     23  C   UNL A   1      39.467  21.639  26.265  1.00  0.00     0.007 A 
ATOM     24  C   UNL A   1      38.175  24.079  26.547  1.00  0.00     0.046 A 
ATOM     25  C   UNL A   1      38.304  21.904  25.531  1.00  0.00     0.046 A 
ENDBRANCH  18  19
ENDBRANCH  17  18
ENDBRANCH  16  17
ENDBRANCH  14  16
ENDBRANCH  10  14
BRANCH  12  26
ATOM     26  O   UNL A   1      33.639  20.498  27.140  1.00  0.00    -0.391 OA
ATOM     27  H   UNL A   1      33.836  19.708  26.614  1.00  0.00     0.211 HD
ENDBRANCH  12  26
ENDBRANCH   7   9
ENDBRANCH   6   7
ENDBRANCH   5   6
ENDBRANCH   4   5
ENDBRANCH   3   4
ENDBRANCH   2   3
ENDBRANCH   1   2
BRANCH   1  28
ATOM     28  O   UNL A   1      34.039  31.151  28.168  1.00  0.00    -0.377 OA
BRANCH  28  29
ATOM     29  C   UNL A   1      35.042  32.107  28.532  1.00  0.00     0.188 C 
BRANCH  29  30
ATOM     30  C   UNL A   1      34.767  32.991  29.737  1.00  0.00     0.188 C 
BRANCH  30  31
ATOM     31  O   UNL A   1      33.617  33.756  29.404  1.00  0.00    -0.376 OA
BRANCH  31  32
ATOM     32  C   UNL A   1      33.829  35.136  29.194  1.00  0.00     0.202 C 
BRANCH  32  33
ATOM     33  C   UNL A   1      32.609  35.906  29.676  1.00  0.00     0.261 C 
BRANCH  33  34
ATOM     34  O   UNL A   1      32.897  36.389  31.007  1.00  0.00    -0.460 OA
BRANCH  34  35
ATOM     35  C   UNL A   1      32.497  35.539  31.996  1.00  0.00     0.338 C 
ATOM     36  O   UNL A   1      31.334  35.328  32.287  1.00  0.00    -0.246 OA
BRANCH  35  37
ATOM     37  C   UNL A   1      33.669  35.016  32.766  1.00  0.00     0.060 A 
ATOM     38  C   UNL A   1      34.839  35.787  32.841  1.00  0.00     0.016 A 
ATOM     39  C   UNL A   1      33.697  33.702  33.231  1.00  0.00     0.016 A 
ATOM     40  C   UNL A   1      36.048  35.212  33.273  1.00  0.00     0.010 A 
ATOM     41  C   UNL A   1      34.910  33.125  33.604  1.00  0.00     0.010 A 
ATOM     42  C   UNL A   1      36.117  33.850  33.587  1.00  0.00    -0.014 A 
BRANCH  42  43
ATOM     43  C   UNL A   1      37.387  33.068  33.622  1.00  0.00     0.031 A 
ATOM     44  C   UNL A   1      37.545  31.747  32.898  1.00  0.00     0.074 A 
ATOM     45  C   UNL A   1      38.524  33.707  34.017  1.00  0.00     0.049 A 
ATOM     46  N   UNL A   1      38.655  31.080  32.824  1.00  0.00    -0.248 NA
ATOM     47  C   UNL A   1      36.476  31.037  32.189  1.00  0.00     0.031 C 
ATOM     48  C   UNL A   1      39.874  33.416  33.548  1.00  0.00     0.029 A 
ATOM     49  N   UNL A   1      38.742  34.765  34.907  1.00  0.00    -0.354 N 
ATOM     50  C   UNL A   1      38.579  30.220  31.748  1.00  0.00     0.074 A 
ATOM     51  C   UNL A   1      37.162  30.106  31.508  1.00  0.00     0.031 C 
ATOM     52  C   UNL A   1      40.784  34.188  34.144  1.00  0.00     0.029 A 
ATOM     53  C   UNL A   1      40.110  34.757  35.273  1.00  0.00     0.049 A 
ATOM     54  H   UNL A   1      38.062  35.403  35.223  1.00  0.00     0.167 HD
ATOM     55  C   UNL A   1      39.728  29.866  31.086  1.00  0.00     0.034 A 
ATOM     56  C   UNL A   1      40.518  34.490  36.551  1.00  0.00     0.034 A 
ATOM     57  C   UNL A   1      40.948  30.249  31.822  1.00  0.00     0.049 A 
ATOM     58  C   UNL A   1      41.319  33.204  36.676  1.00  0.00     0.074 A 
ATOM     59  C   UNL A   1      42.115  30.932  31.505  1.00  0.00     0.029 A 
ATOM     60  N   UNL A   1      41.008  30.023  33.194  1.00  0.00    -0.354 N 
ATOM     61  N   UNL A   1      41.289  32.267  35.762  1.00  0.00    -0.248 NA
ATOM     62  C   UNL A   1      42.266  32.875  37.738  1.00  0.00     0.031 C 
ATOM     63  C   UNL A   1      42.831  31.175  32.713  1.00  0.00     0.029 A 
ATOM     64  C   UNL A   1      42.139  30.571  33.748  1.00  0.00     0.049 A 
ATOM     65  H   UNL A   1      40.324  29.530  33.704  1.00  0.00     0.167 HD
ATOM     66  C   UNL A   1      42.222  31.303  36.022  1.00  0.00     0.074 A 
ATOM     67  C   UNL A   1      42.770  31.699  37.308  1.00  0.00     0.031 C 
ATOM     68  C   UNL A   1      42.474  30.290  35.136  1.00  0.00     0.034 A 
BRANCH  55  69
ATOM     69  C   UNL A   1      39.814  29.330  29.653  1.00  0.00     0.023 A 
ATOM     70  C   UNL A   1      40.783  28.345  29.326  1.00  0.00     0.031 A 
ATOM     71  C   UNL A   1      39.080  29.820  28.552  1.00  0.00     0.131 A 
ATOM     72  C   UNL A   1      40.984  27.904  27.998  1.00  0.00     0.055 A 
ATOM     73  C   UNL A   1      39.230  29.329  27.244  1.00  0.00     0.041 A 
ATOM     74  F   UNL A   1      38.223  30.842  28.661  1.00  0.00    -0.206 F 
ATOM     75  C   UNL A   1      40.186  28.370  26.960  1.00  0.00     0.022 A 
BRANCH  72  76
ATOM     76  S   UNL A   1      42.316  26.726  27.614  1.00  0.00     0.124 S 
ATOM     77  O   UNL A   1      41.702  25.889  26.590  1.00  0.00    -0.237 OA
ATOM     78  O   UNL A   1      43.401  27.599  27.176  1.00  0.00    -0.237 OA
ATOM     79  O   UNL A   1      42.553  26.056  28.893  1.00  0.00    -0.744 OA
ENDBRANCH  72  76
ENDBRANCH  55  69
BRANCH  56  80
ATOM     80  C   UNL A   1      39.711  35.264  37.532  1.00  0.00     0.023 A 
ATOM     81  C   UNL A   1      38.798  34.454  38.246  1.00  0.00     0.031 A 
ATOM     82  C   UNL A   1      40.272  36.367  38.198  1.00  0.00     0.131 A 
ATOM     83  C   UNL A   1      38.718  34.564  39.641  1.00  0.00     0.055 A 
ATOM     84  C   UNL A   1      40.094  36.539  39.579  1.00  0.00     0.041 A 
ATOM     85  F   UNL A   1      41.154  37.162  37.574  1.00  0.00    -0.206 F 
ATOM     86  C   UNL A   1      39.370  35.597  40.317  1.00  0.00     0.022 A 
BRANCH  83  87
ATOM     87  S   UNL A   1      38.070  33.128  40.557  1.00  0.00     0.124 S 
ATOM     88  O   UNL A   1      36.862  32.808  39.806  1.00  0.00    -0.237 OA
ATOM     89  O   UNL A   1      39.165  32.165  40.451  1.00  0.00    -0.237 OA
ATOM     90  O   UNL A   1      37.861  33.648  41.906  1.00  0.00    -0.744 OA
ENDBRANCH  83  87
ENDBRANCH  56  80
BRANCH  68  91
ATOM     91  C   UNL A   1      43.091  28.936  35.432  1.00  0.00     0.023 A 
ATOM     92  C   UNL A   1      42.350  27.834  35.866  1.00  0.00     0.031 A 
ATOM     93  C   UNL A   1      44.456  28.669  35.119  1.00  0.00     0.131 A 
ATOM     94  C   UNL A   1      42.947  26.565  35.993  1.00  0.00     0.055 A 
ATOM     95  C   UNL A   1      45.029  27.399  35.190  1.00  0.00     0.041 A 
ATOM     96  F   UNL A   1      45.298  29.619  34.691  1.00  0.00    -0.206 F 
ATOM     97  C   UNL A   1      44.273  26.332  35.633  1.00  0.00     0.022 A 
BRANCH  94  98
ATOM     98  S   UNL A   1      41.941  25.216  36.656  1.00  0.00     0.124 S 
ATOM     99  O   UNL A   1      42.962  24.284  37.125  1.00  0.00    -0.237 OA
ATOM    100  O   UNL A   1      41.169  25.886  37.698  1.00  0.00    -0.237 OA
ATOM    101  O   UNL A   1      41.166  24.763  35.503  1.00  0.00    -0.744 OA
ENDBRANCH  94  98
ENDBRANCH  68  91
ENDBRANCH  42  43
ENDBRANCH  35  37
ENDBRANCH  34  35
ENDBRANCH  33  34
ENDBRANCH  32  33
ENDBRANCH  31  32
ENDBRANCH  30  31
ENDBRANCH  29  30
ENDBRANCH  28  29
ENDBRANCH   1  28
TORSDOF 29
ENDMDL
MODEL 3
REMARK VINA RESULT:      -9.8      2.483      3.511
REMARK SMILES Cc1ccc(OCCC(=O)N2C[C@H](O)C[C@@H]2C(=O)OCCOCCOCCOCCOC(=O)c2ccc(-c3c4nc(c(-c5cc(S(=O)(=O)[O-])ccc5F)c5ccc([nH]5)c(-c5cc(S(=O)(=O)[O-])ccc5F)c5nc(c(-c6cc(S(=O)(=O)[O-])ccc6F)c6ccc3[nH]6)C=C5)C=C4)cc2)cc1
REMARK SMILES IDX 24 1 23 2 22 3 21 4 20 5 19 6 17 7 18 8 16 9 11 10 12 11
REMARK SMILES IDX 13 12 15 13 9 14 10 15 8 16 7 17 6 18 5 19 1 20 2 21 3 22
REMARK SMILES IDX 98 23 4 24 97 25 14 26 25 28 26 29 27 30 28 31 29 32 30 33
REMARK SMILES IDX 31 34 32 35 33 36 34 37 35 38 96 39 36 40 95 41 37 42 38 43
REMARK SMILES IDX 39 44 89 45 40 46 94 47 88 48 90 49 41 50 93 51 87 52 86 53
REMARK SMILES IDX 42 55 74 56 54 57 73 58 55 59 58 60 72 61 91 62 56 63 57 64
REMARK SMILES IDX 71 66 92 67 59 68 43 69 44 70 52 71 45 72 51 73 53 74 50 75
REMARK SMILES IDX 46 76 47 77 48 78 49 79 75 80 76 81 84 82 77 83 83 84 85 85
REMARK SMILES IDX 82 86 78 87 79 88 80 89 81 90 60 91 61 92 69 93 62 94 68 95
REMARK SMILES IDX 70 96 67 97 63 98 64 99 65 100 66 101
REMARK H PARENT 14 27 90 54 58 65
REMARK Flexibility Score: inf
ROOT
ATOM      1  C   UNL A   1      34.790  31.145  28.619  1.00  0.00     0.188 C 
ENDROOT
BRANCH   1   2
ATOM      2  C   UNL A   1      34.977  29.777  27.954  1.00  0.00     0.188 C 
BRANCH   2   3
ATOM      3  O   UNL A   1      33.867  29.431  27.128  1.00  0.00    -0.376 OA
BRANCH   3   4
ATOM      4  C   UNL A   1      34.233  29.098  25.786  1.00  0.00     0.202 C 
BRANCH   4   5
ATOM      5  C   UNL A   1      33.100  29.233  24.769  1.00  0.00     0.261 C 
BRANCH   5   6
ATOM      6  O   UNL A   1      32.827  28.015  24.040  1.00  0.00    -0.462 OA
BRANCH   6   7
ATOM      7  C   UNL A   1      31.766  27.286  24.477  1.00  0.00     0.329 C 
ATOM      8  O   UNL A   1      31.061  27.611  25.429  1.00  0.00    -0.250 OA
BRANCH   7   9
ATOM      9  C   UNL A   1      31.303  26.215  23.471  1.00  0.00     0.197 C 
ATOM     10  N   UNL A   1      31.911  24.877  23.369  1.00  0.00    -0.326 N 
ATOM     11  C   UNL A   1      32.936  24.890  22.349  1.00  0.00     0.152 C 
ATOM     12  C   UNL A   1      32.312  25.777  21.287  1.00  0.00     0.136 C 
ATOM     13  C   UNL A   1      31.530  26.820  22.070  1.00  0.00     0.070 C 
BRANCH  10  14
ATOM     14  C   UNL A   1      31.255  23.760  23.841  1.00  0.00     0.226 C 
ATOM     15  O   UNL A   1      30.976  22.808  23.108  1.00  0.00    -0.275 OA
BRANCH  14  16
ATOM     16  C   UNL A   1      30.952  23.661  25.328  1.00  0.00     0.141 C 
BRANCH  16  17
ATOM     17  C   UNL A   1      31.005  22.220  25.862  1.00  0.00     0.239 C 
BRANCH  17  18
ATOM     18  O   UNL A   1      32.262  21.772  26.392  1.00  0.00    -0.493 OA
BRANCH  18  19
ATOM     19  C   UNL A   1      33.435  22.286  25.904  1.00  0.00     0.119 A 
ATOM     20  C   UNL A   1      37.647  22.676  25.160  1.00  0.00     0.044 C 
ATOM     21  C   UNL A   1      36.145  22.679  25.243  1.00  0.00    -0.051 A 
ATOM     22  C   UNL A   1      35.395  21.709  24.572  1.00  0.00     0.007 A 
ATOM     23  C   UNL A   1      35.486  23.555  26.114  1.00  0.00     0.007 A 
ATOM     24  C   UNL A   1      34.040  21.528  24.888  1.00  0.00     0.046 A 
ATOM     25  C   UNL A   1      34.138  23.360  26.440  1.00  0.00     0.046 A 
ENDBRANCH  18  19
ENDBRANCH  17  18
ENDBRANCH  16  17
ENDBRANCH  14  16
ENDBRANCH  10  14
BRANCH  12  26
ATOM     26  O   UNL A   1      33.169  26.286  20.286  1.00  0.00    -0.391 OA
ATOM     27  H   UNL A   1      34.092  26.169  20.559  1.00  0.00     0.211 HD
ENDBRANCH  12  26
ENDBRANCH   7   9
ENDBRANCH   6   7
ENDBRANCH   5   6
ENDBRANCH   4   5
ENDBRANCH   3   4
ENDBRANCH   2   3
ENDBRANCH   1   2
BRANCH   1  28
ATOM     28  O   UNL A   1      34.425  32.162  27.689  1.00  0.00    -0.377 OA
BRANCH  28  29
ATOM     29  C   UNL A   1      34.311  33.519  28.131  1.00  0.00     0.188 C 
BRANCH  29  30
ATOM     30  C   UNL A   1      32.961  34.199  27.976  1.00  0.00     0.188 C 
BRANCH  30  31
ATOM     31  O   UNL A   1      32.604  34.654  29.273  1.00  0.00    -0.376 OA
BRANCH  31  32
ATOM     32  C   UNL A   1      33.086  35.930  29.639  1.00  0.00     0.202 C 
BRANCH  32  33
ATOM     33  C   UNL A   1      32.751  36.189  31.099  1.00  0.00     0.261 C 
BRANCH  33  34
ATOM     34  O   UNL A   1      33.955  35.972  31.868  1.00  0.00    -0.460 OA
BRANCH  34  35
ATOM     35  C   UNL A   1      34.101  34.690  32.308  1.00  0.00     0.338 C 
ATOM     36  O   UNL A   1      33.194  34.015  32.758  1.00  0.00    -0.246 OA
BRANCH  35  37
ATOM     37  C   UNL A   1      35.539  34.275  32.298  1.00  0.00     0.060 A 
ATOM     38  C   UNL A   1      36.122  33.857  31.093  1.00  0.00     0.016 A 
ATOM     39  C   UNL A   1      36.246  34.098  33.486  1.00  0.00     0.016 A 
ATOM     40  C   UNL A   1      37.350  33.169  31.093  1.00  0.00     0.010 A 
ATOM     41  C   UNL A   1      37.433  33.367  33.484  1.00  0.00     0.010 A 
ATOM     42  C   UNL A   1      37.985  32.846  32.298  1.00  0.00    -0.014 A 
BRANCH  42  43
ATOM     43  C   UNL A   1      39.014  31.776  32.433  1.00  0.00     0.031 A 
ATOM     44  C   UNL A   1      38.935  30.473  31.665  1.00  0.00     0.074 A 
ATOM     45  C   UNL A   1      40.217  32.106  32.985  1.00  0.00     0.049 A 
ATOM     46  N   UNL A   1      39.852  29.555  31.680  1.00  0.00    -0.248 NA
ATOM     47  C   UNL A   1      37.820  30.063  30.807  1.00  0.00     0.031 C 
ATOM     48  C   UNL A   1      41.502  31.504  32.654  1.00  0.00     0.029 A 
ATOM     49  N   UNL A   1      40.575  33.058  33.946  1.00  0.00    -0.354 N 
ATOM     50  C   UNL A   1      39.700  28.765  30.560  1.00  0.00     0.074 A 
ATOM     51  C   UNL A   1      38.338  29.008  30.158  1.00  0.00     0.031 C 
ATOM     52  C   UNL A   1      42.494  32.014  33.386  1.00  0.00     0.029 A 
ATOM     53  C   UNL A   1      41.846  32.706  34.461  1.00  0.00     0.049 A 
ATOM     54  H   UNL A   1      40.036  33.836  34.217  1.00  0.00     0.167 HD
ATOM     55  C   UNL A   1      40.801  28.155  30.012  1.00  0.00     0.034 A 
ATOM     56  C   UNL A   1      42.021  32.318  35.761  1.00  0.00     0.034 A 
ATOM     57  C   UNL A   1      41.980  28.210  30.898  1.00  0.00     0.049 A 
ATOM     58  C   UNL A   1      42.467  30.872  35.909  1.00  0.00     0.074 A 
ATOM     59  C   UNL A   1      43.307  28.592  30.748  1.00  0.00     0.029 A 
ATOM     60  N   UNL A   1      41.818  27.945  32.254  1.00  0.00    -0.354 N 
ATOM     61  N   UNL A   1      42.322  29.992  34.949  1.00  0.00    -0.248 NA
ATOM     62  C   UNL A   1      43.172  30.296  37.050  1.00  0.00     0.031 C 
ATOM     63  C   UNL A   1      43.910  28.624  32.038  1.00  0.00     0.029 A 
ATOM     64  C   UNL A   1      42.973  28.186  32.958  1.00  0.00     0.049 A 
ATOM     65  H   UNL A   1      40.980  27.624  32.660  1.00  0.00     0.167 HD
ATOM     66  C   UNL A   1      42.957  28.823  35.262  1.00  0.00     0.074 A 
ATOM     67  C   UNL A   1      43.426  29.043  36.619  1.00  0.00     0.031 C 
ATOM     68  C   UNL A   1      43.061  27.800  34.359  1.00  0.00     0.034 A 
BRANCH  55  69
ATOM     69  C   UNL A   1      40.927  27.647  28.572  1.00  0.00     0.023 A 
ATOM     70  C   UNL A   1      41.393  26.328  28.329  1.00  0.00     0.031 A 
ATOM     71  C   UNL A   1      40.734  28.425  27.411  1.00  0.00     0.131 A 
ATOM     72  C   UNL A   1      41.639  25.851  27.021  1.00  0.00     0.055 A 
ATOM     73  C   UNL A   1      40.910  27.927  26.110  1.00  0.00     0.041 A 
ATOM     74  F   UNL A   1      40.426  29.726  27.465  1.00  0.00    -0.206 F 
ATOM     75  C   UNL A   1      41.367  26.637  25.907  1.00  0.00     0.022 A 
BRANCH  72  76
ATOM     76  S   UNL A   1      42.346  24.193  26.767  1.00  0.00     0.124 S 
ATOM     77  O   UNL A   1      43.587  24.267  27.531  1.00  0.00    -0.237 OA
ATOM     78  O   UNL A   1      41.308  23.316  27.298  1.00  0.00    -0.237 OA
ATOM     79  O   UNL A   1      42.523  24.120  25.317  1.00  0.00    -0.744 OA
ENDBRANCH  72  76
ENDBRANCH  55  69
BRANCH  56  80
ATOM     80  C   UNL A   1      41.313  33.244  36.685  1.00  0.00     0.023 A 
ATOM     81  C   UNL A   1      39.917  33.021  36.716  1.00  0.00     0.031 A 
ATOM     82  C   UNL A   1      41.935  33.679  37.867  1.00  0.00     0.131 A 
ATOM     83  C   UNL A   1      39.257  32.926  37.949  1.00  0.00     0.055 A 
ATOM     84  C   UNL A   1      41.236  33.694  39.083  1.00  0.00     0.041 A 
ATOM     85  F   UNL A   1      43.259  33.895  37.899  1.00  0.00    -0.206 F 
ATOM     86  C   UNL A   1      39.911  33.251  39.138  1.00  0.00     0.022 A 
BRANCH  83  87
ATOM     87  S   UNL A   1      37.677  32.017  37.984  1.00  0.00     0.124 S 
ATOM     88  O   UNL A   1      36.734  33.031  37.529  1.00  0.00    -0.237 OA
ATOM     89  O   UNL A   1      37.928  30.913  37.058  1.00  0.00    -0.237 OA
ATOM     90  O   UNL A   1      37.548  31.609  39.380  1.00  0.00    -0.744 OA
ENDBRANCH  83  87
ENDBRANCH  56  80
BRANCH  68  91
ATOM     91  C   UNL A   1      43.293  26.329  34.651  1.00  0.00     0.023 A 
ATOM     92  C   UNL A   1      44.553  25.729  34.615  1.00  0.00     0.031 A 
ATOM     93  C   UNL A   1      42.239  25.506  35.147  1.00  0.00     0.131 A 
ATOM     94  C   UNL A   1      44.732  24.395  35.029  1.00  0.00     0.055 A 
ATOM     95  C   UNL A   1      42.430  24.205  35.612  1.00  0.00     0.041 A 
ATOM     96  F   UNL A   1      40.973  25.935  35.244  1.00  0.00    -0.206 F 
ATOM     97  C   UNL A   1      43.687  23.636  35.553  1.00  0.00     0.022 A 
BRANCH  94  98
ATOM     98  S   UNL A   1      46.378  23.665  34.856  1.00  0.00     0.124 S 
ATOM     99  O   UNL A   1      46.058  22.292  34.477  1.00  0.00    -0.237 OA
ATOM    100  O   UNL A   1      46.975  24.488  33.809  1.00  0.00    -0.237 OA
ATOM    101  O   UNL A   1      46.969  23.824  36.183  1.00  0.00    -0.744 OA
ENDBRANCH  94  98
ENDBRANCH  68  91
ENDBRANCH  42  43
ENDBRANCH  35  37
ENDBRANCH  34  35
ENDBRANCH  33  34
ENDBRANCH  32  33
ENDBRANCH  31  32
ENDBRANCH  30  31
ENDBRANCH  29  30
ENDBRANCH  28  29
ENDBRANCH   1  28
TORSDOF 29
ENDMDL
