MODEL 1
REMARK VINA RESULT:      -9.3      0.000      0.000
REMARK SMILES C[C@@H](CC(=O)OCCOCCOCCOCCOC(=O)c1ccc(-c2c3nc(c(-c4cc(S(=O)(=O)[O-])ccc4F)c4ccc([nH]4)c(-c4cc(S(=O)(=O)[O-])ccc4F)c4nc(c(-c5cc(S(=O)(=O)[O-])ccc5F)c5ccc2[nH]5)C=C4)C=C3)cc1)NC(=O)c1ccc(O)cc1
REMARK SMILES IDX 11 1 10 2 9 3 8 4 7 5 6 6 4 7 5 8 3 9 2 10 1 11 84 12 85 13
REMARK SMILES IDX 86 15 87 16 88 17 93 18 89 19 92 20 90 21 91 22 12 24 13 25
REMARK SMILES IDX 14 26 15 27 16 28 17 29 18 30 19 31 20 32 21 33 22 34 83 35
REMARK SMILES IDX 23 36 82 37 24 38 25 39 26 40 76 41 27 42 81 43 75 44 77 45
REMARK SMILES IDX 28 46 80 47 74 48 73 49 29 51 61 52 41 53 60 54 42 55 45 56
REMARK SMILES IDX 59 57 78 58 43 59 44 60 58 62 79 63 46 64 30 65 31 66 39 67
REMARK SMILES IDX 32 68 38 69 40 70 37 71 33 72 34 73 35 74 36 75 62 76 63 77
REMARK SMILES IDX 71 78 64 79 70 80 72 81 69 82 65 83 66 84 67 85 68 86 47 87
REMARK SMILES IDX 48 88 56 89 49 90 55 91 57 92 54 93 50 94 51 95 52 96 53 97
REMARK H PARENT 84 14 91 23 77 50 45 61
REMARK Flexibility Score: inf
ROOT
ATOM      1  C   UNL A   1      31.589  26.406  26.139  1.00  0.00     0.188 C 
ENDROOT
BRANCH   1   2
ATOM      2  C   UNL A   1      30.766  25.631  25.111  1.00  0.00     0.188 C 
BRANCH   2   3
ATOM      3  O   UNL A   1      31.413  24.863  24.115  1.00  0.00    -0.376 OA
BRANCH   3   4
ATOM      4  C   UNL A   1      32.258  25.494  23.159  1.00  0.00     0.202 C 
BRANCH   4   5
ATOM      5  C   UNL A   1      33.765  25.662  23.421  1.00  0.00     0.261 C 
BRANCH   5   6
ATOM      6  O   UNL A   1      34.380  24.602  24.199  1.00  0.00    -0.463 OA
BRANCH   6   7
ATOM      7  C   UNL A   1      35.093  23.682  23.520  1.00  0.00     0.307 C 
ATOM      8  O   UNL A   1      34.729  23.194  22.450  1.00  0.00    -0.252 OA
BRANCH   7   9
ATOM      9  C   UNL A   1      36.446  23.284  24.096  1.00  0.00     0.147 C 
BRANCH   9  10
ATOM     10  C   UNL A   1      36.726  22.235  25.191  1.00  0.00     0.090 C 
ATOM     11  C   UNL A   1      38.184  22.112  25.609  1.00  0.00     0.031 C 
BRANCH  10  12
ATOM     12  N   UNL A   1      36.161  20.911  24.906  1.00  0.00    -0.349 N 
ATOM     13  C   UNL A   1      34.892  20.401  25.040  1.00  0.00     0.251 C 
ATOM     14  H   UNL A   1      36.815  20.266  24.551  1.00  0.00     0.164 HD
ATOM     15  O   UNL A   1      34.630  19.267  24.650  1.00  0.00    -0.269 OA
BRANCH  13  16
ATOM     16  C   UNL A   1      33.831  21.165  25.727  1.00  0.00     0.040 A 
ATOM     17  C   UNL A   1      32.610  21.325  25.059  1.00  0.00     0.017 A 
ATOM     18  C   UNL A   1      34.022  21.752  26.981  1.00  0.00     0.017 A 
ATOM     19  C   UNL A   1      31.552  21.982  25.687  1.00  0.00     0.047 A 
ATOM     20  C   UNL A   1      32.958  22.397  27.615  1.00  0.00     0.047 A 
ATOM     21  C   UNL A   1      31.725  22.482  26.973  1.00  0.00     0.115 A 
BRANCH  21  22
ATOM     22  O   UNL A   1      30.648  23.053  27.583  1.00  0.00    -0.508 OA
ATOM     23  H   UNL A   1      30.370  22.746  28.423  1.00  0.00     0.293 HD
ENDBRANCH  21  22
ENDBRANCH  13  16
ENDBRANCH  10  12
ENDBRANCH   9  10
ENDBRANCH   7   9
ENDBRANCH   6   7
ENDBRANCH   5   6
ENDBRANCH   4   5
ENDBRANCH   3   4
ENDBRANCH   2   3
ENDBRANCH   1   2
BRANCH   1  24
ATOM     24  O   UNL A   1      31.313  27.787  26.291  1.00  0.00    -0.377 OA
BRANCH  24  25
ATOM     25  C   UNL A   1      31.846  28.722  25.356  1.00  0.00     0.188 C 
BRANCH  25  26
ATOM     26  C   UNL A   1      33.207  29.366  25.641  1.00  0.00     0.188 C 
BRANCH  26  27
ATOM     27  O   UNL A   1      33.367  29.746  26.997  1.00  0.00    -0.376 OA
BRANCH  27  28
ATOM     28  C   UNL A   1      33.077  31.078  27.392  1.00  0.00     0.202 C 
BRANCH  28  29
ATOM     29  C   UNL A   1      34.208  32.040  27.801  1.00  0.00     0.261 C 
BRANCH  29  30
ATOM     30  O   UNL A   1      33.957  33.452  27.727  1.00  0.00    -0.460 OA
BRANCH  30  31
ATOM     31  C   UNL A   1      33.610  34.102  28.852  1.00  0.00     0.338 C 
ATOM     32  O   UNL A   1      32.551  34.670  29.070  1.00  0.00    -0.246 OA
BRANCH  31  33
ATOM     33  C   UNL A   1      34.652  33.842  29.867  1.00  0.00     0.060 A 
ATOM     34  C   UNL A   1      35.963  34.256  29.602  1.00  0.00     0.016 A 
ATOM     35  C   UNL A   1      34.354  33.160  31.051  1.00  0.00     0.016 A 
ATOM     36  C   UNL A   1      36.992  33.918  30.479  1.00  0.00     0.010 A 
ATOM     37  C   UNL A   1      35.391  32.812  31.925  1.00  0.00     0.010 A 
ATOM     38  C   UNL A   1      36.723  33.140  31.612  1.00  0.00    -0.014 A 
BRANCH  38  39
ATOM     39  C   UNL A   1      37.854  32.482  32.317  1.00  0.00     0.031 A 
ATOM     40  C   UNL A   1      38.565  31.349  31.620  1.00  0.00     0.074 A 
ATOM     41  C   UNL A   1      38.294  32.926  33.508  1.00  0.00     0.049 A 
ATOM     42  N   UNL A   1      39.585  30.634  32.015  1.00  0.00    -0.248 NA
ATOM     43  C   UNL A   1      38.046  30.972  30.295  1.00  0.00     0.031 C 
ATOM     44  C   UNL A   1      37.723  34.045  34.256  1.00  0.00     0.029 A 
ATOM     45  N   UNL A   1      39.332  32.490  34.294  1.00  0.00    -0.354 N 
ATOM     46  C   UNL A   1      39.831  29.723  30.992  1.00  0.00     0.074 A 
ATOM     47  C   UNL A   1      38.819  29.946  29.982  1.00  0.00     0.031 C 
ATOM     48  C   UNL A   1      38.421  34.210  35.393  1.00  0.00     0.029 A 
ATOM     49  C   UNL A   1      39.464  33.188  35.472  1.00  0.00     0.049 A 
ATOM     50  H   UNL A   1      39.927  31.748  34.039  1.00  0.00     0.167 HD
ATOM     51  C   UNL A   1      40.817  28.798  30.894  1.00  0.00     0.034 A 
ATOM     52  C   UNL A   1      40.317  33.009  36.503  1.00  0.00     0.034 A 
ATOM     53  C   UNL A   1      41.813  28.582  31.915  1.00  0.00     0.049 A 
ATOM     54  C   UNL A   1      41.355  31.912  36.411  1.00  0.00     0.074 A 
ATOM     55  C   UNL A   1      42.860  27.677  31.920  1.00  0.00     0.029 A 
ATOM     56  N   UNL A   1      41.880  29.269  33.121  1.00  0.00    -0.354 N 
ATOM     57  N   UNL A   1      41.581  31.064  35.434  1.00  0.00    -0.248 NA
ATOM     58  C   UNL A   1      42.261  31.764  37.557  1.00  0.00     0.031 C 
ATOM     59  C   UNL A   1      43.504  27.758  33.159  1.00  0.00     0.029 A 
ATOM     60  C   UNL A   1      42.926  28.782  33.890  1.00  0.00     0.049 A 
ATOM     61  H   UNL A   1      41.272  29.995  33.390  1.00  0.00     0.167 HD
ATOM     62  C   UNL A   1      42.681  30.307  35.834  1.00  0.00     0.074 A 
ATOM     63  C   UNL A   1      43.080  30.815  37.130  1.00  0.00     0.031 C 
ATOM     64  C   UNL A   1      43.309  29.289  35.189  1.00  0.00     0.034 A 
BRANCH  51  65
ATOM     65  C   UNL A   1      40.825  27.917  29.666  1.00  0.00     0.023 A 
ATOM     66  C   UNL A   1      41.773  28.079  28.639  1.00  0.00     0.031 A 
ATOM     67  C   UNL A   1      39.847  26.921  29.503  1.00  0.00     0.131 A 
ATOM     68  C   UNL A   1      41.676  27.311  27.469  1.00  0.00     0.055 A 
ATOM     69  C   UNL A   1      39.809  26.100  28.374  1.00  0.00     0.041 A 
ATOM     70  F   UNL A   1      38.898  26.736  30.434  1.00  0.00    -0.206 F 
ATOM     71  C   UNL A   1      40.719  26.303  27.340  1.00  0.00     0.022 A 
BRANCH  68  72
ATOM     72  S   UNL A   1      42.720  27.753  26.052  1.00  0.00     0.124 S 
ATOM     73  O   UNL A   1      43.990  27.128  26.416  1.00  0.00    -0.237 OA
ATOM     74  O   UNL A   1      42.007  27.148  24.933  1.00  0.00    -0.237 OA
ATOM     75  O   UNL A   1      42.725  29.214  26.072  1.00  0.00    -0.744 OA
ENDBRANCH  68  72
ENDBRANCH  51  65
BRANCH  52  76
ATOM     76  C   UNL A   1      40.217  33.857  37.729  1.00  0.00     0.023 A 
ATOM     77  C   UNL A   1      39.380  33.502  38.799  1.00  0.00     0.031 A 
ATOM     78  C   UNL A   1      40.912  35.078  37.815  1.00  0.00     0.131 A 
ATOM     79  C   UNL A   1      39.217  34.380  39.882  1.00  0.00     0.055 A 
ATOM     80  C   UNL A   1      40.794  35.919  38.923  1.00  0.00     0.041 A 
ATOM     81  F   UNL A   1      41.722  35.472  36.819  1.00  0.00    -0.206 F 
ATOM     82  C   UNL A   1      39.930  35.578  39.959  1.00  0.00     0.022 A 
BRANCH  79  83
ATOM     83  S   UNL A   1      37.977  33.982  41.146  1.00  0.00     0.124 S 
ATOM     84  O   UNL A   1      38.763  33.207  42.097  1.00  0.00    -0.237 OA
ATOM     85  O   UNL A   1      37.560  35.308  41.587  1.00  0.00    -0.237 OA
ATOM     86  O   UNL A   1      36.968  33.228  40.405  1.00  0.00    -0.744 OA
ENDBRANCH  79  83
ENDBRANCH  52  76
BRANCH  64  87
ATOM     87  C   UNL A   1      44.531  28.697  35.857  1.00  0.00     0.023 A 
ATOM     88  C   UNL A   1      44.444  27.598  36.729  1.00  0.00     0.031 A 
ATOM     89  C   UNL A   1      45.799  29.265  35.641  1.00  0.00     0.131 A 
ATOM     90  C   UNL A   1      45.586  27.154  37.414  1.00  0.00     0.055 A 
ATOM     91  C   UNL A   1      46.946  28.767  36.262  1.00  0.00     0.041 A 
ATOM     92  F   UNL A   1      45.948  30.318  34.821  1.00  0.00    -0.206 F 
ATOM     93  C   UNL A   1      46.839  27.719  37.171  1.00  0.00     0.022 A 
BRANCH  90  94
ATOM     94  S   UNL A   1      45.386  25.922  38.730  1.00  0.00     0.124 S 
ATOM     95  O   UNL A   1      44.404  25.013  38.146  1.00  0.00    -0.237 OA
ATOM     96  O   UNL A   1      46.739  25.393  38.871  1.00  0.00    -0.237 OA
ATOM     97  O   UNL A   1      44.906  26.707  39.865  1.00  0.00    -0.744 OA
ENDBRANCH  90  94
ENDBRANCH  64  87
ENDBRANCH  38  39
ENDBRANCH  31  33
ENDBRANCH  30  31
ENDBRANCH  29  30
ENDBRANCH  28  29
ENDBRANCH  27  28
ENDBRANCH  26  27
ENDBRANCH  25  26
ENDBRANCH  24  25
ENDBRANCH   1  24
TORSDOF 27
ENDMDL
MODEL 2
REMARK VINA RESULT:      -9.0      1.604      7.556
REMARK SMILES C[C@@H](CC(=O)OCCOCCOCCOCCOC(=O)c1ccc(-c2c3nc(c(-c4cc(S(=O)(=O)[O-])ccc4F)c4ccc([nH]4)c(-c4cc(S(=O)(=O)[O-])ccc4F)c4nc(c(-c5cc(S(=O)(=O)[O-])ccc5F)c5ccc2[nH]5)C=C4)C=C3)cc1)NC(=O)c1ccc(O)cc1
REMARK SMILES IDX 11 1 10 2 9 3 8 4 7 5 6 6 4 7 5 8 3 9 2 10 1 11 84 12 85 13
REMARK SMILES IDX 86 15 87 16 88 17 93 18 89 19 92 20 90 21 91 22 12 24 13 25
REMARK SMILES IDX 14 26 15 27 16 28 17 29 18 30 19 31 20 32 21 33 22 34 83 35
REMARK SMILES IDX 23 36 82 37 24 38 25 39 26 40 76 41 27 42 81 43 75 44 77 45
REMARK SMILES IDX 28 46 80 47 74 48 73 49 29 51 61 52 41 53 60 54 42 55 45 56
REMARK SMILES IDX 59 57 78 58 43 59 44 60 58 62 79 63 46 64 30 65 31 66 39 67
REMARK SMILES IDX 32 68 38 69 40 70 37 71 33 72 34 73 35 74 36 75 62 76 63 77
REMARK SMILES IDX 71 78 64 79 70 80 72 81 69 82 65 83 66 84 67 85 68 86 47 87
REMARK SMILES IDX 48 88 56 89 49 90 55 91 57 92 54 93 50 94 51 95 52 96 53 97
REMARK H PARENT 84 14 91 23 77 50 45 61
REMARK Flexibility Score: inf
ROOT
ATOM      1  C   UNL A   1      31.351  26.533  25.913  1.00  0.00     0.188 C 
ENDROOT
BRANCH   1   2
ATOM      2  C   UNL A   1      30.441  25.385  25.478  1.00  0.00     0.188 C 
BRANCH   2   3
ATOM      3  O   UNL A   1      30.993  24.224  24.890  1.00  0.00    -0.376 OA
BRANCH   3   4
ATOM      4  C   UNL A   1      31.575  24.285  23.592  1.00  0.00     0.202 C 
BRANCH   4   5
ATOM      5  C   UNL A   1      32.989  24.856  23.382  1.00  0.00     0.261 C 
BRANCH   5   6
ATOM      6  O   UNL A   1      34.057  24.120  24.034  1.00  0.00    -0.463 OA
BRANCH   6   7
ATOM      7  C   UNL A   1      34.987  23.561  23.237  1.00  0.00     0.307 C 
ATOM      8  O   UNL A   1      34.743  23.114  22.116  1.00  0.00    -0.252 OA
BRANCH   7   9
ATOM      9  C   UNL A   1      36.424  23.546  23.745  1.00  0.00     0.147 C 
BRANCH   9  10
ATOM     10  C   UNL A   1      36.933  23.012  25.099  1.00  0.00     0.090 C 
ATOM     11  C   UNL A   1      38.120  23.763  25.683  1.00  0.00     0.031 C 
BRANCH  10  12
ATOM     12  N   UNL A   1      37.183  21.567  25.113  1.00  0.00    -0.349 N 
ATOM     13  C   UNL A   1      36.336  20.484  25.118  1.00  0.00     0.251 C 
ATOM     14  H   UNL A   1      38.138  21.327  25.120  1.00  0.00     0.164 HD
ATOM     15  O   UNL A   1      36.782  19.342  25.042  1.00  0.00    -0.269 OA
BRANCH  13  16
ATOM     16  C   UNL A   1      34.880  20.654  25.294  1.00  0.00     0.040 A 
ATOM     17  C   UNL A   1      34.443  21.431  26.375  1.00  0.00     0.017 A 
ATOM     18  C   UNL A   1      33.947  20.044  24.452  1.00  0.00     0.017 A 
ATOM     19  C   UNL A   1      33.082  21.678  26.551  1.00  0.00     0.047 A 
ATOM     20  C   UNL A   1      32.585  20.304  24.620  1.00  0.00     0.047 A 
ATOM     21  C   UNL A   1      32.168  21.140  25.653  1.00  0.00     0.115 A 
BRANCH  21  22
ATOM     22  O   UNL A   1      30.853  21.462  25.813  1.00  0.00    -0.508 OA
ATOM     23  H   UNL A   1      30.616  22.286  26.191  1.00  0.00     0.293 HD
ENDBRANCH  21  22
ENDBRANCH  13  16
ENDBRANCH  10  12
ENDBRANCH   9  10
ENDBRANCH   7   9
ENDBRANCH   6   7
ENDBRANCH   5   6
ENDBRANCH   4   5
ENDBRANCH   3   4
ENDBRANCH   2   3
ENDBRANCH   1   2
BRANCH   1  24
ATOM     24  O   UNL A   1      30.815  27.845  25.869  1.00  0.00    -0.377 OA
BRANCH  24  25
ATOM     25  C   UNL A   1      31.471  28.851  25.103  1.00  0.00     0.188 C 
BRANCH  25  26
ATOM     26  C   UNL A   1      32.722  29.527  25.674  1.00  0.00     0.188 C 
BRANCH  26  27
ATOM     27  O   UNL A   1      32.525  30.040  26.981  1.00  0.00    -0.376 OA
BRANCH  27  28
ATOM     28  C   UNL A   1      32.527  31.443  27.192  1.00  0.00     0.202 C 
BRANCH  28  29
ATOM     29  C   UNL A   1      33.802  32.164  27.668  1.00  0.00     0.261 C 
BRANCH  29  30
ATOM     30  O   UNL A   1      33.790  33.600  27.720  1.00  0.00    -0.460 OA
BRANCH  30  31
ATOM     31  C   UNL A   1      33.611  34.197  28.911  1.00  0.00     0.338 C 
ATOM     32  O   UNL A   1      32.619  34.808  29.279  1.00  0.00    -0.246 OA
BRANCH  31  33
ATOM     33  C   UNL A   1      34.740  33.819  29.786  1.00  0.00     0.060 A 
ATOM     34  C   UNL A   1      36.020  34.286  29.465  1.00  0.00     0.016 A 
ATOM     35  C   UNL A   1      34.552  32.977  30.886  1.00  0.00     0.016 A 
ATOM     36  C   UNL A   1      37.125  33.849  30.194  1.00  0.00     0.010 A 
ATOM     37  C   UNL A   1      35.664  32.531  31.610  1.00  0.00     0.010 A 
ATOM     38  C   UNL A   1      36.962  32.920  31.229  1.00  0.00    -0.014 A 
BRANCH  38  39
ATOM     39  C   UNL A   1      38.154  32.191  31.734  1.00  0.00     0.031 A 
ATOM     40  C   UNL A   1      38.690  32.560  33.095  1.00  0.00     0.074 A 
ATOM     41  C   UNL A   1      38.701  31.174  31.044  1.00  0.00     0.049 A 
ATOM     42  N   UNL A   1      39.700  32.059  33.759  1.00  0.00    -0.248 NA
ATOM     43  C   UNL A   1      37.990  33.646  33.798  1.00  0.00     0.031 C 
ATOM     44  C   UNL A   1      38.239  30.691  29.744  1.00  0.00     0.029 A 
ATOM     45  N   UNL A   1      39.763  30.358  31.349  1.00  0.00    -0.354 N 
ATOM     46  C   UNL A   1      39.757  32.767  34.955  1.00  0.00     0.074 A 
ATOM     47  C   UNL A   1      38.712  33.766  34.901  1.00  0.00     0.031 C 
ATOM     48  C   UNL A   1      39.013  29.660  29.362  1.00  0.00     0.029 A 
ATOM     49  C   UNL A   1      40.046  29.432  30.372  1.00  0.00     0.049 A 
ATOM     50  H   UNL A   1      40.274  30.429  32.188  1.00  0.00     0.167 HD
ATOM     51  C   UNL A   1      40.592  32.593  36.009  1.00  0.00     0.034 A 
ATOM     52  C   UNL A   1      41.037  28.519  30.295  1.00  0.00     0.034 A 
ATOM     53  C   UNL A   1      41.637  31.598  36.043  1.00  0.00     0.049 A 
ATOM     54  C   UNL A   1      42.013  28.400  31.445  1.00  0.00     0.074 A 
ATOM     55  C   UNL A   1      42.538  31.329  37.059  1.00  0.00     0.029 A 
ATOM     56  N   UNL A   1      41.931  30.715  35.011  1.00  0.00    -0.354 N 
ATOM     57  N   UNL A   1      42.050  29.071  32.573  1.00  0.00    -0.248 NA
ATOM     58  C   UNL A   1      43.067  27.387  31.313  1.00  0.00     0.031 C 
ATOM     59  C   UNL A   1      43.426  30.347  36.609  1.00  0.00     0.029 A 
ATOM     60  C   UNL A   1      43.021  29.929  35.352  1.00  0.00     0.049 A 
ATOM     61  H   UNL A   1      41.438  30.658  34.161  1.00  0.00     0.167 HD
ATOM     62  C   UNL A   1      43.111  28.533  33.300  1.00  0.00     0.074 A 
ATOM     63  C   UNL A   1      43.670  27.472  32.489  1.00  0.00     0.031 C 
ATOM     64  C   UNL A   1      43.579  28.880  34.529  1.00  0.00     0.034 A 
BRANCH  51  65
ATOM     65  C   UNL A   1      40.442  33.537  37.179  1.00  0.00     0.023 A 
ATOM     66  C   UNL A   1      41.254  34.676  37.327  1.00  0.00     0.031 A 
ATOM     67  C   UNL A   1      39.494  33.275  38.184  1.00  0.00     0.131 A 
ATOM     68  C   UNL A   1      41.153  35.464  38.484  1.00  0.00     0.055 A 
ATOM     69  C   UNL A   1      39.338  34.113  39.290  1.00  0.00     0.041 A 
ATOM     70  F   UNL A   1      38.708  32.188  38.115  1.00  0.00    -0.206 F 
ATOM     71  C   UNL A   1      40.182  35.207  39.453  1.00  0.00     0.022 A 
BRANCH  68  72
ATOM     72  S   UNL A   1      42.413  36.736  38.779  1.00  0.00     0.124 S 
ATOM     73  O   UNL A   1      42.816  37.074  37.416  1.00  0.00    -0.237 OA
ATOM     74  O   UNL A   1      41.664  37.761  39.497  1.00  0.00    -0.237 OA
ATOM     75  O   UNL A   1      43.427  36.038  39.567  1.00  0.00    -0.744 OA
ENDBRANCH  68  72
ENDBRANCH  51  65
BRANCH  52  76
ATOM     76  C   UNL A   1      41.189  27.662  29.081  1.00  0.00     0.023 A 
ATOM     77  C   UNL A   1      42.161  27.938  28.106  1.00  0.00     0.031 A 
ATOM     78  C   UNL A   1      40.310  26.588  28.846  1.00  0.00     0.131 A 
ATOM     79  C   UNL A   1      42.198  27.187  26.920  1.00  0.00     0.055 A 
ATOM     80  C   UNL A   1      40.390  25.806  27.693  1.00  0.00     0.041 A 
ATOM     81  F   UNL A   1      39.356  26.281  29.740  1.00  0.00    -0.206 F 
ATOM     82  C   UNL A   1      41.330  26.113  26.715  1.00  0.00     0.022 A 
BRANCH  79  83
ATOM     83  S   UNL A   1      43.333  27.700  25.601  1.00  0.00     0.124 S 
ATOM     84  O   UNL A   1      42.405  28.088  24.546  1.00  0.00    -0.237 OA
ATOM     85  O   UNL A   1      44.068  28.786  26.240  1.00  0.00    -0.237 OA
ATOM     86  O   UNL A   1      44.114  26.494  25.337  1.00  0.00    -0.744 OA
ENDBRANCH  79  83
ENDBRANCH  52  76
BRANCH  64  87
ATOM     87  C   UNL A   1      44.720  28.059  35.090  1.00  0.00     0.023 A 
ATOM     88  C   UNL A   1      44.500  26.882  35.826  1.00  0.00     0.031 A 
ATOM     89  C   UNL A   1      46.050  28.483  34.910  1.00  0.00     0.131 A 
ATOM     90  C   UNL A   1      45.582  26.216  36.422  1.00  0.00     0.055 A 
ATOM     91  C   UNL A   1      47.128  27.771  35.437  1.00  0.00     0.041 A 
ATOM     92  F   UNL A   1      46.325  29.601  34.219  1.00  0.00    -0.206 F 
ATOM     93  C   UNL A   1      46.896  26.642  36.216  1.00  0.00     0.022 A 
BRANCH  90  94
ATOM     94  S   UNL A   1      45.238  24.868  37.586  1.00  0.00     0.124 S 
ATOM     95  O   UNL A   1      46.517  24.732  38.277  1.00  0.00    -0.237 OA
ATOM     96  O   UNL A   1      44.140  25.412  38.378  1.00  0.00    -0.237 OA
ATOM     97  O   UNL A   1      44.881  23.748  36.718  1.00  0.00    -0.744 OA
ENDBRANCH  90  94
ENDBRANCH  64  87
ENDBRANCH  38  39
ENDBRANCH  31  33
ENDBRANCH  30  31
ENDBRANCH  29  30
ENDBRANCH  28  29
ENDBRANCH  27  28
ENDBRANCH  26  27
ENDBRANCH  25  26
ENDBRANCH  24  25
ENDBRANCH   1  24
TORSDOF 27
ENDMDL
MODEL 3
REMARK VINA RESULT:      -8.6      7.128     11.870
REMARK SMILES C[C@@H](CC(=O)OCCOCCOCCOCCOC(=O)c1ccc(-c2c3nc(c(-c4cc(S(=O)(=O)[O-])ccc4F)c4ccc([nH]4)c(-c4cc(S(=O)(=O)[O-])ccc4F)c4nc(c(-c5cc(S(=O)(=O)[O-])ccc5F)c5ccc2[nH]5)C=C4)C=C3)cc1)NC(=O)c1ccc(O)cc1
REMARK SMILES IDX 11 1 10 2 9 3 8 4 7 5 6 6 4 7 5 8 3 9 2 10 1 11 84 12 85 13
REMARK SMILES IDX 86 15 87 16 88 17 93 18 89 19 92 20 90 21 91 22 12 24 13 25
REMARK SMILES IDX 14 26 15 27 16 28 17 29 18 30 19 31 20 32 21 33 22 34 83 35
REMARK SMILES IDX 23 36 82 37 24 38 25 39 26 40 76 41 27 42 81 43 75 44 77 45
REMARK SMILES IDX 28 46 80 47 74 48 73 49 29 51 61 52 41 53 60 54 42 55 45 56
REMARK SMILES IDX 59 57 78 58 43 59 44 60 58 62 79 63 46 64 30 65 31 66 39 67
REMARK SMILES IDX 32 68 38 69 40 70 37 71 33 72 34 73 35 74 36 75 62 76 63 77
REMARK SMILES IDX 71 78 64 79 70 80 72 81 69 82 65 83 66 84 67 85 68 86 47 87
REMARK SMILES IDX 48 88 56 89 49 90 55 91 57 92 54 93 50 94 51 95 52 96 53 97
REMARK H PARENT 84 14 91 23 77 50 45 61
REMARK Flexibility Score: inf
ROOT
ATOM      1  C   UNL A   1      45.769  19.003  24.977  1.00  0.00     0.188 C 
ENDROOT
BRANCH   1   2
ATOM      2  C   UNL A   1      44.281  19.055  24.629  1.00  0.00     0.188 C 
BRANCH   2   3
ATOM      3  O   UNL A   1      43.376  18.159  25.242  1.00  0.00    -0.376 OA
BRANCH   3   4
ATOM      4  C   UNL A   1      42.770  18.489  26.487  1.00  0.00     0.202 C 
BRANCH   4   5
ATOM      5  C   UNL A   1      41.699  19.592  26.579  1.00  0.00     0.261 C 
BRANCH   5   6
ATOM      6  O   UNL A   1      42.212  20.946  26.675  1.00  0.00    -0.463 OA
BRANCH   6   7
ATOM      7  C   UNL A   1      41.305  21.934  26.798  1.00  0.00     0.307 C 
ATOM      8  O   UNL A   1      40.190  21.776  27.296  1.00  0.00    -0.252 OA
BRANCH   7   9
ATOM      9  C   UNL A   1      41.724  23.327  26.345  1.00  0.00     0.147 C 
BRANCH   9  10
ATOM     10  C   UNL A   1      40.911  24.633  26.457  1.00  0.00     0.090 C 
ATOM     11  C   UNL A   1      39.402  24.463  26.366  1.00  0.00     0.031 C 
BRANCH  10  12
ATOM     12  N   UNL A   1      41.363  25.695  25.552  1.00  0.00    -0.349 N 
ATOM     13  C   UNL A   1      41.620  27.030  25.752  1.00  0.00     0.251 C 
ATOM     14  H   UNL A   1      41.509  25.395  24.626  1.00  0.00     0.164 HD
ATOM     15  O   UNL A   1      42.079  27.720  24.846  1.00  0.00    -0.269 OA
BRANCH  13  16
ATOM     16  C   UNL A   1      41.279  27.690  27.028  1.00  0.00     0.040 A 
ATOM     17  C   UNL A   1      40.298  28.690  27.000  1.00  0.00     0.017 A 
ATOM     18  C   UNL A   1      41.922  27.377  28.229  1.00  0.00     0.017 A 
ATOM     19  C   UNL A   1      39.892  29.301  28.186  1.00  0.00     0.047 A 
ATOM     20  C   UNL A   1      41.504  27.979  29.418  1.00  0.00     0.047 A 
ATOM     21  C   UNL A   1      40.475  28.916  29.388  1.00  0.00     0.115 A 
BRANCH  21  22
ATOM     22  O   UNL A   1      40.002  29.483  30.535  1.00  0.00    -0.508 OA
ATOM     23  H   UNL A   1      40.102  30.403  30.678  1.00  0.00     0.293 HD
ENDBRANCH  21  22
ENDBRANCH  13  16
ENDBRANCH  10  12
ENDBRANCH   9  10
ENDBRANCH   7   9
ENDBRANCH   6   7
ENDBRANCH   5   6
ENDBRANCH   4   5
ENDBRANCH   3   4
ENDBRANCH   2   3
ENDBRANCH   1   2
BRANCH   1  24
ATOM     24  O   UNL A   1      46.372  20.195  25.451  1.00  0.00    -0.377 OA
BRANCH  24  25
ATOM     25  C   UNL A   1      45.660  21.427  25.371  1.00  0.00     0.188 C 
BRANCH  25  26
ATOM     26  C   UNL A   1      46.336  22.638  24.720  1.00  0.00     0.188 C 
BRANCH  26  27
ATOM     27  O   UNL A   1      46.837  23.567  25.667  1.00  0.00    -0.376 OA
BRANCH  27  28
ATOM     28  C   UNL A   1      46.508  24.941  25.543  1.00  0.00     0.202 C 
BRANCH  28  29
ATOM     29  C   UNL A   1      45.178  25.485  26.099  1.00  0.00     0.261 C 
BRANCH  29  30
ATOM     30  O   UNL A   1      45.212  26.688  26.883  1.00  0.00    -0.460 OA
BRANCH  30  31
ATOM     31  C   UNL A   1      45.272  27.869  26.243  1.00  0.00     0.338 C 
ATOM     32  O   UNL A   1      45.432  28.042  25.045  1.00  0.00    -0.246 OA
BRANCH  31  33
ATOM     33  C   UNL A   1      44.909  28.929  27.207  1.00  0.00     0.060 A 
ATOM     34  C   UNL A   1      44.024  29.933  26.796  1.00  0.00     0.016 A 
ATOM     35  C   UNL A   1      45.466  28.961  28.489  1.00  0.00     0.016 A 
ATOM     36  C   UNL A   1      43.758  31.014  27.634  1.00  0.00     0.010 A 
ATOM     37  C   UNL A   1      45.205  30.053  29.326  1.00  0.00     0.010 A 
ATOM     38  C   UNL A   1      44.395  31.113  28.877  1.00  0.00    -0.014 A 
BRANCH  38  39
ATOM     39  C   UNL A   1      44.398  32.422  29.580  1.00  0.00     0.031 A 
ATOM     40  C   UNL A   1      43.455  32.608  30.744  1.00  0.00     0.074 A 
ATOM     41  C   UNL A   1      45.266  33.396  29.252  1.00  0.00     0.049 A 
ATOM     42  N   UNL A   1      43.285  33.643  31.524  1.00  0.00    -0.248 NA
ATOM     43  C   UNL A   1      42.583  31.466  31.064  1.00  0.00     0.031 C 
ATOM     44  C   UNL A   1      46.259  33.315  28.182  1.00  0.00     0.029 A 
ATOM     45  N   UNL A   1      45.456  34.643  29.794  1.00  0.00    -0.354 N 
ATOM     46  C   UNL A   1      42.290  33.280  32.426  1.00  0.00     0.074 A 
ATOM     47  C   UNL A   1      41.860  31.947  32.061  1.00  0.00     0.031 C 
ATOM     48  C   UNL A   1      46.956  34.464  28.148  1.00  0.00     0.029 A 
ATOM     49  C   UNL A   1      46.438  35.374  29.167  1.00  0.00     0.049 A 
ATOM     50  H   UNL A   1      44.938  34.982  30.560  1.00  0.00     0.167 HD
ATOM     51  C   UNL A   1      41.790  33.983  33.472  1.00  0.00     0.034 A 
ATOM     52  C   UNL A   1      46.854  36.640  29.381  1.00  0.00     0.034 A 
ATOM     53  C   UNL A   1      42.223  35.316  33.817  1.00  0.00     0.049 A 
ATOM     54  C   UNL A   1      46.221  37.440  30.498  1.00  0.00     0.074 A 
ATOM     55  C   UNL A   1      41.790  36.120  34.857  1.00  0.00     0.029 A 
ATOM     56  N   UNL A   1      43.179  36.048  33.123  1.00  0.00    -0.354 N 
ATOM     57  N   UNL A   1      45.286  37.081  31.348  1.00  0.00    -0.248 NA
ATOM     58  C   UNL A   1      46.715  38.809  30.692  1.00  0.00     0.031 C 
ATOM     59  C   UNL A   1      42.419  37.364  34.741  1.00  0.00     0.029 A 
ATOM     60  C   UNL A   1      43.321  37.305  33.691  1.00  0.00     0.049 A 
ATOM     61  H   UNL A   1      43.681  35.721  32.342  1.00  0.00     0.167 HD
ATOM     62  C   UNL A   1      45.109  38.170  32.201  1.00  0.00     0.074 A 
ATOM     63  C   UNL A   1      46.048  39.185  31.772  1.00  0.00     0.031 C 
ATOM     64  C   UNL A   1      44.253  38.316  33.246  1.00  0.00     0.034 A 
BRANCH  51  65
ATOM     65  C   UNL A   1      40.682  33.343  34.275  1.00  0.00     0.023 A 
ATOM     66  C   UNL A   1      39.329  33.470  33.911  1.00  0.00     0.031 A 
ATOM     67  C   UNL A   1      40.980  32.622  35.445  1.00  0.00     0.131 A 
ATOM     68  C   UNL A   1      38.327  32.951  34.745  1.00  0.00     0.055 A 
ATOM     69  C   UNL A   1      39.982  32.033  36.224  1.00  0.00     0.041 A 
ATOM     70  F   UNL A   1      42.249  32.490  35.861  1.00  0.00    -0.206 F 
ATOM     71  C   UNL A   1      38.645  32.209  35.884  1.00  0.00     0.022 A 
BRANCH  68  72
ATOM     72  S   UNL A   1      36.600  33.393  34.405  1.00  0.00     0.124 S 
ATOM     73  O   UNL A   1      36.030  33.410  35.751  1.00  0.00    -0.237 OA
ATOM     74  O   UNL A   1      36.729  34.688  33.749  1.00  0.00    -0.237 OA
ATOM     75  O   UNL A   1      36.129  32.304  33.551  1.00  0.00    -0.744 OA
ENDBRANCH  68  72
ENDBRANCH  51  65
BRANCH  52  76
ATOM     76  C   UNL A   1      47.900  37.254  28.508  1.00  0.00     0.023 A 
ATOM     77  C   UNL A   1      49.246  37.306  28.903  1.00  0.00     0.031 A 
ATOM     78  C   UNL A   1      47.549  37.863  27.288  1.00  0.00     0.131 A 
ATOM     79  C   UNL A   1      50.182  37.996  28.116  1.00  0.00     0.055 A 
ATOM     80  C   UNL A   1      48.495  38.495  26.479  1.00  0.00     0.041 A 
ATOM     81  F   UNL A   1      46.276  37.850  26.863  1.00  0.00    -0.206 F 
ATOM     82  C   UNL A   1      49.818  38.576  26.899  1.00  0.00     0.022 A 
BRANCH  79  83
ATOM     83  S   UNL A   1      51.866  38.214  28.756  1.00  0.00     0.124 S 
ATOM     84  O   UNL A   1      52.331  39.357  27.981  1.00  0.00    -0.237 OA
ATOM     85  O   UNL A   1      51.620  38.456  30.173  1.00  0.00    -0.237 OA
ATOM     86  O   UNL A   1      52.513  36.941  28.447  1.00  0.00    -0.744 OA
ENDBRANCH  79  83
ENDBRANCH  52  76
BRANCH  64  87
ATOM     87  C   UNL A   1      44.338  39.607  34.032  1.00  0.00     0.023 A 
ATOM     88  C   UNL A   1      43.549  40.726  33.713  1.00  0.00     0.031 A 
ATOM     89  C   UNL A   1      45.248  39.728  35.098  1.00  0.00     0.131 A 
ATOM     90  C   UNL A   1      43.742  41.937  34.396  1.00  0.00     0.055 A 
ATOM     91  C   UNL A   1      45.378  40.910  35.827  1.00  0.00     0.041 A 
ATOM     92  F   UNL A   1      46.032  38.695  35.449  1.00  0.00    -0.206 F 
ATOM     93  C   UNL A   1      44.637  42.031  35.463  1.00  0.00     0.022 A 
BRANCH  90  94
ATOM     94  S   UNL A   1      42.909  43.426  33.778  1.00  0.00     0.124 S 
ATOM     95  O   UNL A   1      43.955  44.434  33.912  1.00  0.00    -0.237 OA
ATOM     96  O   UNL A   1      42.562  43.045  32.413  1.00  0.00    -0.237 OA
ATOM     97  O   UNL A   1      41.775  43.585  34.685  1.00  0.00    -0.744 OA
ENDBRANCH  90  94
ENDBRANCH  64  87
ENDBRANCH  38  39
ENDBRANCH  31  33
ENDBRANCH  30  31
ENDBRANCH  29  30
ENDBRANCH  28  29
ENDBRANCH  27  28
ENDBRANCH  26  27
ENDBRANCH  25  26
ENDBRANCH  24  25
ENDBRANCH   1  24
TORSDOF 27
ENDMDL
