MODEL 1
REMARK VINA RESULT:      -9.8      0.000      0.000
REMARK SMILES C[C@@H]1[C@@H](C(=O)OCCOCCOCCOCCOC(=O)c2ccc(-c3c4nc(c(-c5cc(S(=O)(=O)[O-])ccc5F)c5ccc([nH]5)c(-c5cc(S(=O)(=O)[O-])ccc5F)c5nc(c(-c6cc(S(=O)(=O)[O-])ccc6F)c6ccc3[nH]6)C=C5)C=C4)cc2)CCN1C(=O)C[NH2+]C1CCCC1
REMARK SMILES IDX 11 1 10 2 9 3 8 4 7 5 6 6 4 7 5 8 3 9 1 10 2 11 86 12 84 13
REMARK SMILES IDX 85 14 87 15 88 16 89 17 90 18 91 21 92 22 95 23 93 24 94 25
REMARK SMILES IDX 12 26 13 27 14 28 15 29 16 30 17 31 18 32 19 33 20 34 21 35
REMARK SMILES IDX 22 36 83 37 23 38 82 39 24 40 25 41 26 42 76 43 27 44 81 45
REMARK SMILES IDX 75 46 77 47 28 48 80 49 74 50 73 51 29 53 61 54 41 55 60 56
REMARK SMILES IDX 42 57 45 58 59 59 78 60 43 61 44 62 58 64 79 65 46 66 30 67
REMARK SMILES IDX 31 68 39 69 32 70 38 71 40 72 37 73 33 74 34 75 35 76 36 77
REMARK SMILES IDX 62 78 63 79 71 80 64 81 70 82 72 83 69 84 65 85 66 86 67 87
REMARK SMILES IDX 68 88 47 89 48 90 56 91 49 92 55 93 57 94 54 95 50 96 51 97
REMARK SMILES IDX 52 98 53 99
REMARK H PARENT 90 19 90 20 77 52 45 63
REMARK Flexibility Score: inf
ROOT
ATOM      1  C   UNL A   1      33.729  30.198  27.594  1.00  0.00     0.188 C 
ENDROOT
BRANCH   1   2
ATOM      2  C   UNL A   1      34.359  28.962  26.930  1.00  0.00     0.188 C 
BRANCH   2   3
ATOM      3  O   UNL A   1      33.594  27.799  26.661  1.00  0.00    -0.376 OA
BRANCH   3   4
ATOM      4  C   UNL A   1      32.198  27.671  26.886  1.00  0.00     0.202 C 
BRANCH   4   5
ATOM      5  C   UNL A   1      31.219  26.762  26.121  1.00  0.00     0.261 C 
BRANCH   5   6
ATOM      6  O   UNL A   1      30.807  27.193  24.831  1.00  0.00    -0.463 OA
BRANCH   6   7
ATOM      7  C   UNL A   1      30.828  26.223  23.891  1.00  0.00     0.311 C 
ATOM      8  O   UNL A   1      30.316  25.119  24.021  1.00  0.00    -0.252 OA
BRANCH   7   9
ATOM      9  C   UNL A   1      31.508  26.749  22.634  1.00  0.00     0.123 C 
ATOM     10  C   UNL A   1      32.260  25.846  20.368  1.00  0.00     0.032 C 
ATOM     11  C   UNL A   1      32.065  25.561  21.854  1.00  0.00     0.096 C 
ATOM     12  N   UNL A   1      33.331  25.315  22.544  1.00  0.00    -0.334 N 
ATOM     13  C   UNL A   1      32.734  27.571  22.978  1.00  0.00     0.039 C 
ATOM     14  C   UNL A   1      33.758  26.495  23.295  1.00  0.00     0.121 C 
BRANCH  12  15
ATOM     15  C   UNL A   1      33.838  24.075  22.885  1.00  0.00     0.277 C 
ATOM     16  O   UNL A   1      34.003  23.196  22.034  1.00  0.00    -0.268 OA
BRANCH  15  17
ATOM     17  C   UNL A   1      34.108  23.760  24.365  1.00  0.00     0.362 C 
BRANCH  17  18
ATOM     18  N   UNL A   1      32.935  23.221  25.074  1.00  0.00    -0.336 N 
ATOM     19  H   UNL A   1      32.110  23.339  24.485  1.00  0.00     0.346 HD
ATOM     20  H   UNL A   1      32.834  23.729  25.952  1.00  0.00     0.346 HD
BRANCH  18  21
ATOM     21  C   UNL A   1      33.092  21.808  25.386  1.00  0.00     0.182 C 
ATOM     22  C   UNL A   1      31.984  20.909  24.842  1.00  0.00     0.065 C 
ATOM     23  C   UNL A   1      34.334  21.194  24.737  1.00  0.00     0.065 C 
ATOM     24  C   UNL A   1      32.576  19.511  24.978  1.00  0.00     0.006 C 
ATOM     25  C   UNL A   1      34.086  19.685  24.810  1.00  0.00     0.006 C 
ENDBRANCH  18  21
ENDBRANCH  17  18
ENDBRANCH  15  17
ENDBRANCH  12  15
ENDBRANCH   7   9
ENDBRANCH   6   7
ENDBRANCH   5   6
ENDBRANCH   4   5
ENDBRANCH   3   4
ENDBRANCH   2   3
ENDBRANCH   1   2
BRANCH   1  26
ATOM     26  O   UNL A   1      34.383  31.402  27.267  1.00  0.00    -0.377 OA
BRANCH  26  27
ATOM     27  C   UNL A   1      34.586  32.323  28.330  1.00  0.00     0.188 C 
BRANCH  27  28
ATOM     28  C   UNL A   1      33.712  33.598  28.403  1.00  0.00     0.188 C 
BRANCH  28  29
ATOM     29  O   UNL A   1      34.244  34.638  29.215  1.00  0.00    -0.376 OA
BRANCH  29  30
ATOM     30  C   UNL A   1      33.843  34.707  30.574  1.00  0.00     0.202 C 
BRANCH  30  31
ATOM     31  C   UNL A   1      34.855  34.227  31.627  1.00  0.00     0.261 C 
BRANCH  31  32
ATOM     32  O   UNL A   1      34.920  32.809  31.840  1.00  0.00    -0.460 OA
BRANCH  32  33
ATOM     33  C   UNL A   1      35.819  32.367  32.750  1.00  0.00     0.338 C 
ATOM     34  O   UNL A   1      35.729  32.450  33.956  1.00  0.00    -0.246 OA
BRANCH  33  35
ATOM     35  C   UNL A   1      36.837  31.570  32.026  1.00  0.00     0.060 A 
ATOM     36  C   UNL A   1      37.863  30.960  32.761  1.00  0.00     0.016 A 
ATOM     37  C   UNL A   1      36.773  31.418  30.640  1.00  0.00     0.016 A 
ATOM     38  C   UNL A   1      38.852  30.229  32.104  1.00  0.00     0.010 A 
ATOM     39  C   UNL A   1      37.778  30.705  29.981  1.00  0.00     0.010 A 
ATOM     40  C   UNL A   1      38.843  30.138  30.706  1.00  0.00    -0.014 A 
BRANCH  40  41
ATOM     41  C   UNL A   1      40.052  29.651  29.996  1.00  0.00     0.031 A 
ATOM     42  C   UNL A   1      41.201  30.608  29.820  1.00  0.00     0.074 A 
ATOM     43  C   UNL A   1      40.145  28.388  29.543  1.00  0.00     0.049 A 
ATOM     44  N   UNL A   1      42.334  30.445  29.189  1.00  0.00    -0.248 NA
ATOM     45  C   UNL A   1      41.044  31.932  30.444  1.00  0.00     0.031 C 
ATOM     46  C   UNL A   1      39.124  27.355  29.705  1.00  0.00     0.029 A 
ATOM     47  N   UNL A   1      41.150  27.762  28.848  1.00  0.00    -0.354 N 
ATOM     48  C   UNL A   1      43.021  31.645  29.331  1.00  0.00     0.074 A 
ATOM     49  C   UNL A   1      42.161  32.539  30.075  1.00  0.00     0.031 C 
ATOM     50  C   UNL A   1      39.553  26.225  29.116  1.00  0.00     0.029 A 
ATOM     51  C   UNL A   1      40.855  26.466  28.497  1.00  0.00     0.049 A 
ATOM     52  H   UNL A   1      42.002  28.201  28.622  1.00  0.00     0.167 HD
ATOM     53  C   UNL A   1      44.262  31.969  28.890  1.00  0.00     0.034 A 
ATOM     54  C   UNL A   1      41.545  25.589  27.738  1.00  0.00     0.034 A 
ATOM     55  C   UNL A   1      45.101  31.071  28.137  1.00  0.00     0.049 A 
ATOM     56  C   UNL A   1      42.881  26.007  27.164  1.00  0.00     0.074 A 
ATOM     57  C   UNL A   1      46.375  31.291  27.646  1.00  0.00     0.029 A 
ATOM     58  N   UNL A   1      44.746  29.784  27.752  1.00  0.00    -0.354 N 
ATOM     59  N   UNL A   1      43.523  27.145  27.306  1.00  0.00    -0.248 NA
ATOM     60  C   UNL A   1      43.586  25.022  26.334  1.00  0.00     0.031 C 
ATOM     61  C   UNL A   1      46.755  30.176  26.893  1.00  0.00     0.029 A 
ATOM     62  C   UNL A   1      45.760  29.216  26.995  1.00  0.00     0.049 A 
ATOM     63  H   UNL A   1      43.897  29.339  27.982  1.00  0.00     0.167 HD
ATOM     64  C   UNL A   1      44.725  26.993  26.614  1.00  0.00     0.074 A 
ATOM     65  C   UNL A   1      44.721  25.652  26.069  1.00  0.00     0.031 C 
ATOM     66  C   UNL A   1      45.742  27.877  26.450  1.00  0.00     0.034 A 
BRANCH  53  67
ATOM     67  C   UNL A   1      44.752  33.371  29.161  1.00  0.00     0.023 A 
ATOM     68  C   UNL A   1      44.503  34.431  28.271  1.00  0.00     0.031 A 
ATOM     69  C   UNL A   1      45.508  33.645  30.315  1.00  0.00     0.131 A 
ATOM     70  C   UNL A   1      45.065  35.694  28.512  1.00  0.00     0.055 A 
ATOM     71  C   UNL A   1      45.989  34.925  30.594  1.00  0.00     0.041 A 
ATOM     72  F   UNL A   1      45.803  32.668  31.187  1.00  0.00    -0.206 F 
ATOM     73  C   UNL A   1      45.782  35.956  29.682  1.00  0.00     0.022 A 
BRANCH  70  74
ATOM     74  S   UNL A   1      44.974  36.947  27.205  1.00  0.00     0.124 S 
ATOM     75  O   UNL A   1      45.957  36.443  26.246  1.00  0.00    -0.237 OA
ATOM     76  O   UNL A   1      43.579  36.869  26.788  1.00  0.00    -0.237 OA
ATOM     77  O   UNL A   1      45.356  38.182  27.885  1.00  0.00    -0.744 OA
ENDBRANCH  70  74
ENDBRANCH  53  67
BRANCH  54  78
ATOM     78  C   UNL A   1      40.980  24.242  27.428  1.00  0.00     0.023 A 
ATOM     79  C   UNL A   1      39.851  24.097  26.603  1.00  0.00     0.031 A 
ATOM     80  C   UNL A   1      41.518  23.080  28.011  1.00  0.00     0.131 A 
ATOM     81  C   UNL A   1      39.267  22.833  26.429  1.00  0.00     0.055 A 
ATOM     82  C   UNL A   1      40.972  21.816  27.784  1.00  0.00     0.041 A 
ATOM     83  F   UNL A   1      42.591  23.158  28.815  1.00  0.00    -0.206 F 
ATOM     84  C   UNL A   1      39.830  21.689  27.000  1.00  0.00     0.022 A 
BRANCH  81  85
ATOM     85  S   UNL A   1      37.695  22.717  25.532  1.00  0.00     0.124 S 
ATOM     86  O   UNL A   1      36.734  22.656  26.626  1.00  0.00    -0.237 OA
ATOM     87  O   UNL A   1      37.702  23.951  24.751  1.00  0.00    -0.237 OA
ATOM     88  O   UNL A   1      37.837  21.489  24.753  1.00  0.00    -0.744 OA
ENDBRANCH  81  85
ENDBRANCH  54  78
BRANCH  66  89
ATOM     89  C   UNL A   1      46.963  27.401  25.697  1.00  0.00     0.023 A 
ATOM     90  C   UNL A   1      47.207  27.767  24.361  1.00  0.00     0.031 A 
ATOM     91  C   UNL A   1      47.900  26.563  26.331  1.00  0.00     0.131 A 
ATOM     92  C   UNL A   1      48.322  27.248  23.686  1.00  0.00     0.055 A 
ATOM     93  C   UNL A   1      49.045  26.108  25.677  1.00  0.00     0.041 A 
ATOM     94  F   UNL A   1      47.719  26.177  27.604  1.00  0.00    -0.206 F 
ATOM     95  C   UNL A   1      49.254  26.438  24.342  1.00  0.00     0.022 A 
BRANCH  92  96
ATOM     96  S   UNL A   1      48.486  27.558  21.906  1.00  0.00     0.124 S 
ATOM     97  O   UNL A   1      48.729  26.217  21.387  1.00  0.00    -0.237 OA
ATOM     98  O   UNL A   1      47.193  28.147  21.572  1.00  0.00    -0.237 OA
ATOM     99  O   UNL A   1      49.623  28.473  21.820  1.00  0.00    -0.744 OA
ENDBRANCH  92  96
ENDBRANCH  66  89
ENDBRANCH  40  41
ENDBRANCH  33  35
ENDBRANCH  32  33
ENDBRANCH  31  32
ENDBRANCH  30  31
ENDBRANCH  29  30
ENDBRANCH  28  29
ENDBRANCH  27  28
ENDBRANCH  26  27
ENDBRANCH   1  26
TORSDOF 27
ENDMDL
MODEL 2
REMARK VINA RESULT:      -9.2      5.148     11.516
REMARK SMILES C[C@@H]1[C@@H](C(=O)OCCOCCOCCOCCOC(=O)c2ccc(-c3c4nc(c(-c5cc(S(=O)(=O)[O-])ccc5F)c5ccc([nH]5)c(-c5cc(S(=O)(=O)[O-])ccc5F)c5nc(c(-c6cc(S(=O)(=O)[O-])ccc6F)c6ccc3[nH]6)C=C5)C=C4)cc2)CCN1C(=O)C[NH2+]C1CCCC1
REMARK SMILES IDX 11 1 10 2 9 3 8 4 7 5 6 6 4 7 5 8 3 9 1 10 2 11 86 12 84 13
REMARK SMILES IDX 85 14 87 15 88 16 89 17 90 18 91 21 92 22 95 23 93 24 94 25
REMARK SMILES IDX 12 26 13 27 14 28 15 29 16 30 17 31 18 32 19 33 20 34 21 35
REMARK SMILES IDX 22 36 83 37 23 38 82 39 24 40 25 41 26 42 76 43 27 44 81 45
REMARK SMILES IDX 75 46 77 47 28 48 80 49 74 50 73 51 29 53 61 54 41 55 60 56
REMARK SMILES IDX 42 57 45 58 59 59 78 60 43 61 44 62 58 64 79 65 46 66 30 67
REMARK SMILES IDX 31 68 39 69 32 70 38 71 40 72 37 73 33 74 34 75 35 76 36 77
REMARK SMILES IDX 62 78 63 79 71 80 64 81 70 82 72 83 69 84 65 85 66 86 67 87
REMARK SMILES IDX 68 88 47 89 48 90 56 91 49 92 55 93 57 94 54 95 50 96 51 97
REMARK SMILES IDX 52 98 53 99
REMARK H PARENT 90 19 90 20 77 52 45 63
REMARK Flexibility Score: inf
ROOT
ATOM      1  C   UNL A   1      42.232  19.288  26.133  1.00  0.00     0.188 C 
ENDROOT
BRANCH   1   2
ATOM      2  C   UNL A   1      41.596  20.682  26.272  1.00  0.00     0.188 C 
BRANCH   2   3
ATOM      3  O   UNL A   1      40.224  20.837  26.593  1.00  0.00    -0.376 OA
BRANCH   3   4
ATOM      4  C   UNL A   1      39.325  21.716  25.931  1.00  0.00     0.202 C 
BRANCH   4   5
ATOM      5  C   UNL A   1      37.922  21.372  25.399  1.00  0.00     0.261 C 
BRANCH   5   6
ATOM      6  O   UNL A   1      36.914  22.363  25.540  1.00  0.00    -0.463 OA
BRANCH   6   7
ATOM      7  C   UNL A   1      36.136  22.521  24.447  1.00  0.00     0.311 C 
ATOM      8  O   UNL A   1      36.502  23.051  23.406  1.00  0.00    -0.252 OA
BRANCH   7   9
ATOM      9  C   UNL A   1      34.782  21.869  24.689  1.00  0.00     0.123 C 
ATOM     10  C   UNL A   1      32.469  21.849  23.608  1.00  0.00     0.032 C 
ATOM     11  C   UNL A   1      33.723  22.659  23.924  1.00  0.00     0.096 C 
ATOM     12  N   UNL A   1      33.453  23.766  24.840  1.00  0.00    -0.334 N 
ATOM     13  C   UNL A   1      34.363  21.999  26.139  1.00  0.00     0.039 C 
ATOM     14  C   UNL A   1      33.878  23.438  26.201  1.00  0.00     0.121 C 
BRANCH  12  15
ATOM     15  C   UNL A   1      33.295  25.092  24.482  1.00  0.00     0.277 C 
ATOM     16  O   UNL A   1      34.131  25.668  23.778  1.00  0.00    -0.268 OA
BRANCH  15  17
ATOM     17  C   UNL A   1      32.106  25.883  25.050  1.00  0.00     0.362 C 
BRANCH  17  18
ATOM     18  N   UNL A   1      32.381  27.321  25.211  1.00  0.00    -0.336 N 
ATOM     19  H   UNL A   1      33.327  27.515  24.882  1.00  0.00     0.346 HD
ATOM     20  H   UNL A   1      32.280  27.554  26.198  1.00  0.00     0.346 HD
BRANCH  18  21
ATOM     21  C   UNL A   1      31.444  28.139  24.455  1.00  0.00     0.182 C 
ATOM     22  C   UNL A   1      31.990  28.678  23.135  1.00  0.00     0.065 C 
ATOM     23  C   UNL A   1      30.219  27.354  23.985  1.00  0.00     0.065 C 
ATOM     24  C   UNL A   1      30.736  29.153  22.411  1.00  0.00     0.006 C 
ATOM     25  C   UNL A   1      29.612  28.231  22.886  1.00  0.00     0.006 C 
ENDBRANCH  18  21
ENDBRANCH  17  18
ENDBRANCH  15  17
ENDBRANCH  12  15
ENDBRANCH   7   9
ENDBRANCH   6   7
ENDBRANCH   5   6
ENDBRANCH   4   5
ENDBRANCH   3   4
ENDBRANCH   2   3
ENDBRANCH   1   2
BRANCH   1  26
ATOM     26  O   UNL A   1      43.157  19.201  25.073  1.00  0.00    -0.377 OA
BRANCH  26  27
ATOM     27  C   UNL A   1      44.504  19.538  25.379  1.00  0.00     0.188 C 
BRANCH  27  28
ATOM     28  C   UNL A   1      45.305  20.418  24.390  1.00  0.00     0.188 C 
BRANCH  28  29
ATOM     29  O   UNL A   1      44.507  21.166  23.480  1.00  0.00    -0.376 OA
BRANCH  29  30
ATOM     30  C   UNL A   1      44.615  22.581  23.491  1.00  0.00     0.202 C 
BRANCH  30  31
ATOM     31  C   UNL A   1      43.589  23.353  24.336  1.00  0.00     0.261 C 
BRANCH  31  32
ATOM     32  O   UNL A   1      43.989  23.676  25.676  1.00  0.00    -0.460 OA
BRANCH  32  33
ATOM     33  C   UNL A   1      44.629  24.856  25.856  1.00  0.00     0.338 C 
ATOM     34  O   UNL A   1      45.566  25.277  25.212  1.00  0.00    -0.246 OA
BRANCH  33  35
ATOM     35  C   UNL A   1      43.850  25.644  26.840  1.00  0.00     0.060 A 
ATOM     36  C   UNL A   1      44.100  27.018  26.952  1.00  0.00     0.016 A 
ATOM     37  C   UNL A   1      42.876  25.035  27.633  1.00  0.00     0.016 A 
ATOM     38  C   UNL A   1      43.404  27.781  27.889  1.00  0.00     0.010 A 
ATOM     39  C   UNL A   1      42.196  25.796  28.589  1.00  0.00     0.010 A 
ATOM     40  C   UNL A   1      42.483  27.164  28.747  1.00  0.00    -0.014 A 
BRANCH  40  41
ATOM     41  C   UNL A   1      41.994  27.894  29.943  1.00  0.00     0.031 A 
ATOM     42  C   UNL A   1      40.757  28.741  29.797  1.00  0.00     0.074 A 
ATOM     43  C   UNL A   1      42.607  27.789  31.136  1.00  0.00     0.049 A 
ATOM     44  N   UNL A   1      40.169  29.516  30.669  1.00  0.00    -0.248 NA
ATOM     45  C   UNL A   1      40.099  28.706  28.481  1.00  0.00     0.031 C 
ATOM     46  C   UNL A   1      43.774  26.956  31.415  1.00  0.00     0.029 A 
ATOM     47  N   UNL A   1      42.331  28.395  32.336  1.00  0.00    -0.354 N 
ATOM     48  C   UNL A   1      39.077  30.067  30.008  1.00  0.00     0.074 A 
ATOM     49  C   UNL A   1      39.109  29.567  28.650  1.00  0.00     0.031 C 
ATOM     50  C   UNL A   1      44.121  27.111  32.704  1.00  0.00     0.029 A 
ATOM     51  C   UNL A   1      43.230  28.088  33.330  1.00  0.00     0.049 A 
ATOM     52  H   UNL A   1      41.562  28.994  32.472  1.00  0.00     0.167 HD
ATOM     53  C   UNL A   1      38.128  30.907  30.491  1.00  0.00     0.034 A 
ATOM     54  C   UNL A   1      43.337  28.564  34.588  1.00  0.00     0.034 A 
ATOM     55  C   UNL A   1      38.119  31.407  31.843  1.00  0.00     0.049 A 
ATOM     56  C   UNL A   1      42.330  29.583  35.075  1.00  0.00     0.074 A 
ATOM     57  C   UNL A   1      37.204  32.256  32.440  1.00  0.00     0.029 A 
ATOM     58  N   UNL A   1      39.077  31.118  32.805  1.00  0.00    -0.354 N 
ATOM     59  N   UNL A   1      41.300  30.097  34.441  1.00  0.00    -0.248 NA
ATOM     60  C   UNL A   1      42.497  30.080  36.447  1.00  0.00     0.031 C 
ATOM     61  C   UNL A   1      37.655  32.548  33.731  1.00  0.00     0.029 A 
ATOM     62  C   UNL A   1      38.798  31.804  33.978  1.00  0.00     0.049 A 
ATOM     63  H   UNL A   1      39.845  30.514  32.675  1.00  0.00     0.167 HD
ATOM     64  C   UNL A   1      40.677  30.947  35.355  1.00  0.00     0.074 A 
ATOM     65  C   UNL A   1      41.439  30.865  36.582  1.00  0.00     0.031 C 
ATOM     66  C   UNL A   1      39.571  31.720  35.196  1.00  0.00     0.034 A 
BRANCH  53  67
ATOM     67  C   UNL A   1      37.062  31.378  29.530  1.00  0.00     0.023 A 
ATOM     68  C   UNL A   1      36.048  30.522  29.067  1.00  0.00     0.031 A 
ATOM     69  C   UNL A   1      37.081  32.699  29.046  1.00  0.00     0.131 A 
ATOM     70  C   UNL A   1      35.140  30.973  28.097  1.00  0.00     0.055 A 
ATOM     71  C   UNL A   1      36.121  33.168  28.148  1.00  0.00     0.041 A 
ATOM     72  F   UNL A   1      38.042  33.554  29.430  1.00  0.00    -0.206 F 
ATOM     73  C   UNL A   1      35.151  32.299  27.656  1.00  0.00     0.022 A 
BRANCH  70  74
ATOM     74  S   UNL A   1      34.042  29.765  27.308  1.00  0.00     0.124 S 
ATOM     75  O   UNL A   1      32.748  30.439  27.402  1.00  0.00    -0.237 OA
ATOM     76  O   UNL A   1      34.607  29.651  25.969  1.00  0.00    -0.237 OA
ATOM     77  O   UNL A   1      34.178  28.577  28.148  1.00  0.00    -0.744 OA
ENDBRANCH  70  74
ENDBRANCH  53  67
BRANCH  54  78
ATOM     78  C   UNL A   1      44.459  28.130  35.473  1.00  0.00     0.023 A 
ATOM     79  C   UNL A   1      44.280  27.123  36.435  1.00  0.00     0.031 A 
ATOM     80  C   UNL A   1      45.711  28.769  35.418  1.00  0.00     0.131 A 
ATOM     81  C   UNL A   1      45.315  26.822  37.336  1.00  0.00     0.055 A 
ATOM     82  C   UNL A   1      46.758  28.423  36.274  1.00  0.00     0.041 A 
ATOM     83  F   UNL A   1      45.937  29.746  34.525  1.00  0.00    -0.206 F 
ATOM     84  C   UNL A   1      46.558  27.453  37.251  1.00  0.00     0.022 A 
BRANCH  81  85
ATOM     85  S   UNL A   1      44.977  25.667  38.693  1.00  0.00     0.124 S 
ATOM     86  O   UNL A   1      44.145  26.480  39.573  1.00  0.00    -0.237 OA
ATOM     87  O   UNL A   1      44.301  24.574  38.000  1.00  0.00    -0.237 OA
ATOM     88  O   UNL A   1      46.307  25.347  39.208  1.00  0.00    -0.744 OA
ENDBRANCH  81  85
ENDBRANCH  54  78
BRANCH  66  89
ATOM     89  C   UNL A   1      39.085  32.494  36.400  1.00  0.00     0.023 A 
ATOM     90  C   UNL A   1      38.432  31.868  37.476  1.00  0.00     0.031 A 
ATOM     91  C   UNL A   1      39.279  33.887  36.468  1.00  0.00     0.131 A 
ATOM     92  C   UNL A   1      37.944  32.640  38.542  1.00  0.00     0.055 A 
ATOM     93  C   UNL A   1      38.856  34.638  37.564  1.00  0.00     0.041 A 
ATOM     94  F   UNL A   1      39.893  34.540  35.468  1.00  0.00    -0.206 F 
ATOM     95  C   UNL A   1      38.170  34.017  38.603  1.00  0.00     0.022 A 
BRANCH  92  96
ATOM     96  S   UNL A   1      36.914  31.835  39.801  1.00  0.00     0.124 S 
ATOM     97  O   UNL A   1      36.198  32.968  40.376  1.00  0.00    -0.237 OA
ATOM     98  O   UNL A   1      36.112  30.912  39.004  1.00  0.00    -0.237 OA
ATOM     99  O   UNL A   1      37.888  31.201  40.687  1.00  0.00    -0.744 OA
ENDBRANCH  92  96
ENDBRANCH  66  89
ENDBRANCH  40  41
ENDBRANCH  33  35
ENDBRANCH  32  33
ENDBRANCH  31  32
ENDBRANCH  30  31
ENDBRANCH  29  30
ENDBRANCH  28  29
ENDBRANCH  27  28
ENDBRANCH  26  27
ENDBRANCH   1  26
TORSDOF 27
ENDMDL
MODEL 3
REMARK VINA RESULT:      -8.9      4.995      6.490
REMARK SMILES C[C@@H]1[C@@H](C(=O)OCCOCCOCCOCCOC(=O)c2ccc(-c3c4nc(c(-c5cc(S(=O)(=O)[O-])ccc5F)c5ccc([nH]5)c(-c5cc(S(=O)(=O)[O-])ccc5F)c5nc(c(-c6cc(S(=O)(=O)[O-])ccc6F)c6ccc3[nH]6)C=C5)C=C4)cc2)CCN1C(=O)C[NH2+]C1CCCC1
REMARK SMILES IDX 11 1 10 2 9 3 8 4 7 5 6 6 4 7 5 8 3 9 1 10 2 11 86 12 84 13
REMARK SMILES IDX 85 14 87 15 88 16 89 17 90 18 91 21 92 22 95 23 93 24 94 25
REMARK SMILES IDX 12 26 13 27 14 28 15 29 16 30 17 31 18 32 19 33 20 34 21 35
REMARK SMILES IDX 22 36 83 37 23 38 82 39 24 40 25 41 26 42 76 43 27 44 81 45
REMARK SMILES IDX 75 46 77 47 28 48 80 49 74 50 73 51 29 53 61 54 41 55 60 56
REMARK SMILES IDX 42 57 45 58 59 59 78 60 43 61 44 62 58 64 79 65 46 66 30 67
REMARK SMILES IDX 31 68 39 69 32 70 38 71 40 72 37 73 33 74 34 75 35 76 36 77
REMARK SMILES IDX 62 78 63 79 71 80 64 81 70 82 72 83 69 84 65 85 66 86 67 87
REMARK SMILES IDX 68 88 47 89 48 90 56 91 49 92 55 93 57 94 54 95 50 96 51 97
REMARK SMILES IDX 52 98 53 99
REMARK H PARENT 90 19 90 20 77 52 45 63
REMARK Flexibility Score: inf
ROOT
ATOM      1  C   UNL A   1      32.005  29.860  25.884  1.00  0.00     0.188 C 
ENDROOT
BRANCH   1   2
ATOM      2  C   UNL A   1      32.270  29.117  24.564  1.00  0.00     0.188 C 
BRANCH   2   3
ATOM      3  O   UNL A   1      33.504  28.463  24.322  1.00  0.00    -0.376 OA
BRANCH   3   4
ATOM      4  C   UNL A   1      33.672  27.317  23.498  1.00  0.00     0.202 C 
BRANCH   4   5
ATOM      5  C   UNL A   1      33.560  25.844  23.933  1.00  0.00     0.261 C 
BRANCH   5   6
ATOM      6  O   UNL A   1      33.262  25.592  25.299  1.00  0.00    -0.463 OA
BRANCH   6   7
ATOM      7  C   UNL A   1      31.984  25.214  25.526  1.00  0.00     0.311 C 
ATOM      8  O   UNL A   1      31.027  25.565  24.849  1.00  0.00    -0.252 OA
BRANCH   7   9
ATOM      9  C   UNL A   1      31.944  24.231  26.688  1.00  0.00     0.123 C 
ATOM     10  C   UNL A   1      33.522  22.576  27.824  1.00  0.00     0.032 C 
ATOM     11  C   UNL A   1      33.091  23.238  26.518  1.00  0.00     0.096 C 
ATOM     12  N   UNL A   1      32.522  22.280  25.572  1.00  0.00    -0.334 N 
ATOM     13  C   UNL A   1      30.699  23.369  26.634  1.00  0.00     0.039 C 
ATOM     14  C   UNL A   1      31.061  22.357  25.560  1.00  0.00     0.121 C 
BRANCH  12  15
ATOM     15  C   UNL A   1      33.179  21.724  24.489  1.00  0.00     0.277 C 
ATOM     16  O   UNL A   1      33.925  22.404  23.778  1.00  0.00    -0.268 OA
BRANCH  15  17
ATOM     17  C   UNL A   1      32.898  20.260  24.116  1.00  0.00     0.362 C 
BRANCH  17  18
ATOM     18  N   UNL A   1      33.941  19.327  24.576  1.00  0.00    -0.336 N 
ATOM     19  H   UNL A   1      34.182  19.553  25.542  1.00  0.00     0.346 HD
ATOM     20  H   UNL A   1      34.748  19.426  23.962  1.00  0.00     0.346 HD
BRANCH  18  21
ATOM     21  C   UNL A   1      33.494  17.943  24.515  1.00  0.00     0.182 C 
ATOM     22  C   UNL A   1      34.616  16.909  24.568  1.00  0.00     0.065 C 
ATOM     23  C   UNL A   1      32.646  17.541  25.723  1.00  0.00     0.065 C 
ATOM     24  C   UNL A   1      33.875  15.610  24.861  1.00  0.00     0.006 C 
ATOM     25  C   UNL A   1      32.655  16.010  25.693  1.00  0.00     0.006 C 
ENDBRANCH  18  21
ENDBRANCH  17  18
ENDBRANCH  15  17
ENDBRANCH  12  15
ENDBRANCH   7   9
ENDBRANCH   6   7
ENDBRANCH   5   6
ENDBRANCH   4   5
ENDBRANCH   3   4
ENDBRANCH   2   3
ENDBRANCH   1   2
BRANCH   1  26
ATOM     26  O   UNL A   1      33.182  30.290  26.529  1.00  0.00    -0.377 OA
BRANCH  26  27
ATOM     27  C   UNL A   1      33.060  31.414  27.390  1.00  0.00     0.188 C 
BRANCH  27  28
ATOM     28  C   UNL A   1      34.306  31.916  28.158  1.00  0.00     0.188 C 
BRANCH  28  29
ATOM     29  O   UNL A   1      34.910  33.083  27.612  1.00  0.00    -0.376 OA
BRANCH  29  30
ATOM     30  C   UNL A   1      34.298  34.339  27.855  1.00  0.00     0.202 C 
BRANCH  30  31
ATOM     31  C   UNL A   1      33.411  34.454  29.106  1.00  0.00     0.261 C 
BRANCH  31  32
ATOM     32  O   UNL A   1      33.956  35.208  30.199  1.00  0.00    -0.460 OA
BRANCH  32  33
ATOM     33  C   UNL A   1      34.062  34.570  31.389  1.00  0.00     0.338 C 
ATOM     34  O   UNL A   1      33.257  34.590  32.295  1.00  0.00    -0.246 OA
BRANCH  33  35
ATOM     35  C   UNL A   1      35.235  33.667  31.312  1.00  0.00     0.060 A 
ATOM     36  C   UNL A   1      35.125  32.373  31.838  1.00  0.00     0.016 A 
ATOM     37  C   UNL A   1      36.425  34.090  30.716  1.00  0.00     0.016 A 
ATOM     38  C   UNL A   1      36.220  31.511  31.806  1.00  0.00     0.010 A 
ATOM     39  C   UNL A   1      37.529  33.233  30.707  1.00  0.00     0.010 A 
ATOM     40  C   UNL A   1      37.443  31.953  31.285  1.00  0.00    -0.014 A 
BRANCH  40  41
ATOM     41  C   UNL A   1      38.677  31.170  31.546  1.00  0.00     0.031 A 
ATOM     42  C   UNL A   1      39.491  31.520  32.764  1.00  0.00     0.074 A 
ATOM     43  C   UNL A   1      39.054  30.157  30.746  1.00  0.00     0.049 A 
ATOM     44  N   UNL A   1      40.630  31.029  33.175  1.00  0.00    -0.248 NA
ATOM     45  C   UNL A   1      38.938  32.571  33.633  1.00  0.00     0.031 C 
ATOM     46  C   UNL A   1      38.319  29.688  29.574  1.00  0.00     0.029 A 
ATOM     47  N   UNL A   1      40.158  29.343  30.799  1.00  0.00    -0.354 N 
ATOM     48  C   UNL A   1      40.936  31.715  34.345  1.00  0.00     0.074 A 
ATOM     49  C   UNL A   1      39.881  32.684  34.555  1.00  0.00     0.031 C 
ATOM     50  C   UNL A   1      38.998  28.672  29.012  1.00  0.00     0.029 A 
ATOM     51  C   UNL A   1      40.238  28.450  29.757  1.00  0.00     0.049 A 
ATOM     52  H   UNL A   1      40.830  29.393  31.517  1.00  0.00     0.167 HD
ATOM     53  C   UNL A   1      41.996  31.547  35.175  1.00  0.00     0.034 A 
ATOM     54  C   UNL A   1      41.212  27.577  29.427  1.00  0.00     0.034 A 
ATOM     55  C   UNL A   1      43.046  30.588  34.943  1.00  0.00     0.049 A 
ATOM     56  C   UNL A   1      42.439  27.480  30.308  1.00  0.00     0.074 A 
ATOM     57  C   UNL A   1      44.161  30.328  35.719  1.00  0.00     0.029 A 
ATOM     58  N   UNL A   1      43.121  29.738  33.846  1.00  0.00    -0.354 N 
ATOM     59  N   UNL A   1      42.718  28.133  31.414  1.00  0.00    -0.248 NA
ATOM     60  C   UNL A   1      43.477  26.525  29.899  1.00  0.00     0.031 C 
ATOM     61  C   UNL A   1      44.952  29.389  35.051  1.00  0.00     0.029 A 
ATOM     62  C   UNL A   1      44.284  28.985  33.906  1.00  0.00     0.049 A 
ATOM     63  H   UNL A   1      42.447  29.680  33.130  1.00  0.00     0.167 HD
ATOM     64  C   UNL A   1      43.946  27.636  31.850  1.00  0.00     0.074 A 
ATOM     65  C   UNL A   1      44.344  26.623  30.896  1.00  0.00     0.031 C 
ATOM     66  C   UNL A   1      44.675  27.980  32.943  1.00  0.00     0.034 A 
BRANCH  53  67
ATOM     67  C   UNL A   1      42.094  32.463  36.371  1.00  0.00     0.023 A 
ATOM     68  C   UNL A   1      41.385  32.214  37.559  1.00  0.00     0.031 A 
ATOM     69  C   UNL A   1      42.887  33.624  36.310  1.00  0.00     0.131 A 
ATOM     70  C   UNL A   1      41.426  33.145  38.608  1.00  0.00     0.055 A 
ATOM     71  C   UNL A   1      42.993  34.501  37.390  1.00  0.00     0.041 A 
ATOM     72  F   UNL A   1      43.564  33.931  35.192  1.00  0.00    -0.206 F 
ATOM     73  C   UNL A   1      42.248  34.273  38.543  1.00  0.00     0.022 A 
BRANCH  70  74
ATOM     74  S   UNL A   1      40.275  32.941  39.994  1.00  0.00     0.124 S 
ATOM     75  O   UNL A   1      41.007  32.008  40.850  1.00  0.00    -0.237 OA
ATOM     76  O   UNL A   1      40.145  34.302  40.500  1.00  0.00    -0.237 OA
ATOM     77  O   UNL A   1      39.076  32.388  39.368  1.00  0.00    -0.744 OA
ENDBRANCH  70  74
ENDBRANCH  53  67
BRANCH  54  78
ATOM     78  C   UNL A   1      41.108  26.752  28.187  1.00  0.00     0.023 A 
ATOM     79  C   UNL A   1      40.923  25.361  28.250  1.00  0.00     0.031 A 
ATOM     80  C   UNL A   1      41.263  27.335  26.916  1.00  0.00     0.131 A 
ATOM     81  C   UNL A   1      40.953  24.595  27.074  1.00  0.00     0.055 A 
ATOM     82  C   UNL A   1      41.228  26.578  25.744  1.00  0.00     0.041 A 
ATOM     83  F   UNL A   1      41.451  28.659  26.794  1.00  0.00    -0.206 F 
ATOM     84  C   UNL A   1      41.087  25.196  25.820  1.00  0.00     0.022 A 
BRANCH  81  85
ATOM     85  S   UNL A   1      40.921  22.787  27.212  1.00  0.00     0.124 S 
ATOM     86  O   UNL A   1      39.590  22.475  26.704  1.00  0.00    -0.237 OA
ATOM     87  O   UNL A   1      42.041  22.398  26.360  1.00  0.00    -0.237 OA
ATOM     88  O   UNL A   1      41.117  22.551  28.641  1.00  0.00    -0.744 OA
ENDBRANCH  81  85
ENDBRANCH  54  78
BRANCH  66  89
ATOM     89  C   UNL A   1      45.951  27.211  33.198  1.00  0.00     0.023 A 
ATOM     90  C   UNL A   1      45.971  26.028  33.956  1.00  0.00     0.031 A 
ATOM     91  C   UNL A   1      47.171  27.676  32.672  1.00  0.00     0.131 A 
ATOM     92  C   UNL A   1      47.191  25.384  34.217  1.00  0.00     0.055 A 
ATOM     93  C   UNL A   1      48.370  26.993  32.874  1.00  0.00     0.041 A 
ATOM     94  F   UNL A   1      47.216  28.803  31.943  1.00  0.00    -0.206 F 
ATOM     95  C   UNL A   1      48.388  25.848  33.664  1.00  0.00     0.022 A 
BRANCH  92  96
ATOM     96  S   UNL A   1      47.210  23.991  35.379  1.00  0.00     0.124 S 
ATOM     97  O   UNL A   1      48.226  24.412  36.338  1.00  0.00    -0.237 OA
ATOM     98  O   UNL A   1      45.837  23.976  35.871  1.00  0.00    -0.237 OA
ATOM     99  O   UNL A   1      47.580  22.851  34.542  1.00  0.00    -0.744 OA
ENDBRANCH  92  96
ENDBRANCH  66  89
ENDBRANCH  40  41
ENDBRANCH  33  35
ENDBRANCH  32  33
ENDBRANCH  31  32
ENDBRANCH  30  31
ENDBRANCH  29  30
ENDBRANCH  28  29
ENDBRANCH  27  28
ENDBRANCH  26  27
ENDBRANCH   1  26
TORSDOF 27
ENDMDL
