MODEL 1
REMARK VINA RESULT:      -8.7      0.000      0.000
REMARK SMILES COc1cccc(S(=O)(=O)N[C@H](CC(C)C)C(=O)OCCOCCOCCOCCOC(=O)c2ccc(-c3c4nc(c(-c5cc(S(=O)(=O)[O-])ccc5F)c5ccc([nH]5)c(-c5cc(S(=O)(=O)[O-])ccc5F)c5nc(c(-c6cc(S(=O)(=O)[O-])ccc6F)c6ccc3[nH]6)C=C5)C=C4)cc2)c1
REMARK SMILES IDX 24 1 23 2 22 3 21 4 20 5 19 6 17 7 18 8 12 9 11 10 8 12 9 13
REMARK SMILES IDX 10 14 7 15 3 16 4 17 97 18 5 19 6 20 2 21 1 22 13 23 14 24
REMARK SMILES IDX 15 25 16 26 25 27 26 28 27 29 28 30 29 31 30 32 31 33 32 34
REMARK SMILES IDX 33 35 34 36 35 37 96 38 36 39 95 40 37 41 38 42 39 43 89 44
REMARK SMILES IDX 40 45 94 46 88 47 90 48 41 49 93 50 87 51 86 52 42 54 74 55
REMARK SMILES IDX 54 56 73 57 55 58 58 59 72 60 91 61 56 62 57 63 71 65 92 66
REMARK SMILES IDX 59 67 43 68 44 69 52 70 45 71 51 72 53 73 50 74 46 75 47 76
REMARK SMILES IDX 48 77 49 78 75 79 76 80 84 81 77 82 83 83 85 84 82 85 78 86
REMARK SMILES IDX 79 87 80 88 81 89 60 90 61 91 69 92 62 93 68 94 70 95 67 96
REMARK SMILES IDX 63 97 64 98 65 99 66 100
REMARK H PARENT 11 11 90 53 58 64
REMARK Flexibility Score: inf
ROOT
ATOM      1  C   UNL A   1      40.850  21.258  27.244  1.00  0.00     0.188 C 
ENDROOT
BRANCH   1   2
ATOM      2  C   UNL A   1      39.564  21.537  26.455  1.00  0.00     0.188 C 
BRANCH   2   3
ATOM      3  O   UNL A   1      39.255  20.698  25.343  1.00  0.00    -0.376 OA
BRANCH   3   4
ATOM      4  C   UNL A   1      37.904  20.232  25.202  1.00  0.00     0.202 C 
BRANCH   4   5
ATOM      5  C   UNL A   1      36.871  21.269  24.709  1.00  0.00     0.261 C 
BRANCH   5   6
ATOM      6  O   UNL A   1      36.241  21.843  25.869  1.00  0.00    -0.462 OA
BRANCH   6   7
ATOM      7  C   UNL A   1      35.813  23.133  25.976  1.00  0.00     0.324 C 
ATOM      8  O   UNL A   1      36.489  24.122  25.741  1.00  0.00    -0.250 OA
BRANCH   7   9
ATOM      9  C   UNL A   1      34.317  23.112  26.393  1.00  0.00     0.180 C 
BRANCH   9  10
ATOM     10  N   UNL A   1      33.593  21.810  26.240  1.00  0.00    -0.197 NA
ATOM     11  H   UNL A   1      34.288  21.074  26.363  1.00  0.00     0.142 HD
BRANCH  10  12
ATOM     12  S   UNL A   1      32.753  21.444  24.821  1.00  0.00     0.241 S 
ATOM     13  O   UNL A   1      33.440  22.110  23.734  1.00  0.00    -0.207 OA
ATOM     14  O   UNL A   1      31.365  21.725  25.115  1.00  0.00    -0.207 OA
BRANCH  12  15
ATOM     15  C   UNL A   1      32.809  19.684  24.458  1.00  0.00     0.086 A 
ATOM     16  C   UNL A   1      33.380  17.371  24.886  1.00  0.00     0.120 A 
ATOM     17  C   UNL A   1      33.040  17.022  23.580  1.00  0.00     0.046 A 
ATOM     18  C   UNL A   1      33.184  18.681  25.358  1.00  0.00     0.068 A 
ATOM     19  C   UNL A   1      32.540  17.992  22.719  1.00  0.00     0.005 A 
ATOM     20  C   UNL A   1      32.451  19.319  23.147  1.00  0.00     0.022 A 
BRANCH  16  21
ATOM     21  O   UNL A   1      33.832  16.359  25.692  1.00  0.00    -0.497 OA
ATOM     22  C   UNL A   1      35.091  15.832  25.263  1.00  0.00     0.278 C 
ENDBRANCH  16  21
ENDBRANCH  12  15
ENDBRANCH  10  12
ENDBRANCH   9  10
BRANCH   9  23
ATOM     23  C   UNL A   1      33.598  24.130  25.490  1.00  0.00     0.035 C 
BRANCH  23  24
ATOM     24  C   UNL A   1      33.260  25.477  26.112  1.00  0.00    -0.015 C 
ATOM     25  C   UNL A   1      33.777  26.695  25.336  1.00  0.00     0.007 C 
ATOM     26  C   UNL A   1      31.760  25.531  26.411  1.00  0.00     0.007 C 
ENDBRANCH  23  24
ENDBRANCH   9  23
ENDBRANCH   7   9
ENDBRANCH   6   7
ENDBRANCH   5   6
ENDBRANCH   4   5
ENDBRANCH   3   4
ENDBRANCH   2   3
ENDBRANCH   1   2
BRANCH   1  27
ATOM     27  O   UNL A   1      40.993  19.905  27.633  1.00  0.00    -0.377 OA
BRANCH  27  28
ATOM     28  C   UNL A   1      42.143  19.230  27.133  1.00  0.00     0.188 C 
BRANCH  28  29
ATOM     29  C   UNL A   1      42.801  19.885  25.907  1.00  0.00     0.188 C 
BRANCH  29  30
ATOM     30  O   UNL A   1      43.705  19.018  25.215  1.00  0.00    -0.376 OA
BRANCH  30  31
ATOM     31  C   UNL A   1      44.890  19.611  24.686  1.00  0.00     0.202 C 
BRANCH  31  32
ATOM     32  C   UNL A   1      45.363  20.887  25.405  1.00  0.00     0.261 C 
BRANCH  32  33
ATOM     33  O   UNL A   1      45.679  21.992  24.543  1.00  0.00    -0.460 OA
BRANCH  33  34
ATOM     34  C   UNL A   1      44.631  22.680  24.029  1.00  0.00     0.338 C 
ATOM     35  O   UNL A   1      44.024  22.437  23.017  1.00  0.00    -0.246 OA
BRANCH  34  36
ATOM     36  C   UNL A   1      44.226  23.684  25.037  1.00  0.00     0.060 A 
ATOM     37  C   UNL A   1      44.843  24.939  25.005  1.00  0.00     0.016 A 
ATOM     38  C   UNL A   1      43.281  23.376  26.017  1.00  0.00     0.016 A 
ATOM     39  C   UNL A   1      44.550  25.880  25.990  1.00  0.00     0.010 A 
ATOM     40  C   UNL A   1      43.001  24.314  27.015  1.00  0.00     0.010 A 
ATOM     41  C   UNL A   1      43.664  25.554  27.026  1.00  0.00    -0.014 A 
BRANCH  41  42
ATOM     42  C   UNL A   1      43.604  26.414  28.232  1.00  0.00     0.031 A 
ATOM     43  C   UNL A   1      44.801  26.436  29.144  1.00  0.00     0.074 A 
ATOM     44  C   UNL A   1      42.527  27.169  28.503  1.00  0.00     0.049 A 
ATOM     45  N   UNL A   1      44.987  27.092  30.259  1.00  0.00    -0.248 NA
ATOM     46  C   UNL A   1      45.941  25.598  28.738  1.00  0.00     0.031 C 
ATOM     47  C   UNL A   1      41.329  27.261  27.672  1.00  0.00     0.029 A 
ATOM     48  N   UNL A   1      42.271  28.005  29.561  1.00  0.00    -0.354 N 
ATOM     49  C   UNL A   1      46.266  26.750  30.689  1.00  0.00     0.074 A 
ATOM     50  C   UNL A   1      46.790  25.797  29.733  1.00  0.00     0.031 C 
ATOM     51  C   UNL A   1      40.458  28.104  28.258  1.00  0.00     0.029 A 
ATOM     52  C   UNL A   1      41.025  28.585  29.517  1.00  0.00     0.049 A 
ATOM     53  H   UNL A   1      42.918  28.172  30.284  1.00  0.00     0.167 HD
ATOM     54  C   UNL A   1      46.943  27.195  31.774  1.00  0.00     0.034 A 
ATOM     55  C   UNL A   1      40.412  29.396  30.403  1.00  0.00     0.034 A 
ATOM     56  C   UNL A   1      46.398  28.125  32.731  1.00  0.00     0.049 A 
ATOM     57  C   UNL A   1      41.147  29.799  31.660  1.00  0.00     0.074 A 
ATOM     58  C   UNL A   1      47.002  28.659  33.857  1.00  0.00     0.029 A 
ATOM     59  N   UNL A   1      45.110  28.644  32.688  1.00  0.00    -0.354 N 
ATOM     60  N   UNL A   1      42.364  29.488  32.044  1.00  0.00    -0.248 NA
ATOM     61  C   UNL A   1      40.422  30.664  32.601  1.00  0.00     0.031 C 
ATOM     62  C   UNL A   1      46.055  29.438  34.532  1.00  0.00     0.029 A 
ATOM     63  C   UNL A   1      44.885  29.456  33.789  1.00  0.00     0.049 A 
ATOM     64  H   UNL A   1      44.452  28.459  31.979  1.00  0.00     0.167 HD
ATOM     65  C   UNL A   1      42.561  30.150  33.255  1.00  0.00     0.074 A 
ATOM     66  C   UNL A   1      41.340  30.879  33.532  1.00  0.00     0.031 C 
ATOM     67  C   UNL A   1      43.655  30.163  34.059  1.00  0.00     0.034 A 
BRANCH  54  68
ATOM     68  C   UNL A   1      48.321  26.623  32.004  1.00  0.00     0.023 A 
ATOM     69  C   UNL A   1      48.516  25.425  32.713  1.00  0.00     0.031 A 
ATOM     70  C   UNL A   1      49.459  27.319  31.560  1.00  0.00     0.131 A 
ATOM     71  C   UNL A   1      49.817  25.003  33.028  1.00  0.00     0.055 A 
ATOM     72  C   UNL A   1      50.751  26.849  31.805  1.00  0.00     0.041 A 
ATOM     73  F   UNL A   1      49.335  28.481  30.900  1.00  0.00    -0.206 F 
ATOM     74  C   UNL A   1      50.936  25.695  32.559  1.00  0.00     0.022 A 
BRANCH  71  75
ATOM     75  S   UNL A   1      50.022  23.630  34.197  1.00  0.00     0.124 S 
ATOM     76  O   UNL A   1      51.223  24.037  34.923  1.00  0.00    -0.237 OA
ATOM     77  O   UNL A   1      48.775  23.668  34.951  1.00  0.00    -0.237 OA
ATOM     78  O   UNL A   1      50.194  22.465  33.330  1.00  0.00    -0.744 OA
ENDBRANCH  71  75
ENDBRANCH  54  68
BRANCH  55  79
ATOM     79  C   UNL A   1      39.017  29.861  30.163  1.00  0.00     0.023 A 
ATOM     80  C   UNL A   1      38.753  31.176  29.747  1.00  0.00     0.031 A 
ATOM     81  C   UNL A   1      37.922  29.010  30.400  1.00  0.00     0.131 A 
ATOM     82  C   UNL A   1      37.425  31.615  29.620  1.00  0.00     0.055 A 
ATOM     83  C   UNL A   1      36.605  29.439  30.229  1.00  0.00     0.041 A 
ATOM     84  F   UNL A   1      38.120  27.744  30.800  1.00  0.00    -0.206 F 
ATOM     85  C   UNL A   1      36.350  30.752  29.848  1.00  0.00     0.022 A 
BRANCH  82  86
ATOM     86  S   UNL A   1      37.122  33.357  29.219  1.00  0.00     0.124 S 
ATOM     87  O   UNL A   1      36.665  33.882  30.500  1.00  0.00    -0.237 OA
ATOM     88  O   UNL A   1      38.440  33.800  28.777  1.00  0.00    -0.237 OA
ATOM     89  O   UNL A   1      36.105  33.293  28.171  1.00  0.00    -0.744 OA
ENDBRANCH  82  86
ENDBRANCH  55  79
BRANCH  67  90
ATOM     90  C   UNL A   1      43.592  31.031  35.293  1.00  0.00     0.023 A 
ATOM     91  C   UNL A   1      44.004  32.375  35.278  1.00  0.00     0.031 A 
ATOM     92  C   UNL A   1      43.113  30.501  36.505  1.00  0.00     0.131 A 
ATOM     93  C   UNL A   1      43.978  33.127  36.462  1.00  0.00     0.055 A 
ATOM     94  C   UNL A   1      43.034  31.271  37.666  1.00  0.00     0.041 A 
ATOM     95  F   UNL A   1      42.706  29.223  36.577  1.00  0.00    -0.206 F 
ATOM     96  C   UNL A   1      43.479  32.589  37.651  1.00  0.00     0.022 A 
BRANCH  93  97
ATOM     97  S   UNL A   1      44.681  34.800  36.450  1.00  0.00     0.124 S 
ATOM     98  O   UNL A   1      45.893  34.613  35.658  1.00  0.00    -0.237 OA
ATOM     99  O   UNL A   1      43.622  35.580  35.819  1.00  0.00    -0.237 OA
ATOM    100  O   UNL A   1      44.904  35.089  37.866  1.00  0.00    -0.744 OA
ENDBRANCH  93  97
ENDBRANCH  67  90
ENDBRANCH  41  42
ENDBRANCH  34  36
ENDBRANCH  33  34
ENDBRANCH  32  33
ENDBRANCH  31  32
ENDBRANCH  30  31
ENDBRANCH  29  30
ENDBRANCH  28  29
ENDBRANCH  27  28
ENDBRANCH   1  27
TORSDOF 29
ENDMDL
MODEL 2
REMARK VINA RESULT:      -8.4      1.866      2.217
REMARK SMILES COc1cccc(S(=O)(=O)N[C@H](CC(C)C)C(=O)OCCOCCOCCOCCOC(=O)c2ccc(-c3c4nc(c(-c5cc(S(=O)(=O)[O-])ccc5F)c5ccc([nH]5)c(-c5cc(S(=O)(=O)[O-])ccc5F)c5nc(c(-c6cc(S(=O)(=O)[O-])ccc6F)c6ccc3[nH]6)C=C5)C=C4)cc2)c1
REMARK SMILES IDX 24 1 23 2 22 3 21 4 20 5 19 6 17 7 18 8 12 9 11 10 8 12 9 13
REMARK SMILES IDX 10 14 7 15 3 16 4 17 97 18 5 19 6 20 2 21 1 22 13 23 14 24
REMARK SMILES IDX 15 25 16 26 25 27 26 28 27 29 28 30 29 31 30 32 31 33 32 34
REMARK SMILES IDX 33 35 34 36 35 37 96 38 36 39 95 40 37 41 38 42 39 43 89 44
REMARK SMILES IDX 40 45 94 46 88 47 90 48 41 49 93 50 87 51 86 52 42 54 74 55
REMARK SMILES IDX 54 56 73 57 55 58 58 59 72 60 91 61 56 62 57 63 71 65 92 66
REMARK SMILES IDX 59 67 43 68 44 69 52 70 45 71 51 72 53 73 50 74 46 75 47 76
REMARK SMILES IDX 48 77 49 78 75 79 76 80 84 81 77 82 83 83 85 84 82 85 78 86
REMARK SMILES IDX 79 87 80 88 81 89 60 90 61 91 69 92 62 93 68 94 70 95 67 96
REMARK SMILES IDX 63 97 64 98 65 99 66 100
REMARK H PARENT 11 11 90 53 58 64
REMARK Flexibility Score: inf
ROOT
ATOM      1  C   UNL A   1      41.937  20.495  26.705  1.00  0.00     0.188 C 
ENDROOT
BRANCH   1   2
ATOM      2  C   UNL A   1      40.523  20.919  26.286  1.00  0.00     0.188 C 
BRANCH   2   3
ATOM      3  O   UNL A   1      39.723  19.987  25.561  1.00  0.00    -0.376 OA
BRANCH   3   4
ATOM      4  C   UNL A   1      38.295  20.124  25.629  1.00  0.00     0.202 C 
BRANCH   4   5
ATOM      5  C   UNL A   1      37.682  21.293  24.826  1.00  0.00     0.261 C 
BRANCH   5   6
ATOM      6  O   UNL A   1      36.517  21.748  25.538  1.00  0.00    -0.462 OA
BRANCH   6   7
ATOM      7  C   UNL A   1      36.162  23.052  25.717  1.00  0.00     0.324 C 
ATOM      8  O   UNL A   1      36.879  24.015  25.493  1.00  0.00    -0.250 OA
BRANCH   7   9
ATOM      9  C   UNL A   1      34.687  23.089  26.200  1.00  0.00     0.180 C 
BRANCH   9  10
ATOM     10  N   UNL A   1      33.881  21.842  26.002  1.00  0.00    -0.197 NA
ATOM     11  H   UNL A   1      34.527  21.059  26.105  1.00  0.00     0.142 HD
BRANCH  10  12
ATOM     12  S   UNL A   1      33.030  21.577  24.568  1.00  0.00     0.241 S 
ATOM     13  O   UNL A   1      33.684  22.349  23.533  1.00  0.00    -0.207 OA
ATOM     14  O   UNL A   1      31.640  21.796  24.902  1.00  0.00    -0.207 OA
BRANCH  12  15
ATOM     15  C   UNL A   1      33.123  19.855  24.055  1.00  0.00     0.086 A 
ATOM     16  C   UNL A   1      34.052  17.620  24.028  1.00  0.00     0.120 A 
ATOM     17  C   UNL A   1      33.272  17.285  22.922  1.00  0.00     0.046 A 
ATOM     18  C   UNL A   1      33.919  18.873  24.653  1.00  0.00     0.068 A 
ATOM     19  C   UNL A   1      32.380  18.218  22.403  1.00  0.00     0.005 A 
ATOM     20  C   UNL A   1      32.326  19.503  22.951  1.00  0.00     0.022 A 
BRANCH  16  21
ATOM     21  O   UNL A   1      34.882  16.643  24.508  1.00  0.00    -0.497 OA
ATOM     22  C   UNL A   1      34.349  15.979  25.657  1.00  0.00     0.278 C 
ENDBRANCH  16  21
ENDBRANCH  12  15
ENDBRANCH  10  12
ENDBRANCH   9  10
BRANCH   9  23
ATOM     23  C   UNL A   1      33.991  24.201  25.395  1.00  0.00     0.035 C 
BRANCH  23  24
ATOM     24  C   UNL A   1      33.317  25.305  26.195  1.00  0.00    -0.015 C 
ATOM     25  C   UNL A   1      33.425  26.707  25.580  1.00  0.00     0.007 C 
ATOM     26  C   UNL A   1      31.880  24.886  26.517  1.00  0.00     0.007 C 
ENDBRANCH  23  24
ENDBRANCH   9  23
ENDBRANCH   7   9
ENDBRANCH   6   7
ENDBRANCH   5   6
ENDBRANCH   4   5
ENDBRANCH   3   4
ENDBRANCH   2   3
ENDBRANCH   1   2
BRANCH   1  27
ATOM     27  O   UNL A   1      42.055  19.114  26.985  1.00  0.00    -0.377 OA
BRANCH  27  28
ATOM     28  C   UNL A   1      43.082  18.420  26.283  1.00  0.00     0.188 C 
BRANCH  28  29
ATOM     29  C   UNL A   1      43.650  19.160  25.060  1.00  0.00     0.188 C 
BRANCH  29  30
ATOM     30  O   UNL A   1      44.921  18.662  24.633  1.00  0.00    -0.376 OA
BRANCH  30  31
ATOM     31  C   UNL A   1      45.933  19.630  24.358  1.00  0.00     0.202 C 
BRANCH  31  32
ATOM     32  C   UNL A   1      45.824  20.940  25.157  1.00  0.00     0.261 C 
BRANCH  32  33
ATOM     33  O   UNL A   1      45.877  22.142  24.371  1.00  0.00    -0.460 OA
BRANCH  33  34
ATOM     34  C   UNL A   1      44.698  22.771  24.144  1.00  0.00     0.338 C 
ATOM     35  O   UNL A   1      43.901  22.534  23.271  1.00  0.00    -0.246 OA
BRANCH  34  36
ATOM     36  C   UNL A   1      44.457  23.683  25.282  1.00  0.00     0.060 A 
ATOM     37  C   UNL A   1      44.989  24.974  25.219  1.00  0.00     0.016 A 
ATOM     38  C   UNL A   1      43.751  23.254  26.408  1.00  0.00     0.016 A 
ATOM     39  C   UNL A   1      44.857  25.832  26.308  1.00  0.00     0.010 A 
ATOM     40  C   UNL A   1      43.635  24.109  27.508  1.00  0.00     0.010 A 
ATOM     41  C   UNL A   1      44.221  25.386  27.475  1.00  0.00    -0.014 A 
BRANCH  41  42
ATOM     42  C   UNL A   1      44.367  26.166  28.729  1.00  0.00     0.031 A 
ATOM     43  C   UNL A   1      45.719  26.198  29.387  1.00  0.00     0.074 A 
ATOM     44  C   UNL A   1      43.334  26.842  29.258  1.00  0.00     0.049 A 
ATOM     45  N   UNL A   1      46.096  26.793  30.488  1.00  0.00    -0.248 NA
ATOM     46  C   UNL A   1      46.789  25.450  28.708  1.00  0.00     0.031 C 
ATOM     47  C   UNL A   1      41.991  26.919  28.686  1.00  0.00     0.029 A 
ATOM     48  N   UNL A   1      43.259  27.595  30.402  1.00  0.00    -0.354 N 
ATOM     49  C   UNL A   1      47.447  26.496  30.634  1.00  0.00     0.074 A 
ATOM     50  C   UNL A   1      47.810  25.634  29.529  1.00  0.00     0.031 C 
ATOM     51  C   UNL A   1      41.220  27.675  29.490  1.00  0.00     0.029 A 
ATOM     52  C   UNL A   1      42.006  28.108  30.645  1.00  0.00     0.049 A 
ATOM     53  H   UNL A   1      44.029  27.753  30.995  1.00  0.00     0.167 HD
ATOM     54  C   UNL A   1      48.308  26.910  31.595  1.00  0.00     0.034 A 
ATOM     55  C   UNL A   1      41.549  28.827  31.690  1.00  0.00     0.034 A 
ATOM     56  C   UNL A   1      47.926  27.747  32.704  1.00  0.00     0.049 A 
ATOM     57  C   UNL A   1      42.501  29.192  32.804  1.00  0.00     0.074 A 
ATOM     58  C   UNL A   1      48.718  28.243  33.726  1.00  0.00     0.029 A 
ATOM     59  N   UNL A   1      46.634  28.196  32.951  1.00  0.00    -0.354 N 
ATOM     60  N   UNL A   1      43.782  28.925  32.919  1.00  0.00    -0.248 NA
ATOM     61  C   UNL A   1      41.942  29.956  33.928  1.00  0.00     0.031 C 
ATOM     62  C   UNL A   1      47.893  28.926  34.626  1.00  0.00     0.029 A 
ATOM     63  C   UNL A   1      46.599  28.924  34.130  1.00  0.00     0.049 A 
ATOM     64  H   UNL A   1      45.857  28.020  32.373  1.00  0.00     0.167 HD
ATOM     65  C   UNL A   1      44.188  29.521  34.112  1.00  0.00     0.074 A 
ATOM     66  C   UNL A   1      43.017  30.163  34.674  1.00  0.00     0.031 C 
ATOM     67  C   UNL A   1      45.419  29.545  34.686  1.00  0.00     0.034 A 
BRANCH  54  68
ATOM     68  C   UNL A   1      49.727  26.402  31.509  1.00  0.00     0.023 A 
ATOM     69  C   UNL A   1      50.110  25.178  32.085  1.00  0.00     0.031 A 
ATOM     70  C   UNL A   1      50.721  27.182  30.895  1.00  0.00     0.131 A 
ATOM     71  C   UNL A   1      51.465  24.810  32.108  1.00  0.00     0.055 A 
ATOM     72  C   UNL A   1      52.055  26.770  30.849  1.00  0.00     0.041 A 
ATOM     73  F   UNL A   1      50.419  28.371  30.351  1.00  0.00    -0.206 F 
ATOM     74  C   UNL A   1      52.436  25.587  31.474  1.00  0.00     0.022 A 
BRANCH  71  75
ATOM     75  S   UNL A   1      51.958  23.387  33.120  1.00  0.00     0.124 S 
ATOM     76  O   UNL A   1      53.416  23.452  33.029  1.00  0.00    -0.237 OA
ATOM     77  O   UNL A   1      51.383  23.710  34.421  1.00  0.00    -0.237 OA
ATOM     78  O   UNL A   1      51.350  22.250  32.432  1.00  0.00    -0.744 OA
ENDBRANCH  71  75
ENDBRANCH  54  68
BRANCH  55  79
ATOM     79  C   UNL A   1      40.115  29.229  31.761  1.00  0.00     0.023 A 
ATOM     80  C   UNL A   1      39.678  30.453  31.230  1.00  0.00     0.031 A 
ATOM     81  C   UNL A   1      39.170  28.416  32.412  1.00  0.00     0.131 A 
ATOM     82  C   UNL A   1      38.341  30.848  31.395  1.00  0.00     0.055 A 
ATOM     83  C   UNL A   1      37.832  28.794  32.534  1.00  0.00     0.041 A 
ATOM     84  F   UNL A   1      39.536  27.236  32.938  1.00  0.00    -0.206 F 
ATOM     85  C   UNL A   1      37.413  30.022  32.034  1.00  0.00     0.022 A 
BRANCH  82  86
ATOM     86  S   UNL A   1      37.846  32.496  30.821  1.00  0.00     0.124 S 
ATOM     87  O   UNL A   1      38.445  32.541  29.493  1.00  0.00    -0.237 OA
ATOM     88  O   UNL A   1      36.390  32.408  30.867  1.00  0.00    -0.237 OA
ATOM     89  O   UNL A   1      38.444  33.394  31.808  1.00  0.00    -0.744 OA
ENDBRANCH  82  86
ENDBRANCH  55  79
BRANCH  67  90
ATOM     90  C   UNL A   1      45.566  30.331  35.967  1.00  0.00     0.023 A 
ATOM     91  C   UNL A   1      45.648  29.699  37.219  1.00  0.00     0.031 A 
ATOM     92  C   UNL A   1      45.619  31.736  35.930  1.00  0.00     0.131 A 
ATOM     93  C   UNL A   1      45.729  30.472  38.388  1.00  0.00     0.055 A 
ATOM     94  C   UNL A   1      45.759  32.498  37.090  1.00  0.00     0.041 A 
ATOM     95  F   UNL A   1      45.544  32.392  34.761  1.00  0.00    -0.206 F 
ATOM     96  C   UNL A   1      45.802  31.866  38.330  1.00  0.00     0.022 A 
BRANCH  93  97
ATOM     97  S   UNL A   1      45.656  29.635  39.996  1.00  0.00     0.124 S 
ATOM     98  O   UNL A   1      45.088  30.672  40.852  1.00  0.00    -0.237 OA
ATOM     99  O   UNL A   1      44.789  28.495  39.716  1.00  0.00    -0.237 OA
ATOM    100  O   UNL A   1      47.052  29.298  40.272  1.00  0.00    -0.744 OA
ENDBRANCH  93  97
ENDBRANCH  67  90
ENDBRANCH  41  42
ENDBRANCH  34  36
ENDBRANCH  33  34
ENDBRANCH  32  33
ENDBRANCH  31  32
ENDBRANCH  30  31
ENDBRANCH  29  30
ENDBRANCH  28  29
ENDBRANCH  27  28
ENDBRANCH   1  27
TORSDOF 29
ENDMDL
MODEL 3
REMARK VINA RESULT:      -8.3      2.366      9.300
REMARK SMILES COc1cccc(S(=O)(=O)N[C@H](CC(C)C)C(=O)OCCOCCOCCOCCOC(=O)c2ccc(-c3c4nc(c(-c5cc(S(=O)(=O)[O-])ccc5F)c5ccc([nH]5)c(-c5cc(S(=O)(=O)[O-])ccc5F)c5nc(c(-c6cc(S(=O)(=O)[O-])ccc6F)c6ccc3[nH]6)C=C5)C=C4)cc2)c1
REMARK SMILES IDX 24 1 23 2 22 3 21 4 20 5 19 6 17 7 18 8 12 9 11 10 8 12 9 13
REMARK SMILES IDX 10 14 7 15 3 16 4 17 97 18 5 19 6 20 2 21 1 22 13 23 14 24
REMARK SMILES IDX 15 25 16 26 25 27 26 28 27 29 28 30 29 31 30 32 31 33 32 34
REMARK SMILES IDX 33 35 34 36 35 37 96 38 36 39 95 40 37 41 38 42 39 43 89 44
REMARK SMILES IDX 40 45 94 46 88 47 90 48 41 49 93 50 87 51 86 52 42 54 74 55
REMARK SMILES IDX 54 56 73 57 55 58 58 59 72 60 91 61 56 62 57 63 71 65 92 66
REMARK SMILES IDX 59 67 43 68 44 69 52 70 45 71 51 72 53 73 50 74 46 75 47 76
REMARK SMILES IDX 48 77 49 78 75 79 76 80 84 81 77 82 83 83 85 84 82 85 78 86
REMARK SMILES IDX 79 87 80 88 81 89 60 90 61 91 69 92 62 93 68 94 70 95 67 96
REMARK SMILES IDX 63 97 64 98 65 99 66 100
REMARK H PARENT 11 11 90 53 58 64
REMARK Flexibility Score: inf
ROOT
ATOM      1  C   UNL A   1      33.789  28.702  26.418  1.00  0.00     0.188 C 
ENDROOT
BRANCH   1   2
ATOM      2  C   UNL A   1      33.637  27.191  26.202  1.00  0.00     0.188 C 
BRANCH   2   3
ATOM      3  O   UNL A   1      34.571  26.531  25.350  1.00  0.00    -0.376 OA
BRANCH   3   4
ATOM      4  C   UNL A   1      34.071  25.545  24.433  1.00  0.00     0.202 C 
BRANCH   4   5
ATOM      5  C   UNL A   1      34.780  24.173  24.451  1.00  0.00     0.261 C 
BRANCH   5   6
ATOM      6  O   UNL A   1      34.584  23.597  25.755  1.00  0.00    -0.462 OA
BRANCH   6   7
ATOM      7  C   UNL A   1      34.396  22.271  26.010  1.00  0.00     0.324 C 
ATOM      8  O   UNL A   1      35.066  21.599  26.778  1.00  0.00    -0.250 OA
BRANCH   7   9
ATOM      9  C   UNL A   1      33.161  21.793  25.199  1.00  0.00     0.180 C 
BRANCH   9  10
ATOM     10  N   UNL A   1      31.923  21.475  25.980  1.00  0.00    -0.197 NA
ATOM     11  H   UNL A   1      31.362  20.856  25.396  1.00  0.00     0.142 HD
BRANCH  10  12
ATOM     12  S   UNL A   1      30.892  22.703  26.509  1.00  0.00     0.241 S 
ATOM     13  O   UNL A   1      31.469  23.257  27.716  1.00  0.00    -0.207 OA
ATOM     14  O   UNL A   1      29.569  22.117  26.512  1.00  0.00    -0.207 OA
BRANCH  12  15
ATOM     15  C   UNL A   1      30.806  24.049  25.320  1.00  0.00     0.086 A 
ATOM     16  C   UNL A   1      30.482  26.345  24.622  1.00  0.00     0.120 A 
ATOM     17  C   UNL A   1      30.439  25.955  23.284  1.00  0.00     0.046 A 
ATOM     18  C   UNL A   1      30.753  25.410  25.638  1.00  0.00     0.068 A 
ATOM     19  C   UNL A   1      30.624  24.618  22.953  1.00  0.00     0.005 A 
ATOM     20  C   UNL A   1      30.779  23.668  23.966  1.00  0.00     0.022 A 
BRANCH  16  21
ATOM     21  O   UNL A   1      30.328  27.682  24.875  1.00  0.00    -0.497 OA
ATOM     22  C   UNL A   1      30.783  28.505  23.797  1.00  0.00     0.278 C 
ENDBRANCH  16  21
ENDBRANCH  12  15
ENDBRANCH  10  12
ENDBRANCH   9  10
BRANCH   9  23
ATOM     23  C   UNL A   1      33.583  20.496  24.486  1.00  0.00     0.035 C 
BRANCH  23  24
ATOM     24  C   UNL A   1      32.491  19.733  23.750  1.00  0.00    -0.015 C 
ATOM     25  C   UNL A   1      32.043  20.364  22.426  1.00  0.00     0.007 C 
ATOM     26  C   UNL A   1      32.902  18.264  23.622  1.00  0.00     0.007 C 
ENDBRANCH  23  24
ENDBRANCH   9  23
ENDBRANCH   7   9
ENDBRANCH   6   7
ENDBRANCH   5   6
ENDBRANCH   4   5
ENDBRANCH   3   4
ENDBRANCH   2   3
ENDBRANCH   1   2
BRANCH   1  27
ATOM     27  O   UNL A   1      32.668  29.301  27.041  1.00  0.00    -0.377 OA
BRANCH  27  28
ATOM     28  C   UNL A   1      32.197  30.509  26.449  1.00  0.00     0.188 C 
BRANCH  28  29
ATOM     29  C   UNL A   1      32.275  31.750  27.353  1.00  0.00     0.188 C 
BRANCH  29  30
ATOM     30  O   UNL A   1      33.568  32.361  27.372  1.00  0.00    -0.376 OA
BRANCH  30  31
ATOM     31  C   UNL A   1      33.687  33.600  28.070  1.00  0.00     0.202 C 
BRANCH  31  32
ATOM     32  C   UNL A   1      34.120  33.484  29.543  1.00  0.00     0.261 C 
BRANCH  32  33
ATOM     33  O   UNL A   1      34.706  32.225  29.909  1.00  0.00    -0.460 OA
BRANCH  33  34
ATOM     34  C   UNL A   1      35.220  32.136  31.161  1.00  0.00     0.338 C 
ATOM     35  O   UNL A   1      34.678  32.433  32.195  1.00  0.00    -0.246 OA
BRANCH  34  36
ATOM     36  C   UNL A   1      36.510  31.420  31.058  1.00  0.00     0.060 A 
ATOM     37  C   UNL A   1      36.686  30.263  31.824  1.00  0.00     0.016 A 
ATOM     38  C   UNL A   1      37.538  31.905  30.248  1.00  0.00     0.016 A 
ATOM     39  C   UNL A   1      37.917  29.610  31.819  1.00  0.00     0.010 A 
ATOM     40  C   UNL A   1      38.778  31.261  30.257  1.00  0.00     0.010 A 
ATOM     41  C   UNL A   1      38.982  30.133  31.073  1.00  0.00    -0.014 A 
BRANCH  41  42
ATOM     42  C   UNL A   1      40.358  29.639  31.321  1.00  0.00     0.031 A 
ATOM     43  C   UNL A   1      40.906  28.583  30.400  1.00  0.00     0.074 A 
ATOM     44  C   UNL A   1      41.109  30.127  32.322  1.00  0.00     0.049 A 
ATOM     45  N   UNL A   1      42.069  27.985  30.416  1.00  0.00    -0.248 NA
ATOM     46  C   UNL A   1      40.014  28.141  29.316  1.00  0.00     0.031 C 
ATOM     47  C   UNL A   1      40.701  31.180  33.249  1.00  0.00     0.029 A 
ATOM     48  N   UNL A   1      42.378  29.795  32.724  1.00  0.00    -0.354 N 
ATOM     49  C   UNL A   1      42.051  27.098  29.345  1.00  0.00     0.074 A 
ATOM     50  C   UNL A   1      40.746  27.210  28.727  1.00  0.00     0.031 C 
ATOM     51  C   UNL A   1      41.702  31.404  34.120  1.00  0.00     0.029 A 
ATOM     52  C   UNL A   1      42.806  30.490  33.831  1.00  0.00     0.049 A 
ATOM     53  H   UNL A   1      42.930  29.122  32.264  1.00  0.00     0.167 HD
ATOM     54  C   UNL A   1      43.034  26.273  28.910  1.00  0.00     0.034 A 
ATOM     55  C   UNL A   1      43.952  30.383  34.535  1.00  0.00     0.034 A 
ATOM     56  C   UNL A   1      44.319  26.153  29.551  1.00  0.00     0.049 A 
ATOM     57  C   UNL A   1      44.994  29.383  34.094  1.00  0.00     0.074 A 
ATOM     58  C   UNL A   1      45.397  25.364  29.186  1.00  0.00     0.029 A 
ATOM     59  N   UNL A   1      44.695  26.827  30.707  1.00  0.00    -0.354 N 
ATOM     60  N   UNL A   1      44.976  28.566  33.065  1.00  0.00    -0.248 NA
ATOM     61  C   UNL A   1      46.211  29.292  34.912  1.00  0.00     0.031 C 
ATOM     62  C   UNL A   1      46.391  25.504  30.161  1.00  0.00     0.029 A 
ATOM     63  C   UNL A   1      45.969  26.439  31.093  1.00  0.00     0.049 A 
ATOM     64  H   UNL A   1      44.136  27.483  31.183  1.00  0.00     0.167 HD
ATOM     65  C   UNL A   1      46.196  27.892  33.094  1.00  0.00     0.074 A 
ATOM     66  C   UNL A   1      46.923  28.401  34.238  1.00  0.00     0.031 C 
ATOM     67  C   UNL A   1      46.675  26.945  32.246  1.00  0.00     0.034 A 
BRANCH  54  68
ATOM     68  C   UNL A   1      42.717  25.397  27.722  1.00  0.00     0.023 A 
ATOM     69  C   UNL A   1      42.120  24.133  27.874  1.00  0.00     0.031 A 
ATOM     70  C   UNL A   1      43.075  25.806  26.426  1.00  0.00     0.131 A 
ATOM     71  C   UNL A   1      41.974  23.291  26.761  1.00  0.00     0.055 A 
ATOM     72  C   UNL A   1      42.851  24.996  25.311  1.00  0.00     0.041 A 
ATOM     73  F   UNL A   1      43.672  26.991  26.224  1.00  0.00    -0.206 F 
ATOM     74  C   UNL A   1      42.314  23.723  25.477  1.00  0.00     0.022 A 
BRANCH  71  75
ATOM     75  S   UNL A   1      41.486  21.565  27.038  1.00  0.00     0.124 S 
ATOM     76  O   UNL A   1      42.414  21.162  28.093  1.00  0.00    -0.237 OA
ATOM     77  O   UNL A   1      40.087  21.692  27.430  1.00  0.00    -0.237 OA
ATOM     78  O   UNL A   1      41.718  20.931  25.742  1.00  0.00    -0.744 OA
ENDBRANCH  71  75
ENDBRANCH  54  68
BRANCH  55  79
ATOM     79  C   UNL A   1      44.172  31.217  35.751  1.00  0.00     0.023 A 
ATOM     80  C   UNL A   1      44.805  32.467  35.667  1.00  0.00     0.031 A 
ATOM     81  C   UNL A   1      43.801  30.748  37.023  1.00  0.00     0.131 A 
ATOM     82  C   UNL A   1      45.086  33.188  36.838  1.00  0.00     0.055 A 
ATOM     83  C   UNL A   1      44.042  31.489  38.181  1.00  0.00     0.041 A 
ATOM     84  F   UNL A   1      43.193  29.559  37.158  1.00  0.00    -0.206 F 
ATOM     85  C   UNL A   1      44.699  32.712  38.093  1.00  0.00     0.022 A 
BRANCH  82  86
ATOM     86  S   UNL A   1      46.030  34.730  36.704  1.00  0.00     0.124 S 
ATOM     87  O   UNL A   1      45.960  34.999  35.272  1.00  0.00    -0.237 OA
ATOM     88  O   UNL A   1      45.267  35.629  37.564  1.00  0.00    -0.237 OA
ATOM     89  O   UNL A   1      47.353  34.365  37.208  1.00  0.00    -0.744 OA
ENDBRANCH  82  86
ENDBRANCH  55  79
BRANCH  67  90
ATOM     90  C   UNL A   1      48.072  26.435  32.504  1.00  0.00     0.023 A 
ATOM     91  C   UNL A   1      48.311  25.273  33.257  1.00  0.00     0.031 A 
ATOM     92  C   UNL A   1      49.182  27.129  31.989  1.00  0.00     0.131 A 
ATOM     93  C   UNL A   1      49.630  24.867  33.516  1.00  0.00     0.055 A 
ATOM     94  C   UNL A   1      50.489  26.689  32.201  1.00  0.00     0.041 A 
ATOM     95  F   UNL A   1      49.013  28.246  31.263  1.00  0.00    -0.206 F 
ATOM     96  C   UNL A   1      50.719  25.558  32.978  1.00  0.00     0.022 A 
BRANCH  93  97
ATOM     97  S   UNL A   1      49.908  23.467  34.636  1.00  0.00     0.124 S 
ATOM     98  O   UNL A   1      49.459  22.338  33.828  1.00  0.00    -0.237 OA
ATOM     99  O   UNL A   1      51.345  23.543  34.880  1.00  0.00    -0.237 OA
ATOM    100  O   UNL A   1      49.067  23.778  35.791  1.00  0.00    -0.744 OA
ENDBRANCH  93  97
ENDBRANCH  67  90
ENDBRANCH  41  42
ENDBRANCH  34  36
ENDBRANCH  33  34
ENDBRANCH  32  33
ENDBRANCH  31  32
ENDBRANCH  30  31
ENDBRANCH  29  30
ENDBRANCH  28  29
ENDBRANCH  27  28
ENDBRANCH   1  27
TORSDOF 29
ENDMDL
