MODEL 1
REMARK VINA RESULT:      -8.9      0.000      0.000
REMARK SMILES O=C(OCCOCCOCCOCCOC(=O)c1cc(-c2ccc(C(F)(F)F)cc2)cc([N+](=O)[O-])c1)c1ccc(-c2c3nc(c(-c4cc(S(=O)(=O)[O-])ccc4F)c4ccc([nH]4)c(-c4cc(S(=O)(=O)[O-])ccc4F)c4nc(c(-c5cc(S(=O)(=O)[O-])ccc5F)c5ccc2[nH]5)C=C4)C=C3)cc1
REMARK SMILES IDX 8 1 7 2 6 3 5 4 4 5 3 6 2 7 1 8 37 9 38 10 99 11 39 12 98 13
REMARK SMILES IDX 40 14 41 15 42 16 92 17 43 18 97 19 91 20 93 21 44 22 96 23
REMARK SMILES IDX 90 24 89 25 45 27 77 28 57 29 76 30 58 31 61 32 75 33 94 34
REMARK SMILES IDX 59 35 60 36 74 38 95 39 62 40 46 41 47 42 55 43 48 44 54 45
REMARK SMILES IDX 56 46 53 47 49 48 50 49 51 50 52 51 78 52 79 53 87 54 80 55
REMARK SMILES IDX 86 56 88 57 85 58 81 59 82 60 83 61 84 62 63 63 64 64 72 65
REMARK SMILES IDX 65 66 71 67 73 68 70 69 66 70 67 71 68 72 69 73 9 74 10 75
REMARK SMILES IDX 11 76 12 77 13 78 14 79 15 80 16 81 17 82 18 83 19 84 36 85
REMARK SMILES IDX 20 86 32 87 31 88 21 89 22 90 30 91 23 92 29 93 24 94 25 95
REMARK SMILES IDX 26 96 27 97 28 98 33 99 34 100 35 101
REMARK H PARENT 93 26 61 37
REMARK Flexibility Score: inf
ROOT
ATOM      1  C   UNL A   1      41.982  26.526  28.203  1.00  0.00     0.188 C 
ENDROOT
BRANCH   1   2
ATOM      2  C   UNL A   1      42.194  25.709  26.929  1.00  0.00     0.188 C 
BRANCH   2   3
ATOM      3  O   UNL A   1      41.074  24.875  26.642  1.00  0.00    -0.376 OA
BRANCH   3   4
ATOM      4  C   UNL A   1      41.295  23.466  26.702  1.00  0.00     0.202 C 
BRANCH   4   5
ATOM      5  C   UNL A   1      42.559  22.971  25.997  1.00  0.00     0.261 C 
BRANCH   5   6
ATOM      6  O   UNL A   1      43.500  22.367  26.894  1.00  0.00    -0.460 OA
BRANCH   6   7
ATOM      7  C   UNL A   1      44.609  22.932  27.436  1.00  0.00     0.338 C 
ATOM      8  O   UNL A   1      45.642  22.933  26.765  1.00  0.00    -0.246 OA
BRANCH   7   9
ATOM      9  C   UNL A   1      44.665  23.538  28.804  1.00  0.00     0.060 A 
ATOM     10  C   UNL A   1      45.461  24.620  29.180  1.00  0.00     0.016 A 
ATOM     11  C   UNL A   1      43.781  23.018  29.764  1.00  0.00     0.016 A 
ATOM     12  C   UNL A   1      45.438  25.141  30.462  1.00  0.00     0.010 A 
ATOM     13  C   UNL A   1      43.736  23.543  31.059  1.00  0.00     0.010 A 
ATOM     14  C   UNL A   1      44.590  24.592  31.413  1.00  0.00    -0.014 A 
BRANCH  14  15
ATOM     15  C   UNL A   1      44.798  25.010  32.807  1.00  0.00     0.031 A 
ATOM     16  C   UNL A   1      44.292  26.366  33.194  1.00  0.00     0.074 A 
ATOM     17  C   UNL A   1      45.251  24.128  33.714  1.00  0.00     0.049 A 
ATOM     18  N   UNL A   1      44.403  27.003  34.325  1.00  0.00    -0.248 NA
ATOM     19  C   UNL A   1      43.539  27.101  32.160  1.00  0.00     0.031 C 
ATOM     20  C   UNL A   1      45.584  22.727  33.435  1.00  0.00     0.029 A 
ATOM     21  N   UNL A   1      45.478  24.260  35.056  1.00  0.00    -0.354 N 
ATOM     22  C   UNL A   1      43.771  28.225  34.128  1.00  0.00     0.074 A 
ATOM     23  C   UNL A   1      43.279  28.244  32.771  1.00  0.00     0.031 C 
ATOM     24  C   UNL A   1      45.965  22.131  34.576  1.00  0.00     0.029 A 
ATOM     25  C   UNL A   1      45.989  23.125  35.642  1.00  0.00     0.049 A 
ATOM     26  H   UNL A   1      45.294  25.089  35.556  1.00  0.00     0.167 HD
ATOM     27  C   UNL A   1      43.635  29.238  35.013  1.00  0.00     0.034 A 
ATOM     28  C   UNL A   1      46.471  22.945  36.887  1.00  0.00     0.034 A 
ATOM     29  C   UNL A   1      44.155  29.162  36.353  1.00  0.00     0.049 A 
ATOM     30  C   UNL A   1      46.434  24.137  37.814  1.00  0.00     0.074 A 
ATOM     31  C   UNL A   1      44.171  30.133  37.334  1.00  0.00     0.029 A 
ATOM     32  N   UNL A   1      44.759  28.031  36.896  1.00  0.00    -0.354 N 
ATOM     33  N   UNL A   1      45.931  25.335  37.598  1.00  0.00    -0.248 NA
ATOM     34  C   UNL A   1      47.032  23.967  39.140  1.00  0.00     0.031 C 
ATOM     35  C   UNL A   1      44.850  29.613  38.442  1.00  0.00     0.029 A 
ATOM     36  C   UNL A   1      45.178  28.288  38.187  1.00  0.00     0.049 A 
ATOM     37  H   UNL A   1      44.871  27.172  36.426  1.00  0.00     0.167 HD
ATOM     38  C   UNL A   1      46.130  26.051  38.773  1.00  0.00     0.074 A 
ATOM     39  C   UNL A   1      46.776  25.141  39.699  1.00  0.00     0.031 C 
ATOM     40  C   UNL A   1      45.815  27.339  39.069  1.00  0.00     0.034 A 
BRANCH  27  41
ATOM     41  C   UNL A   1      43.018  30.516  34.507  1.00  0.00     0.023 A 
ATOM     42  C   UNL A   1      41.627  30.683  34.384  1.00  0.00     0.031 A 
ATOM     43  C   UNL A   1      43.847  31.558  34.052  1.00  0.00     0.131 A 
ATOM     44  C   UNL A   1      41.113  31.831  33.760  1.00  0.00     0.055 A 
ATOM     45  C   UNL A   1      43.328  32.731  33.505  1.00  0.00     0.041 A 
ATOM     46  F   UNL A   1      45.184  31.438  34.105  1.00  0.00    -0.206 F 
ATOM     47  C   UNL A   1      41.952  32.868  33.343  1.00  0.00     0.022 A 
BRANCH  44  48
ATOM     48  S   UNL A   1      39.343  31.888  33.362  1.00  0.00     0.124 S 
ATOM     49  O   UNL A   1      39.258  30.934  32.258  1.00  0.00    -0.237 OA
ATOM     50  O   UNL A   1      38.723  31.471  34.614  1.00  0.00    -0.237 OA
ATOM     51  O   UNL A   1      39.119  33.283  32.989  1.00  0.00    -0.744 OA
ENDBRANCH  44  48
ENDBRANCH  27  41
BRANCH  28  52
ATOM     52  C   UNL A   1      47.107  21.656  37.297  1.00  0.00     0.023 A 
ATOM     53  C   UNL A   1      46.378  20.657  37.962  1.00  0.00     0.031 A 
ATOM     54  C   UNL A   1      48.484  21.435  37.102  1.00  0.00     0.131 A 
ATOM     55  C   UNL A   1      47.037  19.520  38.459  1.00  0.00     0.055 A 
ATOM     56  C   UNL A   1      49.121  20.270  37.536  1.00  0.00     0.041 A 
ATOM     57  F   UNL A   1      49.243  22.355  36.483  1.00  0.00    -0.206 F 
ATOM     58  C   UNL A   1      48.399  19.311  38.238  1.00  0.00     0.022 A 
BRANCH  55  59
ATOM     59  S   UNL A   1      46.110  18.373  39.519  1.00  0.00     0.124 S 
ATOM     60  O   UNL A   1      45.154  17.806  38.575  1.00  0.00    -0.237 OA
ATOM     61  O   UNL A   1      47.163  17.477  39.984  1.00  0.00    -0.237 OA
ATOM     62  O   UNL A   1      45.536  19.244  40.542  1.00  0.00    -0.744 OA
ENDBRANCH  55  59
ENDBRANCH  28  52
BRANCH  40  63
ATOM     63  C   UNL A   1      46.123  27.801  40.469  1.00  0.00     0.023 A 
ATOM     64  C   UNL A   1      47.301  28.501  40.772  1.00  0.00     0.031 A 
ATOM     65  C   UNL A   1      45.215  27.535  41.510  1.00  0.00     0.131 A 
ATOM     66  C   UNL A   1      47.570  28.863  42.098  1.00  0.00     0.055 A 
ATOM     67  C   UNL A   1      45.454  27.961  42.814  1.00  0.00     0.041 A 
ATOM     68  F   UNL A   1      44.076  26.866  41.269  1.00  0.00    -0.206 F 
ATOM     69  C   UNL A   1      46.644  28.617  43.117  1.00  0.00     0.022 A 
BRANCH  66  70
ATOM     70  S   UNL A   1      49.192  29.568  42.490  1.00  0.00     0.124 S 
ATOM     71  O   UNL A   1      49.718  28.600  43.448  1.00  0.00    -0.237 OA
ATOM     72  O   UNL A   1      49.845  29.593  41.186  1.00  0.00    -0.237 OA
ATOM     73  O   UNL A   1      48.869  30.880  43.047  1.00  0.00    -0.744 OA
ENDBRANCH  66  70
ENDBRANCH  40  63
ENDBRANCH  14  15
ENDBRANCH   7   9
ENDBRANCH   6   7
ENDBRANCH   5   6
ENDBRANCH   4   5
ENDBRANCH   3   4
ENDBRANCH   2   3
ENDBRANCH   1   2
BRANCH   1  74
ATOM     74  O   UNL A   1      41.250  27.738  28.043  1.00  0.00    -0.377 OA
BRANCH  74  75
ATOM     75  C   UNL A   1      39.854  27.677  28.312  1.00  0.00     0.188 C 
BRANCH  75  76
ATOM     76  C   UNL A   1      38.932  28.827  27.840  1.00  0.00     0.188 C 
BRANCH  76  77
ATOM     77  O   UNL A   1      38.226  29.489  28.879  1.00  0.00    -0.376 OA
BRANCH  77  78
ATOM     78  C   UNL A   1      37.333  30.513  28.455  1.00  0.00     0.202 C 
BRANCH  78  79
ATOM     79  C   UNL A   1      35.844  30.145  28.534  1.00  0.00     0.261 C 
BRANCH  79  80
ATOM     80  O   UNL A   1      35.158  30.025  27.269  1.00  0.00    -0.460 OA
BRANCH  80  81
ATOM     81  C   UNL A   1      33.860  30.392  27.198  1.00  0.00     0.338 C 
ATOM     82  O   UNL A   1      33.362  31.438  27.571  1.00  0.00    -0.246 OA
BRANCH  81  83
ATOM     83  C   UNL A   1      33.161  29.377  26.371  1.00  0.00     0.067 A 
ATOM     84  C   UNL A   1      33.554  28.027  26.469  1.00  0.00     0.025 A 
ATOM     85  C   UNL A   1      32.062  29.738  25.592  1.00  0.00     0.101 A 
ATOM     86  C   UNL A   1      32.815  27.014  25.834  1.00  0.00    -0.011 A 
ATOM     87  C   UNL A   1      31.364  28.737  24.908  1.00  0.00     0.270 A 
ATOM     88  C   UNL A   1      31.715  27.383  25.046  1.00  0.00     0.094 A 
BRANCH  86  89
ATOM     89  C   UNL A   1      33.231  25.608  25.908  1.00  0.00    -0.018 A 
ATOM     90  C   UNL A   1      34.516  25.172  25.550  1.00  0.00     0.009 A 
ATOM     91  C   UNL A   1      32.312  24.658  26.374  1.00  0.00     0.009 A 
ATOM     92  C   UNL A   1      34.865  23.814  25.651  1.00  0.00     0.014 A 
ATOM     93  C   UNL A   1      32.656  23.308  26.476  1.00  0.00     0.014 A 
ATOM     94  C   UNL A   1      33.935  22.869  26.113  1.00  0.00     0.056 A 
BRANCH  94  95
ATOM     95  C   UNL A   1      34.301  21.406  26.215  1.00  0.00     0.416 C 
ATOM     96  F   UNL A   1      34.024  20.713  25.078  1.00  0.00    -0.166 F 
ATOM     97  F   UNL A   1      35.628  21.217  26.458  1.00  0.00    -0.166 F 
ATOM     98  F   UNL A   1      33.647  20.753  27.219  1.00  0.00    -0.166 F 
ENDBRANCH  94  95
ENDBRANCH  86  89
BRANCH  87  99
ATOM     99  N   UNL A   1      30.276  29.108  23.995  1.00  0.00     0.062 N 
ATOM    100  O   UNL A   1      29.550  28.199  23.567  1.00  0.00    -0.258 OA
ATOM    101  O   UNL A   1      30.166  30.301  23.683  1.00  0.00    -0.258 OA
ENDBRANCH  87  99
ENDBRANCH  81  83
ENDBRANCH  80  81
ENDBRANCH  79  80
ENDBRANCH  78  79
ENDBRANCH  77  78
ENDBRANCH  76  77
ENDBRANCH  75  76
ENDBRANCH  74  75
ENDBRANCH   1  74
TORSDOF 26
ENDMDL
MODEL 2
REMARK VINA RESULT:      -8.8      8.267     11.539
REMARK SMILES O=C(OCCOCCOCCOCCOC(=O)c1cc(-c2ccc(C(F)(F)F)cc2)cc([N+](=O)[O-])c1)c1ccc(-c2c3nc(c(-c4cc(S(=O)(=O)[O-])ccc4F)c4ccc([nH]4)c(-c4cc(S(=O)(=O)[O-])ccc4F)c4nc(c(-c5cc(S(=O)(=O)[O-])ccc5F)c5ccc2[nH]5)C=C4)C=C3)cc1
REMARK SMILES IDX 8 1 7 2 6 3 5 4 4 5 3 6 2 7 1 8 37 9 38 10 99 11 39 12 98 13
REMARK SMILES IDX 40 14 41 15 42 16 92 17 43 18 97 19 91 20 93 21 44 22 96 23
REMARK SMILES IDX 90 24 89 25 45 27 77 28 57 29 76 30 58 31 61 32 75 33 94 34
REMARK SMILES IDX 59 35 60 36 74 38 95 39 62 40 46 41 47 42 55 43 48 44 54 45
REMARK SMILES IDX 56 46 53 47 49 48 50 49 51 50 52 51 78 52 79 53 87 54 80 55
REMARK SMILES IDX 86 56 88 57 85 58 81 59 82 60 83 61 84 62 63 63 64 64 72 65
REMARK SMILES IDX 65 66 71 67 73 68 70 69 66 70 67 71 68 72 69 73 9 74 10 75
REMARK SMILES IDX 11 76 12 77 13 78 14 79 15 80 16 81 17 82 18 83 19 84 36 85
REMARK SMILES IDX 20 86 32 87 31 88 21 89 22 90 30 91 23 92 29 93 24 94 25 95
REMARK SMILES IDX 26 96 27 97 28 98 33 99 34 100 35 101
REMARK H PARENT 93 26 61 37
REMARK Flexibility Score: inf
ROOT
ATOM      1  C   UNL A   1      39.041  22.118  26.107  1.00  0.00     0.188 C 
ENDROOT
BRANCH   1   2
ATOM      2  C   UNL A   1      39.951  22.854  27.091  1.00  0.00     0.188 C 
BRANCH   2   3
ATOM      3  O   UNL A   1      39.488  24.177  27.353  1.00  0.00    -0.376 OA
BRANCH   3   4
ATOM      4  C   UNL A   1      40.217  25.241  26.740  1.00  0.00     0.202 C 
BRANCH   4   5
ATOM      5  C   UNL A   1      41.482  24.822  25.990  1.00  0.00     0.261 C 
BRANCH   5   6
ATOM      6  O   UNL A   1      41.834  25.728  24.936  1.00  0.00    -0.460 OA
BRANCH   6   7
ATOM      7  C   UNL A   1      42.630  26.825  25.017  1.00  0.00     0.338 C 
ATOM      8  O   UNL A   1      42.152  27.910  24.683  1.00  0.00    -0.246 OA
BRANCH   7   9
ATOM      9  C   UNL A   1      44.057  26.801  25.468  1.00  0.00     0.060 A 
ATOM     10  C   UNL A   1      44.737  27.862  26.066  1.00  0.00     0.016 A 
ATOM     11  C   UNL A   1      44.740  25.579  25.348  1.00  0.00     0.016 A 
ATOM     12  C   UNL A   1      46.053  27.755  26.480  1.00  0.00     0.010 A 
ATOM     13  C   UNL A   1      46.065  25.450  25.775  1.00  0.00     0.010 A 
ATOM     14  C   UNL A   1      46.729  26.554  26.318  1.00  0.00    -0.014 A 
BRANCH  14  15
ATOM     15  C   UNL A   1      48.184  26.578  26.532  1.00  0.00     0.031 A 
ATOM     16  C   UNL A   1      49.042  26.905  25.348  1.00  0.00     0.074 A 
ATOM     17  C   UNL A   1      48.682  26.493  27.778  1.00  0.00     0.049 A 
ATOM     18  N   UNL A   1      50.340  26.927  25.244  1.00  0.00    -0.248 NA
ATOM     19  C   UNL A   1      48.331  27.277  24.110  1.00  0.00     0.031 C 
ATOM     20  C   UNL A   1      47.881  26.363  29.000  1.00  0.00     0.029 A 
ATOM     21  N   UNL A   1      49.971  26.539  28.232  1.00  0.00    -0.354 N 
ATOM     22  C   UNL A   1      50.602  27.275  23.924  1.00  0.00     0.074 A 
ATOM     23  C   UNL A   1      49.330  27.454  23.263  1.00  0.00     0.031 C 
ATOM     24  C   UNL A   1      48.701  26.347  30.062  1.00  0.00     0.029 A 
ATOM     25  C   UNL A   1      50.081  26.375  29.594  1.00  0.00     0.049 A 
ATOM     26  H   UNL A   1      50.747  26.675  27.640  1.00  0.00     0.167 HD
ATOM     27  C   UNL A   1      51.808  27.415  23.328  1.00  0.00     0.034 A 
ATOM     28  C   UNL A   1      51.182  26.210  30.351  1.00  0.00     0.034 A 
ATOM     29  C   UNL A   1      53.043  27.215  24.040  1.00  0.00     0.049 A 
ATOM     30  C   UNL A   1      52.514  26.232  29.637  1.00  0.00     0.074 A 
ATOM     31  C   UNL A   1      54.336  27.236  23.557  1.00  0.00     0.029 A 
ATOM     32  N   UNL A   1      53.127  26.952  25.405  1.00  0.00    -0.354 N 
ATOM     33  N   UNL A   1      52.763  26.456  28.363  1.00  0.00    -0.248 NA
ATOM     34  C   UNL A   1      53.706  25.971  30.447  1.00  0.00     0.031 C 
ATOM     35  C   UNL A   1      55.194  26.914  24.613  1.00  0.00     0.029 A 
ATOM     36  C   UNL A   1      54.447  26.780  25.776  1.00  0.00     0.049 A 
ATOM     37  H   UNL A   1      52.356  26.897  26.016  1.00  0.00     0.167 HD
ATOM     38  C   UNL A   1      54.145  26.389  28.227  1.00  0.00     0.074 A 
ATOM     39  C   UNL A   1      54.672  26.127  29.554  1.00  0.00     0.031 C 
ATOM     40  C   UNL A   1      54.917  26.525  27.118  1.00  0.00     0.034 A 
BRANCH  27  41
ATOM     41  C   UNL A   1      51.817  27.672  21.844  1.00  0.00     0.023 A 
ATOM     42  C   UNL A   1      51.695  26.636  20.900  1.00  0.00     0.031 A 
ATOM     43  C   UNL A   1      52.044  28.974  21.364  1.00  0.00     0.131 A 
ATOM     44  C   UNL A   1      51.869  26.910  19.534  1.00  0.00     0.055 A 
ATOM     45  C   UNL A   1      52.137  29.253  20.000  1.00  0.00     0.041 A 
ATOM     46  F   UNL A   1      52.211  29.996  22.218  1.00  0.00    -0.206 F 
ATOM     47  C   UNL A   1      52.064  28.216  19.076  1.00  0.00     0.022 A 
BRANCH  44  48
ATOM     48  S   UNL A   1      51.988  25.519  18.374  1.00  0.00     0.124 S 
ATOM     49  O   UNL A   1      53.436  25.368  18.243  1.00  0.00    -0.237 OA
ATOM     50  O   UNL A   1      51.298  24.451  19.088  1.00  0.00    -0.237 OA
ATOM     51  O   UNL A   1      51.309  26.010  17.178  1.00  0.00    -0.744 OA
ENDBRANCH  44  48
ENDBRANCH  27  41
BRANCH  28  52
ATOM     52  C   UNL A   1      51.085  25.916  31.813  1.00  0.00     0.023 A 
ATOM     53  C   UNL A   1      50.915  24.604  32.287  1.00  0.00     0.031 A 
ATOM     54  C   UNL A   1      51.077  26.956  32.763  1.00  0.00     0.131 A 
ATOM     55  C   UNL A   1      50.685  24.376  33.654  1.00  0.00     0.055 A 
ATOM     56  C   UNL A   1      50.918  26.717  34.130  1.00  0.00     0.041 A 
ATOM     57  F   UNL A   1      51.222  28.234  32.376  1.00  0.00    -0.206 F 
ATOM     58  C   UNL A   1      50.700  25.420  34.581  1.00  0.00     0.022 A 
BRANCH  55  59
ATOM     59  S   UNL A   1      50.231  22.702  34.191  1.00  0.00     0.124 S 
ATOM     60  O   UNL A   1      50.668  21.899  33.055  1.00  0.00    -0.237 OA
ATOM     61  O   UNL A   1      51.009  22.558  35.416  1.00  0.00    -0.237 OA
ATOM     62  O   UNL A   1      48.785  22.785  34.378  1.00  0.00    -0.744 OA
ENDBRANCH  55  59
ENDBRANCH  28  52
BRANCH  40  63
ATOM     63  C   UNL A   1      56.406  26.447  27.320  1.00  0.00     0.023 A 
ATOM     64  C   UNL A   1      57.145  27.545  27.789  1.00  0.00     0.031 A 
ATOM     65  C   UNL A   1      57.090  25.250  27.042  1.00  0.00     0.131 A 
ATOM     66  C   UNL A   1      58.537  27.442  27.910  1.00  0.00     0.055 A 
ATOM     67  C   UNL A   1      58.464  25.132  27.234  1.00  0.00     0.041 A 
ATOM     68  F   UNL A   1      56.426  24.173  26.590  1.00  0.00    -0.206 F 
ATOM     69  C   UNL A   1      59.198  26.236  27.657  1.00  0.00     0.022 A 
BRANCH  66  70
ATOM     70  S   UNL A   1      59.483  28.936  28.304  1.00  0.00     0.124 S 
ATOM     71  O   UNL A   1      60.221  28.520  29.493  1.00  0.00    -0.237 OA
ATOM     72  O   UNL A   1      60.278  29.131  27.097  1.00  0.00    -0.237 OA
ATOM     73  O   UNL A   1      58.450  29.943  28.535  1.00  0.00    -0.744 OA
ENDBRANCH  66  70
ENDBRANCH  40  63
ENDBRANCH  14  15
ENDBRANCH   7   9
ENDBRANCH   6   7
ENDBRANCH   5   6
ENDBRANCH   4   5
ENDBRANCH   3   4
ENDBRANCH   2   3
ENDBRANCH   1   2
BRANCH   1  74
ATOM     74  O   UNL A   1      37.814  22.774  25.797  1.00  0.00    -0.377 OA
BRANCH  74  75
ATOM     75  C   UNL A   1      36.924  22.079  24.931  1.00  0.00     0.188 C 
BRANCH  75  76
ATOM     76  C   UNL A   1      35.689  22.811  24.354  1.00  0.00     0.188 C 
BRANCH  76  77
ATOM     77  O   UNL A   1      34.452  22.147  24.562  1.00  0.00    -0.376 OA
BRANCH  77  78
ATOM     78  C   UNL A   1      34.092  21.938  25.924  1.00  0.00     0.202 C 
BRANCH  78  79
ATOM     79  C   UNL A   1      32.624  22.240  26.258  1.00  0.00     0.261 C 
BRANCH  79  80
ATOM     80  O   UNL A   1      32.366  23.534  26.843  1.00  0.00    -0.460 OA
BRANCH  80  81
ATOM     81  C   UNL A   1      31.283  24.228  26.429  1.00  0.00     0.338 C 
ATOM     82  O   UNL A   1      30.126  24.073  26.772  1.00  0.00    -0.246 OA
BRANCH  81  83
ATOM     83  C   UNL A   1      31.778  25.381  25.637  1.00  0.00     0.067 A 
ATOM     84  C   UNL A   1      32.254  26.522  26.314  1.00  0.00     0.025 A 
ATOM     85  C   UNL A   1      31.871  25.294  24.248  1.00  0.00     0.101 A 
ATOM     86  C   UNL A   1      32.883  27.565  25.613  1.00  0.00    -0.011 A 
ATOM     87  C   UNL A   1      32.439  26.360  23.543  1.00  0.00     0.270 A 
ATOM     88  C   UNL A   1      32.967  27.476  24.216  1.00  0.00     0.094 A 
BRANCH  86  89
ATOM     89  C   UNL A   1      33.359  28.769  26.306  1.00  0.00    -0.018 A 
ATOM     90  C   UNL A   1      32.801  30.040  26.100  1.00  0.00     0.009 A 
ATOM     91  C   UNL A   1      34.407  28.645  27.229  1.00  0.00     0.009 A 
ATOM     92  C   UNL A   1      33.289  31.157  26.799  1.00  0.00     0.014 A 
ATOM     93  C   UNL A   1      34.894  29.753  27.925  1.00  0.00     0.014 A 
ATOM     94  C   UNL A   1      34.343  31.023  27.717  1.00  0.00     0.056 A 
BRANCH  94  95
ATOM     95  C   UNL A   1      34.878  32.224  28.463  1.00  0.00     0.416 C 
ATOM     96  F   UNL A   1      34.071  32.610  29.487  1.00  0.00    -0.166 F 
ATOM     97  F   UNL A   1      36.102  31.992  29.014  1.00  0.00    -0.166 F 
ATOM     98  F   UNL A   1      35.033  33.326  27.674  1.00  0.00    -0.166 F 
ENDBRANCH  94  95
ENDBRANCH  86  89
BRANCH  87  99
ATOM     99  N   UNL A   1      32.444  26.338  22.076  1.00  0.00     0.062 N 
ATOM    100  O   UNL A   1      31.348  26.342  21.497  1.00  0.00    -0.258 OA
ATOM    101  O   UNL A   1      33.540  26.286  21.503  1.00  0.00    -0.258 OA
ENDBRANCH  87  99
ENDBRANCH  81  83
ENDBRANCH  80  81
ENDBRANCH  79  80
ENDBRANCH  78  79
ENDBRANCH  77  78
ENDBRANCH  76  77
ENDBRANCH  75  76
ENDBRANCH  74  75
ENDBRANCH   1  74
TORSDOF 26
ENDMDL
MODEL 3
REMARK VINA RESULT:      -8.7      3.883      8.910
REMARK SMILES O=C(OCCOCCOCCOCCOC(=O)c1cc(-c2ccc(C(F)(F)F)cc2)cc([N+](=O)[O-])c1)c1ccc(-c2c3nc(c(-c4cc(S(=O)(=O)[O-])ccc4F)c4ccc([nH]4)c(-c4cc(S(=O)(=O)[O-])ccc4F)c4nc(c(-c5cc(S(=O)(=O)[O-])ccc5F)c5ccc2[nH]5)C=C4)C=C3)cc1
REMARK SMILES IDX 8 1 7 2 6 3 5 4 4 5 3 6 2 7 1 8 37 9 38 10 99 11 39 12 98 13
REMARK SMILES IDX 40 14 41 15 42 16 92 17 43 18 97 19 91 20 93 21 44 22 96 23
REMARK SMILES IDX 90 24 89 25 45 27 77 28 57 29 76 30 58 31 61 32 75 33 94 34
REMARK SMILES IDX 59 35 60 36 74 38 95 39 62 40 46 41 47 42 55 43 48 44 54 45
REMARK SMILES IDX 56 46 53 47 49 48 50 49 51 50 52 51 78 52 79 53 87 54 80 55
REMARK SMILES IDX 86 56 88 57 85 58 81 59 82 60 83 61 84 62 63 63 64 64 72 65
REMARK SMILES IDX 65 66 71 67 73 68 70 69 66 70 67 71 68 72 69 73 9 74 10 75
REMARK SMILES IDX 11 76 12 77 13 78 14 79 15 80 16 81 17 82 18 83 19 84 36 85
REMARK SMILES IDX 20 86 32 87 31 88 21 89 22 90 30 91 23 92 29 93 24 94 25 95
REMARK SMILES IDX 26 96 27 97 28 98 33 99 34 100 35 101
REMARK H PARENT 93 26 61 37
REMARK Flexibility Score: inf
ROOT
ATOM      1  C   UNL A   1      37.050  22.014  24.287  1.00  0.00     0.188 C 
ENDROOT
BRANCH   1   2
ATOM      2  C   UNL A   1      37.526  21.693  25.704  1.00  0.00     0.188 C 
BRANCH   2   3
ATOM      3  O   UNL A   1      38.646  20.811  25.700  1.00  0.00    -0.376 OA
BRANCH   3   4
ATOM      4  C   UNL A   1      39.870  21.330  26.220  1.00  0.00     0.202 C 
BRANCH   4   5
ATOM      5  C   UNL A   1      41.133  20.576  25.799  1.00  0.00     0.261 C 
BRANCH   5   6
ATOM      6  O   UNL A   1      42.340  21.237  26.201  1.00  0.00    -0.460 OA
BRANCH   6   7
ATOM      7  C   UNL A   1      42.722  22.508  25.916  1.00  0.00     0.338 C 
ATOM      8  O   UNL A   1      42.939  22.795  24.739  1.00  0.00    -0.246 OA
BRANCH   7   9
ATOM      9  C   UNL A   1      42.917  23.581  26.943  1.00  0.00     0.060 A 
ATOM     10  C   UNL A   1      44.064  24.360  27.095  1.00  0.00     0.016 A 
ATOM     11  C   UNL A   1      41.818  23.876  27.767  1.00  0.00     0.016 A 
ATOM     12  C   UNL A   1      44.159  25.353  28.054  1.00  0.00     0.010 A 
ATOM     13  C   UNL A   1      41.893  24.887  28.731  1.00  0.00     0.010 A 
ATOM     14  C   UNL A   1      43.081  25.607  28.890  1.00  0.00    -0.014 A 
BRANCH  14  15
ATOM     15  C   UNL A   1      43.330  26.482  30.046  1.00  0.00     0.031 A 
ATOM     16  C   UNL A   1      44.023  25.870  31.226  1.00  0.00     0.074 A 
ATOM     17  C   UNL A   1      43.107  27.803  29.950  1.00  0.00     0.049 A 
ATOM     18  N   UNL A   1      44.300  26.391  32.387  1.00  0.00    -0.248 NA
ATOM     19  C   UNL A   1      44.482  24.478  31.064  1.00  0.00     0.031 C 
ATOM     20  C   UNL A   1      42.608  28.490  28.753  1.00  0.00     0.029 A 
ATOM     21  N   UNL A   1      43.303  28.812  30.852  1.00  0.00    -0.354 N 
ATOM     22  C   UNL A   1      44.929  25.382  33.107  1.00  0.00     0.074 A 
ATOM     23  C   UNL A   1      44.992  24.218  32.255  1.00  0.00     0.031 C 
ATOM     24  C   UNL A   1      42.545  29.808  28.999  1.00  0.00     0.029 A 
ATOM     25  C   UNL A   1      42.911  30.048  30.389  1.00  0.00     0.049 A 
ATOM     26  H   UNL A   1      43.685  28.668  31.748  1.00  0.00     0.167 HD
ATOM     27  C   UNL A   1      45.395  25.437  34.375  1.00  0.00     0.034 A 
ATOM     28  C   UNL A   1      42.813  31.218  31.048  1.00  0.00     0.034 A 
ATOM     29  C   UNL A   1      45.295  26.627  35.178  1.00  0.00     0.049 A 
ATOM     30  C   UNL A   1      43.209  31.219  32.506  1.00  0.00     0.074 A 
ATOM     31  C   UNL A   1      45.642  26.813  36.502  1.00  0.00     0.029 A 
ATOM     32  N   UNL A   1      44.803  27.845  34.716  1.00  0.00    -0.354 N 
ATOM     33  N   UNL A   1      43.708  30.235  33.225  1.00  0.00    -0.248 NA
ATOM     34  C   UNL A   1      43.024  32.470  33.244  1.00  0.00     0.031 C 
ATOM     35  C   UNL A   1      45.290  28.119  36.859  1.00  0.00     0.029 A 
ATOM     36  C   UNL A   1      44.809  28.778  35.736  1.00  0.00     0.049 A 
ATOM     37  H   UNL A   1      44.496  28.016  33.796  1.00  0.00     0.167 HD
ATOM     38  C   UNL A   1      43.920  30.759  34.495  1.00  0.00     0.074 A 
ATOM     39  C   UNL A   1      43.518  32.152  34.432  1.00  0.00     0.031 C 
ATOM     40  C   UNL A   1      44.399  30.158  35.615  1.00  0.00     0.034 A 
BRANCH  27  41
ATOM     41  C   UNL A   1      45.920  24.157  34.972  1.00  0.00     0.023 A 
ATOM     42  C   UNL A   1      47.286  23.822  34.949  1.00  0.00     0.031 A 
ATOM     43  C   UNL A   1      45.020  23.211  35.494  1.00  0.00     0.131 A 
ATOM     44  C   UNL A   1      47.701  22.550  35.374  1.00  0.00     0.055 A 
ATOM     45  C   UNL A   1      45.448  21.979  35.990  1.00  0.00     0.041 A 
ATOM     46  F   UNL A   1      43.701  23.458  35.504  1.00  0.00    -0.206 F 
ATOM     47  C   UNL A   1      46.795  21.636  35.919  1.00  0.00     0.022 A 
BRANCH  44  48
ATOM     48  S   UNL A   1      49.418  22.045  35.069  1.00  0.00     0.124 S 
ATOM     49  O   UNL A   1      50.140  23.290  35.320  1.00  0.00    -0.237 OA
ATOM     50  O   UNL A   1      49.617  20.985  36.049  1.00  0.00    -0.237 OA
ATOM     51  O   UNL A   1      49.405  21.611  33.674  1.00  0.00    -0.744 OA
ENDBRANCH  44  48
ENDBRANCH  27  41
BRANCH  28  52
ATOM     52  C   UNL A   1      42.238  32.433  30.394  1.00  0.00     0.023 A 
ATOM     53  C   UNL A   1      43.046  33.330  29.676  1.00  0.00     0.031 A 
ATOM     54  C   UNL A   1      40.878  32.763  30.547  1.00  0.00     0.131 A 
ATOM     55  C   UNL A   1      42.503  34.534  29.195  1.00  0.00     0.055 A 
ATOM     56  C   UNL A   1      40.327  33.928  30.006  1.00  0.00     0.041 A 
ATOM     57  F   UNL A   1      40.052  31.955  31.233  1.00  0.00    -0.206 F 
ATOM     58  C   UNL A   1      41.147  34.832  29.341  1.00  0.00     0.022 A 
BRANCH  55  59
ATOM     59  S   UNL A   1      43.626  35.772  28.487  1.00  0.00     0.124 S 
ATOM     60  O   UNL A   1      42.998  36.039  27.198  1.00  0.00    -0.237 OA
ATOM     61  O   UNL A   1      43.552  36.845  29.472  1.00  0.00    -0.237 OA
ATOM     62  O   UNL A   1      44.907  35.072  28.424  1.00  0.00    -0.744 OA
ENDBRANCH  55  59
ENDBRANCH  28  52
BRANCH  40  63
ATOM     63  C   UNL A   1      44.558  31.030  36.831  1.00  0.00     0.023 A 
ATOM     64  C   UNL A   1      43.504  31.233  37.736  1.00  0.00     0.031 A 
ATOM     65  C   UNL A   1      45.788  31.664  37.084  1.00  0.00     0.131 A 
ATOM     66  C   UNL A   1      43.681  32.097  38.824  1.00  0.00     0.055 A 
ATOM     67  C   UNL A   1      45.981  32.464  38.208  1.00  0.00     0.041 A 
ATOM     68  F   UNL A   1      46.825  31.501  36.246  1.00  0.00    -0.206 F 
ATOM     69  C   UNL A   1      44.920  32.696  39.078  1.00  0.00     0.022 A 
BRANCH  66  70
ATOM     70  S   UNL A   1      42.243  32.508  39.845  1.00  0.00     0.124 S 
ATOM     71  O   UNL A   1      42.503  33.903  40.186  1.00  0.00    -0.237 OA
ATOM     72  O   UNL A   1      41.132  32.273  38.930  1.00  0.00    -0.237 OA
ATOM     73  O   UNL A   1      42.336  31.569  40.961  1.00  0.00    -0.744 OA
ENDBRANCH  66  70
ENDBRANCH  40  63
ENDBRANCH  14  15
ENDBRANCH   7   9
ENDBRANCH   6   7
ENDBRANCH   5   6
ENDBRANCH   4   5
ENDBRANCH   3   4
ENDBRANCH   2   3
ENDBRANCH   1   2
BRANCH   1  74
ATOM     74  O   UNL A   1      36.341  23.241  24.139  1.00  0.00    -0.377 OA
BRANCH  74  75
ATOM     75  C   UNL A   1      36.144  24.007  25.322  1.00  0.00     0.188 C 
BRANCH  75  76
ATOM     76  C   UNL A   1      34.874  24.880  25.467  1.00  0.00     0.188 C 
BRANCH  76  77
ATOM     77  O   UNL A   1      34.310  25.319  24.240  1.00  0.00    -0.376 OA
BRANCH  77  78
ATOM     78  C   UNL A   1      34.274  26.730  24.054  1.00  0.00     0.202 C 
BRANCH  78  79
ATOM     79  C   UNL A   1      33.670  27.190  22.718  1.00  0.00     0.261 C 
BRANCH  79  80
ATOM     80  O   UNL A   1      33.734  26.236  21.637  1.00  0.00    -0.460 OA
BRANCH  80  81
ATOM     81  C   UNL A   1      32.580  25.736  21.144  1.00  0.00     0.338 C 
ATOM     82  O   UNL A   1      32.216  25.715  19.983  1.00  0.00    -0.246 OA
BRANCH  81  83
ATOM     83  C   UNL A   1      31.912  25.002  22.247  1.00  0.00     0.067 A 
ATOM     84  C   UNL A   1      32.262  23.658  22.485  1.00  0.00     0.025 A 
ATOM     85  C   UNL A   1      31.033  25.665  23.104  1.00  0.00     0.101 A 
ATOM     86  C   UNL A   1      31.781  22.978  23.617  1.00  0.00    -0.011 A 
ATOM     87  C   UNL A   1      30.503  24.969  24.195  1.00  0.00     0.270 A 
ATOM     88  C   UNL A   1      30.891  23.646  24.470  1.00  0.00     0.094 A 
BRANCH  86  89
ATOM     89  C   UNL A   1      32.119  21.570  23.859  1.00  0.00    -0.018 A 
ATOM     90  C   UNL A   1      32.143  20.604  22.842  1.00  0.00     0.009 A 
ATOM     91  C   UNL A   1      32.451  21.172  25.162  1.00  0.00     0.009 A 
ATOM     92  C   UNL A   1      32.484  19.271  23.128  1.00  0.00     0.014 A 
ATOM     93  C   UNL A   1      32.791  19.848  25.449  1.00  0.00     0.014 A 
ATOM     94  C   UNL A   1      32.809  18.881  24.437  1.00  0.00     0.056 A 
BRANCH  94  95
ATOM     95  C   UNL A   1      33.167  17.447  24.752  1.00  0.00     0.416 C 
ATOM     96  F   UNL A   1      34.502  17.266  24.941  1.00  0.00    -0.166 F 
ATOM     97  F   UNL A   1      32.561  16.994  25.885  1.00  0.00    -0.166 F 
ATOM     98  F   UNL A   1      32.807  16.571  23.769  1.00  0.00    -0.166 F 
ENDBRANCH  94  95
ENDBRANCH  86  89
BRANCH  87  99
ATOM     99  N   UNL A   1      29.491  25.611  25.041  1.00  0.00     0.062 N 
ATOM    100  O   UNL A   1      28.588  26.246  24.477  1.00  0.00    -0.258 OA
ATOM    101  O   UNL A   1      29.613  25.506  26.269  1.00  0.00    -0.258 OA
ENDBRANCH  87  99
ENDBRANCH  81  83
ENDBRANCH  80  81
ENDBRANCH  79  80
ENDBRANCH  78  79
ENDBRANCH  77  78
ENDBRANCH  76  77
ENDBRANCH  75  76
ENDBRANCH  74  75
ENDBRANCH   1  74
TORSDOF 26
ENDMDL
