MODEL 1
REMARK VINA RESULT:     -10.5      0.000      0.000
REMARK SMILES C[C@@H]1CN(C(=O)Nc2ccc(O)c(C(=O)OCCOCCOCCOCCOC(=O)c3ccc(-c4c5nc(c(-c6cc(S(=O)(=O)[O-])ccc6F)c6ccc([nH]6)c(-c6cc(S(=O)(=O)[O-])ccc6F)c6nc(c(-c7cc(S(=O)(=O)[O-])ccc7F)c7ccc4[nH]7)C=C6)C=C5)cc3)c2)C[C@@H]1C
REMARK SMILES IDX 23 1 22 2 21 3 20 4 19 5 18 6 17 7 16 8 14 9 15 10 13 11
REMARK SMILES IDX 8 12 9 13 94 14 10 15 11 16 7 17 5 18 6 19 4 21 1 22 2 23
REMARK SMILES IDX 3 24 96 25 95 26 97 27 12 28 24 30 25 31 26 32 27 33 28 34
REMARK SMILES IDX 29 35 30 36 31 37 32 38 93 39 33 40 92 41 34 42 35 43 36 44
REMARK SMILES IDX 86 45 37 46 91 47 85 48 87 49 38 50 90 51 84 52 83 53 39 55
REMARK SMILES IDX 71 56 51 57 70 58 52 59 55 60 69 61 88 62 53 63 54 64 68 66
REMARK SMILES IDX 89 67 56 68 40 69 41 70 49 71 42 72 48 73 50 74 47 75 43 76
REMARK SMILES IDX 44 77 45 78 46 79 72 80 73 81 81 82 74 83 80 84 82 85 79 86
REMARK SMILES IDX 75 87 76 88 77 89 78 90 57 91 58 92 66 93 59 94 65 95 67 96
REMARK SMILES IDX 64 97 60 98 61 99 62 100 63 101
REMARK H PARENT 7 20 12 29 87 54 55 65
REMARK Flexibility Score: inf
ROOT
ATOM      1  C   UNL A   1      33.276  28.901  27.156  1.00  0.00     0.188 C 
ENDROOT
BRANCH   1   2
ATOM      2  O   UNL A   1      32.215  28.183  27.781  1.00  0.00    -0.377 OA
BRANCH   2   3
ATOM      3  C   UNL A   1      31.393  27.324  27.005  1.00  0.00     0.188 C 
BRANCH   3   4
ATOM      4  C   UNL A   1      31.938  25.963  26.512  1.00  0.00     0.188 C 
BRANCH   4   5
ATOM      5  O   UNL A   1      31.135  24.853  26.854  1.00  0.00    -0.376 OA
BRANCH   5   6
ATOM      6  C   UNL A   1      31.673  23.545  26.877  1.00  0.00     0.202 C 
BRANCH   6   7
ATOM      7  C   UNL A   1      30.829  22.313  26.520  1.00  0.00     0.261 C 
BRANCH   7   8
ATOM      8  O   UNL A   1      31.037  21.781  25.215  1.00  0.00    -0.460 OA
BRANCH   8   9
ATOM      9  C   UNL A   1      32.060  20.919  25.037  1.00  0.00     0.342 C 
ATOM     10  O   UNL A   1      32.045  19.712  25.221  1.00  0.00    -0.246 OA
BRANCH   9  11
ATOM     11  C   UNL A   1      33.118  21.634  24.292  1.00  0.00     0.103 A 
ATOM     12  C   UNL A   1      33.658  23.182  22.525  1.00  0.00     0.044 A 
ATOM     13  C   UNL A   1      34.976  23.254  22.986  1.00  0.00     0.030 A 
ATOM     14  C   UNL A   1      32.708  22.440  23.221  1.00  0.00     0.045 A 
ATOM     15  C   UNL A   1      35.386  22.457  24.056  1.00  0.00     0.049 A 
ATOM     16  C   UNL A   1      34.464  21.618  24.681  1.00  0.00     0.130 A 
BRANCH  12  17
ATOM     17  N   UNL A   1      33.282  23.793  21.330  1.00  0.00    -0.308 N 
ATOM     18  C   UNL A   1      32.675  24.999  21.121  1.00  0.00     0.321 C 
ATOM     19  O   UNL A   1      32.293  25.245  19.974  1.00  0.00    -0.248 OA
ATOM     20  H   UNL A   1      33.483  23.279  20.515  1.00  0.00     0.171 HD
BRANCH  18  21
ATOM     21  N   UNL A   1      32.624  25.948  22.113  1.00  0.00    -0.324 N 
ATOM     22  C   UNL A   1      33.363  29.289  23.569  1.00  0.00     0.010 C 
ATOM     23  C   UNL A   1      32.891  27.844  23.523  1.00  0.00     0.010 C 
ATOM     24  C   UNL A   1      33.516  27.073  22.370  1.00  0.00     0.125 C 
ATOM     25  C   UNL A   1      31.394  27.569  23.334  1.00  0.00     0.010 C 
ATOM     26  C   UNL A   1      31.424  26.082  22.933  1.00  0.00     0.125 C 
ATOM     27  C   UNL A   1      30.707  28.420  22.259  1.00  0.00     0.010 C 
ENDBRANCH  18  21
ENDBRANCH  12  17
BRANCH  16  28
ATOM     28  O   UNL A   1      34.889  20.766  25.657  1.00  0.00    -0.507 OA
ATOM     29  H   UNL A   1      35.792  20.751  25.906  1.00  0.00     0.293 HD
ENDBRANCH  16  28
ENDBRANCH   9  11
ENDBRANCH   8   9
ENDBRANCH   7   8
ENDBRANCH   6   7
ENDBRANCH   5   6
ENDBRANCH   4   5
ENDBRANCH   3   4
ENDBRANCH   2   3
ENDBRANCH   1   2
BRANCH   1  30
ATOM     30  C   UNL A   1      33.276  30.449  27.110  1.00  0.00     0.188 C 
BRANCH  30  31
ATOM     31  O   UNL A   1      32.047  31.032  26.707  1.00  0.00    -0.376 OA
BRANCH  31  32
ATOM     32  C   UNL A   1      31.902  32.430  26.878  1.00  0.00     0.202 C 
BRANCH  32  33
ATOM     33  C   UNL A   1      32.877  33.132  27.836  1.00  0.00     0.261 C 
BRANCH  33  34
ATOM     34  O   UNL A   1      32.817  34.566  27.872  1.00  0.00    -0.460 OA
BRANCH  34  35
ATOM     35  C   UNL A   1      33.095  35.171  29.052  1.00  0.00     0.338 C 
ATOM     36  O   UNL A   1      32.430  36.010  29.615  1.00  0.00    -0.246 OA
BRANCH  35  37
ATOM     37  C   UNL A   1      34.272  34.476  29.624  1.00  0.00     0.060 A 
ATOM     38  C   UNL A   1      34.119  33.691  30.774  1.00  0.00     0.016 A 
ATOM     39  C   UNL A   1      35.515  34.576  28.996  1.00  0.00     0.016 A 
ATOM     40  C   UNL A   1      35.215  33.007  31.304  1.00  0.00     0.010 A 
ATOM     41  C   UNL A   1      36.617  33.913  29.543  1.00  0.00     0.010 A 
ATOM     42  C   UNL A   1      36.477  33.140  30.710  1.00  0.00    -0.014 A 
BRANCH  42  43
ATOM     43  C   UNL A   1      37.689  32.621  31.391  1.00  0.00     0.031 A 
ATOM     44  C   UNL A   1      38.435  31.485  30.746  1.00  0.00     0.074 A 
ATOM     45  C   UNL A   1      38.112  33.133  32.561  1.00  0.00     0.049 A 
ATOM     46  N   UNL A   1      39.439  30.784  31.200  1.00  0.00    -0.248 NA
ATOM     47  C   UNL A   1      37.974  31.084  29.407  1.00  0.00     0.031 C 
ATOM     48  C   UNL A   1      37.512  34.274  33.250  1.00  0.00     0.029 A 
ATOM     49  N   UNL A   1      39.141  32.746  33.385  1.00  0.00    -0.354 N 
ATOM     50  C   UNL A   1      39.723  29.848  30.211  1.00  0.00     0.074 A 
ATOM     51  C   UNL A   1      38.768  30.058  29.144  1.00  0.00     0.031 C 
ATOM     52  C   UNL A   1      38.178  34.487  34.400  1.00  0.00     0.029 A 
ATOM     53  C   UNL A   1      39.213  33.466  34.555  1.00  0.00     0.049 A 
ATOM     54  H   UNL A   1      39.768  32.022  33.158  1.00  0.00     0.167 HD
ATOM     55  C   UNL A   1      40.692  28.900  30.199  1.00  0.00     0.034 A 
ATOM     56  C   UNL A   1      39.997  33.293  35.640  1.00  0.00     0.034 A 
ATOM     57  C   UNL A   1      41.629  28.698  31.276  1.00  0.00     0.049 A 
ATOM     58  C   UNL A   1      40.996  32.155  35.648  1.00  0.00     0.074 A 
ATOM     59  C   UNL A   1      42.663  27.782  31.356  1.00  0.00     0.029 A 
ATOM     60  N   UNL A   1      41.634  29.406  32.471  1.00  0.00    -0.354 N 
ATOM     61  N   UNL A   1      41.261  31.279  34.705  1.00  0.00    -0.248 NA
ATOM     62  C   UNL A   1      41.799  31.986  36.866  1.00  0.00     0.031 C 
ATOM     63  C   UNL A   1      43.232  27.875  32.629  1.00  0.00     0.029 A 
ATOM     64  C   UNL A   1      42.622  28.915  33.311  1.00  0.00     0.049 A 
ATOM     65  H   UNL A   1      41.026  30.149  32.689  1.00  0.00     0.167 HD
ATOM     66  C   UNL A   1      42.289  30.480  35.207  1.00  0.00     0.074 A 
ATOM     67  C   UNL A   1      42.603  30.989  36.526  1.00  0.00     0.031 C 
ATOM     68  C   UNL A   1      42.919  29.425  34.629  1.00  0.00     0.034 A 
BRANCH  55  69
ATOM     69  C   UNL A   1      40.740  27.966  29.013  1.00  0.00     0.023 A 
ATOM     70  C   UNL A   1      41.658  28.139  27.963  1.00  0.00     0.031 A 
ATOM     71  C   UNL A   1      39.838  26.890  28.930  1.00  0.00     0.131 A 
ATOM     72  C   UNL A   1      41.614  27.287  26.848  1.00  0.00     0.055 A 
ATOM     73  C   UNL A   1      39.854  25.998  27.858  1.00  0.00     0.041 A 
ATOM     74  F   UNL A   1      38.919  26.693  29.888  1.00  0.00    -0.206 F 
ATOM     75  C   UNL A   1      40.737  26.201  26.802  1.00  0.00     0.022 A 
BRANCH  72  76
ATOM     76  S   UNL A   1      42.623  27.698  25.399  1.00  0.00     0.124 S 
ATOM     77  O   UNL A   1      43.893  28.069  26.020  1.00  0.00    -0.237 OA
ATOM     78  O   UNL A   1      42.620  26.449  24.647  1.00  0.00    -0.237 OA
ATOM     79  O   UNL A   1      41.897  28.803  24.777  1.00  0.00    -0.744 OA
ENDBRANCH  72  76
ENDBRANCH  55  69
BRANCH  56  80
ATOM     80  C   UNL A   1      39.852  34.171  36.839  1.00  0.00     0.023 A 
ATOM     81  C   UNL A   1      39.312  33.677  38.037  1.00  0.00     0.031 A 
ATOM     82  C   UNL A   1      40.172  35.541  36.780  1.00  0.00     0.131 A 
ATOM     83  C   UNL A   1      39.057  34.551  39.105  1.00  0.00     0.055 A 
ATOM     84  C   UNL A   1      39.977  36.393  37.868  1.00  0.00     0.041 A 
ATOM     85  F   UNL A   1      40.680  36.073  35.657  1.00  0.00    -0.206 F 
ATOM     86  C   UNL A   1      39.400  35.903  39.035  1.00  0.00     0.022 A 
BRANCH  83  87
ATOM     87  S   UNL A   1      38.161  33.917  40.550  1.00  0.00     0.124 S 
ATOM     88  O   UNL A   1      37.912  35.141  41.303  1.00  0.00    -0.237 OA
ATOM     89  O   UNL A   1      36.994  33.295  39.932  1.00  0.00    -0.237 OA
ATOM     90  O   UNL A   1      39.111  32.989  41.159  1.00  0.00    -0.744 OA
ENDBRANCH  83  87
ENDBRANCH  56  80
BRANCH  68  91
ATOM     91  C   UNL A   1      44.049  28.784  35.403  1.00  0.00     0.023 A 
ATOM     92  C   UNL A   1      43.823  27.767  36.347  1.00  0.00     0.031 A 
ATOM     93  C   UNL A   1      45.376  29.203  35.192  1.00  0.00     0.131 A 
ATOM     94  C   UNL A   1      44.896  27.248  37.087  1.00  0.00     0.055 A 
ATOM     95  C   UNL A   1      46.449  28.632  35.880  1.00  0.00     0.041 A 
ATOM     96  F   UNL A   1      45.655  30.173  34.306  1.00  0.00    -0.206 F 
ATOM     97  C   UNL A   1      46.209  27.659  36.845  1.00  0.00     0.022 A 
BRANCH  94  98
ATOM     98  S   UNL A   1      44.543  26.103  38.449  1.00  0.00     0.124 S 
ATOM     99  O   UNL A   1      43.100  26.256  38.606  1.00  0.00    -0.237 OA
ATOM    100  O   UNL A   1      44.992  24.825  37.906  1.00  0.00    -0.237 OA
ATOM    101  O   UNL A   1      45.345  26.623  39.553  1.00  0.00    -0.744 OA
ENDBRANCH  94  98
ENDBRANCH  68  91
ENDBRANCH  42  43
ENDBRANCH  35  37
ENDBRANCH  34  35
ENDBRANCH  33  34
ENDBRANCH  32  33
ENDBRANCH  31  32
ENDBRANCH  30  31
ENDBRANCH   1  30
TORSDOF 26
ENDMDL
MODEL 2
REMARK VINA RESULT:     -10.4      1.869      7.539
REMARK SMILES C[C@@H]1CN(C(=O)Nc2ccc(O)c(C(=O)OCCOCCOCCOCCOC(=O)c3ccc(-c4c5nc(c(-c6cc(S(=O)(=O)[O-])ccc6F)c6ccc([nH]6)c(-c6cc(S(=O)(=O)[O-])ccc6F)c6nc(c(-c7cc(S(=O)(=O)[O-])ccc7F)c7ccc4[nH]7)C=C6)C=C5)cc3)c2)C[C@@H]1C
REMARK SMILES IDX 23 1 22 2 21 3 20 4 19 5 18 6 17 7 16 8 14 9 15 10 13 11
REMARK SMILES IDX 8 12 9 13 94 14 10 15 11 16 7 17 5 18 6 19 4 21 1 22 2 23
REMARK SMILES IDX 3 24 96 25 95 26 97 27 12 28 24 30 25 31 26 32 27 33 28 34
REMARK SMILES IDX 29 35 30 36 31 37 32 38 93 39 33 40 92 41 34 42 35 43 36 44
REMARK SMILES IDX 86 45 37 46 91 47 85 48 87 49 38 50 90 51 84 52 83 53 39 55
REMARK SMILES IDX 71 56 51 57 70 58 52 59 55 60 69 61 88 62 53 63 54 64 68 66
REMARK SMILES IDX 89 67 56 68 40 69 41 70 49 71 42 72 48 73 50 74 47 75 43 76
REMARK SMILES IDX 44 77 45 78 46 79 72 80 73 81 81 82 74 83 80 84 82 85 79 86
REMARK SMILES IDX 75 87 76 88 77 89 78 90 57 91 58 92 66 93 59 94 65 95 67 96
REMARK SMILES IDX 64 97 60 98 61 99 62 100 63 101
REMARK H PARENT 7 20 12 29 87 54 55 65
REMARK Flexibility Score: inf
ROOT
ATOM      1  C   UNL A   1      33.154  28.801  27.230  1.00  0.00     0.188 C 
ENDROOT
BRANCH   1   2
ATOM      2  O   UNL A   1      31.993  28.099  27.670  1.00  0.00    -0.377 OA
BRANCH   2   3
ATOM      3  C   UNL A   1      31.433  27.081  26.854  1.00  0.00     0.188 C 
BRANCH   3   4
ATOM      4  C   UNL A   1      32.289  25.862  26.436  1.00  0.00     0.188 C 
BRANCH   4   5
ATOM      5  O   UNL A   1      31.542  24.749  25.992  1.00  0.00    -0.376 OA
BRANCH   5   6
ATOM      6  C   UNL A   1      31.332  23.631  26.833  1.00  0.00     0.202 C 
BRANCH   6   7
ATOM      7  C   UNL A   1      30.556  22.394  26.360  1.00  0.00     0.261 C 
BRANCH   7   8
ATOM      8  O   UNL A   1      30.929  21.883  25.084  1.00  0.00    -0.460 OA
BRANCH   8   9
ATOM      9  C   UNL A   1      31.988  21.048  25.019  1.00  0.00     0.342 C 
ATOM     10  O   UNL A   1      32.012  19.866  25.321  1.00  0.00    -0.246 OA
BRANCH   9  11
ATOM     11  C   UNL A   1      33.040  21.728  24.234  1.00  0.00     0.103 A 
ATOM     12  C   UNL A   1      33.567  23.264  22.453  1.00  0.00     0.044 A 
ATOM     13  C   UNL A   1      34.904  23.284  22.860  1.00  0.00     0.030 A 
ATOM     14  C   UNL A   1      32.618  22.554  23.184  1.00  0.00     0.045 A 
ATOM     15  C   UNL A   1      35.327  22.467  23.910  1.00  0.00     0.049 A 
ATOM     16  C   UNL A   1      34.400  21.660  24.569  1.00  0.00     0.130 A 
BRANCH  12  17
ATOM     17  N   UNL A   1      33.165  23.895  21.277  1.00  0.00    -0.308 N 
ATOM     18  C   UNL A   1      32.606  25.128  21.096  1.00  0.00     0.321 C 
ATOM     19  O   UNL A   1      32.184  25.395  19.967  1.00  0.00    -0.248 OA
ATOM     20  H   UNL A   1      33.306  23.375  20.453  1.00  0.00     0.171 HD
BRANCH  18  21
ATOM     21  N   UNL A   1      32.643  26.075  22.090  1.00  0.00    -0.324 N 
ATOM     22  C   UNL A   1      33.761  29.289  23.589  1.00  0.00     0.010 C 
ATOM     23  C   UNL A   1      33.105  27.920  23.518  1.00  0.00     0.010 C 
ATOM     24  C   UNL A   1      33.666  27.072  22.386  1.00  0.00     0.125 C 
ATOM     25  C   UNL A   1      31.593  27.845  23.272  1.00  0.00     0.010 C 
ATOM     26  C   UNL A   1      31.441  26.368  22.865  1.00  0.00     0.125 C 
ATOM     27  C   UNL A   1      31.066  28.780  22.176  1.00  0.00     0.010 C 
ENDBRANCH  18  21
ENDBRANCH  12  17
BRANCH  16  28
ATOM     28  O   UNL A   1      34.832  20.787  25.523  1.00  0.00    -0.507 OA
ATOM     29  H   UNL A   1      34.257  20.123  25.846  1.00  0.00     0.293 HD
ENDBRANCH  16  28
ENDBRANCH   9  11
ENDBRANCH   8   9
ENDBRANCH   7   8
ENDBRANCH   6   7
ENDBRANCH   5   6
ENDBRANCH   4   5
ENDBRANCH   3   4
ENDBRANCH   2   3
ENDBRANCH   1   2
BRANCH   1  30
ATOM     30  C   UNL A   1      33.087  30.303  26.859  1.00  0.00     0.188 C 
BRANCH  30  31
ATOM     31  O   UNL A   1      31.880  30.953  27.226  1.00  0.00    -0.376 OA
BRANCH  31  32
ATOM     32  C   UNL A   1      31.481  32.071  26.454  1.00  0.00     0.202 C 
BRANCH  32  33
ATOM     33  C   UNL A   1      31.924  33.460  26.938  1.00  0.00     0.261 C 
BRANCH  33  34
ATOM     34  O   UNL A   1      32.785  33.493  28.087  1.00  0.00    -0.460 OA
BRANCH  34  35
ATOM     35  C   UNL A   1      33.948  34.177  27.974  1.00  0.00     0.338 C 
ATOM     36  O   UNL A   1      34.084  35.338  27.661  1.00  0.00    -0.246 OA
BRANCH  35  37
ATOM     37  C   UNL A   1      35.019  33.293  28.491  1.00  0.00     0.060 A 
ATOM     38  C   UNL A   1      34.676  32.077  29.099  1.00  0.00     0.016 A 
ATOM     39  C   UNL A   1      36.358  33.654  28.337  1.00  0.00     0.016 A 
ATOM     40  C   UNL A   1      35.678  31.222  29.561  1.00  0.00     0.010 A 
ATOM     41  C   UNL A   1      37.358  32.809  28.824  1.00  0.00     0.010 A 
ATOM     42  C   UNL A   1      37.024  31.597  29.456  1.00  0.00    -0.014 A 
BRANCH  42  43
ATOM     43  C   UNL A   1      38.080  30.821  30.151  1.00  0.00     0.031 A 
ATOM     44  C   UNL A   1      38.353  31.129  31.597  1.00  0.00     0.074 A 
ATOM     45  C   UNL A   1      38.790  29.872  29.513  1.00  0.00     0.049 A 
ATOM     46  N   UNL A   1      39.297  30.680  32.381  1.00  0.00    -0.248 NA
ATOM     47  C   UNL A   1      37.437  32.085  32.241  1.00  0.00     0.031 C 
ATOM     48  C   UNL A   1      38.574  29.438  28.134  1.00  0.00     0.029 A 
ATOM     49  N   UNL A   1      39.851  29.112  29.942  1.00  0.00    -0.354 N 
ATOM     50  C   UNL A   1      39.100  31.307  33.607  1.00  0.00     0.074 A 
ATOM     51  C   UNL A   1      37.960  32.186  33.452  1.00  0.00     0.031 C 
ATOM     52  C   UNL A   1      39.484  28.497  27.826  1.00  0.00     0.029 A 
ATOM     53  C   UNL A   1      40.380  28.300  28.965  1.00  0.00     0.049 A 
ATOM     54  H   UNL A   1      40.199  29.145  30.862  1.00  0.00     0.167 HD
ATOM     55  C   UNL A   1      39.809  31.162  34.753  1.00  0.00     0.034 A 
ATOM     56  C   UNL A   1      41.482  27.521  28.980  1.00  0.00     0.034 A 
ATOM     57  C   UNL A   1      40.948  30.288  34.885  1.00  0.00     0.049 A 
ATOM     58  C   UNL A   1      42.321  27.462  30.238  1.00  0.00     0.074 A 
ATOM     59  C   UNL A   1      41.723  30.049  36.006  1.00  0.00     0.029 A 
ATOM     60  N   UNL A   1      41.491  29.526  33.859  1.00  0.00    -0.354 N 
ATOM     61  N   UNL A   1      42.124  28.055  31.394  1.00  0.00    -0.248 NA
ATOM     62  C   UNL A   1      43.532  26.631  30.190  1.00  0.00     0.031 C 
ATOM     63  C   UNL A   1      42.784  29.218  35.636  1.00  0.00     0.029 A 
ATOM     64  C   UNL A   1      42.619  28.856  34.309  1.00  0.00     0.049 A 
ATOM     65  H   UNL A   1      41.129  29.470  32.945  1.00  0.00     0.167 HD
ATOM     66  C   UNL A   1      43.166  27.634  32.220  1.00  0.00     0.074 A 
ATOM     67  C   UNL A   1      43.978  26.729  31.434  1.00  0.00     0.031 C 
ATOM     68  C   UNL A   1      43.426  27.962  33.513  1.00  0.00     0.034 A 
BRANCH  55  69
ATOM     69  C   UNL A   1      39.412  32.018  35.932  1.00  0.00     0.023 A 
ATOM     70  C   UNL A   1      38.583  31.536  36.959  1.00  0.00     0.031 A 
ATOM     71  C   UNL A   1      39.866  33.346  36.019  1.00  0.00     0.131 A 
ATOM     72  C   UNL A   1      38.184  32.395  37.995  1.00  0.00     0.055 A 
ATOM     73  C   UNL A   1      39.532  34.169  37.094  1.00  0.00     0.041 A 
ATOM     74  F   UNL A   1      40.636  33.870  35.053  1.00  0.00    -0.206 F 
ATOM     75  C   UNL A   1      38.676  33.699  38.085  1.00  0.00     0.022 A 
BRANCH  72  76
ATOM     76  S   UNL A   1      36.906  31.828  39.150  1.00  0.00     0.124 S 
ATOM     77  O   UNL A   1      36.757  30.427  38.762  1.00  0.00    -0.237 OA
ATOM     78  O   UNL A   1      37.523  32.070  40.448  1.00  0.00    -0.237 OA
ATOM     79  O   UNL A   1      35.758  32.677  38.837  1.00  0.00    -0.744 OA
ENDBRANCH  72  76
ENDBRANCH  55  69
BRANCH  56  80
ATOM     80  C   UNL A   1      41.904  26.767  27.761  1.00  0.00     0.023 A 
ATOM     81  C   UNL A   1      41.797  25.369  27.703  1.00  0.00     0.031 A 
ATOM     82  C   UNL A   1      42.499  27.426  26.669  1.00  0.00     0.131 A 
ATOM     83  C   UNL A   1      42.326  24.670  26.605  1.00  0.00     0.055 A 
ATOM     84  C   UNL A   1      42.964  26.731  25.551  1.00  0.00     0.041 A 
ATOM     85  F   UNL A   1      42.639  28.761  26.674  1.00  0.00    -0.206 F 
ATOM     86  C   UNL A   1      42.894  25.343  25.522  1.00  0.00     0.022 A 
BRANCH  83  87
ATOM     87  S   UNL A   1      42.364  22.857  26.668  1.00  0.00     0.124 S 
ATOM     88  O   UNL A   1      41.984  22.506  25.304  1.00  0.00    -0.237 OA
ATOM     89  O   UNL A   1      43.752  22.597  27.035  1.00  0.00    -0.237 OA
ATOM     90  O   UNL A   1      41.377  22.532  27.696  1.00  0.00    -0.744 OA
ENDBRANCH  83  87
ENDBRANCH  56  80
BRANCH  68  91
ATOM     91  C   UNL A   1      44.612  27.294  34.172  1.00  0.00     0.023 A 
ATOM     92  C   UNL A   1      44.517  26.021  34.761  1.00  0.00     0.031 A 
ATOM     93  C   UNL A   1      45.858  27.946  34.212  1.00  0.00     0.131 A 
ATOM     94  C   UNL A   1      45.628  25.469  35.418  1.00  0.00     0.055 A 
ATOM     95  C   UNL A   1      46.979  27.361  34.802  1.00  0.00     0.041 A 
ATOM     96  F   UNL A   1      46.010  29.165  33.668  1.00  0.00    -0.206 F 
ATOM     97  C   UNL A   1      46.863  26.121  35.424  1.00  0.00     0.022 A 
BRANCH  94  98
ATOM     98  S   UNL A   1      45.411  23.933  36.357  1.00  0.00     0.124 S 
ATOM     99  O   UNL A   1      46.656  23.226  36.074  1.00  0.00    -0.237 OA
ATOM    100  O   UNL A   1      45.252  24.421  37.723  1.00  0.00    -0.237 OA
ATOM    101  O   UNL A   1      44.213  23.337  35.769  1.00  0.00    -0.744 OA
ENDBRANCH  94  98
ENDBRANCH  68  91
ENDBRANCH  42  43
ENDBRANCH  35  37
ENDBRANCH  34  35
ENDBRANCH  33  34
ENDBRANCH  32  33
ENDBRANCH  31  32
ENDBRANCH  30  31
ENDBRANCH   1  30
TORSDOF 26
ENDMDL
MODEL 3
REMARK VINA RESULT:     -10.3      2.241      7.428
REMARK SMILES C[C@@H]1CN(C(=O)Nc2ccc(O)c(C(=O)OCCOCCOCCOCCOC(=O)c3ccc(-c4c5nc(c(-c6cc(S(=O)(=O)[O-])ccc6F)c6ccc([nH]6)c(-c6cc(S(=O)(=O)[O-])ccc6F)c6nc(c(-c7cc(S(=O)(=O)[O-])ccc7F)c7ccc4[nH]7)C=C6)C=C5)cc3)c2)C[C@@H]1C
REMARK SMILES IDX 23 1 22 2 21 3 20 4 19 5 18 6 17 7 16 8 14 9 15 10 13 11
REMARK SMILES IDX 8 12 9 13 94 14 10 15 11 16 7 17 5 18 6 19 4 21 1 22 2 23
REMARK SMILES IDX 3 24 96 25 95 26 97 27 12 28 24 30 25 31 26 32 27 33 28 34
REMARK SMILES IDX 29 35 30 36 31 37 32 38 93 39 33 40 92 41 34 42 35 43 36 44
REMARK SMILES IDX 86 45 37 46 91 47 85 48 87 49 38 50 90 51 84 52 83 53 39 55
REMARK SMILES IDX 71 56 51 57 70 58 52 59 55 60 69 61 88 62 53 63 54 64 68 66
REMARK SMILES IDX 89 67 56 68 40 69 41 70 49 71 42 72 48 73 50 74 47 75 43 76
REMARK SMILES IDX 44 77 45 78 46 79 72 80 73 81 81 82 74 83 80 84 82 85 79 86
REMARK SMILES IDX 75 87 76 88 77 89 78 90 57 91 58 92 66 93 59 94 65 95 67 96
REMARK SMILES IDX 64 97 60 98 61 99 62 100 63 101
REMARK H PARENT 7 20 12 29 87 54 55 65
REMARK Flexibility Score: inf
ROOT
ATOM      1  C   UNL A   1      33.149  28.879  27.188  1.00  0.00     0.188 C 
ENDROOT
BRANCH   1   2
ATOM      2  O   UNL A   1      32.137  28.040  27.740  1.00  0.00    -0.377 OA
BRANCH   2   3
ATOM      3  C   UNL A   1      31.303  27.280  26.879  1.00  0.00     0.188 C 
BRANCH   3   4
ATOM      4  C   UNL A   1      31.745  25.874  26.412  1.00  0.00     0.188 C 
BRANCH   4   5
ATOM      5  O   UNL A   1      30.876  24.830  26.799  1.00  0.00    -0.376 OA
BRANCH   5   6
ATOM      6  C   UNL A   1      31.347  23.502  26.934  1.00  0.00     0.202 C 
BRANCH   6   7
ATOM      7  C   UNL A   1      30.565  22.303  26.379  1.00  0.00     0.261 C 
BRANCH   7   8
ATOM      8  O   UNL A   1      30.958  21.858  25.084  1.00  0.00    -0.460 OA
BRANCH   8   9
ATOM      9  C   UNL A   1      32.007  21.015  24.994  1.00  0.00     0.342 C 
ATOM     10  O   UNL A   1      32.019  19.824  25.260  1.00  0.00    -0.246 OA
BRANCH   9  11
ATOM     11  C   UNL A   1      33.066  21.707  24.227  1.00  0.00     0.103 A 
ATOM     12  C   UNL A   1      33.607  23.256  22.462  1.00  0.00     0.044 A 
ATOM     13  C   UNL A   1      34.937  23.285  22.889  1.00  0.00     0.030 A 
ATOM     14  C   UNL A   1      32.653  22.535  23.175  1.00  0.00     0.045 A 
ATOM     15  C   UNL A   1      35.351  22.465  23.941  1.00  0.00     0.049 A 
ATOM     16  C   UNL A   1      34.421  21.648  24.582  1.00  0.00     0.130 A 
BRANCH  12  17
ATOM     17  N   UNL A   1      33.218  23.890  21.283  1.00  0.00    -0.308 N 
ATOM     18  C   UNL A   1      32.640  25.114  21.102  1.00  0.00     0.321 C 
ATOM     19  O   UNL A   1      32.236  25.383  19.966  1.00  0.00    -0.248 OA
ATOM     20  H   UNL A   1      33.385  23.380  20.458  1.00  0.00     0.171 HD
BRANCH  18  21
ATOM     21  N   UNL A   1      32.640  26.053  22.104  1.00  0.00    -0.324 N 
ATOM     22  C   UNL A   1      33.617  29.303  23.626  1.00  0.00     0.010 C 
ATOM     23  C   UNL A   1      33.025  27.905  23.546  1.00  0.00     0.010 C 
ATOM     24  C   UNL A   1      33.617  27.094  22.403  1.00  0.00     0.125 C 
ATOM     25  C   UNL A   1      31.516  27.762  23.309  1.00  0.00     0.010 C 
ATOM     26  C   UNL A   1      31.431  26.283  22.889  1.00  0.00     0.125 C 
ATOM     27  C   UNL A   1      30.939  28.681  22.225  1.00  0.00     0.010 C 
ENDBRANCH  18  21
ENDBRANCH  12  17
BRANCH  16  28
ATOM     28  O   UNL A   1      34.846  20.774  25.538  1.00  0.00    -0.507 OA
ATOM     29  H   UNL A   1      34.221  20.300  26.051  1.00  0.00     0.293 HD
ENDBRANCH  16  28
ENDBRANCH   9  11
ENDBRANCH   8   9
ENDBRANCH   7   8
ENDBRANCH   6   7
ENDBRANCH   5   6
ENDBRANCH   4   5
ENDBRANCH   3   4
ENDBRANCH   2   3
ENDBRANCH   1   2
BRANCH   1  30
ATOM     30  C   UNL A   1      33.039  30.421  27.265  1.00  0.00     0.188 C 
BRANCH  30  31
ATOM     31  O   UNL A   1      31.801  30.952  26.819  1.00  0.00    -0.376 OA
BRANCH  31  32
ATOM     32  C   UNL A   1      31.630  32.357  26.890  1.00  0.00     0.202 C 
BRANCH  32  33
ATOM     33  C   UNL A   1      32.800  33.185  27.443  1.00  0.00     0.261 C 
BRANCH  33  34
ATOM     34  O   UNL A   1      32.537  34.574  27.694  1.00  0.00    -0.460 OA
BRANCH  34  35
ATOM     35  C   UNL A   1      33.097  35.123  28.799  1.00  0.00     0.338 C 
ATOM     36  O   UNL A   1      32.711  36.098  29.404  1.00  0.00    -0.246 OA
BRANCH  35  37
ATOM     37  C   UNL A   1      34.163  34.197  29.246  1.00  0.00     0.060 A 
ATOM     38  C   UNL A   1      33.853  33.171  30.149  1.00  0.00     0.016 A 
ATOM     39  C   UNL A   1      35.458  34.326  28.741  1.00  0.00     0.016 A 
ATOM     40  C   UNL A   1      34.843  32.273  30.553  1.00  0.00     0.010 A 
ATOM     41  C   UNL A   1      36.453  33.444  29.167  1.00  0.00     0.010 A 
ATOM     42  C   UNL A   1      36.157  32.424  30.089  1.00  0.00    -0.014 A 
BRANCH  42  43
ATOM     43  C   UNL A   1      37.262  31.637  30.688  1.00  0.00     0.031 A 
ATOM     44  C   UNL A   1      37.671  31.946  32.102  1.00  0.00     0.074 A 
ATOM     45  C   UNL A   1      37.900  30.677  29.992  1.00  0.00     0.049 A 
ATOM     46  N   UNL A   1      38.676  31.487  32.797  1.00  0.00    -0.248 NA
ATOM     47  C   UNL A   1      36.829  32.915  32.823  1.00  0.00     0.031 C 
ATOM     48  C   UNL A   1      37.553  30.242  28.640  1.00  0.00     0.029 A 
ATOM     49  N   UNL A   1      38.986  29.905  30.324  1.00  0.00    -0.354 N 
ATOM     50  C   UNL A   1      38.600  32.121  34.034  1.00  0.00     0.074 A 
ATOM     51  C   UNL A   1      37.462  33.013  33.981  1.00  0.00     0.031 C 
ATOM     52  C   UNL A   1      38.419  29.288  28.254  1.00  0.00     0.029 A 
ATOM     53  C   UNL A   1      39.414  29.084  29.307  1.00  0.00     0.049 A 
ATOM     54  H   UNL A   1      39.418  29.937  31.209  1.00  0.00     0.167 HD
ATOM     55  C   UNL A   1      39.409  31.970  35.111  1.00  0.00     0.034 A 
ATOM     56  C   UNL A   1      40.503  28.291  29.224  1.00  0.00     0.034 A 
ATOM     57  C   UNL A   1      40.546  31.083  35.142  1.00  0.00     0.049 A 
ATOM     58  C   UNL A   1      41.453  28.226  30.400  1.00  0.00     0.074 A 
ATOM     59  C   UNL A   1      41.417  30.838  36.188  1.00  0.00     0.029 A 
ATOM     60  N   UNL A   1      40.983  30.311  34.073  1.00  0.00    -0.354 N 
ATOM     61  N   UNL A   1      41.369  28.824  31.567  1.00  0.00    -0.248 NA
ATOM     62  C   UNL A   1      42.643  27.379  30.245  1.00  0.00     0.031 C 
ATOM     63  C   UNL A   1      42.429  29.992  35.726  1.00  0.00     0.029 A 
ATOM     64  C   UNL A   1      42.139  29.628  34.421  1.00  0.00     0.049 A 
ATOM     65  H   UNL A   1      40.538  30.257  33.196  1.00  0.00     0.167 HD
ATOM     66  C   UNL A   1      42.477  28.393  32.296  1.00  0.00     0.074 A 
ATOM     67  C   UNL A   1      43.203  27.475  31.443  1.00  0.00     0.031 C 
ATOM     68  C   UNL A   1      42.859  28.722  33.558  1.00  0.00     0.034 A 
BRANCH  55  69
ATOM     69  C   UNL A   1      39.133  32.834  36.317  1.00  0.00     0.023 A 
ATOM     70  C   UNL A   1      39.646  34.137  36.437  1.00  0.00     0.031 A 
ATOM     71  C   UNL A   1      38.348  32.336  37.373  1.00  0.00     0.131 A 
ATOM     72  C   UNL A   1      39.421  34.872  37.611  1.00  0.00     0.055 A 
ATOM     73  C   UNL A   1      38.060  33.103  38.502  1.00  0.00     0.041 A 
ATOM     74  F   UNL A   1      37.856  31.088  37.328  1.00  0.00    -0.206 F 
ATOM     75  C   UNL A   1      38.607  34.375  38.632  1.00  0.00     0.022 A 
BRANCH  72  76
ATOM     76  S   UNL A   1      40.316  36.432  37.845  1.00  0.00     0.124 S 
ATOM     77  O   UNL A   1      39.331  37.232  38.571  1.00  0.00    -0.237 OA
ATOM     78  O   UNL A   1      41.485  36.014  38.607  1.00  0.00    -0.237 OA
ATOM     79  O   UNL A   1      40.587  36.881  36.481  1.00  0.00    -0.744 OA
ENDBRANCH  72  76
ENDBRANCH  55  69
BRANCH  56  80
ATOM     80  C   UNL A   1      40.802  27.529  27.975  1.00  0.00     0.023 A 
ATOM     81  C   UNL A   1      40.602  26.141  27.909  1.00  0.00     0.031 A 
ATOM     82  C   UNL A   1      41.372  28.163  26.855  1.00  0.00     0.131 A 
ATOM     83  C   UNL A   1      41.018  25.425  26.776  1.00  0.00     0.055 A 
ATOM     84  C   UNL A   1      41.724  27.455  25.705  1.00  0.00     0.041 A 
ATOM     85  F   UNL A   1      41.598  29.487  26.864  1.00  0.00    -0.206 F 
ATOM     86  C   UNL A   1      41.564  26.075  25.666  1.00  0.00     0.022 A 
BRANCH  83  87
ATOM     87  S   UNL A   1      40.944  23.613  26.818  1.00  0.00     0.124 S 
ATOM     88  O   UNL A   1      39.537  23.367  26.520  1.00  0.00    -0.237 OA
ATOM     89  O   UNL A   1      41.895  23.246  25.774  1.00  0.00    -0.237 OA
ATOM     90  O   UNL A   1      41.361  23.287  28.181  1.00  0.00    -0.744 OA
ENDBRANCH  83  87
ENDBRANCH  56  80
BRANCH  68  91
ATOM     91  C   UNL A   1      44.092  28.041  34.108  1.00  0.00     0.023 A 
ATOM     92  C   UNL A   1      45.369  28.621  34.013  1.00  0.00     0.031 A 
ATOM     93  C   UNL A   1      43.984  26.786  34.737  1.00  0.00     0.131 A 
ATOM     94  C   UNL A   1      46.492  27.922  34.481  1.00  0.00     0.055 A 
ATOM     95  C   UNL A   1      45.096  26.128  35.265  1.00  0.00     0.041 A 
ATOM     96  F   UNL A   1      42.792  26.180  34.855  1.00  0.00    -0.206 F 
ATOM     97  C   UNL A   1      46.362  26.690  35.125  1.00  0.00     0.022 A 
BRANCH  94  98
ATOM     98  S   UNL A   1      48.142  28.596  34.142  1.00  0.00     0.124 S 
ATOM     99  O   UNL A   1      48.141  29.815  34.945  1.00  0.00    -0.237 OA
ATOM    100  O   UNL A   1      49.018  27.527  34.608  1.00  0.00    -0.237 OA
ATOM    101  O   UNL A   1      48.137  28.807  32.696  1.00  0.00    -0.744 OA
ENDBRANCH  94  98
ENDBRANCH  68  91
ENDBRANCH  42  43
ENDBRANCH  35  37
ENDBRANCH  34  35
ENDBRANCH  33  34
ENDBRANCH  32  33
ENDBRANCH  31  32
ENDBRANCH  30  31
ENDBRANCH   1  30
TORSDOF 26
ENDMDL
