MODEL 1
REMARK VINA RESULT:      -8.8      0.000      0.000
REMARK SMILES C[C@@H]([NH3+])CCC(=O)N[C@H]1C=C[C@@H](C(=O)OCCOCCOCCOCCOC(=O)c2ccc(-c3c4nc(c(-c5cc(S(=O)(=O)[O-])ccc5F)c5ccc([nH]5)c(-c5cc(S(=O)(=O)[O-])ccc5F)c5nc(c(-c6cc(S(=O)(=O)[O-])ccc6F)c6ccc3[nH]6)C=C5)C=C4)cc2)C1
REMARK SMILES IDX 20 1 19 2 18 3 17 4 16 5 15 6 13 7 14 8 12 9 9 10 10 11
REMARK SMILES IDX 93 12 11 13 8 14 6 15 7 16 5 18 4 19 2 20 1 21 3 22 21 26
REMARK SMILES IDX 22 27 23 28 24 29 25 30 26 31 27 32 28 33 29 34 30 35 31 36
REMARK SMILES IDX 92 37 32 38 91 39 33 40 34 41 35 42 85 43 36 44 90 45 84 46
REMARK SMILES IDX 86 47 37 48 89 49 83 50 82 51 38 53 70 54 50 55 69 56 51 57
REMARK SMILES IDX 54 58 68 59 87 60 52 61 53 62 67 64 88 65 55 66 39 67 40 68
REMARK SMILES IDX 48 69 41 70 47 71 49 72 46 73 42 74 43 75 44 76 45 77 71 78
REMARK SMILES IDX 72 79 80 80 73 81 79 82 81 83 78 84 74 85 75 86 76 87 77 88
REMARK SMILES IDX 56 89 57 90 65 91 58 92 64 93 66 94 63 95 59 96 60 97 61 98
REMARK SMILES IDX 62 99
REMARK H PARENT 8 17 3 23 3 24 3 25 86 52 54 63
REMARK Flexibility Score: inf
ROOT
ATOM      1  C   UNL A   1      35.651  31.512  27.816  1.00  0.00     0.188 C 
ENDROOT
BRANCH   1   2
ATOM      2  C   UNL A   1      35.961  30.018  27.634  1.00  0.00     0.188 C 
BRANCH   2   3
ATOM      3  O   UNL A   1      34.869  29.168  27.921  1.00  0.00    -0.376 OA
BRANCH   3   4
ATOM      4  C   UNL A   1      33.802  29.129  26.985  1.00  0.00     0.202 C 
BRANCH   4   5
ATOM      5  C   UNL A   1      33.812  28.059  25.882  1.00  0.00     0.261 C 
BRANCH   5   6
ATOM      6  O   UNL A   1      33.606  28.552  24.548  1.00  0.00    -0.463 OA
BRANCH   6   7
ATOM      7  C   UNL A   1      32.911  27.799  23.662  1.00  0.00     0.312 C 
ATOM      8  O   UNL A   1      33.092  27.816  22.451  1.00  0.00    -0.252 OA
BRANCH   7   9
ATOM      9  C   UNL A   1      31.867  26.903  24.351  1.00  0.00     0.124 C 
ATOM     10  C   UNL A   1      29.401  26.579  24.327  1.00  0.00     0.106 C 
ATOM     11  C   UNL A   1      30.125  25.570  23.490  1.00  0.00    -0.006 C 
ATOM     12  C   UNL A   1      30.516  27.560  24.646  1.00  0.00     0.048 C 
ATOM     13  C   UNL A   1      31.455  25.740  23.508  1.00  0.00    -0.014 C 
BRANCH  10  14
ATOM     14  N   UNL A   1      28.249  27.081  23.598  1.00  0.00    -0.350 N 
ATOM     15  C   UNL A   1      27.919  28.345  23.195  1.00  0.00     0.220 C 
ATOM     16  O   UNL A   1      26.732  28.674  23.286  1.00  0.00    -0.275 OA
ATOM     17  H   UNL A   1      27.591  26.392  23.352  1.00  0.00     0.164 HD
BRANCH  15  18
ATOM     18  C   UNL A   1      28.922  29.276  22.540  1.00  0.00     0.106 C 
BRANCH  18  19
ATOM     19  C   UNL A   1      29.120  30.652  23.182  1.00  0.00     0.074 C 
BRANCH  19  20
ATOM     20  C   UNL A   1      28.460  31.867  22.506  1.00  0.00     0.178 C 
ATOM     21  C   UNL A   1      28.943  33.230  23.007  1.00  0.00     0.075 C 
BRANCH  20  22
ATOM     22  N   UNL A   1      28.815  31.853  21.082  1.00  0.00    -0.355 N 
ATOM     23  H   UNL A   1      29.179  32.766  20.813  1.00  0.00     0.344 HD
ATOM     24  H   UNL A   1      27.985  31.641  20.527  1.00  0.00     0.344 HD
ATOM     25  H   UNL A   1      29.525  31.140  20.915  1.00  0.00     0.344 HD
ENDBRANCH  20  22
ENDBRANCH  19  20
ENDBRANCH  18  19
ENDBRANCH  15  18
ENDBRANCH  10  14
ENDBRANCH   7   9
ENDBRANCH   6   7
ENDBRANCH   5   6
ENDBRANCH   4   5
ENDBRANCH   3   4
ENDBRANCH   2   3
ENDBRANCH   1   2
BRANCH   1  26
ATOM     26  O   UNL A   1      34.973  31.996  28.957  1.00  0.00    -0.377 OA
BRANCH  26  27
ATOM     27  C   UNL A   1      34.945  33.395  29.194  1.00  0.00     0.188 C 
BRANCH  27  28
ATOM     28  C   UNL A   1      33.919  34.297  28.474  1.00  0.00     0.188 C 
BRANCH  28  29
ATOM     29  O   UNL A   1      34.389  35.591  28.121  1.00  0.00    -0.376 OA
BRANCH  29  30
ATOM     30  C   UNL A   1      33.688  36.692  28.682  1.00  0.00     0.202 C 
BRANCH  30  31
ATOM     31  C   UNL A   1      32.741  36.375  29.853  1.00  0.00     0.261 C 
BRANCH  31  32
ATOM     32  O   UNL A   1      33.315  36.492  31.163  1.00  0.00    -0.460 OA
BRANCH  32  33
ATOM     33  C   UNL A   1      32.895  35.581  32.073  1.00  0.00     0.338 C 
ATOM     34  O   UNL A   1      31.750  35.237  32.277  1.00  0.00    -0.246 OA
BRANCH  33  35
ATOM     35  C   UNL A   1      34.090  34.923  32.643  1.00  0.00     0.060 A 
ATOM     36  C   UNL A   1      35.352  35.411  32.284  1.00  0.00     0.016 A 
ATOM     37  C   UNL A   1      33.972  33.838  33.514  1.00  0.00     0.016 A 
ATOM     38  C   UNL A   1      36.503  34.814  32.795  1.00  0.00     0.010 A 
ATOM     39  C   UNL A   1      35.129  33.216  33.998  1.00  0.00     0.010 A 
ATOM     40  C   UNL A   1      36.400  33.689  33.622  1.00  0.00    -0.014 A 
BRANCH  40  41
ATOM     41  C   UNL A   1      37.623  32.901  33.909  1.00  0.00     0.031 A 
ATOM     42  C   UNL A   1      38.424  33.261  35.132  1.00  0.00     0.074 A 
ATOM     43  C   UNL A   1      37.977  31.852  33.145  1.00  0.00     0.049 A 
ATOM     44  N   UNL A   1      39.516  32.718  35.601  1.00  0.00    -0.248 NA
ATOM     45  C   UNL A   1      37.916  34.384  35.936  1.00  0.00     0.031 C 
ATOM     46  C   UNL A   1      37.246  31.380  31.970  1.00  0.00     0.029 A 
ATOM     47  N   UNL A   1      39.043  30.992  33.245  1.00  0.00    -0.354 N 
ATOM     48  C   UNL A   1      39.829  33.432  36.753  1.00  0.00     0.074 A 
ATOM     49  C   UNL A   1      38.827  34.466  36.894  1.00  0.00     0.031 C 
ATOM     50  C   UNL A   1      37.892  30.318  31.453  1.00  0.00     0.029 A 
ATOM     51  C   UNL A   1      39.101  30.060  32.235  1.00  0.00     0.049 A 
ATOM     52  H   UNL A   1      39.705  31.038  33.973  1.00  0.00     0.167 HD
ATOM     53  C   UNL A   1      40.855  33.238  37.615  1.00  0.00     0.034 A 
ATOM     54  C   UNL A   1      40.036  29.127  31.960  1.00  0.00     0.034 A 
ATOM     55  C   UNL A   1      41.855  32.211  37.449  1.00  0.00     0.049 A 
ATOM     56  C   UNL A   1      41.225  28.992  32.887  1.00  0.00     0.074 A 
ATOM     57  C   UNL A   1      42.931  31.919  38.267  1.00  0.00     0.029 A 
ATOM     58  N   UNL A   1      41.915  31.324  36.382  1.00  0.00    -0.354 N 
ATOM     59  N   UNL A   1      41.499  29.662  33.985  1.00  0.00    -0.248 NA
ATOM     60  C   UNL A   1      42.222  27.971  32.545  1.00  0.00     0.031 C 
ATOM     61  C   UNL A   1      43.688  30.918  37.653  1.00  0.00     0.029 A 
ATOM     62  C   UNL A   1      43.033  30.513  36.501  1.00  0.00     0.049 A 
ATOM     63  H   UNL A   1      41.260  31.278  35.648  1.00  0.00     0.167 HD
ATOM     64  C   UNL A   1      42.683  29.115  34.479  1.00  0.00     0.074 A 
ATOM     65  C   UNL A   1      43.055  28.050  33.572  1.00  0.00     0.031 C 
ATOM     66  C   UNL A   1      43.397  29.459  35.582  1.00  0.00     0.034 A 
BRANCH  53  67
ATOM     67  C   UNL A   1      40.983  34.195  38.775  1.00  0.00     0.023 A 
ATOM     68  C   UNL A   1      40.372  33.948  40.018  1.00  0.00     0.031 A 
ATOM     69  C   UNL A   1      41.724  35.381  38.628  1.00  0.00     0.131 A 
ATOM     70  C   UNL A   1      40.467  34.901  41.044  1.00  0.00     0.055 A 
ATOM     71  C   UNL A   1      41.880  36.287  39.678  1.00  0.00     0.041 A 
ATOM     72  F   UNL A   1      42.305  35.683  37.456  1.00  0.00    -0.206 F 
ATOM     73  C   UNL A   1      41.241  36.055  40.892  1.00  0.00     0.022 A 
BRANCH  70  74
ATOM     74  S   UNL A   1      39.465  34.675  42.538  1.00  0.00     0.124 S 
ATOM     75  O   UNL A   1      40.413  35.039  43.589  1.00  0.00    -0.237 OA
ATOM     76  O   UNL A   1      38.361  35.603  42.323  1.00  0.00    -0.237 OA
ATOM     77  O   UNL A   1      39.105  33.258  42.499  1.00  0.00    -0.744 OA
ENDBRANCH  70  74
ENDBRANCH  53  67
BRANCH  54  78
ATOM     78  C   UNL A   1      39.937  28.280  30.733  1.00  0.00     0.023 A 
ATOM     79  C   UNL A   1      40.656  28.588  29.566  1.00  0.00     0.031 A 
ATOM     80  C   UNL A   1      39.045  27.192  30.683  1.00  0.00     0.131 A 
ATOM     81  C   UNL A   1      40.428  27.859  28.388  1.00  0.00     0.055 A 
ATOM     82  C   UNL A   1      38.870  26.428  29.527  1.00  0.00     0.041 A 
ATOM     83  F   UNL A   1      38.321  26.856  31.763  1.00  0.00    -0.206 F 
ATOM     84  C   UNL A   1      39.551  26.771  28.365  1.00  0.00     0.022 A 
BRANCH  81  85
ATOM     85  S   UNL A   1      41.204  28.425  26.848  1.00  0.00     0.124 S 
ATOM     86  O   UNL A   1      40.149  29.251  26.271  1.00  0.00    -0.237 OA
ATOM     87  O   UNL A   1      42.376  29.137  27.344  1.00  0.00    -0.237 OA
ATOM     88  O   UNL A   1      41.488  27.184  26.132  1.00  0.00    -0.744 OA
ENDBRANCH  81  85
ENDBRANCH  54  78
BRANCH  66  89
ATOM     89  C   UNL A   1      44.628  28.637  35.893  1.00  0.00     0.023 A 
ATOM     90  C   UNL A   1      44.573  27.491  36.705  1.00  0.00     0.031 A 
ATOM     91  C   UNL A   1      45.882  29.019  35.379  1.00  0.00     0.131 A 
ATOM     92  C   UNL A   1      45.754  26.811  37.037  1.00  0.00     0.055 A 
ATOM     93  C   UNL A   1      47.042  28.294  35.651  1.00  0.00     0.041 A 
ATOM     94  F   UNL A   1      45.999  30.107  34.601  1.00  0.00    -0.206 F 
ATOM     95  C   UNL A   1      46.985  27.191  36.498  1.00  0.00     0.022 A 
BRANCH  92  96
ATOM     96  S   UNL A   1      45.678  25.492  38.281  1.00  0.00     0.124 S 
ATOM     97  O   UNL A   1      47.019  25.540  38.854  1.00  0.00    -0.237 OA
ATOM     98  O   UNL A   1      44.597  25.943  39.149  1.00  0.00    -0.237 OA
ATOM     99  O   UNL A   1      45.383  24.295  37.495  1.00  0.00    -0.744 OA
ENDBRANCH  92  96
ENDBRANCH  66  89
ENDBRANCH  40  41
ENDBRANCH  33  35
ENDBRANCH  32  33
ENDBRANCH  31  32
ENDBRANCH  30  31
ENDBRANCH  29  30
ENDBRANCH  28  29
ENDBRANCH  27  28
ENDBRANCH  26  27
ENDBRANCH   1  26
TORSDOF 28
ENDMDL
MODEL 2
REMARK VINA RESULT:      -8.4      1.980      2.315
REMARK SMILES C[C@@H]([NH3+])CCC(=O)N[C@H]1C=C[C@@H](C(=O)OCCOCCOCCOCCOC(=O)c2ccc(-c3c4nc(c(-c5cc(S(=O)(=O)[O-])ccc5F)c5ccc([nH]5)c(-c5cc(S(=O)(=O)[O-])ccc5F)c5nc(c(-c6cc(S(=O)(=O)[O-])ccc6F)c6ccc3[nH]6)C=C5)C=C4)cc2)C1
REMARK SMILES IDX 20 1 19 2 18 3 17 4 16 5 15 6 13 7 14 8 12 9 9 10 10 11
REMARK SMILES IDX 93 12 11 13 8 14 6 15 7 16 5 18 4 19 2 20 1 21 3 22 21 26
REMARK SMILES IDX 22 27 23 28 24 29 25 30 26 31 27 32 28 33 29 34 30 35 31 36
REMARK SMILES IDX 92 37 32 38 91 39 33 40 34 41 35 42 85 43 36 44 90 45 84 46
REMARK SMILES IDX 86 47 37 48 89 49 83 50 82 51 38 53 70 54 50 55 69 56 51 57
REMARK SMILES IDX 54 58 68 59 87 60 52 61 53 62 67 64 88 65 55 66 39 67 40 68
REMARK SMILES IDX 48 69 41 70 47 71 49 72 46 73 42 74 43 75 44 76 45 77 71 78
REMARK SMILES IDX 72 79 80 80 73 81 79 82 81 83 78 84 74 85 75 86 76 87 77 88
REMARK SMILES IDX 56 89 57 90 65 91 58 92 64 93 66 94 63 95 59 96 60 97 61 98
REMARK SMILES IDX 62 99
REMARK H PARENT 8 17 3 23 3 24 3 25 86 52 54 63
REMARK Flexibility Score: inf
ROOT
ATOM      1  C   UNL A   1      35.863  31.658  27.729  1.00  0.00     0.188 C 
ENDROOT
BRANCH   1   2
ATOM      2  C   UNL A   1      36.117  30.148  27.605  1.00  0.00     0.188 C 
BRANCH   2   3
ATOM      3  O   UNL A   1      35.074  29.348  28.123  1.00  0.00    -0.376 OA
BRANCH   3   4
ATOM      4  C   UNL A   1      33.813  29.408  27.470  1.00  0.00     0.202 C 
BRANCH   4   5
ATOM      5  C   UNL A   1      33.420  28.288  26.495  1.00  0.00     0.261 C 
BRANCH   5   6
ATOM      6  O   UNL A   1      33.811  28.500  25.128  1.00  0.00    -0.463 OA
BRANCH   6   7
ATOM      7  C   UNL A   1      32.941  28.197  24.135  1.00  0.00     0.312 C 
ATOM      8  O   UNL A   1      32.876  28.796  23.069  1.00  0.00    -0.252 OA
BRANCH   7   9
ATOM      9  C   UNL A   1      32.043  26.999  24.491  1.00  0.00     0.124 C 
ATOM     10  C   UNL A   1      29.662  26.330  24.233  1.00  0.00     0.106 C 
ATOM     11  C   UNL A   1      30.551  25.712  23.198  1.00  0.00    -0.006 C 
ATOM     12  C   UNL A   1      30.600  27.340  24.872  1.00  0.00     0.048 C 
ATOM     13  C   UNL A   1      31.836  26.067  23.341  1.00  0.00    -0.014 C 
BRANCH  10  14
ATOM     14  N   UNL A   1      28.456  26.837  23.600  1.00  0.00    -0.350 N 
ATOM     15  C   UNL A   1      28.107  28.099  23.207  1.00  0.00     0.220 C 
ATOM     16  O   UNL A   1      26.937  28.445  23.396  1.00  0.00    -0.275 OA
ATOM     17  H   UNL A   1      27.771  26.153  23.424  1.00  0.00     0.164 HD
BRANCH  15  18
ATOM     18  C   UNL A   1      29.060  29.006  22.451  1.00  0.00     0.106 C 
BRANCH  18  19
ATOM     19  C   UNL A   1      29.477  30.308  23.138  1.00  0.00     0.074 C 
BRANCH  19  20
ATOM     20  C   UNL A   1      28.633  31.569  22.874  1.00  0.00     0.178 C 
ATOM     21  C   UNL A   1      28.095  31.700  21.447  1.00  0.00     0.075 C 
BRANCH  20  22
ATOM     22  N   UNL A   1      27.433  31.504  23.715  1.00  0.00    -0.355 N 
ATOM     23  H   UNL A   1      27.321  32.385  24.216  1.00  0.00     0.344 HD
ATOM     24  H   UNL A   1      27.528  30.741  24.385  1.00  0.00     0.344 HD
ATOM     25  H   UNL A   1      26.614  31.341  23.128  1.00  0.00     0.344 HD
ENDBRANCH  20  22
ENDBRANCH  19  20
ENDBRANCH  18  19
ENDBRANCH  15  18
ENDBRANCH  10  14
ENDBRANCH   7   9
ENDBRANCH   6   7
ENDBRANCH   5   6
ENDBRANCH   4   5
ENDBRANCH   3   4
ENDBRANCH   2   3
ENDBRANCH   1   2
BRANCH   1  26
ATOM     26  O   UNL A   1      35.278  32.221  28.885  1.00  0.00    -0.377 OA
BRANCH  26  27
ATOM     27  C   UNL A   1      35.282  33.632  29.037  1.00  0.00     0.188 C 
BRANCH  27  28
ATOM     28  C   UNL A   1      34.082  34.480  28.564  1.00  0.00     0.188 C 
BRANCH  28  29
ATOM     29  O   UNL A   1      34.362  35.854  28.332  1.00  0.00    -0.376 OA
BRANCH  29  30
ATOM     30  C   UNL A   1      33.565  36.790  29.043  1.00  0.00     0.202 C 
BRANCH  30  31
ATOM     31  C   UNL A   1      32.555  36.206  30.046  1.00  0.00     0.261 C 
BRANCH  31  32
ATOM     32  O   UNL A   1      32.795  36.523  31.424  1.00  0.00    -0.460 OA
BRANCH  32  33
ATOM     33  C   UNL A   1      32.689  35.490  32.294  1.00  0.00     0.338 C 
ATOM     34  O   UNL A   1      31.667  35.065  32.790  1.00  0.00    -0.246 OA
BRANCH  33  35
ATOM     35  C   UNL A   1      34.010  34.833  32.384  1.00  0.00     0.060 A 
ATOM     36  C   UNL A   1      34.051  33.454  32.626  1.00  0.00     0.016 A 
ATOM     37  C   UNL A   1      35.193  35.562  32.238  1.00  0.00     0.016 A 
ATOM     38  C   UNL A   1      35.277  32.798  32.723  1.00  0.00     0.010 A 
ATOM     39  C   UNL A   1      36.423  34.909  32.373  1.00  0.00     0.010 A 
ATOM     40  C   UNL A   1      36.470  33.528  32.639  1.00  0.00    -0.014 A 
BRANCH  40  41
ATOM     41  C   UNL A   1      37.737  32.868  33.036  1.00  0.00     0.031 A 
ATOM     42  C   UNL A   1      38.266  33.129  34.421  1.00  0.00     0.074 A 
ATOM     43  C   UNL A   1      38.367  32.007  32.216  1.00  0.00     0.049 A 
ATOM     44  N   UNL A   1      39.338  32.664  35.005  1.00  0.00    -0.248 NA
ATOM     45  C   UNL A   1      37.468  34.037  35.262  1.00  0.00     0.031 C 
ATOM     46  C   UNL A   1      37.916  31.637  30.876  1.00  0.00     0.029 A 
ATOM     47  N   UNL A   1      39.522  31.286  32.393  1.00  0.00    -0.354 N 
ATOM     48  C   UNL A   1      39.347  33.221  36.279  1.00  0.00     0.074 A 
ATOM     49  C   UNL A   1      38.189  34.083  36.373  1.00  0.00     0.031 C 
ATOM     50  C   UNL A   1      38.792  30.763  30.348  1.00  0.00     0.029 A 
ATOM     51  C   UNL A   1      39.885  30.541  31.295  1.00  0.00     0.049 A 
ATOM     52  H   UNL A   1      40.043  31.302  33.229  1.00  0.00     0.167 HD
ATOM     53  C   UNL A   1      40.239  33.026  37.280  1.00  0.00     0.034 A 
ATOM     54  C   UNL A   1      40.984  29.791  31.073  1.00  0.00     0.034 A 
ATOM     55  C   UNL A   1      41.398  32.175  37.163  1.00  0.00     0.049 A 
ATOM     56  C   UNL A   1      42.014  29.665  32.175  1.00  0.00     0.074 A 
ATOM     57  C   UNL A   1      42.360  31.897  38.117  1.00  0.00     0.029 A 
ATOM     58  N   UNL A   1      41.766  31.483  36.016  1.00  0.00    -0.354 N 
ATOM     59  N   UNL A   1      42.002  30.182  33.384  1.00  0.00    -0.248 NA
ATOM     60  C   UNL A   1      43.199  28.847  31.886  1.00  0.00     0.031 C 
ATOM     61  C   UNL A   1      43.351  31.112  37.523  1.00  0.00     0.029 A 
ATOM     62  C   UNL A   1      42.961  30.814  36.228  1.00  0.00     0.049 A 
ATOM     63  H   UNL A   1      41.252  31.470  35.176  1.00  0.00     0.167 HD
ATOM     64  C   UNL A   1      43.160  29.721  34.008  1.00  0.00     0.074 A 
ATOM     65  C   UNL A   1      43.833  28.870  33.049  1.00  0.00     0.031 C 
ATOM     66  C   UNL A   1      43.626  29.974  35.258  1.00  0.00     0.034 A 
BRANCH  53  67
ATOM     67  C   UNL A   1      40.029  33.796  38.561  1.00  0.00     0.023 A 
ATOM     68  C   UNL A   1      39.117  33.375  39.545  1.00  0.00     0.031 A 
ATOM     69  C   UNL A   1      40.752  34.979  38.796  1.00  0.00     0.131 A 
ATOM     70  C   UNL A   1      38.911  34.161  40.690  1.00  0.00     0.055 A 
ATOM     71  C   UNL A   1      40.600  35.715  39.972  1.00  0.00     0.041 A 
ATOM     72  F   UNL A   1      41.615  35.446  37.879  1.00  0.00    -0.206 F 
ATOM     73  C   UNL A   1      39.667  35.313  40.923  1.00  0.00     0.022 A 
BRANCH  70  74
ATOM     74  S   UNL A   1      37.554  33.727  41.812  1.00  0.00     0.124 S 
ATOM     75  O   UNL A   1      38.176  32.700  42.645  1.00  0.00    -0.237 OA
ATOM     76  O   UNL A   1      37.269  34.997  42.469  1.00  0.00    -0.237 OA
ATOM     77  O   UNL A   1      36.508  33.240  40.913  1.00  0.00    -0.744 OA
ENDBRANCH  70  74
ENDBRANCH  53  67
BRANCH  54  78
ATOM     78  C   UNL A   1      41.215  29.143  29.746  1.00  0.00     0.023 A 
ATOM     79  C   UNL A   1      40.743  27.850  29.468  1.00  0.00     0.031 A 
ATOM     80  C   UNL A   1      41.993  29.782  28.762  1.00  0.00     0.131 A 
ATOM     81  C   UNL A   1      41.103  27.215  28.267  1.00  0.00     0.055 A 
ATOM     82  C   UNL A   1      42.293  29.172  27.542  1.00  0.00     0.041 A 
ATOM     83  F   UNL A   1      42.482  31.014  28.976  1.00  0.00    -0.206 F 
ATOM     84  C   UNL A   1      41.862  27.873  27.297  1.00  0.00     0.022 A 
BRANCH  81  85
ATOM     85  S   UNL A   1      40.666  25.468  28.040  1.00  0.00     0.124 S 
ATOM     86  O   UNL A   1      40.612  25.363  26.586  1.00  0.00    -0.237 OA
ATOM     87  O   UNL A   1      41.782  24.790  28.691  1.00  0.00    -0.237 OA
ATOM     88  O   UNL A   1      39.381  25.345  28.724  1.00  0.00    -0.744 OA
ENDBRANCH  81  85
ENDBRANCH  54  78
BRANCH  66  89
ATOM     89  C   UNL A   1      44.902  29.278  35.675  1.00  0.00     0.023 A 
ATOM     90  C   UNL A   1      46.166  29.861  35.478  1.00  0.00     0.031 A 
ATOM     91  C   UNL A   1      44.851  28.001  36.264  1.00  0.00     0.131 A 
ATOM     92  C   UNL A   1      47.327  29.141  35.801  1.00  0.00     0.055 A 
ATOM     93  C   UNL A   1      46.005  27.321  36.653  1.00  0.00     0.041 A 
ATOM     94  F   UNL A   1      43.673  27.391  36.473  1.00  0.00    -0.206 F 
ATOM     95  C   UNL A   1      47.254  27.884  36.407  1.00  0.00     0.022 A 
BRANCH  92  96
ATOM     96  S   UNL A   1      48.936  29.817  35.307  1.00  0.00     0.124 S 
ATOM     97  O   UNL A   1      49.511  30.199  36.592  1.00  0.00    -0.237 OA
ATOM     98  O   UNL A   1      49.561  28.681  34.640  1.00  0.00    -0.237 OA
ATOM     99  O   UNL A   1      48.584  30.933  34.429  1.00  0.00    -0.744 OA
ENDBRANCH  92  96
ENDBRANCH  66  89
ENDBRANCH  40  41
ENDBRANCH  33  35
ENDBRANCH  32  33
ENDBRANCH  31  32
ENDBRANCH  30  31
ENDBRANCH  29  30
ENDBRANCH  28  29
ENDBRANCH  27  28
ENDBRANCH  26  27
ENDBRANCH   1  26
TORSDOF 28
ENDMDL
MODEL 3
REMARK VINA RESULT:      -8.2      2.281      8.182
REMARK SMILES C[C@@H]([NH3+])CCC(=O)N[C@H]1C=C[C@@H](C(=O)OCCOCCOCCOCCOC(=O)c2ccc(-c3c4nc(c(-c5cc(S(=O)(=O)[O-])ccc5F)c5ccc([nH]5)c(-c5cc(S(=O)(=O)[O-])ccc5F)c5nc(c(-c6cc(S(=O)(=O)[O-])ccc6F)c6ccc3[nH]6)C=C5)C=C4)cc2)C1
REMARK SMILES IDX 20 1 19 2 18 3 17 4 16 5 15 6 13 7 14 8 12 9 9 10 10 11
REMARK SMILES IDX 93 12 11 13 8 14 6 15 7 16 5 18 4 19 2 20 1 21 3 22 21 26
REMARK SMILES IDX 22 27 23 28 24 29 25 30 26 31 27 32 28 33 29 34 30 35 31 36
REMARK SMILES IDX 92 37 32 38 91 39 33 40 34 41 35 42 85 43 36 44 90 45 84 46
REMARK SMILES IDX 86 47 37 48 89 49 83 50 82 51 38 53 70 54 50 55 69 56 51 57
REMARK SMILES IDX 54 58 68 59 87 60 52 61 53 62 67 64 88 65 55 66 39 67 40 68
REMARK SMILES IDX 48 69 41 70 47 71 49 72 46 73 42 74 43 75 44 76 45 77 71 78
REMARK SMILES IDX 72 79 80 80 73 81 79 82 81 83 78 84 74 85 75 86 76 87 77 88
REMARK SMILES IDX 56 89 57 90 65 91 58 92 64 93 66 94 63 95 59 96 60 97 61 98
REMARK SMILES IDX 62 99
REMARK H PARENT 8 17 3 23 3 24 3 25 86 52 54 63
REMARK Flexibility Score: inf
ROOT
ATOM      1  C   UNL A   1      36.307  31.918  28.011  1.00  0.00     0.188 C 
ENDROOT
BRANCH   1   2
ATOM      2  C   UNL A   1      35.965  30.433  27.818  1.00  0.00     0.188 C 
BRANCH   2   3
ATOM      3  O   UNL A   1      34.613  30.119  28.080  1.00  0.00    -0.376 OA
BRANCH   3   4
ATOM      4  C   UNL A   1      33.621  30.970  27.524  1.00  0.00     0.202 C 
BRANCH   4   5
ATOM      5  C   UNL A   1      32.555  30.371  26.593  1.00  0.00     0.261 C 
BRANCH   5   6
ATOM      6  O   UNL A   1      31.797  29.285  27.149  1.00  0.00    -0.463 OA
BRANCH   6   7
ATOM      7  C   UNL A   1      31.871  28.061  26.572  1.00  0.00     0.312 C 
ATOM      8  O   UNL A   1      31.114  27.132  26.826  1.00  0.00    -0.252 OA
BRANCH   7   9
ATOM      9  C   UNL A   1      33.014  27.967  25.546  1.00  0.00     0.124 C 
ATOM     10  C   UNL A   1      33.707  26.481  23.678  1.00  0.00     0.106 C 
ATOM     11  C   UNL A   1      33.009  27.718  23.203  1.00  0.00    -0.006 C 
ATOM     12  C   UNL A   1      33.461  26.551  25.175  1.00  0.00     0.048 C 
ATOM     13  C   UNL A   1      32.641  28.523  24.210  1.00  0.00    -0.014 C 
BRANCH  10  14
ATOM     14  N   UNL A   1      33.192  25.325  22.963  1.00  0.00    -0.350 N 
ATOM     15  C   UNL A   1      33.602  24.021  22.945  1.00  0.00     0.220 C 
ATOM     16  O   UNL A   1      33.575  23.436  21.858  1.00  0.00    -0.275 OA
ATOM     17  H   UNL A   1      32.413  25.513  22.392  1.00  0.00     0.164 HD
BRANCH  15  18
ATOM     18  C   UNL A   1      33.954  23.263  24.212  1.00  0.00     0.106 C 
BRANCH  18  19
ATOM     19  C   UNL A   1      33.830  21.738  24.170  1.00  0.00     0.074 C 
BRANCH  19  20
ATOM     20  C   UNL A   1      34.812  20.909  25.019  1.00  0.00     0.178 C 
ATOM     21  C   UNL A   1      35.930  21.713  25.686  1.00  0.00     0.075 C 
BRANCH  20  22
ATOM     22  N   UNL A   1      34.068  20.317  26.137  1.00  0.00    -0.355 N 
ATOM     23  H   UNL A   1      34.719  19.858  26.773  1.00  0.00     0.344 HD
ATOM     24  H   UNL A   1      33.403  19.631  25.777  1.00  0.00     0.344 HD
ATOM     25  H   UNL A   1      33.563  21.050  26.636  1.00  0.00     0.344 HD
ENDBRANCH  20  22
ENDBRANCH  19  20
ENDBRANCH  18  19
ENDBRANCH  15  18
ENDBRANCH  10  14
ENDBRANCH   7   9
ENDBRANCH   6   7
ENDBRANCH   5   6
ENDBRANCH   4   5
ENDBRANCH   3   4
ENDBRANCH   2   3
ENDBRANCH   1   2
BRANCH   1  26
ATOM     26  O   UNL A   1      35.813  32.658  29.109  1.00  0.00    -0.377 OA
BRANCH  26  27
ATOM     27  C   UNL A   1      35.626  34.058  28.962  1.00  0.00     0.188 C 
BRANCH  27  28
ATOM     28  C   UNL A   1      34.372  34.616  28.255  1.00  0.00     0.188 C 
BRANCH  28  29
ATOM     29  O   UNL A   1      34.399  36.009  27.979  1.00  0.00    -0.376 OA
BRANCH  29  30
ATOM     30  C   UNL A   1      33.602  36.835  28.816  1.00  0.00     0.202 C 
BRANCH  30  31
ATOM     31  C   UNL A   1      32.796  36.120  29.915  1.00  0.00     0.261 C 
BRANCH  31  32
ATOM     32  O   UNL A   1      33.189  36.415  31.263  1.00  0.00    -0.460 OA
BRANCH  32  33
ATOM     33  C   UNL A   1      32.966  35.434  32.169  1.00  0.00     0.338 C 
ATOM     34  O   UNL A   1      31.890  35.086  32.608  1.00  0.00    -0.246 OA
BRANCH  33  35
ATOM     35  C   UNL A   1      34.240  34.717  32.388  1.00  0.00     0.060 A 
ATOM     36  C   UNL A   1      34.188  33.391  32.834  1.00  0.00     0.016 A 
ATOM     37  C   UNL A   1      35.469  35.341  32.163  1.00  0.00     0.016 A 
ATOM     38  C   UNL A   1      35.367  32.682  33.058  1.00  0.00     0.010 A 
ATOM     39  C   UNL A   1      36.653  34.641  32.424  1.00  0.00     0.010 A 
ATOM     40  C   UNL A   1      36.605  33.315  32.894  1.00  0.00    -0.014 A 
BRANCH  40  41
ATOM     41  C   UNL A   1      37.822  32.646  33.416  1.00  0.00     0.031 A 
ATOM     42  C   UNL A   1      38.409  31.518  32.611  1.00  0.00     0.074 A 
ATOM     43  C   UNL A   1      38.429  33.071  34.539  1.00  0.00     0.049 A 
ATOM     44  N   UNL A   1      39.468  30.789  32.847  1.00  0.00    -0.248 NA
ATOM     45  C   UNL A   1      37.705  31.172  31.365  1.00  0.00     0.031 C 
ATOM     46  C   UNL A   1      37.980  34.189  35.368  1.00  0.00     0.029 A 
ATOM     47  N   UNL A   1      39.557  32.613  35.174  1.00  0.00    -0.354 N 
ATOM     48  C   UNL A   1      39.557  29.898  31.783  1.00  0.00     0.074 A 
ATOM     49  C   UNL A   1      38.429  30.157  30.916  1.00  0.00     0.031 C 
ATOM     50  C   UNL A   1      38.822  34.323  36.410  1.00  0.00     0.029 A 
ATOM     51  C   UNL A   1      39.844  33.279  36.343  1.00  0.00     0.049 A 
ATOM     52  H   UNL A   1      40.108  31.875  34.826  1.00  0.00     0.167 HD
ATOM     53  C   UNL A   1      40.500  28.952  31.550  1.00  0.00     0.034 A 
ATOM     54  C   UNL A   1      40.804  33.052  37.264  1.00  0.00     0.034 A 
ATOM     55  C   UNL A   1      41.609  28.696  32.435  1.00  0.00     0.049 A 
ATOM     56  C   UNL A   1      41.789  31.928  37.027  1.00  0.00     0.074 A 
ATOM     57  C   UNL A   1      42.628  27.771  32.290  1.00  0.00     0.029 A 
ATOM     58  N   UNL A   1      41.836  29.350  33.639  1.00  0.00    -0.354 N 
ATOM     59  N   UNL A   1      41.875  31.103  36.007  1.00  0.00    -0.248 NA
ATOM     60  C   UNL A   1      42.811  31.711  38.059  1.00  0.00     0.031 C 
ATOM     61  C   UNL A   1      43.416  27.804  33.444  1.00  0.00     0.029 A 
ATOM     62  C   UNL A   1      42.952  28.818  34.266  1.00  0.00     0.049 A 
ATOM     63  H   UNL A   1      41.283  30.083  33.996  1.00  0.00     0.167 HD
ATOM     64  C   UNL A   1      42.982  30.295  36.262  1.00  0.00     0.074 A 
ATOM     65  C   UNL A   1      43.541  30.746  37.519  1.00  0.00     0.031 C 
ATOM     66  C   UNL A   1      43.493  29.274  35.526  1.00  0.00     0.034 A 
BRANCH  53  67
ATOM     67  C   UNL A   1      40.331  28.086  30.326  1.00  0.00     0.023 A 
ATOM     68  C   UNL A   1      41.139  28.240  29.185  1.00  0.00     0.031 A 
ATOM     69  C   UNL A   1      39.336  27.092  30.301  1.00  0.00     0.131 A 
ATOM     70  C   UNL A   1      40.898  27.452  28.048  1.00  0.00     0.055 A 
ATOM     71  C   UNL A   1      39.154  26.260  29.196  1.00  0.00     0.041 A 
ATOM     72  F   UNL A   1      38.516  26.919  31.350  1.00  0.00    -0.206 F 
ATOM     73  C   UNL A   1      39.931  26.444  28.056  1.00  0.00     0.022 A 
BRANCH  70  74
ATOM     74  S   UNL A   1      41.783  27.845  26.514  1.00  0.00     0.124 S 
ATOM     75  O   UNL A   1      41.361  29.224  26.275  1.00  0.00    -0.237 OA
ATOM     76  O   UNL A   1      43.178  27.661  26.897  1.00  0.00    -0.237 OA
ATOM     77  O   UNL A   1      41.263  26.869  25.558  1.00  0.00    -0.744 OA
ENDBRANCH  70  74
ENDBRANCH  53  67
BRANCH  54  78
ATOM     78  C   UNL A   1      40.863  33.855  38.523  1.00  0.00     0.023 A 
ATOM     79  C   UNL A   1      41.702  34.975  38.643  1.00  0.00     0.031 A 
ATOM     80  C   UNL A   1      40.140  33.455  39.663  1.00  0.00     0.131 A 
ATOM     81  C   UNL A   1      41.843  35.617  39.884  1.00  0.00     0.055 A 
ATOM     82  C   UNL A   1      40.234  34.137  40.878  1.00  0.00     0.041 A 
ATOM     83  F   UNL A   1      39.331  32.385  39.613  1.00  0.00    -0.206 F 
ATOM     84  C   UNL A   1      41.103  35.215  40.998  1.00  0.00     0.022 A 
BRANCH  81  85
ATOM     85  S   UNL A   1      43.101  36.915  40.057  1.00  0.00     0.124 S 
ATOM     86  O   UNL A   1      43.677  36.598  41.359  1.00  0.00    -0.237 OA
ATOM     87  O   UNL A   1      43.955  36.664  38.900  1.00  0.00    -0.237 OA
ATOM     88  O   UNL A   1      42.326  38.151  40.000  1.00  0.00    -0.744 OA
ENDBRANCH  81  85
ENDBRANCH  54  78
BRANCH  66  89
ATOM     89  C   UNL A   1      44.751  28.612  36.042  1.00  0.00     0.023 A 
ATOM     90  C   UNL A   1      44.708  27.483  36.879  1.00  0.00     0.031 A 
ATOM     91  C   UNL A   1      46.014  29.131  35.703  1.00  0.00     0.131 A 
ATOM     92  C   UNL A   1      45.898  26.955  37.404  1.00  0.00     0.055 A 
ATOM     93  C   UNL A   1      47.197  28.556  36.166  1.00  0.00     0.041 A 
ATOM     94  F   UNL A   1      46.119  30.210  34.910  1.00  0.00    -0.206 F 
ATOM     95  C   UNL A   1      47.144  27.470  37.035  1.00  0.00     0.022 A 
BRANCH  92  96
ATOM     96  S   UNL A   1      45.792  25.661  38.671  1.00  0.00     0.124 S 
ATOM     97  O   UNL A   1      47.142  25.109  38.653  1.00  0.00    -0.237 OA
ATOM     98  O   UNL A   1      45.428  26.420  39.862  1.00  0.00    -0.237 OA
ATOM     99  O   UNL A   1      44.750  24.769  38.163  1.00  0.00    -0.744 OA
ENDBRANCH  92  96
ENDBRANCH  66  89
ENDBRANCH  40  41
ENDBRANCH  33  35
ENDBRANCH  32  33
ENDBRANCH  31  32
ENDBRANCH  30  31
ENDBRANCH  29  30
ENDBRANCH  28  29
ENDBRANCH  27  28
ENDBRANCH  26  27
ENDBRANCH   1  26
TORSDOF 28
ENDMDL
