MODEL 1
REMARK VINA RESULT:      -7.2      0.000      0.000
REMARK SMILES CC[N@@H+]1CCO[C@@H](Cn2cc(C(=O)OCCOCCOCCOCCOC(=O)c3ccc(-c4c5nc(c(-c6cc(S(=O)(=O)[O-])ccc6F)c6ccc([nH]6)c(-c6cc(S(=O)(=O)[O-])ccc6F)c6nc(c(-c7cc(S(=O)(=O)[O-])ccc7F)c7ccc4[nH]7)C=C6)C=C5)cc3)nn2)C1
REMARK SMILES IDX 20 1 19 2 18 3 17 4 16 5 15 6 14 7 12 8 13 9 11 10 9 11
REMARK SMILES IDX 10 12 93 13 92 14 8 15 7 16 3 17 4 18 94 19 5 21 6 22 2 23
REMARK SMILES IDX 1 24 21 25 22 26 23 27 24 28 25 29 26 30 27 31 28 32 29 33
REMARK SMILES IDX 30 34 91 35 31 36 90 37 32 38 33 39 34 40 84 41 35 42 89 43
REMARK SMILES IDX 83 44 85 45 36 46 88 47 82 48 81 49 37 51 69 52 49 53 68 54
REMARK SMILES IDX 50 55 53 56 67 57 86 58 51 59 52 60 66 62 87 63 54 64 38 65
REMARK SMILES IDX 39 66 47 67 40 68 46 69 48 70 45 71 41 72 42 73 43 74 44 75
REMARK SMILES IDX 70 76 71 77 79 78 72 79 78 80 80 81 77 82 73 83 74 84 75 85
REMARK SMILES IDX 76 86 55 87 56 88 64 89 57 90 63 91 65 92 62 93 58 94 59 95
REMARK SMILES IDX 60 96 61 97
REMARK H PARENT 3 20 85 50 53 61
REMARK Flexibility Score: inf
ROOT
ATOM      1  O   UNL A   1      48.849  20.358  38.918  1.00  0.00    -0.377 OA
ENDROOT
BRANCH   1   2
ATOM      2  C   UNL A   1      47.967  21.427  39.203  1.00  0.00     0.188 C 
BRANCH   2   3
ATOM      3  C   UNL A   1      46.746  21.501  38.260  1.00  0.00     0.188 C 
BRANCH   3   4
ATOM      4  O   UNL A   1      45.667  22.406  38.473  1.00  0.00    -0.376 OA
BRANCH   4   5
ATOM      5  C   UNL A   1      45.726  23.788  38.165  1.00  0.00     0.202 C 
BRANCH   5   6
ATOM      6  C   UNL A   1      44.764  24.826  38.765  1.00  0.00     0.261 C 
BRANCH   6   7
ATOM      7  O   UNL A   1      44.488  25.968  37.960  1.00  0.00    -0.458 OA
BRANCH   7   8
ATOM      8  C   UNL A   1      43.312  25.927  37.280  1.00  0.00     0.360 C 
ATOM      9  O   UNL A   1      42.634  24.911  37.125  1.00  0.00    -0.244 OA
BRANCH   8  10
ATOM     10  C   UNL A   1      42.889  27.249  36.857  1.00  0.00     0.190 A 
ATOM     11  N   UNL A   1      41.911  28.959  35.959  1.00  0.00    -0.249 N 
ATOM     12  C   UNL A   1      41.872  27.594  35.984  1.00  0.00     0.147 A 
ATOM     13  N   UNL A   1      42.962  29.428  36.650  1.00  0.00    -0.066 NA
ATOM     14  N   UNL A   1      43.548  28.394  37.234  1.00  0.00    -0.123 NA
BRANCH  11  15
ATOM     15  C   UNL A   1      40.814  29.851  35.648  1.00  0.00     0.184 C 
BRANCH  15  16
ATOM     16  C   UNL A   1      41.138  31.271  36.119  1.00  0.00     0.194 C 
ATOM     17  N   UNL A   1      41.923  33.558  35.400  1.00  0.00    -0.331 N 
ATOM     18  C   UNL A   1      40.826  34.086  36.240  1.00  0.00     0.291 C 
ATOM     19  C   UNL A   1      41.517  32.211  34.943  1.00  0.00     0.296 C 
ATOM     20  H   UNL A   1      42.077  34.156  34.587  1.00  0.00     0.348 HD
ATOM     21  C   UNL A   1      40.346  33.122  37.345  1.00  0.00     0.222 C 
ATOM     22  O   UNL A   1      40.013  31.822  36.828  1.00  0.00    -0.365 OA
BRANCH  17  23
ATOM     23  C   UNL A   1      43.215  33.573  36.109  1.00  0.00     0.258 C 
ATOM     24  C   UNL A   1      44.427  33.560  35.180  1.00  0.00     0.071 C 
ENDBRANCH  17  23
ENDBRANCH  15  16
ENDBRANCH  11  15
ENDBRANCH   8  10
ENDBRANCH   7   8
ENDBRANCH   6   7
ENDBRANCH   5   6
ENDBRANCH   4   5
ENDBRANCH   3   4
ENDBRANCH   2   3
ENDBRANCH   1   2
BRANCH   1  25
ATOM     25  C   UNL A   1      48.915  19.961  37.549  1.00  0.00     0.188 C 
BRANCH  25  26
ATOM     26  C   UNL A   1      50.182  20.299  36.712  1.00  0.00     0.188 C 
BRANCH  26  27
ATOM     27  O   UNL A   1      49.924  20.875  35.437  1.00  0.00    -0.376 OA
BRANCH  27  28
ATOM     28  C   UNL A   1      50.328  22.190  35.088  1.00  0.00     0.202 C 
BRANCH  28  29
ATOM     29  C   UNL A   1      49.394  23.342  35.456  1.00  0.00     0.261 C 
BRANCH  29  30
ATOM     30  O   UNL A   1      48.589  23.754  34.372  1.00  0.00    -0.460 OA
BRANCH  30  31
ATOM     31  C   UNL A   1      47.267  23.639  34.592  1.00  0.00     0.338 C 
ATOM     32  O   UNL A   1      46.644  22.613  34.822  1.00  0.00    -0.246 OA
BRANCH  31  33
ATOM     33  C   UNL A   1      46.672  24.974  34.469  1.00  0.00     0.060 A 
ATOM     34  C   UNL A   1      45.289  24.991  34.628  1.00  0.00     0.016 A 
ATOM     35  C   UNL A   1      47.369  25.902  33.680  1.00  0.00     0.016 A 
ATOM     36  C   UNL A   1      44.582  25.615  33.639  1.00  0.00     0.010 A 
ATOM     37  C   UNL A   1      46.667  26.495  32.678  1.00  0.00     0.010 A 
ATOM     38  C   UNL A   1      45.305  26.222  32.609  1.00  0.00    -0.014 A 
BRANCH  38  39
ATOM     39  C   UNL A   1      44.592  26.622  31.431  1.00  0.00     0.031 A 
ATOM     40  C   UNL A   1      44.704  25.603  30.377  1.00  0.00     0.074 A 
ATOM     41  C   UNL A   1      43.857  27.747  31.408  1.00  0.00     0.049 A 
ATOM     42  N   UNL A   1      45.401  25.682  29.296  1.00  0.00    -0.248 NA
ATOM     43  C   UNL A   1      44.229  24.244  30.690  1.00  0.00     0.031 C 
ATOM     44  C   UNL A   1      43.530  28.668  32.499  1.00  0.00     0.029 A 
ATOM     45  N   UNL A   1      43.140  28.244  30.374  1.00  0.00    -0.354 N 
ATOM     46  C   UNL A   1      45.235  24.456  28.673  1.00  0.00     0.074 A 
ATOM     47  C   UNL A   1      44.763  23.555  29.683  1.00  0.00     0.031 C 
ATOM     48  C   UNL A   1      42.491  29.451  32.121  1.00  0.00     0.029 A 
ATOM     49  C   UNL A   1      42.162  29.162  30.735  1.00  0.00     0.049 A 
ATOM     50  H   UNL A   1      43.299  27.976  29.441  1.00  0.00     0.167 HD
ATOM     51  C   UNL A   1      45.225  24.361  27.318  1.00  0.00     0.034 A 
ATOM     52  C   UNL A   1      41.099  29.514  29.958  1.00  0.00     0.034 A 
ATOM     53  C   UNL A   1      45.793  25.550  26.719  1.00  0.00     0.049 A 
ATOM     54  C   UNL A   1      41.496  29.193  28.552  1.00  0.00     0.074 A 
ATOM     55  C   UNL A   1      47.036  26.150  26.790  1.00  0.00     0.029 A 
ATOM     56  N   UNL A   1      44.929  26.530  26.274  1.00  0.00    -0.354 N 
ATOM     57  N   UNL A   1      42.488  29.794  27.943  1.00  0.00    -0.248 NA
ATOM     58  C   UNL A   1      41.184  27.864  28.037  1.00  0.00     0.031 C 
ATOM     59  C   UNL A   1      46.765  27.547  26.873  1.00  0.00     0.029 A 
ATOM     60  C   UNL A   1      45.386  27.739  26.748  1.00  0.00     0.049 A 
ATOM     61  H   UNL A   1      44.128  26.389  25.719  1.00  0.00     0.167 HD
ATOM     62  C   UNL A   1      43.184  28.788  27.285  1.00  0.00     0.074 A 
ATOM     63  C   UNL A   1      42.290  27.629  27.319  1.00  0.00     0.031 C 
ATOM     64  C   UNL A   1      44.532  28.877  27.055  1.00  0.00     0.034 A 
BRANCH  51  65
ATOM     65  C   UNL A   1      44.382  23.374  26.551  1.00  0.00     0.023 A 
ATOM     66  C   UNL A   1      43.007  23.361  26.839  1.00  0.00     0.031 A 
ATOM     67  C   UNL A   1      44.856  22.291  25.770  1.00  0.00     0.131 A 
ATOM     68  C   UNL A   1      42.202  22.279  26.452  1.00  0.00     0.055 A 
ATOM     69  C   UNL A   1      44.036  21.254  25.326  1.00  0.00     0.041 A 
ATOM     70  F   UNL A   1      46.146  22.113  25.465  1.00  0.00    -0.206 F 
ATOM     71  C   UNL A   1      42.705  21.225  25.695  1.00  0.00     0.022 A 
BRANCH  68  72
ATOM     72  S   UNL A   1      40.521  22.192  27.110  1.00  0.00     0.124 S 
ATOM     73  O   UNL A   1      40.357  23.525  27.681  1.00  0.00    -0.237 OA
ATOM     74  O   UNL A   1      39.746  21.905  25.908  1.00  0.00    -0.237 OA
ATOM     75  O   UNL A   1      40.595  21.102  28.081  1.00  0.00    -0.744 OA
ENDBRANCH  68  72
ENDBRANCH  51  65
BRANCH  52  76
ATOM     76  C   UNL A   1      39.684  29.647  30.435  1.00  0.00     0.023 A 
ATOM     77  C   UNL A   1      38.898  30.804  30.230  1.00  0.00     0.031 A 
ATOM     78  C   UNL A   1      38.999  28.512  30.936  1.00  0.00     0.131 A 
ATOM     79  C   UNL A   1      37.512  30.793  30.536  1.00  0.00     0.055 A 
ATOM     80  C   UNL A   1      37.636  28.510  31.242  1.00  0.00     0.041 A 
ATOM     81  F   UNL A   1      39.611  27.327  31.072  1.00  0.00    -0.206 F 
ATOM     82  C   UNL A   1      36.883  29.650  31.035  1.00  0.00     0.022 A 
BRANCH  79  83
ATOM     83  S   UNL A   1      36.466  32.252  30.209  1.00  0.00     0.124 S 
ATOM     84  O   UNL A   1      37.313  33.349  30.662  1.00  0.00    -0.237 OA
ATOM     85  O   UNL A   1      36.235  32.160  28.772  1.00  0.00    -0.237 OA
ATOM     86  O   UNL A   1      35.279  32.015  31.033  1.00  0.00    -0.744 OA
ENDBRANCH  79  83
ENDBRANCH  52  76
BRANCH  64  87
ATOM     87  C   UNL A   1      45.236  30.198  27.335  1.00  0.00     0.023 A 
ATOM     88  C   UNL A   1      45.179  31.343  26.504  1.00  0.00     0.031 A 
ATOM     89  C   UNL A   1      45.867  30.339  28.584  1.00  0.00     0.131 A 
ATOM     90  C   UNL A   1      45.744  32.563  26.938  1.00  0.00     0.055 A 
ATOM     91  C   UNL A   1      46.400  31.551  29.019  1.00  0.00     0.041 A 
ATOM     92  F   UNL A   1      45.933  29.298  29.431  1.00  0.00    -0.206 F 
ATOM     93  C   UNL A   1      46.346  32.668  28.195  1.00  0.00     0.022 A 
BRANCH  90  94
ATOM     94  S   UNL A   1      45.727  34.038  25.864  1.00  0.00     0.124 S 
ATOM     95  O   UNL A   1      44.931  33.614  24.718  1.00  0.00    -0.237 OA
ATOM     96  O   UNL A   1      45.120  35.048  26.727  1.00  0.00    -0.237 OA
ATOM     97  O   UNL A   1      47.144  34.261  25.571  1.00  0.00    -0.744 OA
ENDBRANCH  90  94
ENDBRANCH  64  87
ENDBRANCH  38  39
ENDBRANCH  31  33
ENDBRANCH  30  31
ENDBRANCH  29  30
ENDBRANCH  28  29
ENDBRANCH  27  28
ENDBRANCH  26  27
ENDBRANCH  25  26
ENDBRANCH   1  25
TORSDOF 26
ENDMDL
MODEL 2
REMARK VINA RESULT:      -7.1      3.512      8.518
REMARK SMILES CC[N@@H+]1CCO[C@@H](Cn2cc(C(=O)OCCOCCOCCOCCOC(=O)c3ccc(-c4c5nc(c(-c6cc(S(=O)(=O)[O-])ccc6F)c6ccc([nH]6)c(-c6cc(S(=O)(=O)[O-])ccc6F)c6nc(c(-c7cc(S(=O)(=O)[O-])ccc7F)c7ccc4[nH]7)C=C6)C=C5)cc3)nn2)C1
REMARK SMILES IDX 20 1 19 2 18 3 17 4 16 5 15 6 14 7 12 8 13 9 11 10 9 11
REMARK SMILES IDX 10 12 93 13 92 14 8 15 7 16 3 17 4 18 94 19 5 21 6 22 2 23
REMARK SMILES IDX 1 24 21 25 22 26 23 27 24 28 25 29 26 30 27 31 28 32 29 33
REMARK SMILES IDX 30 34 91 35 31 36 90 37 32 38 33 39 34 40 84 41 35 42 89 43
REMARK SMILES IDX 83 44 85 45 36 46 88 47 82 48 81 49 37 51 69 52 49 53 68 54
REMARK SMILES IDX 50 55 53 56 67 57 86 58 51 59 52 60 66 62 87 63 54 64 38 65
REMARK SMILES IDX 39 66 47 67 40 68 46 69 48 70 45 71 41 72 42 73 43 74 44 75
REMARK SMILES IDX 70 76 71 77 79 78 72 79 78 80 80 81 77 82 73 83 74 84 75 85
REMARK SMILES IDX 76 86 55 87 56 88 64 89 57 90 63 91 65 92 62 93 58 94 59 95
REMARK SMILES IDX 60 96 61 97
REMARK H PARENT 3 20 85 50 53 61
REMARK Flexibility Score: inf
ROOT
ATOM      1  O   UNL A   1      40.493  35.306  34.169  1.00  0.00    -0.377 OA
ENDROOT
BRANCH   1   2
ATOM      2  C   UNL A   1      40.842  34.881  35.472  1.00  0.00     0.188 C 
BRANCH   2   3
ATOM      3  C   UNL A   1      40.067  35.604  36.596  1.00  0.00     0.188 C 
BRANCH   3   4
ATOM      4  O   UNL A   1      39.859  35.023  37.880  1.00  0.00    -0.376 OA
BRANCH   4   5
ATOM      5  C   UNL A   1      40.910  34.599  38.731  1.00  0.00     0.202 C 
BRANCH   5   6
ATOM      6  C   UNL A   1      41.554  33.205  38.641  1.00  0.00     0.261 C 
BRANCH   6   7
ATOM      7  O   UNL A   1      42.976  33.164  38.717  1.00  0.00    -0.458 OA
BRANCH   7   8
ATOM      8  C   UNL A   1      43.493  32.039  39.277  1.00  0.00     0.360 C 
ATOM      9  O   UNL A   1      42.937  31.381  40.157  1.00  0.00    -0.244 OA
BRANCH   8  10
ATOM     10  C   UNL A   1      44.730  31.636  38.633  1.00  0.00     0.190 A 
ATOM     11  N   UNL A   1      46.282  30.666  37.478  1.00  0.00    -0.249 N 
ATOM     12  C   UNL A   1      44.958  30.560  37.793  1.00  0.00     0.147 A 
ATOM     13  N   UNL A   1      46.872  31.647  38.178  1.00  0.00    -0.066 NA
ATOM     14  N   UNL A   1      45.926  32.272  38.863  1.00  0.00    -0.123 NA
BRANCH  11  15
ATOM     15  C   UNL A   1      46.932  30.156  36.288  1.00  0.00     0.184 C 
BRANCH  15  16
ATOM     16  C   UNL A   1      46.141  30.560  35.041  1.00  0.00     0.194 C 
ATOM     17  N   UNL A   1      45.522  32.471  33.515  1.00  0.00    -0.331 N 
ATOM     18  C   UNL A   1      45.804  31.539  32.402  1.00  0.00     0.291 C 
ATOM     19  C   UNL A   1      46.356  32.050  34.662  1.00  0.00     0.296 C 
ATOM     20  H   UNL A   1      45.765  33.428  33.257  1.00  0.00     0.348 HD
ATOM     21  C   UNL A   1      45.715  30.045  32.780  1.00  0.00     0.222 C 
ATOM     22  O   UNL A   1      46.517  29.725  33.930  1.00  0.00    -0.365 OA
BRANCH  17  23
ATOM     23  C   UNL A   1      44.083  32.536  33.828  1.00  0.00     0.258 C 
ATOM     24  C   UNL A   1      43.769  33.272  35.128  1.00  0.00     0.071 C 
ENDBRANCH  17  23
ENDBRANCH  15  16
ENDBRANCH  11  15
ENDBRANCH   8  10
ENDBRANCH   7   8
ENDBRANCH   6   7
ENDBRANCH   5   6
ENDBRANCH   4   5
ENDBRANCH   3   4
ENDBRANCH   2   3
ENDBRANCH   1   2
BRANCH   1  25
ATOM     25  C   UNL A   1      40.489  34.288  33.169  1.00  0.00     0.188 C 
BRANCH  25  26
ATOM     26  C   UNL A   1      39.592  33.030  33.356  1.00  0.00     0.188 C 
BRANCH  26  27
ATOM     27  O   UNL A   1      38.434  32.990  32.529  1.00  0.00    -0.376 OA
BRANCH  27  28
ATOM     28  C   UNL A   1      38.466  32.553  31.179  1.00  0.00     0.202 C 
BRANCH  28  29
ATOM     29  C   UNL A   1      38.985  31.142  30.901  1.00  0.00     0.261 C 
BRANCH  29  30
ATOM     30  O   UNL A   1      37.948  30.186  30.846  1.00  0.00    -0.460 OA
BRANCH  30  31
ATOM     31  C   UNL A   1      37.315  30.127  29.660  1.00  0.00     0.338 C 
ATOM     32  O   UNL A   1      36.412  30.853  29.271  1.00  0.00    -0.246 OA
BRANCH  31  33
ATOM     33  C   UNL A   1      37.869  28.997  28.908  1.00  0.00     0.060 A 
ATOM     34  C   UNL A   1      38.248  27.922  29.706  1.00  0.00     0.016 A 
ATOM     35  C   UNL A   1      38.478  29.298  27.679  1.00  0.00     0.016 A 
ATOM     36  C   UNL A   1      39.517  27.454  29.515  1.00  0.00     0.010 A 
ATOM     37  C   UNL A   1      39.753  28.857  27.510  1.00  0.00     0.010 A 
ATOM     38  C   UNL A   1      40.283  28.050  28.510  1.00  0.00    -0.014 A 
BRANCH  38  39
ATOM     39  C   UNL A   1      41.691  27.780  28.487  1.00  0.00     0.031 A 
ATOM     40  C   UNL A   1      41.974  26.517  27.789  1.00  0.00     0.074 A 
ATOM     41  C   UNL A   1      42.581  28.665  28.968  1.00  0.00     0.049 A 
ATOM     42  N   UNL A   1      42.343  25.404  28.323  1.00  0.00    -0.248 NA
ATOM     43  C   UNL A   1      41.518  26.393  26.392  1.00  0.00     0.031 C 
ATOM     44  C   UNL A   1      42.364  30.028  29.459  1.00  0.00     0.029 A 
ATOM     45  N   UNL A   1      43.927  28.543  29.012  1.00  0.00    -0.354 N 
ATOM     46  C   UNL A   1      42.411  24.506  27.270  1.00  0.00     0.074 A 
ATOM     47  C   UNL A   1      41.640  25.080  26.206  1.00  0.00     0.031 C 
ATOM     48  C   UNL A   1      43.554  30.675  29.508  1.00  0.00     0.029 A 
ATOM     49  C   UNL A   1      44.613  29.742  29.162  1.00  0.00     0.049 A 
ATOM     50  H   UNL A   1      44.384  27.675  28.942  1.00  0.00     0.167 HD
ATOM     51  C   UNL A   1      43.330  23.507  27.266  1.00  0.00     0.034 A 
ATOM     52  C   UNL A   1      45.931  29.927  28.871  1.00  0.00     0.034 A 
ATOM     53  C   UNL A   1      43.865  23.301  28.595  1.00  0.00     0.049 A 
ATOM     54  C   UNL A   1      46.557  28.569  28.926  1.00  0.00     0.074 A 
ATOM     55  C   UNL A   1      43.299  22.941  29.804  1.00  0.00     0.029 A 
ATOM     56  N   UNL A   1      45.072  23.893  28.910  1.00  0.00    -0.354 N 
ATOM     57  N   UNL A   1      46.618  27.863  30.027  1.00  0.00    -0.248 NA
ATOM     58  C   UNL A   1      46.596  27.781  27.698  1.00  0.00     0.031 C 
ATOM     59  C   UNL A   1      43.939  23.769  30.770  1.00  0.00     0.029 A 
ATOM     60  C   UNL A   1      44.928  24.519  30.128  1.00  0.00     0.049 A 
ATOM     61  H   UNL A   1      45.888  23.872  28.360  1.00  0.00     0.167 HD
ATOM     62  C   UNL A   1      46.276  26.568  29.658  1.00  0.00     0.074 A 
ATOM     63  C   UNL A   1      46.346  26.563  28.196  1.00  0.00     0.031 C 
ATOM     64  C   UNL A   1      45.662  25.709  30.532  1.00  0.00     0.034 A 
BRANCH  51  65
ATOM     65  C   UNL A   1      43.997  22.983  26.020  1.00  0.00     0.023 A 
ATOM     66  C   UNL A   1      43.969  21.592  25.828  1.00  0.00     0.031 A 
ATOM     67  C   UNL A   1      44.866  23.704  25.164  1.00  0.00     0.131 A 
ATOM     68  C   UNL A   1      44.833  20.975  24.910  1.00  0.00     0.055 A 
ATOM     69  C   UNL A   1      45.671  23.092  24.203  1.00  0.00     0.041 A 
ATOM     70  F   UNL A   1      45.066  25.023  25.260  1.00  0.00    -0.206 F 
ATOM     71  C   UNL A   1      45.684  21.715  24.093  1.00  0.00     0.022 A 
BRANCH  68  72
ATOM     72  S   UNL A   1      44.949  19.172  24.930  1.00  0.00     0.124 S 
ATOM     73  O   UNL A   1      43.789  18.810  25.738  1.00  0.00    -0.237 OA
ATOM     74  O   UNL A   1      44.871  18.853  23.509  1.00  0.00    -0.237 OA
ATOM     75  O   UNL A   1      46.247  18.925  25.556  1.00  0.00    -0.744 OA
ENDBRANCH  68  72
ENDBRANCH  51  65
BRANCH  52  76
ATOM     76  C   UNL A   1      46.498  31.097  28.124  1.00  0.00     0.023 A 
ATOM     77  C   UNL A   1      45.761  31.851  27.183  1.00  0.00     0.031 A 
ATOM     78  C   UNL A   1      47.756  31.629  28.498  1.00  0.00     0.131 A 
ATOM     79  C   UNL A   1      46.293  33.057  26.657  1.00  0.00     0.055 A 
ATOM     80  C   UNL A   1      48.277  32.813  27.971  1.00  0.00     0.041 A 
ATOM     81  F   UNL A   1      48.500  31.062  29.459  1.00  0.00    -0.206 F 
ATOM     82  C   UNL A   1      47.544  33.539  27.052  1.00  0.00     0.022 A 
BRANCH  79  83
ATOM     83  S   UNL A   1      45.327  34.084  25.497  1.00  0.00     0.124 S 
ATOM     84  O   UNL A   1      46.367  34.850  24.821  1.00  0.00    -0.237 OA
ATOM     85  O   UNL A   1      44.630  33.085  24.695  1.00  0.00    -0.237 OA
ATOM     86  O   UNL A   1      44.460  34.871  26.377  1.00  0.00    -0.744 OA
ENDBRANCH  79  83
ENDBRANCH  52  76
BRANCH  64  87
ATOM     87  C   UNL A   1      45.549  26.112  31.996  1.00  0.00     0.023 A 
ATOM     88  C   UNL A   1      44.390  26.652  32.605  1.00  0.00     0.031 A 
ATOM     89  C   UNL A   1      46.626  25.783  32.838  1.00  0.00     0.131 A 
ATOM     90  C   UNL A   1      44.349  26.845  34.003  1.00  0.00     0.055 A 
ATOM     91  C   UNL A   1      46.571  25.951  34.221  1.00  0.00     0.041 A 
ATOM     92  F   UNL A   1      47.745  25.243  32.329  1.00  0.00    -0.206 F 
ATOM     93  C   UNL A   1      45.433  26.488  34.810  1.00  0.00     0.022 A 
BRANCH  90  94
ATOM     94  S   UNL A   1      42.887  27.587  34.804  1.00  0.00     0.124 S 
ATOM     95  O   UNL A   1      41.827  26.621  34.535  1.00  0.00    -0.237 OA
ATOM     96  O   UNL A   1      43.313  27.699  36.197  1.00  0.00    -0.237 OA
ATOM     97  O   UNL A   1      42.732  28.867  34.111  1.00  0.00    -0.744 OA
ENDBRANCH  90  94
ENDBRANCH  64  87
ENDBRANCH  38  39
ENDBRANCH  31  33
ENDBRANCH  30  31
ENDBRANCH  29  30
ENDBRANCH  28  29
ENDBRANCH  27  28
ENDBRANCH  26  27
ENDBRANCH  25  26
ENDBRANCH   1  25
TORSDOF 26
ENDMDL
MODEL 3
REMARK VINA RESULT:      -7.0      8.423     16.110
REMARK SMILES CC[N@@H+]1CCO[C@@H](Cn2cc(C(=O)OCCOCCOCCOCCOC(=O)c3ccc(-c4c5nc(c(-c6cc(S(=O)(=O)[O-])ccc6F)c6ccc([nH]6)c(-c6cc(S(=O)(=O)[O-])ccc6F)c6nc(c(-c7cc(S(=O)(=O)[O-])ccc7F)c7ccc4[nH]7)C=C6)C=C5)cc3)nn2)C1
REMARK SMILES IDX 20 1 19 2 18 3 17 4 16 5 15 6 14 7 12 8 13 9 11 10 9 11
REMARK SMILES IDX 10 12 93 13 92 14 8 15 7 16 3 17 4 18 94 19 5 21 6 22 2 23
REMARK SMILES IDX 1 24 21 25 22 26 23 27 24 28 25 29 26 30 27 31 28 32 29 33
REMARK SMILES IDX 30 34 91 35 31 36 90 37 32 38 33 39 34 40 84 41 35 42 89 43
REMARK SMILES IDX 83 44 85 45 36 46 88 47 82 48 81 49 37 51 69 52 49 53 68 54
REMARK SMILES IDX 50 55 53 56 67 57 86 58 51 59 52 60 66 62 87 63 54 64 38 65
REMARK SMILES IDX 39 66 47 67 40 68 46 69 48 70 45 71 41 72 42 73 43 74 44 75
REMARK SMILES IDX 70 76 71 77 79 78 72 79 78 80 80 81 77 82 73 83 74 84 75 85
REMARK SMILES IDX 76 86 55 87 56 88 64 89 57 90 63 91 65 92 62 93 58 94 59 95
REMARK SMILES IDX 60 96 61 97
REMARK H PARENT 3 20 85 50 53 61
REMARK Flexibility Score: inf
ROOT
ATOM      1  O   UNL A   1      44.046  42.121  26.258  1.00  0.00    -0.377 OA
ENDROOT
BRANCH   1   2
ATOM      2  C   UNL A   1      43.758  42.744  25.021  1.00  0.00     0.188 C 
BRANCH   2   3
ATOM      3  C   UNL A   1      44.996  42.957  24.123  1.00  0.00     0.188 C 
BRANCH   3   4
ATOM      4  O   UNL A   1      45.426  41.992  23.168  1.00  0.00    -0.376 OA
BRANCH   4   5
ATOM      5  C   UNL A   1      46.785  41.662  22.941  1.00  0.00     0.202 C 
BRANCH   5   6
ATOM      6  C   UNL A   1      47.335  41.267  21.560  1.00  0.00     0.261 C 
BRANCH   6   7
ATOM      7  O   UNL A   1      46.865  42.033  20.454  1.00  0.00    -0.458 OA
BRANCH   7   8
ATOM      8  C   UNL A   1      47.505  43.215  20.254  1.00  0.00     0.360 C 
ATOM      9  O   UNL A   1      48.709  43.323  20.022  1.00  0.00    -0.244 OA
BRANCH   8  10
ATOM     10  C   UNL A   1      46.578  44.331  20.232  1.00  0.00     0.190 A 
ATOM     11  N   UNL A   1      45.418  46.113  20.642  1.00  0.00    -0.249 N 
ATOM     12  C   UNL A   1      46.406  45.333  21.171  1.00  0.00     0.147 A 
ATOM     13  N   UNL A   1      44.910  45.564  19.527  1.00  0.00    -0.066 NA
ATOM     14  N   UNL A   1      45.635  44.491  19.246  1.00  0.00    -0.123 NA
BRANCH  11  15
ATOM     15  C   UNL A   1      45.188  47.518  20.906  1.00  0.00     0.184 C 
BRANCH  15  16
ATOM     16  C   UNL A   1      45.967  48.377  19.907  1.00  0.00     0.194 C 
ATOM     17  N   UNL A   1      46.002  50.563  18.648  1.00  0.00    -0.331 N 
ATOM     18  C   UNL A   1      47.425  50.648  19.040  1.00  0.00     0.291 C 
ATOM     19  C   UNL A   1      45.309  49.765  19.683  1.00  0.00     0.296 C 
ATOM     20  H   UNL A   1      45.582  51.492  18.604  1.00  0.00     0.348 HD
ATOM     21  C   UNL A   1      48.076  49.292  19.385  1.00  0.00     0.222 C 
ATOM     22  O   UNL A   1      47.320  48.558  20.363  1.00  0.00    -0.365 OA
BRANCH  17  23
ATOM     23  C   UNL A   1      45.837  50.028  17.285  1.00  0.00     0.258 C 
ATOM     24  C   UNL A   1      45.046  50.946  16.355  1.00  0.00     0.071 C 
ENDBRANCH  17  23
ENDBRANCH  15  16
ENDBRANCH  11  15
ENDBRANCH   8  10
ENDBRANCH   7   8
ENDBRANCH   6   7
ENDBRANCH   5   6
ENDBRANCH   4   5
ENDBRANCH   3   4
ENDBRANCH   2   3
ENDBRANCH   1   2
BRANCH   1  25
ATOM     25  C   UNL A   1      43.667  40.749  26.361  1.00  0.00     0.188 C 
BRANCH  25  26
ATOM     26  C   UNL A   1      44.652  39.725  26.995  1.00  0.00     0.188 C 
BRANCH  26  27
ATOM     27  O   UNL A   1      44.395  38.364  26.669  1.00  0.00    -0.376 OA
BRANCH  27  28
ATOM     28  C   UNL A   1      43.589  37.517  27.473  1.00  0.00     0.202 C 
BRANCH  28  29
ATOM     29  C   UNL A   1      43.333  37.941  28.918  1.00  0.00     0.261 C 
BRANCH  29  30
ATOM     30  O   UNL A   1      43.821  37.002  29.852  1.00  0.00    -0.460 OA
BRANCH  30  31
ATOM     31  C   UNL A   1      44.764  37.487  30.681  1.00  0.00     0.338 C 
ATOM     32  O   UNL A   1      45.538  38.407  30.458  1.00  0.00    -0.246 OA
BRANCH  31  33
ATOM     33  C   UNL A   1      44.739  36.688  31.910  1.00  0.00     0.060 A 
ATOM     34  C   UNL A   1      45.278  35.413  31.763  1.00  0.00     0.016 A 
ATOM     35  C   UNL A   1      43.736  36.999  32.842  1.00  0.00     0.016 A 
ATOM     36  C   UNL A   1      44.495  34.380  32.194  1.00  0.00     0.010 A 
ATOM     37  C   UNL A   1      42.941  35.972  33.242  1.00  0.00     0.010 A 
ATOM     38  C   UNL A   1      43.272  34.699  32.790  1.00  0.00    -0.014 A 
BRANCH  38  39
ATOM     39  C   UNL A   1      42.321  33.643  32.983  1.00  0.00     0.031 A 
ATOM     40  C   UNL A   1      41.211  33.753  32.024  1.00  0.00     0.074 A 
ATOM     41  C   UNL A   1      42.538  32.661  33.874  1.00  0.00     0.049 A 
ATOM     42  N   UNL A   1      40.004  34.122  32.278  1.00  0.00    -0.248 NA
ATOM     43  C   UNL A   1      41.547  33.734  30.589  1.00  0.00     0.031 C 
ATOM     44  C   UNL A   1      43.728  32.384  34.682  1.00  0.00     0.029 A 
ATOM     45  N   UNL A   1      41.734  31.611  34.159  1.00  0.00    -0.354 N 
ATOM     46  C   UNL A   1      39.366  34.130  31.048  1.00  0.00     0.074 A 
ATOM     47  C   UNL A   1      40.404  34.166  30.060  1.00  0.00     0.031 C 
ATOM     48  C   UNL A   1      43.652  31.120  35.162  1.00  0.00     0.029 A 
ATOM     49  C   UNL A   1      42.369  30.548  34.790  1.00  0.00     0.049 A 
ATOM     50  H   UNL A   1      40.775  31.602  33.938  1.00  0.00     0.167 HD
ATOM     51  C   UNL A   1      38.048  33.816  30.946  1.00  0.00     0.034 A 
ATOM     52  C   UNL A   1      41.887  29.275  34.844  1.00  0.00     0.034 A 
ATOM     53  C   UNL A   1      37.404  33.896  32.240  1.00  0.00     0.049 A 
ATOM     54  C   UNL A   1      40.411  29.387  34.633  1.00  0.00     0.074 A 
ATOM     55  C   UNL A   1      37.214  34.923  33.147  1.00  0.00     0.029 A 
ATOM     56  N   UNL A   1      37.234  32.729  32.955  1.00  0.00    -0.354 N 
ATOM     57  N   UNL A   1      39.622  30.013  35.470  1.00  0.00    -0.248 NA
ATOM     58  C   UNL A   1      39.905  29.312  33.265  1.00  0.00     0.031 C 
ATOM     59  C   UNL A   1      37.442  34.330  34.423  1.00  0.00     0.029 A 
ATOM     60  C   UNL A   1      37.657  32.961  34.245  1.00  0.00     0.049 A 
ATOM     61  H   UNL A   1      36.876  31.881  32.606  1.00  0.00     0.167 HD
ATOM     62  C   UNL A   1      38.759  30.763  34.679  1.00  0.00     0.074 A 
ATOM     63  C   UNL A   1      38.934  30.232  33.326  1.00  0.00     0.031 C 
ATOM     64  C   UNL A   1      38.224  31.944  35.119  1.00  0.00     0.034 A 
BRANCH  51  65
ATOM     65  C   UNL A   1      37.444  33.094  29.768  1.00  0.00     0.023 A 
ATOM     66  C   UNL A   1      36.245  33.616  29.257  1.00  0.00     0.031 A 
ATOM     67  C   UNL A   1      37.808  31.811  29.292  1.00  0.00     0.131 A 
ATOM     68  C   UNL A   1      35.431  32.849  28.409  1.00  0.00     0.055 A 
ATOM     69  C   UNL A   1      37.030  31.082  28.392  1.00  0.00     0.041 A 
ATOM     70  F   UNL A   1      38.880  31.140  29.728  1.00  0.00    -0.206 F 
ATOM     71  C   UNL A   1      35.815  31.585  27.971  1.00  0.00     0.022 A 
BRANCH  68  72
ATOM     72  S   UNL A   1      33.775  33.468  28.032  1.00  0.00     0.124 S 
ATOM     73  O   UNL A   1      33.107  32.259  27.563  1.00  0.00    -0.237 OA
ATOM     74  O   UNL A   1      33.347  33.980  29.330  1.00  0.00    -0.237 OA
ATOM     75  O   UNL A   1      34.020  34.482  27.009  1.00  0.00    -0.744 OA
ENDBRANCH  68  72
ENDBRANCH  51  65
BRANCH  52  76
ATOM     76  C   UNL A   1      42.691  28.033  34.603  1.00  0.00     0.023 A 
ATOM     77  C   UNL A   1      43.164  27.647  33.328  1.00  0.00     0.031 A 
ATOM     78  C   UNL A   1      43.196  27.296  35.703  1.00  0.00     0.131 A 
ATOM     79  C   UNL A   1      44.077  26.568  33.199  1.00  0.00     0.055 A 
ATOM     80  C   UNL A   1      44.089  26.231  35.568  1.00  0.00     0.041 A 
ATOM     81  F   UNL A   1      42.906  27.635  36.967  1.00  0.00    -0.206 F 
ATOM     82  C   UNL A   1      44.541  25.865  34.314  1.00  0.00     0.022 A 
BRANCH  79  83
ATOM     83  S   UNL A   1      44.755  26.100  31.570  1.00  0.00     0.124 S 
ATOM     84  O   UNL A   1      46.148  26.519  31.683  1.00  0.00    -0.237 OA
ATOM     85  O   UNL A   1      44.510  24.663  31.526  1.00  0.00    -0.237 OA
ATOM     86  O   UNL A   1      43.954  26.884  30.628  1.00  0.00    -0.744 OA
ENDBRANCH  79  83
ENDBRANCH  52  76
BRANCH  64  87
ATOM     87  C   UNL A   1      38.407  32.332  36.580  1.00  0.00     0.023 A 
ATOM     88  C   UNL A   1      37.601  31.876  37.652  1.00  0.00     0.031 A 
ATOM     89  C   UNL A   1      39.553  33.079  36.909  1.00  0.00     0.131 A 
ATOM     90  C   UNL A   1      37.956  32.178  38.985  1.00  0.00     0.055 A 
ATOM     91  C   UNL A   1      39.914  33.352  38.227  1.00  0.00     0.041 A 
ATOM     92  F   UNL A   1      40.375  33.520  35.943  1.00  0.00    -0.206 F 
ATOM     93  C   UNL A   1      39.114  32.906  39.272  1.00  0.00     0.022 A 
BRANCH  90  94
ATOM     94  S   UNL A   1      36.906  31.644  40.378  1.00  0.00     0.124 S 
ATOM     95  O   UNL A   1      37.758  30.712  41.107  1.00  0.00    -0.237 OA
ATOM     96  O   UNL A   1      36.612  32.906  41.053  1.00  0.00    -0.237 OA
ATOM     97  O   UNL A   1      35.754  31.026  39.718  1.00  0.00    -0.744 OA
ENDBRANCH  90  94
ENDBRANCH  64  87
ENDBRANCH  38  39
ENDBRANCH  31  33
ENDBRANCH  30  31
ENDBRANCH  29  30
ENDBRANCH  28  29
ENDBRANCH  27  28
ENDBRANCH  26  27
ENDBRANCH  25  26
ENDBRANCH   1  25
TORSDOF 26
ENDMDL
