MODEL 1
REMARK VINA RESULT:      -9.6      0.000      0.000
REMARK SMILES CC(=O)N1CC[NH2+]C[C@@H]1c1ccc(C(=O)OCCOCCOCCOCCOC(=O)c2ccc(-c3c4nc(c(-c5cc(S(=O)(=O)[O-])ccc5F)c5ccc([nH]5)c(-c5cc(S(=O)(=O)[O-])ccc5F)c5nc(c(-c6cc(S(=O)(=O)[O-])ccc6F)c6ccc3[nH]6)C=C5)C=C4)cc2)cc1
REMARK SMILES IDX 23 1 22 2 21 3 20 4 19 5 18 6 17 7 16 8 14 9 15 10 13 11
REMARK SMILES IDX 10 12 11 13 95 14 12 15 94 16 9 17 4 18 5 19 6 20 8 21 7 22
REMARK SMILES IDX 2 25 1 26 3 27 24 28 25 29 26 30 27 31 28 32 29 33 30 34
REMARK SMILES IDX 31 35 32 36 93 37 33 38 92 39 34 40 35 41 36 42 86 43 37 44
REMARK SMILES IDX 91 45 85 46 87 47 38 48 90 49 84 50 83 51 39 53 71 54 51 55
REMARK SMILES IDX 70 56 52 57 55 58 69 59 88 60 53 61 54 62 68 64 89 65 56 66
REMARK SMILES IDX 40 67 41 68 49 69 42 70 48 71 50 72 47 73 43 74 44 75 45 76
REMARK SMILES IDX 46 77 72 78 73 79 81 80 74 81 80 82 82 83 79 84 75 85 76 86
REMARK SMILES IDX 77 87 78 88 57 89 58 90 66 91 59 92 65 93 67 94 64 95 60 96
REMARK SMILES IDX 61 97 62 98 63 99
REMARK H PARENT 7 23 7 24 87 52 55 63
REMARK Flexibility Score: inf
ROOT
ATOM      1  C   UNL A   1      37.743  22.054  25.137  1.00  0.00     0.188 C 
ENDROOT
BRANCH   1   2
ATOM      2  O   UNL A   1      36.443  22.436  25.590  1.00  0.00    -0.377 OA
BRANCH   2   3
ATOM      3  C   UNL A   1      35.556  21.460  26.108  1.00  0.00     0.188 C 
BRANCH   3   4
ATOM      4  C   UNL A   1      34.768  20.618  25.085  1.00  0.00     0.188 C 
BRANCH   4   5
ATOM      5  O   UNL A   1      33.558  20.088  25.590  1.00  0.00    -0.376 OA
BRANCH   5   6
ATOM      6  C   UNL A   1      32.316  20.420  25.000  1.00  0.00     0.202 C 
BRANCH   6   7
ATOM      7  C   UNL A   1      31.836  21.874  24.871  1.00  0.00     0.261 C 
BRANCH   7   8
ATOM      8  O   UNL A   1      31.220  22.461  26.017  1.00  0.00    -0.460 OA
BRANCH   8   9
ATOM      9  C   UNL A   1      32.026  22.997  26.961  1.00  0.00     0.338 C 
ATOM     10  O   UNL A   1      32.470  22.448  27.944  1.00  0.00    -0.246 OA
BRANCH   9  11
ATOM     11  C   UNL A   1      32.430  24.344  26.483  1.00  0.00     0.060 A 
ATOM     12  C   UNL A   1      33.143  26.918  25.537  1.00  0.00    -0.020 A 
ATOM     13  C   UNL A   1      31.850  26.656  26.030  1.00  0.00     0.007 A 
ATOM     14  C   UNL A   1      34.073  25.857  25.567  1.00  0.00     0.007 A 
ATOM     15  C   UNL A   1      31.494  25.382  26.493  1.00  0.00     0.016 A 
ATOM     16  C   UNL A   1      33.731  24.592  26.050  1.00  0.00     0.016 A 
BRANCH  12  17
ATOM     17  C   UNL A   1      33.481  28.260  24.863  1.00  0.00     0.170 C 
ATOM     18  N   UNL A   1      32.441  29.287  25.101  1.00  0.00    -0.325 N 
ATOM     19  C   UNL A   1      31.241  29.169  24.265  1.00  0.00     0.181 C 
ATOM     20  C   UNL A   1      31.620  29.106  22.775  1.00  0.00     0.282 C 
ATOM     21  C   UNL A   1      33.783  28.201  23.333  1.00  0.00     0.290 C 
ATOM     22  N   UNL A   1      32.594  28.037  22.469  1.00  0.00    -0.343 N 
ATOM     23  H   UNL A   1      32.873  28.098  21.490  1.00  0.00     0.346 HD
ATOM     24  H   UNL A   1      32.168  27.125  22.641  1.00  0.00     0.346 HD
BRANCH  18  25
ATOM     25  C   UNL A   1      32.482  30.258  26.085  1.00  0.00     0.220 C 
ATOM     26  C   UNL A   1      33.766  30.415  26.857  1.00  0.00     0.114 C 
ATOM     27  O   UNL A   1      31.550  31.040  26.280  1.00  0.00    -0.275 OA
ENDBRANCH  18  25
ENDBRANCH  12  17
ENDBRANCH   9  11
ENDBRANCH   8   9
ENDBRANCH   7   8
ENDBRANCH   6   7
ENDBRANCH   5   6
ENDBRANCH   4   5
ENDBRANCH   3   4
ENDBRANCH   2   3
ENDBRANCH   1   2
BRANCH   1  28
ATOM     28  C   UNL A   1      38.936  21.811  26.095  1.00  0.00     0.188 C 
BRANCH  28  29
ATOM     29  O   UNL A   1      39.385  20.466  26.157  1.00  0.00    -0.376 OA
BRANCH  29  30
ATOM     30  C   UNL A   1      40.691  20.229  26.647  1.00  0.00     0.202 C 
BRANCH  30  31
ATOM     31  C   UNL A   1      41.588  19.351  25.766  1.00  0.00     0.261 C 
BRANCH  31  32
ATOM     32  O   UNL A   1      42.987  19.371  26.081  1.00  0.00    -0.460 OA
BRANCH  32  33
ATOM     33  C   UNL A   1      43.788  20.094  25.264  1.00  0.00     0.338 C 
ATOM     34  O   UNL A   1      44.350  19.701  24.258  1.00  0.00    -0.246 OA
BRANCH  33  35
ATOM     35  C   UNL A   1      43.711  21.503  25.703  1.00  0.00     0.060 A 
ATOM     36  C   UNL A   1      43.532  22.511  24.747  1.00  0.00     0.016 A 
ATOM     37  C   UNL A   1      43.800  21.820  27.060  1.00  0.00     0.016 A 
ATOM     38  C   UNL A   1      43.472  23.847  25.146  1.00  0.00     0.010 A 
ATOM     39  C   UNL A   1      43.758  23.159  27.456  1.00  0.00     0.010 A 
ATOM     40  C   UNL A   1      43.626  24.181  26.499  1.00  0.00    -0.014 A 
BRANCH  40  41
ATOM     41  C   UNL A   1      43.854  25.594  26.893  1.00  0.00     0.031 A 
ATOM     42  C   UNL A   1      45.253  26.139  26.792  1.00  0.00     0.074 A 
ATOM     43  C   UNL A   1      42.847  26.377  27.317  1.00  0.00     0.049 A 
ATOM     44  N   UNL A   1      45.719  27.308  27.147  1.00  0.00    -0.248 NA
ATOM     45  C   UNL A   1      46.262  25.236  26.219  1.00  0.00     0.031 C 
ATOM     46  C   UNL A   1      41.444  25.978  27.406  1.00  0.00     0.029 A 
ATOM     47  N   UNL A   1      42.856  27.677  27.762  1.00  0.00    -0.354 N 
ATOM     48  C   UNL A   1      47.077  27.279  26.846  1.00  0.00     0.074 A 
ATOM     49  C   UNL A   1      47.363  25.963  26.319  1.00  0.00     0.031 C 
ATOM     50  C   UNL A   1      40.728  27.009  27.887  1.00  0.00     0.029 A 
ATOM     51  C   UNL A   1      41.626  28.125  28.185  1.00  0.00     0.049 A 
ATOM     52  H   UNL A   1      43.666  28.235  27.777  1.00  0.00     0.167 HD
ATOM     53  C   UNL A   1      47.998  28.264  26.991  1.00  0.00     0.034 A 
ATOM     54  C   UNL A   1      41.275  29.288  28.772  1.00  0.00     0.034 A 
ATOM     55  C   UNL A   1      47.697  29.565  27.533  1.00  0.00     0.049 A 
ATOM     56  C   UNL A   1      42.339  30.334  29.020  1.00  0.00     0.074 A 
ATOM     57  C   UNL A   1      48.550  30.639  27.716  1.00  0.00     0.029 A 
ATOM     58  N   UNL A   1      46.450  29.965  27.999  1.00  0.00    -0.354 N 
ATOM     59  N   UNL A   1      43.619  30.299  28.728  1.00  0.00    -0.248 NA
ATOM     60  C   UNL A   1      41.908  31.578  29.673  1.00  0.00     0.031 C 
ATOM     61  C   UNL A   1      47.842  31.655  28.368  1.00  0.00     0.029 A 
ATOM     62  C   UNL A   1      46.522  31.254  28.505  1.00  0.00     0.049 A 
ATOM     63  H   UNL A   1      45.635  29.414  27.974  1.00  0.00     0.167 HD
ATOM     64  C   UNL A   1      44.136  31.531  29.128  1.00  0.00     0.074 A 
ATOM     65  C   UNL A   1      43.026  32.288  29.670  1.00  0.00     0.031 C 
ATOM     66  C   UNL A   1      45.409  31.998  29.050  1.00  0.00     0.034 A 
BRANCH  53  67
ATOM     67  C   UNL A   1      49.422  27.942  26.609  1.00  0.00     0.023 A 
ATOM     68  C   UNL A   1      49.955  28.296  25.356  1.00  0.00     0.031 A 
ATOM     69  C   UNL A   1      50.254  27.243  27.502  1.00  0.00     0.131 A 
ATOM     70  C   UNL A   1      51.250  27.887  25.005  1.00  0.00     0.055 A 
ATOM     71  C   UNL A   1      51.572  26.914  27.178  1.00  0.00     0.041 A 
ATOM     72  F   UNL A   1      49.794  26.852  28.701  1.00  0.00    -0.206 F 
ATOM     73  C   UNL A   1      52.072  27.222  25.917  1.00  0.00     0.022 A 
BRANCH  70  74
ATOM     74  S   UNL A   1      51.789  28.098  23.286  1.00  0.00     0.124 S 
ATOM     75  O   UNL A   1      52.137  26.729  22.914  1.00  0.00    -0.237 OA
ATOM     76  O   UNL A   1      50.600  28.651  22.647  1.00  0.00    -0.237 OA
ATOM     77  O   UNL A   1      52.923  29.015  23.392  1.00  0.00    -0.744 OA
ENDBRANCH  70  74
ENDBRANCH  53  67
BRANCH  54  78
ATOM     78  C   UNL A   1      39.867  29.522  29.215  1.00  0.00     0.023 A 
ATOM     79  C   UNL A   1      39.517  29.493  30.574  1.00  0.00     0.031 A 
ATOM     80  C   UNL A   1      38.838  29.708  28.275  1.00  0.00     0.131 A 
ATOM     81  C   UNL A   1      38.169  29.598  30.952  1.00  0.00     0.055 A 
ATOM     82  C   UNL A   1      37.505  29.875  28.660  1.00  0.00     0.041 A 
ATOM     83  F   UNL A   1      39.112  29.735  26.961  1.00  0.00    -0.206 F 
ATOM     84  C   UNL A   1      37.163  29.806  30.006  1.00  0.00     0.022 A 
BRANCH  81  85
ATOM     85  S   UNL A   1      37.734  29.357  32.698  1.00  0.00     0.124 S 
ATOM     86  O   UNL A   1      38.865  29.983  33.373  1.00  0.00    -0.237 OA
ATOM     87  O   UNL A   1      36.460  30.061  32.791  1.00  0.00    -0.237 OA
ATOM     88  O   UNL A   1      37.652  27.904  32.831  1.00  0.00    -0.744 OA
ENDBRANCH  81  85
ENDBRANCH  54  78
BRANCH  66  89
ATOM     89  C   UNL A   1      45.659  33.416  29.509  1.00  0.00     0.023 A 
ATOM     90  C   UNL A   1      45.490  34.519  28.653  1.00  0.00     0.031 A 
ATOM     91  C   UNL A   1      46.077  33.666  30.830  1.00  0.00     0.131 A 
ATOM     92  C   UNL A   1      45.792  35.811  29.109  1.00  0.00     0.055 A 
ATOM     93  C   UNL A   1      46.308  34.960  31.297  1.00  0.00     0.041 A 
ATOM     94  F   UNL A   1      46.261  32.653  31.692  1.00  0.00    -0.206 F 
ATOM     95  C   UNL A   1      46.181  36.040  30.431  1.00  0.00     0.022 A 
BRANCH  92  96
ATOM     96  S   UNL A   1      45.774  37.182  27.921  1.00  0.00     0.124 S 
ATOM     97  O   UNL A   1      44.446  37.750  28.133  1.00  0.00    -0.237 OA
ATOM     98  O   UNL A   1      46.896  38.000  28.370  1.00  0.00    -0.237 OA
ATOM     99  O   UNL A   1      45.967  36.521  26.631  1.00  0.00    -0.744 OA
ENDBRANCH  92  96
ENDBRANCH  66  89
ENDBRANCH  40  41
ENDBRANCH  33  35
ENDBRANCH  32  33
ENDBRANCH  31  32
ENDBRANCH  30  31
ENDBRANCH  29  30
ENDBRANCH  28  29
ENDBRANCH   1  28
TORSDOF 25
ENDMDL
MODEL 2
REMARK VINA RESULT:      -9.0      2.821      3.628
REMARK SMILES CC(=O)N1CC[NH2+]C[C@@H]1c1ccc(C(=O)OCCOCCOCCOCCOC(=O)c2ccc(-c3c4nc(c(-c5cc(S(=O)(=O)[O-])ccc5F)c5ccc([nH]5)c(-c5cc(S(=O)(=O)[O-])ccc5F)c5nc(c(-c6cc(S(=O)(=O)[O-])ccc6F)c6ccc3[nH]6)C=C5)C=C4)cc2)cc1
REMARK SMILES IDX 23 1 22 2 21 3 20 4 19 5 18 6 17 7 16 8 14 9 15 10 13 11
REMARK SMILES IDX 10 12 11 13 95 14 12 15 94 16 9 17 4 18 5 19 6 20 8 21 7 22
REMARK SMILES IDX 2 25 1 26 3 27 24 28 25 29 26 30 27 31 28 32 29 33 30 34
REMARK SMILES IDX 31 35 32 36 93 37 33 38 92 39 34 40 35 41 36 42 86 43 37 44
REMARK SMILES IDX 91 45 85 46 87 47 38 48 90 49 84 50 83 51 39 53 71 54 51 55
REMARK SMILES IDX 70 56 52 57 55 58 69 59 88 60 53 61 54 62 68 64 89 65 56 66
REMARK SMILES IDX 40 67 41 68 49 69 42 70 48 71 50 72 47 73 43 74 44 75 45 76
REMARK SMILES IDX 46 77 72 78 73 79 81 80 74 81 80 82 82 83 79 84 75 85 76 86
REMARK SMILES IDX 77 87 78 88 57 89 58 90 66 91 59 92 65 93 67 94 64 95 60 96
REMARK SMILES IDX 61 97 62 98 63 99
REMARK H PARENT 7 23 7 24 87 52 55 63
REMARK Flexibility Score: inf
ROOT
ATOM      1  C   UNL A   1      37.517  21.510  24.636  1.00  0.00     0.188 C 
ENDROOT
BRANCH   1   2
ATOM      2  O   UNL A   1      36.114  21.776  24.577  1.00  0.00    -0.377 OA
BRANCH   2   3
ATOM      3  C   UNL A   1      35.240  21.193  25.527  1.00  0.00     0.188 C 
BRANCH   3   4
ATOM      4  C   UNL A   1      34.504  19.906  25.102  1.00  0.00     0.188 C 
BRANCH   4   5
ATOM      5  O   UNL A   1      33.114  19.930  25.357  1.00  0.00    -0.376 OA
BRANCH   5   6
ATOM      6  C   UNL A   1      32.226  20.606  24.488  1.00  0.00     0.202 C 
BRANCH   6   7
ATOM      7  C   UNL A   1      31.773  22.051  24.747  1.00  0.00     0.261 C 
BRANCH   7   8
ATOM      8  O   UNL A   1      31.080  22.308  25.968  1.00  0.00    -0.460 OA
BRANCH   8   9
ATOM      9  C   UNL A   1      31.720  23.030  26.915  1.00  0.00     0.338 C 
ATOM     10  O   UNL A   1      32.340  22.608  27.865  1.00  0.00    -0.246 OA
BRANCH   9  11
ATOM     11  C   UNL A   1      31.686  24.451  26.485  1.00  0.00     0.060 A 
ATOM     12  C   UNL A   1      31.578  27.146  25.617  1.00  0.00    -0.020 A 
ATOM     13  C   UNL A   1      30.403  26.390  25.789  1.00  0.00     0.007 A 
ATOM     14  C   UNL A   1      32.802  26.518  25.928  1.00  0.00     0.007 A 
ATOM     15  C   UNL A   1      30.455  25.054  26.213  1.00  0.00     0.016 A 
ATOM     16  C   UNL A   1      32.859  25.196  26.374  1.00  0.00     0.016 A 
BRANCH  12  17
ATOM     17  C   UNL A   1      31.536  28.547  24.981  1.00  0.00     0.170 C 
ATOM     18  N   UNL A   1      31.298  28.496  23.520  1.00  0.00    -0.325 N 
ATOM     19  C   UNL A   1      32.473  28.161  22.706  1.00  0.00     0.181 C 
ATOM     20  C   UNL A   1      33.650  29.096  23.040  1.00  0.00     0.282 C 
ATOM     21  C   UNL A   1      32.771  29.461  25.254  1.00  0.00     0.290 C 
ATOM     22  N   UNL A   1      33.983  29.117  24.480  1.00  0.00    -0.343 N 
ATOM     23  H   UNL A   1      34.707  29.814  24.653  1.00  0.00     0.346 HD
ATOM     24  H   UNL A   1      34.324  28.198  24.767  1.00  0.00     0.346 HD
BRANCH  18  25
ATOM     25  C   UNL A   1      30.071  28.644  22.900  1.00  0.00     0.220 C 
ATOM     26  C   UNL A   1      29.929  29.757  21.893  1.00  0.00     0.114 C 
ATOM     27  O   UNL A   1      29.143  27.854  23.076  1.00  0.00    -0.275 OA
ENDBRANCH  18  25
ENDBRANCH  12  17
ENDBRANCH   9  11
ENDBRANCH   8   9
ENDBRANCH   7   8
ENDBRANCH   6   7
ENDBRANCH   5   6
ENDBRANCH   4   5
ENDBRANCH   3   4
ENDBRANCH   2   3
ENDBRANCH   1   2
BRANCH   1  28
ATOM     28  C   UNL A   1      38.411  21.935  25.827  1.00  0.00     0.188 C 
BRANCH  28  29
ATOM     29  O   UNL A   1      39.318  20.941  26.275  1.00  0.00    -0.376 OA
BRANCH  29  30
ATOM     30  C   UNL A   1      40.567  21.370  26.783  1.00  0.00     0.202 C 
BRANCH  30  31
ATOM     31  C   UNL A   1      41.469  22.121  25.795  1.00  0.00     0.261 C 
BRANCH  31  32
ATOM     32  O   UNL A   1      42.880  22.001  26.020  1.00  0.00    -0.460 OA
BRANCH  32  33
ATOM     33  C   UNL A   1      43.676  22.919  25.422  1.00  0.00     0.338 C 
ATOM     34  O   UNL A   1      44.362  22.754  24.431  1.00  0.00    -0.246 OA
BRANCH  33  35
ATOM     35  C   UNL A   1      43.419  24.220  26.075  1.00  0.00     0.060 A 
ATOM     36  C   UNL A   1      43.117  25.336  25.285  1.00  0.00     0.016 A 
ATOM     37  C   UNL A   1      43.460  24.326  27.467  1.00  0.00     0.016 A 
ATOM     38  C   UNL A   1      42.886  26.574  25.888  1.00  0.00     0.010 A 
ATOM     39  C   UNL A   1      43.248  25.569  28.067  1.00  0.00     0.010 A 
ATOM     40  C   UNL A   1      42.991  26.705  27.280  1.00  0.00    -0.014 A 
BRANCH  40  41
ATOM     41  C   UNL A   1      43.036  28.055  27.896  1.00  0.00     0.031 A 
ATOM     42  C   UNL A   1      44.368  28.751  27.978  1.00  0.00     0.074 A 
ATOM     43  C   UNL A   1      41.926  28.654  28.361  1.00  0.00     0.049 A 
ATOM     44  N   UNL A   1      44.679  29.892  28.536  1.00  0.00    -0.248 NA
ATOM     45  C   UNL A   1      45.502  28.058  27.349  1.00  0.00     0.031 C 
ATOM     46  C   UNL A   1      40.574  28.103  28.289  1.00  0.00     0.029 A 
ATOM     47  N   UNL A   1      41.763  29.862  28.996  1.00  0.00    -0.354 N 
ATOM     48  C   UNL A   1      46.046  30.050  28.331  1.00  0.00     0.074 A 
ATOM     49  C   UNL A   1      46.507  28.870  27.634  1.00  0.00     0.031 C 
ATOM     50  C   UNL A   1      39.721  28.966  28.868  1.00  0.00     0.029 A 
ATOM     51  C   UNL A   1      40.470  30.108  29.393  1.00  0.00     0.049 A 
ATOM     52  H   UNL A   1      42.504  30.491  29.151  1.00  0.00     0.167 HD
ATOM     53  C   UNL A   1      46.840  31.090  28.686  1.00  0.00     0.034 A 
ATOM     54  C   UNL A   1      39.958  31.121  30.121  1.00  0.00     0.034 A 
ATOM     55  C   UNL A   1      46.366  32.252  29.396  1.00  0.00     0.049 A 
ATOM     56  C   UNL A   1      40.882  32.220  30.598  1.00  0.00     0.074 A 
ATOM     57  C   UNL A   1      47.080  33.367  29.797  1.00  0.00     0.029 A 
ATOM     58  N   UNL A   1      45.058  32.443  29.827  1.00  0.00    -0.354 N 
ATOM     59  N   UNL A   1      42.172  32.364  30.396  1.00  0.00    -0.248 NA
ATOM     60  C   UNL A   1      40.279  33.296  31.398  1.00  0.00     0.031 C 
ATOM     61  C   UNL A   1      46.228  34.189  30.543  1.00  0.00     0.029 A 
ATOM     62  C   UNL A   1      44.957  33.637  30.524  1.00  0.00     0.049 A 
ATOM     63  H   UNL A   1      44.313  31.822  29.662  1.00  0.00     0.167 HD
ATOM     64  C   UNL A   1      42.524  33.565  31.011  1.00  0.00     0.074 A 
ATOM     65  C   UNL A   1      41.308  34.109  31.580  1.00  0.00     0.031 C 
ATOM     66  C   UNL A   1      43.739  34.167  31.094  1.00  0.00     0.034 A 
BRANCH  53  67
ATOM     67  C   UNL A   1      48.311  30.982  28.362  1.00  0.00     0.023 A 
ATOM     68  C   UNL A   1      49.204  30.278  29.190  1.00  0.00     0.031 A 
ATOM     69  C   UNL A   1      48.833  31.618  27.223  1.00  0.00     0.131 A 
ATOM     70  C   UNL A   1      50.578  30.291  28.906  1.00  0.00     0.055 A 
ATOM     71  C   UNL A   1      50.190  31.553  26.899  1.00  0.00     0.041 A 
ATOM     72  F   UNL A   1      48.036  32.329  26.410  1.00  0.00    -0.206 F 
ATOM     73  C   UNL A   1      51.074  30.900  27.752  1.00  0.00     0.022 A 
BRANCH  70  74
ATOM     74  S   UNL A   1      51.725  29.632  30.148  1.00  0.00     0.124 S 
ATOM     75  O   UNL A   1      52.974  30.295  29.778  1.00  0.00    -0.237 OA
ATOM     76  O   UNL A   1      51.118  30.066  31.400  1.00  0.00    -0.237 OA
ATOM     77  O   UNL A   1      51.700  28.191  29.908  1.00  0.00    -0.744 OA
ENDBRANCH  70  74
ENDBRANCH  53  67
BRANCH  54  78
ATOM     78  C   UNL A   1      38.512  31.136  30.493  1.00  0.00     0.023 A 
ATOM     79  C   UNL A   1      37.546  31.691  29.639  1.00  0.00     0.031 A 
ATOM     80  C   UNL A   1      38.084  30.657  31.745  1.00  0.00     0.131 A 
ATOM     81  C   UNL A   1      36.212  31.798  30.065  1.00  0.00     0.055 A 
ATOM     82  C   UNL A   1      36.745  30.709  32.139  1.00  0.00     0.041 A 
ATOM     83  F   UNL A   1      38.965  30.125  32.607  1.00  0.00    -0.206 F 
ATOM     84  C   UNL A   1      35.802  31.296  31.302  1.00  0.00     0.022 A 
BRANCH  81  85
ATOM     85  S   UNL A   1      35.035  32.699  29.018  1.00  0.00     0.124 S 
ATOM     86  O   UNL A   1      34.566  31.644  28.125  1.00  0.00    -0.237 OA
ATOM     87  O   UNL A   1      34.071  33.186  29.998  1.00  0.00    -0.237 OA
ATOM     88  O   UNL A   1      35.857  33.730  28.390  1.00  0.00    -0.744 OA
ENDBRANCH  81  85
ENDBRANCH  54  78
BRANCH  66  89
ATOM     89  C   UNL A   1      43.801  35.514  31.777  1.00  0.00     0.023 A 
ATOM     90  C   UNL A   1      43.744  36.720  31.057  1.00  0.00     0.031 A 
ATOM     91  C   UNL A   1      43.923  35.589  33.178  1.00  0.00     0.131 A 
ATOM     92  C   UNL A   1      43.867  37.945  31.732  1.00  0.00     0.055 A 
ATOM     93  C   UNL A   1      43.974  36.811  33.849  1.00  0.00     0.041 A 
ATOM     94  F   UNL A   1      43.988  34.471  33.919  1.00  0.00    -0.206 F 
ATOM     95  C   UNL A   1      43.961  37.998  33.125  1.00  0.00     0.022 A 
BRANCH  92  96
ATOM     96  S   UNL A   1      44.009  39.468  30.756  1.00  0.00     0.124 S 
ATOM     97  O   UNL A   1      43.491  40.471  31.683  1.00  0.00    -0.237 OA
ATOM     98  O   UNL A   1      45.441  39.531  30.483  1.00  0.00    -0.237 OA
ATOM     99  O   UNL A   1      43.166  39.208  29.590  1.00  0.00    -0.744 OA
ENDBRANCH  92  96
ENDBRANCH  66  89
ENDBRANCH  40  41
ENDBRANCH  33  35
ENDBRANCH  32  33
ENDBRANCH  31  32
ENDBRANCH  30  31
ENDBRANCH  29  30
ENDBRANCH  28  29
ENDBRANCH   1  28
TORSDOF 25
ENDMDL
MODEL 3
REMARK VINA RESULT:      -8.8      2.717     10.013
REMARK SMILES CC(=O)N1CC[NH2+]C[C@@H]1c1ccc(C(=O)OCCOCCOCCOCCOC(=O)c2ccc(-c3c4nc(c(-c5cc(S(=O)(=O)[O-])ccc5F)c5ccc([nH]5)c(-c5cc(S(=O)(=O)[O-])ccc5F)c5nc(c(-c6cc(S(=O)(=O)[O-])ccc6F)c6ccc3[nH]6)C=C5)C=C4)cc2)cc1
REMARK SMILES IDX 23 1 22 2 21 3 20 4 19 5 18 6 17 7 16 8 14 9 15 10 13 11
REMARK SMILES IDX 10 12 11 13 95 14 12 15 94 16 9 17 4 18 5 19 6 20 8 21 7 22
REMARK SMILES IDX 2 25 1 26 3 27 24 28 25 29 26 30 27 31 28 32 29 33 30 34
REMARK SMILES IDX 31 35 32 36 93 37 33 38 92 39 34 40 35 41 36 42 86 43 37 44
REMARK SMILES IDX 91 45 85 46 87 47 38 48 90 49 84 50 83 51 39 53 71 54 51 55
REMARK SMILES IDX 70 56 52 57 55 58 69 59 88 60 53 61 54 62 68 64 89 65 56 66
REMARK SMILES IDX 40 67 41 68 49 69 42 70 48 71 50 72 47 73 43 74 44 75 45 76
REMARK SMILES IDX 46 77 72 78 73 79 81 80 74 81 80 82 82 83 79 84 75 85 76 86
REMARK SMILES IDX 77 87 78 88 57 89 58 90 66 91 59 92 65 93 67 94 64 95 60 96
REMARK SMILES IDX 61 97 62 98 63 99
REMARK H PARENT 7 23 7 24 87 52 55 63
REMARK Flexibility Score: inf
ROOT
ATOM      1  C   UNL A   1      34.048  33.403  29.339  1.00  0.00     0.188 C 
ENDROOT
BRANCH   1   2
ATOM      2  O   UNL A   1      34.580  33.051  28.061  1.00  0.00    -0.377 OA
BRANCH   2   3
ATOM      3  C   UNL A   1      35.868  32.469  27.963  1.00  0.00     0.188 C 
BRANCH   3   4
ATOM      4  C   UNL A   1      35.940  30.929  27.944  1.00  0.00     0.188 C 
BRANCH   4   5
ATOM      5  O   UNL A   1      34.703  30.294  28.197  1.00  0.00    -0.376 OA
BRANCH   5   6
ATOM      6  C   UNL A   1      33.933  29.752  27.141  1.00  0.00     0.202 C 
BRANCH   6   7
ATOM      7  C   UNL A   1      32.399  29.828  27.128  1.00  0.00     0.261 C 
BRANCH   7   8
ATOM      8  O   UNL A   1      31.687  28.598  26.986  1.00  0.00    -0.460 OA
BRANCH   8   9
ATOM      9  C   UNL A   1      31.582  28.071  25.746  1.00  0.00     0.338 C 
ATOM     10  O   UNL A   1      31.102  28.592  24.765  1.00  0.00    -0.246 OA
BRANCH   9  11
ATOM     11  C   UNL A   1      32.331  26.788  25.748  1.00  0.00     0.060 A 
ATOM     12  C   UNL A   1      33.750  24.336  25.817  1.00  0.00    -0.020 A 
ATOM     13  C   UNL A   1      32.512  24.479  26.471  1.00  0.00     0.007 A 
ATOM     14  C   UNL A   1      34.234  25.451  25.100  1.00  0.00     0.007 A 
ATOM     15  C   UNL A   1      31.811  25.693  26.443  1.00  0.00     0.016 A 
ATOM     16  C   UNL A   1      33.529  26.655  25.048  1.00  0.00     0.016 A 
BRANCH  12  17
ATOM     17  C   UNL A   1      34.604  23.068  25.997  1.00  0.00     0.170 C 
ATOM     18  N   UNL A   1      34.837  22.360  24.717  1.00  0.00    -0.325 N 
ATOM     19  C   UNL A   1      33.717  21.539  24.242  1.00  0.00     0.181 C 
ATOM     20  C   UNL A   1      33.258  20.560  25.337  1.00  0.00     0.282 C 
ATOM     21  C   UNL A   1      34.087  22.038  27.050  1.00  0.00     0.290 C 
ATOM     22  N   UNL A   1      32.930  21.229  26.613  1.00  0.00    -0.343 N 
ATOM     23  H   UNL A   1      32.718  20.527  27.322  1.00  0.00     0.346 HD
ATOM     24  H   UNL A   1      32.117  21.834  26.485  1.00  0.00     0.346 HD
BRANCH  18  25
ATOM     25  C   UNL A   1      35.961  22.488  23.921  1.00  0.00     0.220 C 
ATOM     26  C   UNL A   1      37.207  21.759  24.352  1.00  0.00     0.114 C 
ATOM     27  O   UNL A   1      35.944  23.093  22.848  1.00  0.00    -0.275 OA
ENDBRANCH  18  25
ENDBRANCH  12  17
ENDBRANCH   9  11
ENDBRANCH   8   9
ENDBRANCH   7   8
ENDBRANCH   6   7
ENDBRANCH   5   6
ENDBRANCH   4   5
ENDBRANCH   3   4
ENDBRANCH   2   3
ENDBRANCH   1   2
BRANCH   1  28
ATOM     28  C   UNL A   1      34.843  34.210  30.395  1.00  0.00     0.188 C 
BRANCH  28  29
ATOM     29  O   UNL A   1      35.699  33.433  31.218  1.00  0.00    -0.376 OA
BRANCH  29  30
ATOM     30  C   UNL A   1      35.955  33.900  32.529  1.00  0.00     0.202 C 
BRANCH  30  31
ATOM     31  C   UNL A   1      35.936  32.838  33.634  1.00  0.00     0.261 C 
BRANCH  31  32
ATOM     32  O   UNL A   1      37.217  32.358  34.064  1.00  0.00    -0.460 OA
BRANCH  32  33
ATOM     33  C   UNL A   1      38.277  33.176  33.862  1.00  0.00     0.338 C 
ATOM     34  O   UNL A   1      38.524  34.210  34.453  1.00  0.00    -0.246 OA
BRANCH  33  35
ATOM     35  C   UNL A   1      39.188  32.494  32.918  1.00  0.00     0.060 A 
ATOM     36  C   UNL A   1      39.969  31.424  33.372  1.00  0.00     0.016 A 
ATOM     37  C   UNL A   1      39.253  32.904  31.585  1.00  0.00     0.016 A 
ATOM     38  C   UNL A   1      40.844  30.780  32.496  1.00  0.00     0.010 A 
ATOM     39  C   UNL A   1      40.142  32.271  30.715  1.00  0.00     0.010 A 
ATOM     40  C   UNL A   1      40.965  31.227  31.173  1.00  0.00    -0.014 A 
BRANCH  40  41
ATOM     41  C   UNL A   1      42.088  30.747  30.327  1.00  0.00     0.031 A 
ATOM     42  C   UNL A   1      41.915  29.442  29.598  1.00  0.00     0.074 A 
ATOM     43  C   UNL A   1      43.224  31.453  30.199  1.00  0.00     0.049 A 
ATOM     44  N   UNL A   1      42.771  28.777  28.867  1.00  0.00    -0.248 NA
ATOM     45  C   UNL A   1      40.598  28.799  29.721  1.00  0.00     0.031 C 
ATOM     46  C   UNL A   1      43.486  32.753  30.812  1.00  0.00     0.029 A 
ATOM     47  N   UNL A   1      44.379  31.167  29.511  1.00  0.00    -0.354 N 
ATOM     48  C   UNL A   1      42.098  27.634  28.446  1.00  0.00     0.074 A 
ATOM     49  C   UNL A   1      40.779  27.679  29.039  1.00  0.00     0.031 C 
ATOM     50  C   UNL A   1      44.728  33.148  30.481  1.00  0.00     0.029 A 
ATOM     51  C   UNL A   1      45.367  32.109  29.673  1.00  0.00     0.049 A 
ATOM     52  H   UNL A   1      44.488  30.362  28.954  1.00  0.00     0.167 HD
ATOM     53  C   UNL A   1      42.539  26.643  27.633  1.00  0.00     0.034 A 
ATOM     54  C   UNL A   1      46.646  32.116  29.245  1.00  0.00     0.034 A 
ATOM     55  C   UNL A   1      43.863  26.606  27.064  1.00  0.00     0.049 A 
ATOM     56  C   UNL A   1      47.151  30.948  28.426  1.00  0.00     0.074 A 
ATOM     57  C   UNL A   1      44.412  25.656  26.221  1.00  0.00     0.029 A 
ATOM     58  N   UNL A   1      44.855  27.553  27.292  1.00  0.00    -0.354 N 
ATOM     59  N   UNL A   1      46.506  29.874  28.030  1.00  0.00    -0.248 NA
ATOM     60  C   UNL A   1      48.554  30.997  27.993  1.00  0.00     0.031 C 
ATOM     61  C   UNL A   1      45.756  25.981  26.010  1.00  0.00     0.029 A 
ATOM     62  C   UNL A   1      46.022  27.187  26.639  1.00  0.00     0.049 A 
ATOM     63  H   UNL A   1      44.745  28.365  27.838  1.00  0.00     0.167 HD
ATOM     64  C   UNL A   1      47.416  29.141  27.270  1.00  0.00     0.074 A 
ATOM     65  C   UNL A   1      48.649  29.901  27.255  1.00  0.00     0.031 C 
ATOM     66  C   UNL A   1      47.249  27.950  26.637  1.00  0.00     0.034 A 
BRANCH  53  67
ATOM     67  C   UNL A   1      41.597  25.493  27.367  1.00  0.00     0.023 A 
ATOM     68  C   UNL A   1      41.930  24.167  27.697  1.00  0.00     0.031 A 
ATOM     69  C   UNL A   1      40.358  25.723  26.744  1.00  0.00     0.131 A 
ATOM     70  C   UNL A   1      41.069  23.119  27.338  1.00  0.00     0.055 A 
ATOM     71  C   UNL A   1      39.467  24.684  26.468  1.00  0.00     0.041 A 
ATOM     72  F   UNL A   1      39.996  26.963  26.379  1.00  0.00    -0.206 F 
ATOM     73  C   UNL A   1      39.828  23.371  26.751  1.00  0.00     0.022 A 
BRANCH  70  74
ATOM     74  S   UNL A   1      41.663  21.413  27.509  1.00  0.00     0.124 S 
ATOM     75  O   UNL A   1      41.812  21.011  26.112  1.00  0.00    -0.237 OA
ATOM     76  O   UNL A   1      42.900  21.583  28.261  1.00  0.00    -0.237 OA
ATOM     77  O   UNL A   1      40.581  20.745  28.230  1.00  0.00    -0.744 OA
ENDBRANCH  70  74
ENDBRANCH  53  67
BRANCH  54  78
ATOM     78  C   UNL A   1      47.566  33.234  29.612  1.00  0.00     0.023 A 
ATOM     79  C   UNL A   1      47.757  34.330  28.757  1.00  0.00     0.031 A 
ATOM     80  C   UNL A   1      48.322  33.187  30.797  1.00  0.00     0.131 A 
ATOM     81  C   UNL A   1      48.715  35.307  29.072  1.00  0.00     0.055 A 
ATOM     82  C   UNL A   1      49.229  34.193  31.138  1.00  0.00     0.041 A 
ATOM     83  F   UNL A   1      48.187  32.158  31.649  1.00  0.00    -0.206 F 
ATOM     84  C   UNL A   1      49.440  35.255  30.265  1.00  0.00     0.022 A 
BRANCH  81  85
ATOM     85  S   UNL A   1      49.076  36.599  27.849  1.00  0.00     0.124 S 
ATOM     86  O   UNL A   1      48.814  37.812  28.615  1.00  0.00    -0.237 OA
ATOM     87  O   UNL A   1      50.473  36.329  27.529  1.00  0.00    -0.237 OA
ATOM     88  O   UNL A   1      48.127  36.322  26.772  1.00  0.00    -0.744 OA
ENDBRANCH  81  85
ENDBRANCH  54  78
BRANCH  66  89
ATOM     89  C   UNL A   1      48.411  27.426  25.825  1.00  0.00     0.023 A 
ATOM     90  C   UNL A   1      48.575  27.742  24.465  1.00  0.00     0.031 A 
ATOM     91  C   UNL A   1      49.371  26.590  26.427  1.00  0.00     0.131 A 
ATOM     92  C   UNL A   1      49.638  27.181  23.739  1.00  0.00     0.055 A 
ATOM     93  C   UNL A   1      50.464  26.092  25.717  1.00  0.00     0.041 A 
ATOM     94  F   UNL A   1      49.264  26.249  27.722  1.00  0.00    -0.206 F 
ATOM     95  C   UNL A   1      50.594  26.375  24.362  1.00  0.00     0.022 A 
BRANCH  92  96
ATOM     96  S   UNL A   1      49.696  27.432  21.944  1.00  0.00     0.124 S 
ATOM     97  O   UNL A   1      50.975  26.821  21.594  1.00  0.00    -0.237 OA
ATOM     98  O   UNL A   1      48.505  26.722  21.490  1.00  0.00    -0.237 OA
ATOM     99  O   UNL A   1      49.643  28.886  21.799  1.00  0.00    -0.744 OA
ENDBRANCH  92  96
ENDBRANCH  66  89
ENDBRANCH  40  41
ENDBRANCH  33  35
ENDBRANCH  32  33
ENDBRANCH  31  32
ENDBRANCH  30  31
ENDBRANCH  29  30
ENDBRANCH  28  29
ENDBRANCH   1  28
TORSDOF 25
ENDMDL
