MODEL 1
REMARK VINA RESULT:      -9.2      0.000      0.000
REMARK SMILES Nc1cnc(Cl)c(C(=O)OCCOCCOCCOCCOC(=O)c2ccc(-c3c4nc(c(-c5cc(S(=O)(=O)[O-])ccc5F)c5ccc([nH]5)c(-c5cc(S(=O)(=O)[O-])ccc5F)c5nc(c(-c6cc(S(=O)(=O)[O-])ccc6F)c6ccc3[nH]6)C=C5)C=C4)cc2)c1
REMARK SMILES IDX 17 1 16 2 15 3 14 4 13 5 12 6 11 7 10 8 8 9 9 10 7 11 2 12
REMARK SMILES IDX 3 13 88 14 4 15 5 16 6 17 1 18 18 21 19 22 20 23 21 24 22 25
REMARK SMILES IDX 23 26 24 27 25 28 26 29 87 30 27 31 86 32 28 33 29 34 30 35
REMARK SMILES IDX 80 36 31 37 85 38 79 39 81 40 32 41 84 42 78 43 77 44 33 46
REMARK SMILES IDX 65 47 45 48 64 49 46 50 49 51 63 52 82 53 47 54 48 55 62 57
REMARK SMILES IDX 83 58 50 59 34 60 35 61 43 62 36 63 42 64 44 65 41 66 37 67
REMARK SMILES IDX 38 68 39 69 40 70 66 71 67 72 75 73 68 74 74 75 76 76 73 77
REMARK SMILES IDX 69 78 70 79 71 80 72 81 51 82 52 83 60 84 53 85 59 86 61 87
REMARK SMILES IDX 58 88 54 89 55 90 56 91 57 92
REMARK H PARENT 1 19 1 20 81 45 49 56
REMARK Flexibility Score: inf
ROOT
ATOM      1  C   UNL A   1      30.941  29.527  24.309  1.00  0.00     0.188 C 
ENDROOT
BRANCH   1   2
ATOM      2  O   UNL A   1      31.043  29.221  22.919  1.00  0.00    -0.377 OA
BRANCH   2   3
ATOM      3  C   UNL A   1      30.565  27.973  22.454  1.00  0.00     0.188 C 
BRANCH   3   4
ATOM      4  C   UNL A   1      30.047  27.019  23.542  1.00  0.00     0.188 C 
BRANCH   4   5
ATOM      5  O   UNL A   1      30.663  25.734  23.526  1.00  0.00    -0.376 OA
BRANCH   5   6
ATOM      6  C   UNL A   1      30.605  24.996  24.741  1.00  0.00     0.202 C 
BRANCH   6   7
ATOM      7  C   UNL A   1      30.917  23.502  24.608  1.00  0.00     0.261 C 
BRANCH   7   8
ATOM      8  O   UNL A   1      32.320  23.195  24.641  1.00  0.00    -0.460 OA
BRANCH   8   9
ATOM      9  C   UNL A   1      32.780  22.226  23.820  1.00  0.00     0.341 C 
ATOM     10  O   UNL A   1      32.221  21.774  22.840  1.00  0.00    -0.246 OA
BRANCH   9  11
ATOM     11  C   UNL A   1      34.149  21.909  24.264  1.00  0.00     0.099 A 
ATOM     12  C   UNL A   1      36.494  22.512  24.395  1.00  0.00     0.051 A 
ATOM     13  C   UNL A   1      36.710  21.237  24.912  1.00  0.00     0.138 A 
ATOM     14  C   UNL A   1      35.176  22.849  24.098  1.00  0.00     0.046 A 
ATOM     15  N   UNL A   1      35.748  20.300  25.093  1.00  0.00    -0.242 NA
ATOM     16  C   UNL A   1      34.484  20.660  24.764  1.00  0.00     0.143 A 
ATOM     17  Cl  UNL A   1      33.379  19.352  24.943  1.00  0.00    -0.061 Cl
BRANCH  12  18
ATOM     18  N   UNL A   1      37.504  23.452  24.294  1.00  0.00    -0.397 N 
ATOM     19  H   UNL A   1      37.375  24.355  24.665  1.00  0.00     0.156 HD
ATOM     20  H   UNL A   1      38.351  23.218  23.849  1.00  0.00     0.156 HD
ENDBRANCH  12  18
ENDBRANCH   9  11
ENDBRANCH   8   9
ENDBRANCH   7   8
ENDBRANCH   6   7
ENDBRANCH   5   6
ENDBRANCH   4   5
ENDBRANCH   3   4
ENDBRANCH   2   3
ENDBRANCH   1   2
BRANCH   1  21
ATOM     21  C   UNL A   1      32.170  29.604  25.242  1.00  0.00     0.188 C 
BRANCH  21  22
ATOM     22  O   UNL A   1      31.889  30.057  26.564  1.00  0.00    -0.376 OA
BRANCH  22  23
ATOM     23  C   UNL A   1      32.802  30.997  27.114  1.00  0.00     0.202 C 
BRANCH  23  24
ATOM     24  C   UNL A   1      32.201  32.396  27.270  1.00  0.00     0.261 C 
BRANCH  24  25
ATOM     25  O   UNL A   1      33.150  33.469  27.212  1.00  0.00    -0.460 OA
BRANCH  25  26
ATOM     26  C   UNL A   1      33.345  34.190  28.341  1.00  0.00     0.338 C 
ATOM     27  O   UNL A   1      32.631  35.075  28.778  1.00  0.00    -0.246 OA
BRANCH  26  28
ATOM     28  C   UNL A   1      34.483  33.579  29.057  1.00  0.00     0.060 A 
ATOM     29  C   UNL A   1      34.252  32.716  30.133  1.00  0.00     0.016 A 
ATOM     30  C   UNL A   1      35.789  33.912  28.679  1.00  0.00     0.016 A 
ATOM     31  C   UNL A   1      35.334  32.164  30.817  1.00  0.00     0.010 A 
ATOM     32  C   UNL A   1      36.871  33.361  29.369  1.00  0.00     0.010 A 
ATOM     33  C   UNL A   1      36.650  32.468  30.429  1.00  0.00    -0.014 A 
BRANCH  33  34
ATOM     34  C   UNL A   1      37.769  31.675  30.991  1.00  0.00     0.031 A 
ATOM     35  C   UNL A   1      38.467  30.604  30.215  1.00  0.00     0.074 A 
ATOM     36  C   UNL A   1      38.147  31.956  32.253  1.00  0.00     0.049 A 
ATOM     37  N   UNL A   1      39.535  29.926  30.545  1.00  0.00    -0.248 NA
ATOM     38  C   UNL A   1      37.898  30.240  28.910  1.00  0.00     0.031 C 
ATOM     39  C   UNL A   1      37.501  32.952  33.107  1.00  0.00     0.029 A 
ATOM     40  N   UNL A   1      39.152  31.444  33.032  1.00  0.00    -0.354 N 
ATOM     41  C   UNL A   1      39.785  29.064  29.485  1.00  0.00     0.074 A 
ATOM     42  C   UNL A   1      38.725  29.276  28.519  1.00  0.00     0.031 C 
ATOM     43  C   UNL A   1      38.134  32.992  34.286  1.00  0.00     0.029 A 
ATOM     44  C   UNL A   1      39.216  32.010  34.284  1.00  0.00     0.049 A 
ATOM     45  H   UNL A   1      39.768  30.740  32.727  1.00  0.00     0.167 HD
ATOM     46  C   UNL A   1      40.814  28.195  29.337  1.00  0.00     0.034 A 
ATOM     47  C   UNL A   1      40.051  31.775  35.315  1.00  0.00     0.034 A 
ATOM     48  C   UNL A   1      41.848  27.993  30.325  1.00  0.00     0.049 A 
ATOM     49  C   UNL A   1      41.178  30.796  35.128  1.00  0.00     0.074 A 
ATOM     50  C   UNL A   1      42.973  27.192  30.230  1.00  0.00     0.029 A 
ATOM     51  N   UNL A   1      41.881  28.572  31.587  1.00  0.00    -0.354 N 
ATOM     52  N   UNL A   1      41.486  30.092  34.065  1.00  0.00    -0.248 NA
ATOM     53  C   UNL A   1      42.086  30.593  36.265  1.00  0.00     0.031 C 
ATOM     54  C   UNL A   1      43.640  27.225  31.456  1.00  0.00     0.029 A 
ATOM     55  C   UNL A   1      42.982  28.111  32.293  1.00  0.00     0.049 A 
ATOM     56  H   UNL A   1      41.220  29.216  31.929  1.00  0.00     0.167 HD
ATOM     57  C   UNL A   1      42.634  29.378  34.397  1.00  0.00     0.074 A 
ATOM     58  C   UNL A   1      42.980  29.758  35.751  1.00  0.00     0.031 C 
ATOM     59  C   UNL A   1      43.331  28.489  33.644  1.00  0.00     0.034 A 
BRANCH  46  60
ATOM     60  C   UNL A   1      40.920  27.398  28.058  1.00  0.00     0.023 A 
ATOM     61  C   UNL A   1      40.697  26.008  28.069  1.00  0.00     0.031 A 
ATOM     62  C   UNL A   1      41.410  27.982  26.876  1.00  0.00     0.131 A 
ATOM     63  C   UNL A   1      41.001  25.243  26.934  1.00  0.00     0.055 A 
ATOM     64  C   UNL A   1      41.674  27.222  25.736  1.00  0.00     0.041 A 
ATOM     65  F   UNL A   1      41.649  29.303  26.815  1.00  0.00    -0.206 F 
ATOM     66  C   UNL A   1      41.483  25.844  25.767  1.00  0.00     0.022 A 
BRANCH  63  67
ATOM     67  S   UNL A   1      40.858  23.435  26.952  1.00  0.00     0.124 S 
ATOM     68  O   UNL A   1      41.049  23.135  28.369  1.00  0.00    -0.237 OA
ATOM     69  O   UNL A   1      39.501  23.231  26.450  1.00  0.00    -0.237 OA
ATOM     70  O   UNL A   1      41.931  22.989  26.072  1.00  0.00    -0.744 OA
ENDBRANCH  63  67
ENDBRANCH  46  60
BRANCH  47  71
ATOM     71  C   UNL A   1      39.871  32.558  36.570  1.00  0.00     0.023 A 
ATOM     72  C   UNL A   1      38.963  32.134  37.558  1.00  0.00     0.031 A 
ATOM     73  C   UNL A   1      40.490  33.808  36.732  1.00  0.00     0.131 A 
ATOM     74  C   UNL A   1      38.639  32.988  38.619  1.00  0.00     0.055 A 
ATOM     75  C   UNL A   1      40.221  34.624  37.833  1.00  0.00     0.041 A 
ATOM     76  F   UNL A   1      41.348  34.264  35.807  1.00  0.00    -0.206 F 
ATOM     77  C   UNL A   1      39.275  34.224  38.772  1.00  0.00     0.022 A 
BRANCH  74  78
ATOM     78  S   UNL A   1      37.275  32.590  39.749  1.00  0.00     0.124 S 
ATOM     79  O   UNL A   1      37.638  31.252  40.204  1.00  0.00    -0.237 OA
ATOM     80  O   UNL A   1      37.396  33.651  40.744  1.00  0.00    -0.237 OA
ATOM     81  O   UNL A   1      36.091  32.669  38.900  1.00  0.00    -0.744 OA
ENDBRANCH  74  78
ENDBRANCH  47  71
BRANCH  59  82
ATOM     82  C   UNL A   1      44.551  27.832  34.247  1.00  0.00     0.023 A 
ATOM     83  C   UNL A   1      44.417  26.647  34.999  1.00  0.00     0.031 A 
ATOM     84  C   UNL A   1      45.812  28.454  34.210  1.00  0.00     0.131 A 
ATOM     85  C   UNL A   1      45.511  26.150  35.719  1.00  0.00     0.055 A 
ATOM     86  C   UNL A   1      46.912  27.924  34.887  1.00  0.00     0.041 A 
ATOM     87  F   UNL A   1      45.990  29.588  33.515  1.00  0.00    -0.206 F 
ATOM     88  C   UNL A   1      46.760  26.776  35.659  1.00  0.00     0.022 A 
BRANCH  85  89
ATOM     89  S   UNL A   1      45.332  24.727  36.831  1.00  0.00     0.124 S 
ATOM     90  O   UNL A   1      45.635  23.608  35.941  1.00  0.00    -0.237 OA
ATOM     91  O   UNL A   1      46.342  25.004  37.849  1.00  0.00    -0.237 OA
ATOM     92  O   UNL A   1      43.946  24.804  37.282  1.00  0.00    -0.744 OA
ENDBRANCH  85  89
ENDBRANCH  59  82
ENDBRANCH  33  34
ENDBRANCH  26  28
ENDBRANCH  25  26
ENDBRANCH  24  25
ENDBRANCH  23  24
ENDBRANCH  22  23
ENDBRANCH  21  22
ENDBRANCH   1  21
TORSDOF 24
ENDMDL
MODEL 2
REMARK VINA RESULT:      -9.0      2.562      8.125
REMARK SMILES Nc1cnc(Cl)c(C(=O)OCCOCCOCCOCCOC(=O)c2ccc(-c3c4nc(c(-c5cc(S(=O)(=O)[O-])ccc5F)c5ccc([nH]5)c(-c5cc(S(=O)(=O)[O-])ccc5F)c5nc(c(-c6cc(S(=O)(=O)[O-])ccc6F)c6ccc3[nH]6)C=C5)C=C4)cc2)c1
REMARK SMILES IDX 17 1 16 2 15 3 14 4 13 5 12 6 11 7 10 8 8 9 9 10 7 11 2 12
REMARK SMILES IDX 3 13 88 14 4 15 5 16 6 17 1 18 18 21 19 22 20 23 21 24 22 25
REMARK SMILES IDX 23 26 24 27 25 28 26 29 87 30 27 31 86 32 28 33 29 34 30 35
REMARK SMILES IDX 80 36 31 37 85 38 79 39 81 40 32 41 84 42 78 43 77 44 33 46
REMARK SMILES IDX 65 47 45 48 64 49 46 50 49 51 63 52 82 53 47 54 48 55 62 57
REMARK SMILES IDX 83 58 50 59 34 60 35 61 43 62 36 63 42 64 44 65 41 66 37 67
REMARK SMILES IDX 38 68 39 69 40 70 66 71 67 72 75 73 68 74 74 75 76 76 73 77
REMARK SMILES IDX 69 78 70 79 71 80 72 81 51 82 52 83 60 84 53 85 59 86 61 87
REMARK SMILES IDX 58 88 54 89 55 90 56 91 57 92
REMARK H PARENT 1 19 1 20 81 45 49 56
REMARK Flexibility Score: inf
ROOT
ATOM      1  C   UNL A   1      33.580  27.213  22.749  1.00  0.00     0.188 C 
ENDROOT
BRANCH   1   2
ATOM      2  O   UNL A   1      32.869  26.078  23.241  1.00  0.00    -0.377 OA
BRANCH   2   3
ATOM      3  C   UNL A   1      32.370  25.128  22.319  1.00  0.00     0.188 C 
BRANCH   3   4
ATOM      4  C   UNL A   1      32.494  23.659  22.755  1.00  0.00     0.188 C 
BRANCH   4   5
ATOM      5  O   UNL A   1      31.471  23.234  23.652  1.00  0.00    -0.376 OA
BRANCH   5   6
ATOM      6  C   UNL A   1      31.813  22.171  24.534  1.00  0.00     0.202 C 
BRANCH   6   7
ATOM      7  C   UNL A   1      32.626  21.038  23.899  1.00  0.00     0.261 C 
BRANCH   7   8
ATOM      8  O   UNL A   1      34.012  21.034  24.277  1.00  0.00    -0.460 OA
BRANCH   8   9
ATOM      9  C   UNL A   1      34.318  21.201  25.582  1.00  0.00     0.341 C 
ATOM     10  O   UNL A   1      33.763  20.686  26.533  1.00  0.00    -0.246 OA
BRANCH   9  11
ATOM     11  C   UNL A   1      35.535  22.030  25.629  1.00  0.00     0.099 A 
ATOM     12  C   UNL A   1      37.954  22.184  25.726  1.00  0.00     0.051 A 
ATOM     13  C   UNL A   1      37.778  23.553  25.912  1.00  0.00     0.138 A 
ATOM     14  C   UNL A   1      36.798  21.426  25.554  1.00  0.00     0.046 A 
ATOM     15  N   UNL A   1      36.579  24.179  25.986  1.00  0.00    -0.242 NA
ATOM     16  C   UNL A   1      35.480  23.399  25.842  1.00  0.00     0.143 A 
ATOM     17  Cl  UNL A   1      34.026  24.294  26.060  1.00  0.00    -0.061 Cl
BRANCH  12  18
ATOM     18  N   UNL A   1      39.204  21.608  25.591  1.00  0.00    -0.397 N 
ATOM     19  H   UNL A   1      39.991  22.040  25.995  1.00  0.00     0.156 HD
ATOM     20  H   UNL A   1      39.306  20.766  25.091  1.00  0.00     0.156 HD
ENDBRANCH  12  18
ENDBRANCH   9  11
ENDBRANCH   8   9
ENDBRANCH   7   8
ENDBRANCH   6   7
ENDBRANCH   5   6
ENDBRANCH   4   5
ENDBRANCH   3   4
ENDBRANCH   2   3
ENDBRANCH   1   2
BRANCH   1  21
ATOM     21  C   UNL A   1      33.913  28.439  23.629  1.00  0.00     0.188 C 
BRANCH  21  22
ATOM     22  O   UNL A   1      33.082  28.594  24.776  1.00  0.00    -0.376 OA
BRANCH  22  23
ATOM     23  C   UNL A   1      32.147  29.663  24.734  1.00  0.00     0.202 C 
BRANCH  23  24
ATOM     24  C   UNL A   1      31.445  29.899  26.074  1.00  0.00     0.261 C 
BRANCH  24  25
ATOM     25  O   UNL A   1      32.325  30.149  27.178  1.00  0.00    -0.460 OA
BRANCH  25  26
ATOM     26  C   UNL A   1      32.986  31.330  27.193  1.00  0.00     0.338 C 
ATOM     27  O   UNL A   1      32.522  32.433  26.961  1.00  0.00    -0.246 OA
BRANCH  26  28
ATOM     28  C   UNL A   1      34.335  31.067  27.734  1.00  0.00     0.060 A 
ATOM     29  C   UNL A   1      35.214  32.128  27.972  1.00  0.00     0.016 A 
ATOM     30  C   UNL A   1      34.737  29.745  27.957  1.00  0.00     0.016 A 
ATOM     31  C   UNL A   1      36.493  31.865  28.458  1.00  0.00     0.010 A 
ATOM     32  C   UNL A   1      36.022  29.484  28.440  1.00  0.00     0.010 A 
ATOM     33  C   UNL A   1      36.900  30.544  28.714  1.00  0.00    -0.014 A 
BRANCH  33  34
ATOM     34  C   UNL A   1      38.152  30.308  29.471  1.00  0.00     0.031 A 
ATOM     35  C   UNL A   1      38.385  30.871  30.837  1.00  0.00     0.074 A 
ATOM     36  C   UNL A   1      39.095  29.553  28.877  1.00  0.00     0.049 A 
ATOM     37  N   UNL A   1      39.381  30.639  31.653  1.00  0.00    -0.248 NA
ATOM     38  C   UNL A   1      37.388  31.817  31.354  1.00  0.00     0.031 C 
ATOM     39  C   UNL A   1      38.980  28.994  27.530  1.00  0.00     0.029 A 
ATOM     40  N   UNL A   1      40.321  29.123  29.316  1.00  0.00    -0.354 N 
ATOM     41  C   UNL A   1      39.127  31.392  32.791  1.00  0.00     0.074 A 
ATOM     42  C   UNL A   1      37.902  32.125  32.540  1.00  0.00     0.031 C 
ATOM     43  C   UNL A   1      40.080  28.282  27.257  1.00  0.00     0.029 A 
ATOM     44  C   UNL A   1      40.991  28.351  28.397  1.00  0.00     0.049 A 
ATOM     45  H   UNL A   1      40.686  29.346  30.203  1.00  0.00     0.167 HD
ATOM     46  C   UNL A   1      39.847  31.445  33.939  1.00  0.00     0.034 A 
ATOM     47  C   UNL A   1      42.200  27.756  28.461  1.00  0.00     0.034 A 
ATOM     48  C   UNL A   1      41.073  30.713  34.155  1.00  0.00     0.049 A 
ATOM     49  C   UNL A   1      42.983  27.839  29.742  1.00  0.00     0.074 A 
ATOM     50  C   UNL A   1      41.831  30.642  35.312  1.00  0.00     0.029 A 
ATOM     51  N   UNL A   1      41.734  29.947  33.203  1.00  0.00    -0.354 N 
ATOM     52  N   UNL A   1      42.662  28.440  30.864  1.00  0.00    -0.248 NA
ATOM     53  C   UNL A   1      44.280  27.151  29.782  1.00  0.00     0.031 C 
ATOM     54  C   UNL A   1      42.982  29.903  35.038  1.00  0.00     0.029 A 
ATOM     55  C   UNL A   1      42.909  29.438  33.735  1.00  0.00     0.049 A 
ATOM     56  H   UNL A   1      41.414  29.788  32.286  1.00  0.00     0.167 HD
ATOM     57  C   UNL A   1      43.706  28.184  31.748  1.00  0.00     0.074 A 
ATOM     58  C   UNL A   1      44.655  27.352  31.039  1.00  0.00     0.031 C 
ATOM     59  C   UNL A   1      43.859  28.606  33.029  1.00  0.00     0.034 A 
BRANCH  46  60
ATOM     60  C   UNL A   1      39.341  32.291  35.082  1.00  0.00     0.023 A 
ATOM     61  C   UNL A   1      39.846  33.591  35.278  1.00  0.00     0.031 A 
ATOM     62  C   UNL A   1      38.496  31.751  36.069  1.00  0.00     0.131 A 
ATOM     63  C   UNL A   1      39.534  34.290  36.453  1.00  0.00     0.055 A 
ATOM     64  C   UNL A   1      38.158  32.467  37.218  1.00  0.00     0.041 A 
ATOM     65  F   UNL A   1      37.995  30.512  35.935  1.00  0.00    -0.206 F 
ATOM     66  C   UNL A   1      38.689  33.737  37.421  1.00  0.00     0.022 A 
BRANCH  63  67
ATOM     67  S   UNL A   1      40.273  35.909  36.808  1.00  0.00     0.124 S 
ATOM     68  O   UNL A   1      39.705  36.734  35.743  1.00  0.00    -0.237 OA
ATOM     69  O   UNL A   1      39.767  36.188  38.149  1.00  0.00    -0.237 OA
ATOM     70  O   UNL A   1      41.707  35.669  36.710  1.00  0.00    -0.744 OA
ENDBRANCH  63  67
ENDBRANCH  46  60
BRANCH  47  71
ATOM     71  C   UNL A   1      42.669  26.970  27.285  1.00  0.00     0.023 A 
ATOM     72  C   UNL A   1      42.395  25.593  27.186  1.00  0.00     0.031 A 
ATOM     73  C   UNL A   1      43.515  27.548  26.326  1.00  0.00     0.131 A 
ATOM     74  C   UNL A   1      43.027  24.827  26.199  1.00  0.00     0.055 A 
ATOM     75  C   UNL A   1      44.084  26.794  25.297  1.00  0.00     0.041 A 
ATOM     76  F   UNL A   1      43.821  28.853  26.391  1.00  0.00    -0.206 F 
ATOM     77  C   UNL A   1      43.857  25.422  25.244  1.00  0.00     0.022 A 
BRANCH  74  78
ATOM     78  S   UNL A   1      42.915  23.015  26.216  1.00  0.00     0.124 S 
ATOM     79  O   UNL A   1      42.829  22.703  24.792  1.00  0.00    -0.237 OA
ATOM     80  O   UNL A   1      44.167  22.647  26.870  1.00  0.00    -0.237 OA
ATOM     81  O   UNL A   1      41.709  22.752  26.994  1.00  0.00    -0.744 OA
ENDBRANCH  74  78
ENDBRANCH  47  71
BRANCH  59  82
ATOM     82  C   UNL A   1      45.103  28.196  33.782  1.00  0.00     0.023 A 
ATOM     83  C   UNL A   1      46.323  28.864  33.549  1.00  0.00     0.031 A 
ATOM     84  C   UNL A   1      45.120  27.057  34.605  1.00  0.00     0.131 A 
ATOM     85  C   UNL A   1      47.511  28.360  34.093  1.00  0.00     0.055 A 
ATOM     86  C   UNL A   1      46.299  26.589  35.188  1.00  0.00     0.041 A 
ATOM     87  F   UNL A   1      43.988  26.379  34.852  1.00  0.00    -0.206 F 
ATOM     88  C   UNL A   1      47.504  27.231  34.920  1.00  0.00     0.022 A 
BRANCH  85  89
ATOM     89  S   UNL A   1      49.117  29.092  33.676  1.00  0.00     0.124 S 
ATOM     90  O   UNL A   1      49.029  30.401  34.320  1.00  0.00    -0.237 OA
ATOM     91  O   UNL A   1      50.052  28.156  34.295  1.00  0.00    -0.237 OA
ATOM     92  O   UNL A   1      49.126  29.118  32.217  1.00  0.00    -0.744 OA
ENDBRANCH  85  89
ENDBRANCH  59  82
ENDBRANCH  33  34
ENDBRANCH  26  28
ENDBRANCH  25  26
ENDBRANCH  24  25
ENDBRANCH  23  24
ENDBRANCH  22  23
ENDBRANCH  21  22
ENDBRANCH   1  21
TORSDOF 24
ENDMDL
MODEL 3
REMARK VINA RESULT:      -8.8      1.960      7.856
REMARK SMILES Nc1cnc(Cl)c(C(=O)OCCOCCOCCOCCOC(=O)c2ccc(-c3c4nc(c(-c5cc(S(=O)(=O)[O-])ccc5F)c5ccc([nH]5)c(-c5cc(S(=O)(=O)[O-])ccc5F)c5nc(c(-c6cc(S(=O)(=O)[O-])ccc6F)c6ccc3[nH]6)C=C5)C=C4)cc2)c1
REMARK SMILES IDX 17 1 16 2 15 3 14 4 13 5 12 6 11 7 10 8 8 9 9 10 7 11 2 12
REMARK SMILES IDX 3 13 88 14 4 15 5 16 6 17 1 18 18 21 19 22 20 23 21 24 22 25
REMARK SMILES IDX 23 26 24 27 25 28 26 29 87 30 27 31 86 32 28 33 29 34 30 35
REMARK SMILES IDX 80 36 31 37 85 38 79 39 81 40 32 41 84 42 78 43 77 44 33 46
REMARK SMILES IDX 65 47 45 48 64 49 46 50 49 51 63 52 82 53 47 54 48 55 62 57
REMARK SMILES IDX 83 58 50 59 34 60 35 61 43 62 36 63 42 64 44 65 41 66 37 67
REMARK SMILES IDX 38 68 39 69 40 70 66 71 67 72 75 73 68 74 74 75 76 76 73 77
REMARK SMILES IDX 69 78 70 79 71 80 72 81 51 82 52 83 60 84 53 85 59 86 61 87
REMARK SMILES IDX 58 88 54 89 55 90 56 91 57 92
REMARK H PARENT 1 19 1 20 81 45 49 56
REMARK Flexibility Score: inf
ROOT
ATOM      1  C   UNL A   1      29.352  29.856  23.187  1.00  0.00     0.188 C 
ENDROOT
BRANCH   1   2
ATOM      2  O   UNL A   1      29.678  28.486  23.413  1.00  0.00    -0.377 OA
BRANCH   2   3
ATOM      3  C   UNL A   1      30.596  27.846  22.546  1.00  0.00     0.188 C 
BRANCH   3   4
ATOM      4  C   UNL A   1      32.016  28.435  22.540  1.00  0.00     0.188 C 
BRANCH   4   5
ATOM      5  O   UNL A   1      32.987  27.611  23.179  1.00  0.00    -0.376 OA
BRANCH   5   6
ATOM      6  C   UNL A   1      32.659  27.156  24.487  1.00  0.00     0.202 C 
BRANCH   6   7
ATOM      7  C   UNL A   1      32.746  25.639  24.688  1.00  0.00     0.261 C 
BRANCH   7   8
ATOM      8  O   UNL A   1      34.088  25.126  24.663  1.00  0.00    -0.460 OA
BRANCH   8   9
ATOM      9  C   UNL A   1      34.452  24.345  23.623  1.00  0.00     0.341 C 
ATOM     10  O   UNL A   1      34.369  24.618  22.441  1.00  0.00    -0.246 OA
BRANCH   9  11
ATOM     11  C   UNL A   1      35.089  23.146  24.196  1.00  0.00     0.099 A 
ATOM     12  C   UNL A   1      37.090  22.004  24.952  1.00  0.00     0.051 A 
ATOM     13  C   UNL A   1      36.298  20.865  25.073  1.00  0.00     0.138 A 
ATOM     14  C   UNL A   1      36.450  23.167  24.531  1.00  0.00     0.046 A 
ATOM     15  N   UNL A   1      34.980  20.801  24.766  1.00  0.00    -0.242 NA
ATOM     16  C   UNL A   1      34.404  21.948  24.332  1.00  0.00     0.143 A 
ATOM     17  Cl  UNL A   1      32.761  21.708  23.879  1.00  0.00    -0.061 Cl
BRANCH  12  18
ATOM     18  N   UNL A   1      38.417  22.030  25.344  1.00  0.00    -0.397 N 
ATOM     19  H   UNL A   1      38.897  22.887  25.402  1.00  0.00     0.156 HD
ATOM     20  H   UNL A   1      38.881  21.189  25.566  1.00  0.00     0.156 HD
ENDBRANCH  12  18
ENDBRANCH   9  11
ENDBRANCH   8   9
ENDBRANCH   7   8
ENDBRANCH   6   7
ENDBRANCH   5   6
ENDBRANCH   4   5
ENDBRANCH   3   4
ENDBRANCH   2   3
ENDBRANCH   1   2
BRANCH   1  21
ATOM     21  C   UNL A   1      29.625  30.965  24.228  1.00  0.00     0.188 C 
BRANCH  21  22
ATOM     22  O   UNL A   1      30.926  30.931  24.809  1.00  0.00    -0.376 OA
BRANCH  22  23
ATOM     23  C   UNL A   1      30.986  31.057  26.223  1.00  0.00     0.202 C 
BRANCH  23  24
ATOM     24  C   UNL A   1      31.779  32.283  26.684  1.00  0.00     0.261 C 
BRANCH  24  25
ATOM     25  O   UNL A   1      33.106  32.002  27.146  1.00  0.00    -0.460 OA
BRANCH  25  26
ATOM     26  C   UNL A   1      33.721  32.952  27.889  1.00  0.00     0.338 C 
ATOM     27  O   UNL A   1      33.262  34.027  28.230  1.00  0.00    -0.246 OA
BRANCH  26  28
ATOM     28  C   UNL A   1      34.986  32.368  28.381  1.00  0.00     0.060 A 
ATOM     29  C   UNL A   1      36.180  33.087  28.272  1.00  0.00     0.016 A 
ATOM     30  C   UNL A   1      34.982  31.072  28.910  1.00  0.00     0.016 A 
ATOM     31  C   UNL A   1      37.371  32.517  28.716  1.00  0.00     0.010 A 
ATOM     32  C   UNL A   1      36.178  30.500  29.351  1.00  0.00     0.010 A 
ATOM     33  C   UNL A   1      37.376  31.227  29.276  1.00  0.00    -0.014 A 
BRANCH  33  34
ATOM     34  C   UNL A   1      38.592  30.749  29.976  1.00  0.00     0.031 A 
ATOM     35  C   UNL A   1      38.967  31.216  31.346  1.00  0.00     0.074 A 
ATOM     36  C   UNL A   1      39.366  29.860  29.325  1.00  0.00     0.049 A 
ATOM     37  N   UNL A   1      39.933  30.784  32.115  1.00  0.00    -0.248 NA
ATOM     38  C   UNL A   1      38.171  32.304  31.928  1.00  0.00     0.031 C 
ATOM     39  C   UNL A   1      39.107  29.377  27.968  1.00  0.00     0.029 A 
ATOM     40  N   UNL A   1      40.510  29.207  29.703  1.00  0.00    -0.354 N 
ATOM     41  C   UNL A   1      39.856  31.531  33.283  1.00  0.00     0.074 A 
ATOM     42  C   UNL A   1      38.772  32.476  33.101  1.00  0.00     0.031 C 
ATOM     43  C   UNL A   1      40.054  28.492  27.632  1.00  0.00     0.029 A 
ATOM     44  C   UNL A   1      41.001  28.361  28.737  1.00  0.00     0.049 A 
ATOM     45  H   UNL A   1      40.939  29.332  30.580  1.00  0.00     0.167 HD
ATOM     46  C   UNL A   1      40.612  31.417  34.402  1.00  0.00     0.034 A 
ATOM     47  C   UNL A   1      42.087  27.561  28.737  1.00  0.00     0.034 A 
ATOM     48  C   UNL A   1      41.697  30.474  34.550  1.00  0.00     0.049 A 
ATOM     49  C   UNL A   1      42.916  27.462  29.988  1.00  0.00     0.074 A 
ATOM     50  C   UNL A   1      42.469  30.232  35.673  1.00  0.00     0.029 A 
ATOM     51  N   UNL A   1      42.178  29.637  33.552  1.00  0.00    -0.354 N 
ATOM     52  N   UNL A   1      42.745  28.071  31.137  1.00  0.00    -0.248 NA
ATOM     53  C   UNL A   1      44.071  26.555  29.957  1.00  0.00     0.031 C 
ATOM     54  C   UNL A   1      43.461  29.312  35.334  1.00  0.00     0.029 A 
ATOM     55  C   UNL A   1      43.263  28.912  34.022  1.00  0.00     0.049 A 
ATOM     56  H   UNL A   1      41.804  29.568  32.644  1.00  0.00     0.167 HD
ATOM     57  C   UNL A   1      43.756  27.606  31.972  1.00  0.00     0.074 A 
ATOM     58  C   UNL A   1      44.518  26.644  31.203  1.00  0.00     0.031 C 
ATOM     59  C   UNL A   1      44.025  27.950  33.257  1.00  0.00     0.034 A 
BRANCH  46  60
ATOM     60  C   UNL A   1      40.303  32.300  35.588  1.00  0.00     0.023 A 
ATOM     61  C   UNL A   1      39.287  31.940  36.493  1.00  0.00     0.031 A 
ATOM     62  C   UNL A   1      40.890  33.571  35.720  1.00  0.00     0.131 A 
ATOM     63  C   UNL A   1      38.861  32.857  37.465  1.00  0.00     0.055 A 
ATOM     64  C   UNL A   1      40.489  34.465  36.715  1.00  0.00     0.041 A 
ATOM     65  F   UNL A   1      41.857  33.968  34.877  1.00  0.00    -0.206 F 
ATOM     66  C   UNL A   1      39.460  34.115  37.583  1.00  0.00     0.022 A 
BRANCH  63  67
ATOM     67  S   UNL A   1      37.464  32.485  38.561  1.00  0.00     0.124 S 
ATOM     68  O   UNL A   1      36.330  32.958  37.770  1.00  0.00    -0.237 OA
ATOM     69  O   UNL A   1      37.563  31.034  38.701  1.00  0.00    -0.237 OA
ATOM     70  O   UNL A   1      37.747  33.257  39.764  1.00  0.00    -0.744 OA
ENDBRANCH  63  67
ENDBRANCH  46  60
BRANCH  47  71
ATOM     71  C   UNL A   1      42.369  26.746  27.522  1.00  0.00     0.023 A 
ATOM     72  C   UNL A   1      41.969  25.398  27.452  1.00  0.00     0.031 A 
ATOM     73  C   UNL A   1      43.166  27.254  26.484  1.00  0.00     0.131 A 
ATOM     74  C   UNL A   1      42.433  24.587  26.410  1.00  0.00     0.055 A 
ATOM     75  C   UNL A   1      43.564  26.461  25.406  1.00  0.00     0.041 A 
ATOM     76  F   UNL A   1      43.588  28.528  26.516  1.00  0.00    -0.206 F 
ATOM     77  C   UNL A   1      43.215  25.114  25.377  1.00  0.00     0.022 A 
BRANCH  74  78
ATOM     78  S   UNL A   1      42.166  22.792  26.440  1.00  0.00     0.124 S 
ATOM     79  O   UNL A   1      40.759  22.700  26.819  1.00  0.00    -0.237 OA
ATOM     80  O   UNL A   1      42.475  22.422  25.062  1.00  0.00    -0.237 OA
ATOM     81  O   UNL A   1      43.121  22.318  27.437  1.00  0.00    -0.744 OA
ENDBRANCH  74  78
ENDBRANCH  47  71
BRANCH  59  82
ATOM     82  C   UNL A   1      45.203  27.303  33.949  1.00  0.00     0.023 A 
ATOM     83  C   UNL A   1      46.496  27.842  33.795  1.00  0.00     0.031 A 
ATOM     84  C   UNL A   1      45.072  26.077  34.624  1.00  0.00     0.131 A 
ATOM     85  C   UNL A   1      47.609  27.133  34.268  1.00  0.00     0.055 A 
ATOM     86  C   UNL A   1      46.180  25.402  35.140  1.00  0.00     0.041 A 
ATOM     87  F   UNL A   1      43.864  25.517  34.790  1.00  0.00    -0.206 F 
ATOM     88  C   UNL A   1      47.456  25.921  34.948  1.00  0.00     0.022 A 
BRANCH  85  89
ATOM     89  S   UNL A   1      49.296  27.712  33.939  1.00  0.00     0.124 S 
ATOM     90  O   UNL A   1      49.872  26.573  33.226  1.00  0.00    -0.237 OA
ATOM     91  O   UNL A   1      49.060  28.900  33.123  1.00  0.00    -0.237 OA
ATOM     92  O   UNL A   1      49.851  27.960  35.265  1.00  0.00    -0.744 OA
ENDBRANCH  85  89
ENDBRANCH  59  82
ENDBRANCH  33  34
ENDBRANCH  26  28
ENDBRANCH  25  26
ENDBRANCH  24  25
ENDBRANCH  23  24
ENDBRANCH  22  23
ENDBRANCH  21  22
ENDBRANCH   1  21
TORSDOF 24
ENDMDL
