MODEL 1
REMARK VINA RESULT:     -10.5      0.000      0.000
REMARK SMILES Nc1ccc(-c2cc(Cl)cc3c2O[C@H](C(F)(F)F)C(C(=O)OCCOCCOCCOCCOC(=O)c2ccc(-c4c5nc(c(-c6cc(S(=O)(=O)[O-])ccc6F)c6ccc([nH]6)c(-c6cc(S(=O)(=O)[O-])ccc6F)c6nc(c(-c7cc(S(=O)(=O)[O-])ccc7F)c7ccc4[nH]7)C=C6)C=C5)cc2)=C3)cc1
REMARK SMILES IDX 29 1 28 2 27 3 26 4 25 5 24 6 23 7 22 8 20 9 21 10 19 11
REMARK SMILES IDX 6 12 7 13 12 14 8 15 11 16 13 17 9 18 10 19 100 20 14 21
REMARK SMILES IDX 5 22 2 23 3 24 102 25 4 26 101 27 1 28 15 31 16 32 17 33
REMARK SMILES IDX 18 34 30 35 31 36 32 37 33 38 34 39 35 40 36 41 37 42 38 43
REMARK SMILES IDX 99 44 39 45 98 46 40 47 41 48 42 49 92 50 43 51 97 52 91 53
REMARK SMILES IDX 93 54 44 55 96 56 90 57 89 58 45 60 77 61 57 62 76 63 58 64
REMARK SMILES IDX 61 65 75 66 94 67 59 68 60 69 74 71 95 72 62 73 46 74 47 75
REMARK SMILES IDX 55 76 48 77 54 78 56 79 53 80 49 81 50 82 51 83 52 84 78 85
REMARK SMILES IDX 79 86 87 87 80 88 86 89 88 90 85 91 81 92 82 93 83 94 84 95
REMARK SMILES IDX 63 96 64 97 72 98 65 99 71 100 73 101 70 102 66 103 67 104
REMARK SMILES IDX 68 105 69 106
REMARK H PARENT 1 29 1 30 93 59 61 70
REMARK Flexibility Score: inf
ROOT
ATOM      1  C   UNL A   1      33.082  28.568  22.406  1.00  0.00     0.188 C 
ENDROOT
BRANCH   1   2
ATOM      2  O   UNL A   1      31.870  29.251  22.723  1.00  0.00    -0.377 OA
BRANCH   2   3
ATOM      3  C   UNL A   1      30.666  28.598  22.345  1.00  0.00     0.188 C 
BRANCH   3   4
ATOM      4  C   UNL A   1      29.710  28.424  23.538  1.00  0.00     0.188 C 
BRANCH   4   5
ATOM      5  O   UNL A   1      29.081  27.154  23.569  1.00  0.00    -0.376 OA
BRANCH   5   6
ATOM      6  C   UNL A   1      29.852  25.962  23.502  1.00  0.00     0.202 C 
BRANCH   6   7
ATOM      7  C   UNL A   1      30.720  25.432  24.662  1.00  0.00     0.261 C 
BRANCH   7   8
ATOM      8  O   UNL A   1      31.491  24.252  24.420  1.00  0.00    -0.460 OA
BRANCH   8   9
ATOM      9  C   UNL A   1      31.269  23.169  25.182  1.00  0.00     0.338 C 
ATOM     10  O   UNL A   1      30.241  22.873  25.762  1.00  0.00    -0.246 OA
BRANCH   9  11
ATOM     11  C   UNL A   1      32.454  22.289  25.044  1.00  0.00     0.087 C 
ATOM     12  C   UNL A   1      35.780  19.741  24.798  1.00  0.00     0.026 A 
ATOM     13  C   UNL A   1      35.553  18.380  24.521  1.00  0.00     0.033 A 
ATOM     14  C   UNL A   1      34.667  20.614  24.792  1.00  0.00     0.135 A 
ATOM     15  C   UNL A   1      34.268  17.908  24.258  1.00  0.00     0.042 A 
ATOM     16  C   UNL A   1      33.370  20.122  24.593  1.00  0.00     0.019 A 
ATOM     17  O   UNL A   1      34.921  21.946  24.977  1.00  0.00    -0.475 OA
ATOM     18  Cl  UNL A   1      34.022  16.237  23.929  1.00  0.00    -0.084 Cl
ATOM     19  C   UNL A   1      33.176  18.770  24.300  1.00  0.00     0.032 A 
ATOM     20  C   UNL A   1      32.224  21.002  24.754  1.00  0.00     0.027 C 
ATOM     21  C   UNL A   1      33.833  22.891  25.137  1.00  0.00     0.316 C 
BRANCH  12  22
ATOM     22  C   UNL A   1      37.139  20.197  25.162  1.00  0.00    -0.014 A 
ATOM     23  C   UNL A   1      39.732  21.103  25.894  1.00  0.00     0.031 A 
ATOM     24  C   UNL A   1      38.648  21.978  25.890  1.00  0.00     0.026 A 
ATOM     25  C   UNL A   1      39.503  19.761  25.588  1.00  0.00     0.026 A 
ATOM     26  C   UNL A   1      37.375  21.534  25.524  1.00  0.00     0.011 A 
ATOM     27  C   UNL A   1      38.230  19.314  25.210  1.00  0.00     0.011 A 
BRANCH  23  28
ATOM     28  N   UNL A   1      40.975  21.528  26.341  1.00  0.00    -0.399 N 
ATOM     29  H   UNL A   1      41.789  21.268  25.851  1.00  0.00     0.156 HD
ATOM     30  H   UNL A   1      41.043  22.090  27.146  1.00  0.00     0.156 HD
ENDBRANCH  23  28
ENDBRANCH  12  22
BRANCH  21  31
ATOM     31  C   UNL A   1      34.058  23.644  26.456  1.00  0.00     0.430 C 
ATOM     32  F   UNL A   1      32.955  23.607  27.239  1.00  0.00    -0.167 F 
ATOM     33  F   UNL A   1      35.074  23.121  27.177  1.00  0.00    -0.167 F 
ATOM     34  F   UNL A   1      34.349  24.949  26.233  1.00  0.00    -0.167 F 
ENDBRANCH  21  31
ENDBRANCH   9  11
ENDBRANCH   8   9
ENDBRANCH   7   8
ENDBRANCH   6   7
ENDBRANCH   5   6
ENDBRANCH   4   5
ENDBRANCH   3   4
ENDBRANCH   2   3
ENDBRANCH   1   2
BRANCH   1  35
ATOM     35  C   UNL A   1      33.648  27.527  23.396  1.00  0.00     0.188 C 
BRANCH  35  36
ATOM     36  O   UNL A   1      33.261  27.770  24.752  1.00  0.00    -0.376 OA
BRANCH  36  37
ATOM     37  C   UNL A   1      33.654  29.018  25.310  1.00  0.00     0.202 C 
BRANCH  37  38
ATOM     38  C   UNL A   1      32.521  29.770  26.022  1.00  0.00     0.261 C 
BRANCH  38  39
ATOM     39  O   UNL A   1      32.848  30.281  27.323  1.00  0.00    -0.460 OA
BRANCH  39  40
ATOM     40  C   UNL A   1      33.590  31.411  27.386  1.00  0.00     0.338 C 
ATOM     41  O   UNL A   1      33.210  32.546  27.160  1.00  0.00    -0.246 OA
BRANCH  40  42
ATOM     42  C   UNL A   1      34.893  31.055  27.989  1.00  0.00     0.060 A 
ATOM     43  C   UNL A   1      35.923  31.996  28.061  1.00  0.00     0.016 A 
ATOM     44  C   UNL A   1      35.090  29.751  28.460  1.00  0.00     0.016 A 
ATOM     45  C   UNL A   1      37.140  31.643  28.646  1.00  0.00     0.010 A 
ATOM     46  C   UNL A   1      36.311  29.398  29.042  1.00  0.00     0.010 A 
ATOM     47  C   UNL A   1      37.333  30.350  29.168  1.00  0.00    -0.014 A 
BRANCH  47  48
ATOM     48  C   UNL A   1      38.494  30.093  30.054  1.00  0.00     0.031 A 
ATOM     49  C   UNL A   1      38.621  30.692  31.419  1.00  0.00     0.074 A 
ATOM     50  C   UNL A   1      39.460  29.284  29.576  1.00  0.00     0.049 A 
ATOM     51  N   UNL A   1      39.520  30.440  32.336  1.00  0.00    -0.248 NA
ATOM     52  C   UNL A   1      37.629  31.704  31.805  1.00  0.00     0.031 C 
ATOM     53  C   UNL A   1      39.455  28.694  28.236  1.00  0.00     0.029 A 
ATOM     54  N   UNL A   1      40.615  28.816  30.146  1.00  0.00    -0.354 N 
ATOM     55  C   UNL A   1      39.196  31.244  33.421  1.00  0.00     0.074 A 
ATOM     56  C   UNL A   1      38.043  32.030  33.026  1.00  0.00     0.031 C 
ATOM     57  C   UNL A   1      40.538  27.918  28.097  1.00  0.00     0.029 A 
ATOM     58  C   UNL A   1      41.328  27.973  29.324  1.00  0.00     0.049 A 
ATOM     59  H   UNL A   1      40.906  29.057  31.055  1.00  0.00     0.167 HD
ATOM     60  C   UNL A   1      39.798  31.299  34.635  1.00  0.00     0.034 A 
ATOM     61  C   UNL A   1      42.480  27.306  29.533  1.00  0.00     0.034 A 
ATOM     62  C   UNL A   1      40.958  30.515  34.995  1.00  0.00     0.049 A 
ATOM     63  C   UNL A   1      43.132  27.391  30.886  1.00  0.00     0.074 A 
ATOM     64  C   UNL A   1      41.593  30.447  36.224  1.00  0.00     0.029 A 
ATOM     65  N   UNL A   1      41.665  29.682  34.139  1.00  0.00    -0.354 N 
ATOM     66  N   UNL A   1      42.733  28.045  31.952  1.00  0.00    -0.248 NA
ATOM     67  C   UNL A   1      44.377  26.634  31.079  1.00  0.00     0.031 C 
ATOM     68  C   UNL A   1      42.725  29.640  36.090  1.00  0.00     0.029 A 
ATOM     69  C   UNL A   1      42.754  29.132  34.802  1.00  0.00     0.049 A 
ATOM     70  H   UNL A   1      41.429  29.506  33.200  1.00  0.00     0.167 HD
ATOM     71  C   UNL A   1      43.665  27.764  32.946  1.00  0.00     0.074 A 
ATOM     72  C   UNL A   1      44.630  26.853  32.363  1.00  0.00     0.031 C 
ATOM     73  C   UNL A   1      43.719  28.225  34.222  1.00  0.00     0.034 A 
BRANCH  60  74
ATOM     74  C   UNL A   1      39.220  32.202  35.700  1.00  0.00     0.023 A 
ATOM     75  C   UNL A   1      39.697  33.520  35.849  1.00  0.00     0.031 A 
ATOM     76  C   UNL A   1      38.331  31.705  36.669  1.00  0.00     0.131 A 
ATOM     77  C   UNL A   1      39.317  34.277  36.965  1.00  0.00     0.055 A 
ATOM     78  C   UNL A   1      37.924  32.478  37.758  1.00  0.00     0.041 A 
ATOM     79  F   UNL A   1      37.857  30.452  36.580  1.00  0.00    -0.206 F 
ATOM     80  C   UNL A   1      38.429  33.764  37.917  1.00  0.00     0.022 A 
BRANCH  77  81
ATOM     81  S   UNL A   1      40.019  35.922  37.271  1.00  0.00     0.124 S 
ATOM     82  O   UNL A   1      41.439  35.615  37.428  1.00  0.00    -0.237 OA
ATOM     83  O   UNL A   1      39.668  36.636  36.047  1.00  0.00    -0.237 OA
ATOM     84  O   UNL A   1      39.344  36.372  38.483  1.00  0.00    -0.744 OA
ENDBRANCH  77  81
ENDBRANCH  60  74
BRANCH  61  85
ATOM     85  C   UNL A   1      43.015  26.438  28.444  1.00  0.00     0.023 A 
ATOM     86  C   UNL A   1      44.126  26.841  27.682  1.00  0.00     0.031 A 
ATOM     87  C   UNL A   1      42.341  25.265  28.066  1.00  0.00     0.131 A 
ATOM     88  C   UNL A   1      44.483  26.118  26.537  1.00  0.00     0.055 A 
ATOM     89  C   UNL A   1      42.746  24.506  26.968  1.00  0.00     0.041 A 
ATOM     90  F   UNL A   1      41.262  24.854  28.751  1.00  0.00    -0.206 F 
ATOM     91  C   UNL A   1      43.811  24.942  26.185  1.00  0.00     0.022 A 
BRANCH  88  92
ATOM     92  S   UNL A   1      45.729  26.758  25.383  1.00  0.00     0.124 S 
ATOM     93  O   UNL A   1      44.977  27.775  24.655  1.00  0.00    -0.237 OA
ATOM     94  O   UNL A   1      46.750  27.263  26.299  1.00  0.00    -0.237 OA
ATOM     95  O   UNL A   1      46.118  25.584  24.609  1.00  0.00    -0.744 OA
ENDBRANCH  88  92
ENDBRANCH  61  85
BRANCH  73  96
ATOM     96  C   UNL A   1      44.863  27.777  35.103  1.00  0.00     0.023 A 
ATOM     97  C   UNL A   1      46.109  28.430  35.031  1.00  0.00     0.031 A 
ATOM     98  C   UNL A   1      44.764  26.626  35.903  1.00  0.00     0.131 A 
ATOM     99  C   UNL A   1      47.213  27.904  35.715  1.00  0.00     0.055 A 
ATOM    100  C   UNL A   1      45.853  26.136  36.625  1.00  0.00     0.041 A 
ATOM    101  F   UNL A   1      43.602  25.961  35.998  1.00  0.00    -0.206 F 
ATOM    102  C   UNL A   1      47.090  26.767  36.520  1.00  0.00     0.022 A 
BRANCH  99 103
ATOM    103  S   UNL A   1      48.869  28.619  35.515  1.00  0.00     0.124 S 
ATOM    104  O   UNL A   1      48.763  29.266  34.209  1.00  0.00    -0.237 OA
ATOM    105  O   UNL A   1      48.951  29.529  36.655  1.00  0.00    -0.237 OA
ATOM    106  O   UNL A   1      49.761  27.465  35.567  1.00  0.00    -0.744 OA
ENDBRANCH  99 103
ENDBRANCH  73  96
ENDBRANCH  47  48
ENDBRANCH  40  42
ENDBRANCH  39  40
ENDBRANCH  38  39
ENDBRANCH  37  38
ENDBRANCH  36  37
ENDBRANCH  35  36
ENDBRANCH   1  35
TORSDOF 26
ENDMDL
MODEL 2
REMARK VINA RESULT:     -10.5      1.598      7.244
REMARK SMILES Nc1ccc(-c2cc(Cl)cc3c2O[C@H](C(F)(F)F)C(C(=O)OCCOCCOCCOCCOC(=O)c2ccc(-c4c5nc(c(-c6cc(S(=O)(=O)[O-])ccc6F)c6ccc([nH]6)c(-c6cc(S(=O)(=O)[O-])ccc6F)c6nc(c(-c7cc(S(=O)(=O)[O-])ccc7F)c7ccc4[nH]7)C=C6)C=C5)cc2)=C3)cc1
REMARK SMILES IDX 29 1 28 2 27 3 26 4 25 5 24 6 23 7 22 8 20 9 21 10 19 11
REMARK SMILES IDX 6 12 7 13 12 14 8 15 11 16 13 17 9 18 10 19 100 20 14 21
REMARK SMILES IDX 5 22 2 23 3 24 102 25 4 26 101 27 1 28 15 31 16 32 17 33
REMARK SMILES IDX 18 34 30 35 31 36 32 37 33 38 34 39 35 40 36 41 37 42 38 43
REMARK SMILES IDX 99 44 39 45 98 46 40 47 41 48 42 49 92 50 43 51 97 52 91 53
REMARK SMILES IDX 93 54 44 55 96 56 90 57 89 58 45 60 77 61 57 62 76 63 58 64
REMARK SMILES IDX 61 65 75 66 94 67 59 68 60 69 74 71 95 72 62 73 46 74 47 75
REMARK SMILES IDX 55 76 48 77 54 78 56 79 53 80 49 81 50 82 51 83 52 84 78 85
REMARK SMILES IDX 79 86 87 87 80 88 86 89 88 90 85 91 81 92 82 93 83 94 84 95
REMARK SMILES IDX 63 96 64 97 72 98 65 99 71 100 73 101 70 102 66 103 67 104
REMARK SMILES IDX 68 105 69 106
REMARK H PARENT 1 29 1 30 93 59 61 70
REMARK Flexibility Score: inf
ROOT
ATOM      1  C   UNL A   1      32.258  28.478  22.621  1.00  0.00     0.188 C 
ENDROOT
BRANCH   1   2
ATOM      2  O   UNL A   1      30.980  29.067  22.863  1.00  0.00    -0.377 OA
BRANCH   2   3
ATOM      3  C   UNL A   1      29.854  28.322  22.421  1.00  0.00     0.188 C 
BRANCH   3   4
ATOM      4  C   UNL A   1      28.885  28.010  23.575  1.00  0.00     0.188 C 
BRANCH   4   5
ATOM      5  O   UNL A   1      28.688  26.620  23.778  1.00  0.00    -0.376 OA
BRANCH   5   6
ATOM      6  C   UNL A   1      29.784  25.717  23.719  1.00  0.00     0.202 C 
BRANCH   6   7
ATOM      7  C   UNL A   1      30.659  25.345  24.933  1.00  0.00     0.261 C 
BRANCH   7   8
ATOM      8  O   UNL A   1      31.577  24.259  24.773  1.00  0.00    -0.460 OA
BRANCH   8   9
ATOM      9  C   UNL A   1      31.314  23.096  25.390  1.00  0.00     0.338 C 
ATOM     10  O   UNL A   1      30.258  22.745  25.884  1.00  0.00    -0.246 OA
BRANCH   9  11
ATOM     11  C   UNL A   1      32.499  22.225  25.202  1.00  0.00     0.087 C 
ATOM     12  C   UNL A   1      35.824  19.696  24.808  1.00  0.00     0.026 A 
ATOM     13  C   UNL A   1      35.596  18.350  24.463  1.00  0.00     0.033 A 
ATOM     14  C   UNL A   1      34.711  20.567  24.852  1.00  0.00     0.135 A 
ATOM     15  C   UNL A   1      34.310  17.892  24.184  1.00  0.00     0.042 A 
ATOM     16  C   UNL A   1      33.414  20.085  24.635  1.00  0.00     0.019 A 
ATOM     17  O   UNL A   1      34.965  21.888  25.104  1.00  0.00    -0.475 OA
ATOM     18  Cl  UNL A   1      34.064  16.239  23.771  1.00  0.00    -0.084 Cl
ATOM     19  C   UNL A   1      33.219  18.750  24.276  1.00  0.00     0.032 A 
ATOM     20  C   UNL A   1      32.268  20.955  24.848  1.00  0.00     0.027 C 
ATOM     21  C   UNL A   1      33.878  22.823  25.318  1.00  0.00     0.316 C 
BRANCH  12  22
ATOM     22  C   UNL A   1      37.185  20.133  25.188  1.00  0.00    -0.014 A 
ATOM     23  C   UNL A   1      39.820  20.938  25.889  1.00  0.00     0.031 A 
ATOM     24  C   UNL A   1      39.533  19.602  25.617  1.00  0.00     0.026 A 
ATOM     25  C   UNL A   1      38.798  21.877  25.751  1.00  0.00     0.026 A 
ATOM     26  C   UNL A   1      38.236  19.205  25.279  1.00  0.00     0.011 A 
ATOM     27  C   UNL A   1      37.494  21.482  25.423  1.00  0.00     0.011 A 
BRANCH  23  28
ATOM     28  N   UNL A   1      41.124  21.338  26.139  1.00  0.00    -0.399 N 
ATOM     29  H   UNL A   1      41.513  22.091  25.637  1.00  0.00     0.156 HD
ATOM     30  H   UNL A   1      41.661  20.870  26.818  1.00  0.00     0.156 HD
ENDBRANCH  23  28
ENDBRANCH  12  22
BRANCH  21  31
ATOM     31  C   UNL A   1      34.110  23.508  26.672  1.00  0.00     0.430 C 
ATOM     32  F   UNL A   1      33.564  24.746  26.698  1.00  0.00    -0.167 F 
ATOM     33  F   UNL A   1      33.567  22.814  27.696  1.00  0.00    -0.167 F 
ATOM     34  F   UNL A   1      35.433  23.647  26.932  1.00  0.00    -0.167 F 
ENDBRANCH  21  31
ENDBRANCH   9  11
ENDBRANCH   8   9
ENDBRANCH   7   8
ENDBRANCH   6   7
ENDBRANCH   5   6
ENDBRANCH   4   5
ENDBRANCH   3   4
ENDBRANCH   2   3
ENDBRANCH   1   2
BRANCH   1  35
ATOM     35  C   UNL A   1      32.971  27.719  23.761  1.00  0.00     0.188 C 
BRANCH  35  36
ATOM     36  O   UNL A   1      32.724  28.281  25.053  1.00  0.00    -0.376 OA
BRANCH  36  37
ATOM     37  C   UNL A   1      33.094  29.643  25.234  1.00  0.00     0.202 C 
BRANCH  37  38
ATOM     38  C   UNL A   1      32.159  30.428  26.164  1.00  0.00     0.261 C 
BRANCH  38  39
ATOM     39  O   UNL A   1      32.707  30.755  27.450  1.00  0.00    -0.460 OA
BRANCH  39  40
ATOM     40  C   UNL A   1      33.452  31.879  27.549  1.00  0.00     0.338 C 
ATOM     41  O   UNL A   1      33.055  33.027  27.458  1.00  0.00    -0.246 OA
BRANCH  40  42
ATOM     42  C   UNL A   1      34.803  31.480  28.003  1.00  0.00     0.060 A 
ATOM     43  C   UNL A   1      35.824  32.426  28.112  1.00  0.00     0.016 A 
ATOM     44  C   UNL A   1      35.050  30.133  28.295  1.00  0.00     0.016 A 
ATOM     45  C   UNL A   1      37.087  32.030  28.556  1.00  0.00     0.010 A 
ATOM     46  C   UNL A   1      36.316  29.737  28.736  1.00  0.00     0.010 A 
ATOM     47  C   UNL A   1      37.334  30.689  28.899  1.00  0.00    -0.014 A 
BRANCH  47  48
ATOM     48  C   UNL A   1      38.563  30.350  29.658  1.00  0.00     0.031 A 
ATOM     49  C   UNL A   1      39.661  29.509  29.088  1.00  0.00     0.074 A 
ATOM     50  C   UNL A   1      38.660  30.832  30.912  1.00  0.00     0.049 A 
ATOM     51  N   UNL A   1      40.838  29.253  29.600  1.00  0.00    -0.248 NA
ATOM     52  C   UNL A   1      39.413  28.866  27.791  1.00  0.00     0.031 C 
ATOM     53  C   UNL A   1      37.618  31.617  31.578  1.00  0.00     0.029 A 
ATOM     54  N   UNL A   1      39.663  30.747  31.842  1.00  0.00    -0.354 N 
ATOM     55  C   UNL A   1      41.486  28.436  28.683  1.00  0.00     0.074 A 
ATOM     56  C   UNL A   1      40.548  28.199  27.603  1.00  0.00     0.031 C 
ATOM     57  C   UNL A   1      38.048  31.967  32.797  1.00  0.00     0.029 A 
ATOM     58  C   UNL A   1      39.382  31.413  33.013  1.00  0.00     0.049 A 
ATOM     59  H   UNL A   1      40.503  30.258  31.688  1.00  0.00     0.167 HD
ATOM     60  C   UNL A   1      42.751  27.951  28.738  1.00  0.00     0.034 A 
ATOM     61  C   UNL A   1      40.116  31.576  34.131  1.00  0.00     0.034 A 
ATOM     62  C   UNL A   1      43.659  28.191  29.837  1.00  0.00     0.049 A 
ATOM     63  C   UNL A   1      41.514  31.020  34.168  1.00  0.00     0.074 A 
ATOM     64  C   UNL A   1      44.984  27.804  29.948  1.00  0.00     0.029 A 
ATOM     65  N   UNL A   1      43.342  28.857  31.013  1.00  0.00    -0.354 N 
ATOM     66  N   UNL A   1      42.166  30.371  33.233  1.00  0.00    -0.248 NA
ATOM     67  C   UNL A   1      42.287  31.235  35.399  1.00  0.00     0.031 C 
ATOM     68  C   UNL A   1      45.443  28.165  31.217  1.00  0.00     0.029 A 
ATOM     69  C   UNL A   1      44.434  28.852  31.871  1.00  0.00     0.049 A 
ATOM     70  H   UNL A   1      42.472  29.272  31.211  1.00  0.00     0.167 HD
ATOM     71  C   UNL A   1      43.431  30.116  33.754  1.00  0.00     0.074 A 
ATOM     72  C   UNL A   1      43.462  30.712  35.074  1.00  0.00     0.031 C 
ATOM     73  C   UNL A   1      44.467  29.444  33.190  1.00  0.00     0.034 A 
BRANCH  60  74
ATOM     74  C   UNL A   1      43.275  27.138  27.578  1.00  0.00     0.023 A 
ATOM     75  C   UNL A   1      43.333  25.732  27.664  1.00  0.00     0.031 A 
ATOM     76  C   UNL A   1      43.875  27.759  26.467  1.00  0.00     0.131 A 
ATOM     77  C   UNL A   1      44.014  25.001  26.682  1.00  0.00     0.055 A 
ATOM     78  C   UNL A   1      44.516  27.021  25.471  1.00  0.00     0.041 A 
ATOM     79  F   UNL A   1      43.858  29.096  26.343  1.00  0.00    -0.206 F 
ATOM     80  C   UNL A   1      44.601  25.638  25.583  1.00  0.00     0.022 A 
BRANCH  77  81
ATOM     81  S   UNL A   1      44.236  23.206  26.830  1.00  0.00     0.124 S 
ATOM     82  O   UNL A   1      45.608  23.115  27.326  1.00  0.00    -0.237 OA
ATOM     83  O   UNL A   1      43.200  22.849  27.795  1.00  0.00    -0.237 OA
ATOM     84  O   UNL A   1      44.034  22.713  25.473  1.00  0.00    -0.744 OA
ENDBRANCH  77  81
ENDBRANCH  60  74
BRANCH  61  85
ATOM     85  C   UNL A   1      39.547  32.377  35.253  1.00  0.00     0.023 A 
ATOM     86  C   UNL A   1      39.882  33.734  35.412  1.00  0.00     0.031 A 
ATOM     87  C   UNL A   1      38.773  31.763  36.252  1.00  0.00     0.131 A 
ATOM     88  C   UNL A   1      39.508  34.410  36.580  1.00  0.00     0.055 A 
ATOM     89  C   UNL A   1      38.338  32.463  37.379  1.00  0.00     0.041 A 
ATOM     90  F   UNL A   1      38.447  30.465  36.153  1.00  0.00    -0.206 F 
ATOM     91  C   UNL A   1      38.723  33.788  37.556  1.00  0.00     0.022 A 
BRANCH  88  92
ATOM     92  S   UNL A   1      40.153  36.068  36.941  1.00  0.00     0.124 S 
ATOM     93  O   UNL A   1      39.944  36.759  35.673  1.00  0.00    -0.237 OA
ATOM     94  O   UNL A   1      39.290  36.490  38.041  1.00  0.00    -0.237 OA
ATOM     95  O   UNL A   1      41.545  35.823  37.305  1.00  0.00    -0.744 OA
ENDBRANCH  88  92
ENDBRANCH  61  85
BRANCH  73  96
ATOM     96  C   UNL A   1      45.743  29.287  33.986  1.00  0.00     0.023 A 
ATOM     97  C   UNL A   1      45.878  28.229  34.906  1.00  0.00     0.031 A 
ATOM     98  C   UNL A   1      46.760  30.255  33.938  1.00  0.00     0.131 A 
ATOM     99  C   UNL A   1      46.983  28.188  35.766  1.00  0.00     0.055 A 
ATOM    100  C   UNL A   1      47.886  30.182  34.760  1.00  0.00     0.041 A 
ATOM    101  F   UNL A   1      46.676  31.290  33.086  1.00  0.00    -0.206 F 
ATOM    102  C   UNL A   1      47.993  29.152  35.691  1.00  0.00     0.022 A 
BRANCH  99 103
ATOM    103  S   UNL A   1      47.108  26.937  37.075  1.00  0.00     0.124 S 
ATOM    104  O   UNL A   1      47.558  27.736  38.213  1.00  0.00    -0.237 OA
ATOM    105  O   UNL A   1      45.736  26.446  37.163  1.00  0.00    -0.237 OA
ATOM    106  O   UNL A   1      48.085  25.983  36.560  1.00  0.00    -0.744 OA
ENDBRANCH  99 103
ENDBRANCH  73  96
ENDBRANCH  47  48
ENDBRANCH  40  42
ENDBRANCH  39  40
ENDBRANCH  38  39
ENDBRANCH  37  38
ENDBRANCH  36  37
ENDBRANCH  35  36
ENDBRANCH   1  35
TORSDOF 26
ENDMDL
MODEL 3
REMARK VINA RESULT:      -9.0      2.560      3.001
REMARK SMILES Nc1ccc(-c2cc(Cl)cc3c2O[C@H](C(F)(F)F)C(C(=O)OCCOCCOCCOCCOC(=O)c2ccc(-c4c5nc(c(-c6cc(S(=O)(=O)[O-])ccc6F)c6ccc([nH]6)c(-c6cc(S(=O)(=O)[O-])ccc6F)c6nc(c(-c7cc(S(=O)(=O)[O-])ccc7F)c7ccc4[nH]7)C=C6)C=C5)cc2)=C3)cc1
REMARK SMILES IDX 29 1 28 2 27 3 26 4 25 5 24 6 23 7 22 8 20 9 21 10 19 11
REMARK SMILES IDX 6 12 7 13 12 14 8 15 11 16 13 17 9 18 10 19 100 20 14 21
REMARK SMILES IDX 5 22 2 23 3 24 102 25 4 26 101 27 1 28 15 31 16 32 17 33
REMARK SMILES IDX 18 34 30 35 31 36 32 37 33 38 34 39 35 40 36 41 37 42 38 43
REMARK SMILES IDX 99 44 39 45 98 46 40 47 41 48 42 49 92 50 43 51 97 52 91 53
REMARK SMILES IDX 93 54 44 55 96 56 90 57 89 58 45 60 77 61 57 62 76 63 58 64
REMARK SMILES IDX 61 65 75 66 94 67 59 68 60 69 74 71 95 72 62 73 46 74 47 75
REMARK SMILES IDX 55 76 48 77 54 78 56 79 53 80 49 81 50 82 51 83 52 84 78 85
REMARK SMILES IDX 79 86 87 87 80 88 86 89 88 90 85 91 81 92 82 93 83 94 84 95
REMARK SMILES IDX 63 96 64 97 72 98 65 99 71 100 73 101 70 102 66 103 67 104
REMARK SMILES IDX 68 105 69 106
REMARK H PARENT 1 29 1 30 93 59 61 70
REMARK Flexibility Score: inf
ROOT
ATOM      1  C   UNL A   1      32.326  27.722  22.456  1.00  0.00     0.188 C 
ENDROOT
BRANCH   1   2
ATOM      2  O   UNL A   1      31.224  28.527  22.877  1.00  0.00    -0.377 OA
BRANCH   2   3
ATOM      3  C   UNL A   1      29.933  28.062  22.510  1.00  0.00     0.188 C 
BRANCH   3   4
ATOM      4  C   UNL A   1      29.152  27.527  23.723  1.00  0.00     0.188 C 
BRANCH   4   5
ATOM      5  O   UNL A   1      29.596  26.251  24.154  1.00  0.00    -0.376 OA
BRANCH   5   6
ATOM      6  C   UNL A   1      29.901  26.015  25.522  1.00  0.00     0.202 C 
BRANCH   6   7
ATOM      7  C   UNL A   1      29.093  25.068  26.434  1.00  0.00     0.261 C 
BRANCH   7   8
ATOM      8  O   UNL A   1      29.831  24.176  27.274  1.00  0.00    -0.460 OA
BRANCH   8   9
ATOM      9  C   UNL A   1      30.108  22.943  26.821  1.00  0.00     0.338 C 
ATOM     10  O   UNL A   1      29.392  21.960  26.873  1.00  0.00    -0.246 OA
BRANCH   9  11
ATOM     11  C   UNL A   1      31.383  23.031  26.070  1.00  0.00     0.087 C 
ATOM     12  C   UNL A   1      34.978  23.127  23.909  1.00  0.00     0.026 A 
ATOM     13  C   UNL A   1      34.906  23.186  22.504  1.00  0.00     0.033 A 
ATOM     14  C   UNL A   1      33.768  23.186  24.638  1.00  0.00     0.135 A 
ATOM     15  C   UNL A   1      33.677  23.288  21.855  1.00  0.00     0.042 A 
ATOM     16  C   UNL A   1      32.533  23.222  23.978  1.00  0.00     0.019 A 
ATOM     17  O   UNL A   1      33.866  23.215  26.003  1.00  0.00    -0.475 OA
ATOM     18  Cl  UNL A   1      33.621  23.352  20.136  1.00  0.00    -0.084 Cl
ATOM     19  C   UNL A   1      32.492  23.299  22.584  1.00  0.00     0.032 A 
ATOM     20  C   UNL A   1      31.298  23.113  24.737  1.00  0.00     0.027 C 
ATOM     21  C   UNL A   1      32.681  23.122  26.832  1.00  0.00     0.316 C 
BRANCH  12  22
ATOM     22  C   UNL A   1      36.289  22.927  24.566  1.00  0.00    -0.014 A 
ATOM     23  C   UNL A   1      38.793  22.574  25.863  1.00  0.00     0.031 A 
ATOM     24  C   UNL A   1      38.120  23.791  25.936  1.00  0.00     0.026 A 
ATOM     25  C   UNL A   1      38.181  21.516  25.190  1.00  0.00     0.026 A 
ATOM     26  C   UNL A   1      36.892  23.968  25.292  1.00  0.00     0.011 A 
ATOM     27  C   UNL A   1      36.955  21.692  24.534  1.00  0.00     0.011 A 
BRANCH  23  28
ATOM     28  N   UNL A   1      39.968  22.378  26.575  1.00  0.00    -0.399 N 
ATOM     29  H   UNL A   1      40.404  23.138  27.024  1.00  0.00     0.156 HD
ATOM     30  H   UNL A   1      40.365  21.479  26.631  1.00  0.00     0.156 HD
ENDBRANCH  23  28
ENDBRANCH  12  22
BRANCH  21  31
ATOM     31  C   UNL A   1      32.879  21.946  27.799  1.00  0.00     0.430 C 
ATOM     32  F   UNL A   1      32.028  22.023  28.849  1.00  0.00    -0.167 F 
ATOM     33  F   UNL A   1      32.665  20.752  27.204  1.00  0.00    -0.167 F 
ATOM     34  F   UNL A   1      34.137  21.930  28.302  1.00  0.00    -0.167 F 
ENDBRANCH  21  31
ENDBRANCH   9  11
ENDBRANCH   8   9
ENDBRANCH   7   8
ENDBRANCH   6   7
ENDBRANCH   5   6
ENDBRANCH   4   5
ENDBRANCH   3   4
ENDBRANCH   2   3
ENDBRANCH   1   2
BRANCH   1  35
ATOM     35  C   UNL A   1      33.001  26.771  23.468  1.00  0.00     0.188 C 
BRANCH  35  36
ATOM     36  O   UNL A   1      33.173  27.356  24.763  1.00  0.00    -0.376 OA
BRANCH  36  37
ATOM     37  C   UNL A   1      33.884  28.587  24.813  1.00  0.00     0.202 C 
BRANCH  37  38
ATOM     38  C   UNL A   1      33.314  29.599  25.816  1.00  0.00     0.261 C 
BRANCH  38  39
ATOM     39  O   UNL A   1      34.065  29.748  27.030  1.00  0.00    -0.460 OA
BRANCH  39  40
ATOM     40  C   UNL A   1      34.234  31.000  27.515  1.00  0.00     0.338 C 
ATOM     41  O   UNL A   1      33.509  31.960  27.325  1.00  0.00    -0.246 OA
BRANCH  40  42
ATOM     42  C   UNL A   1      35.341  30.951  28.497  1.00  0.00     0.060 A 
ATOM     43  C   UNL A   1      35.401  29.931  29.449  1.00  0.00     0.016 A 
ATOM     44  C   UNL A   1      36.312  31.959  28.476  1.00  0.00     0.016 A 
ATOM     45  C   UNL A   1      36.461  29.895  30.356  1.00  0.00     0.010 A 
ATOM     46  C   UNL A   1      37.371  31.925  29.388  1.00  0.00     0.010 A 
ATOM     47  C   UNL A   1      37.469  30.875  30.313  1.00  0.00    -0.014 A 
BRANCH  47  48
ATOM     48  C   UNL A   1      38.731  30.649  31.060  1.00  0.00     0.031 A 
ATOM     49  C   UNL A   1      39.000  31.255  32.401  1.00  0.00     0.074 A 
ATOM     50  C   UNL A   1      39.655  29.863  30.474  1.00  0.00     0.049 A 
ATOM     51  N   UNL A   1      40.004  31.028  33.209  1.00  0.00    -0.248 NA
ATOM     52  C   UNL A   1      38.034  32.244  32.898  1.00  0.00     0.031 C 
ATOM     53  C   UNL A   1      39.511  29.269  29.143  1.00  0.00     0.029 A 
ATOM     54  N   UNL A   1      40.880  29.425  30.907  1.00  0.00    -0.354 N 
ATOM     55  C   UNL A   1      39.787  31.827  34.324  1.00  0.00     0.074 A 
ATOM     56  C   UNL A   1      38.577  32.583  34.064  1.00  0.00     0.031 C 
ATOM     57  C   UNL A   1      40.589  28.519  28.881  1.00  0.00     0.029 A 
ATOM     58  C   UNL A   1      41.514  28.597  30.009  1.00  0.00     0.049 A 
ATOM     59  H   UNL A   1      41.267  29.676  31.776  1.00  0.00     0.167 HD
ATOM     60  C   UNL A   1      40.523  31.901  35.460  1.00  0.00     0.034 A 
ATOM     61  C   UNL A   1      42.699  27.960  30.084  1.00  0.00     0.034 A 
ATOM     62  C   UNL A   1      41.735  31.146  35.684  1.00  0.00     0.049 A 
ATOM     63  C   UNL A   1      43.500  28.065  31.353  1.00  0.00     0.074 A 
ATOM     64  C   UNL A   1      42.510  31.098  36.832  1.00  0.00     0.029 A 
ATOM     65  N   UNL A   1      42.360  30.328  34.753  1.00  0.00    -0.354 N 
ATOM     66  N   UNL A   1      43.210  28.712  32.458  1.00  0.00    -0.248 NA
ATOM     67  C   UNL A   1      44.776  27.339  31.401  1.00  0.00     0.031 C 
ATOM     68  C   UNL A   1      43.638  30.318  36.569  1.00  0.00     0.029 A 
ATOM     69  C   UNL A   1      43.531  29.808  35.286  1.00  0.00     0.049 A 
ATOM     70  H   UNL A   1      42.023  30.144  33.847  1.00  0.00     0.167 HD
ATOM     71  C   UNL A   1      44.257  28.457  33.338  1.00  0.00     0.074 A 
ATOM     72  C   UNL A   1      45.170  27.568  32.647  1.00  0.00     0.031 C 
ATOM     73  C   UNL A   1      44.445  28.922  34.599  1.00  0.00     0.034 A 
BRANCH  60  74
ATOM     74  C   UNL A   1      40.050  32.792  36.584  1.00  0.00     0.023 A 
ATOM     75  C   UNL A   1      39.115  32.314  37.524  1.00  0.00     0.031 A 
ATOM     76  C   UNL A   1      40.388  34.157  36.621  1.00  0.00     0.131 A 
ATOM     77  C   UNL A   1      38.520  33.202  38.430  1.00  0.00     0.055 A 
ATOM     78  C   UNL A   1      39.821  35.029  37.552  1.00  0.00     0.041 A 
ATOM     79  F   UNL A   1      41.264  34.665  35.740  1.00  0.00    -0.206 F 
ATOM     80  C   UNL A   1      38.872  34.556  38.452  1.00  0.00     0.022 A 
BRANCH  77  81
ATOM     81  S   UNL A   1      37.207  32.657  39.559  1.00  0.00     0.124 S 
ATOM     82  O   UNL A   1      36.019  32.785  38.718  1.00  0.00    -0.237 OA
ATOM     83  O   UNL A   1      37.613  31.287  39.859  1.00  0.00    -0.237 OA
ATOM     84  O   UNL A   1      37.286  33.599  40.669  1.00  0.00    -0.744 OA
ENDBRANCH  77  81
ENDBRANCH  60  74
BRANCH  61  85
ATOM     85  C   UNL A   1      43.126  27.102  28.941  1.00  0.00     0.023 A 
ATOM     86  C   UNL A   1      42.849  25.723  28.932  1.00  0.00     0.031 A 
ATOM     87  C   UNL A   1      43.929  27.624  27.914  1.00  0.00     0.131 A 
ATOM     88  C   UNL A   1      43.436  24.902  27.960  1.00  0.00     0.055 A 
ATOM     89  C   UNL A   1      44.449  26.814  26.903  1.00  0.00     0.041 A 
ATOM     90  F   UNL A   1      44.236  28.931  27.893  1.00  0.00    -0.206 F 
ATOM     91  C   UNL A   1      44.219  25.442  26.935  1.00  0.00     0.022 A 
BRANCH  88  92
ATOM     92  S   UNL A   1      43.326  23.095  28.080  1.00  0.00     0.124 S 
ATOM     93  O   UNL A   1      43.341  22.694  26.677  1.00  0.00    -0.237 OA
ATOM     94  O   UNL A   1      44.530  22.774  28.843  1.00  0.00    -0.237 OA
ATOM     95  O   UNL A   1      42.068  22.873  28.787  1.00  0.00    -0.744 OA
ENDBRANCH  88  92
ENDBRANCH  61  85
BRANCH  73  96
ATOM     96  C   UNL A   1      45.694  28.505  35.342  1.00  0.00     0.023 A 
ATOM     97  C   UNL A   1      45.659  27.410  36.227  1.00  0.00     0.031 A 
ATOM     98  C   UNL A   1      46.871  29.271  35.282  1.00  0.00     0.131 A 
ATOM     99  C   UNL A   1      46.765  27.136  37.043  1.00  0.00     0.055 A 
ATOM    100  C   UNL A   1      47.990  28.963  36.059  1.00  0.00     0.041 A 
ATOM    101  F   UNL A   1      46.954  30.331  34.463  1.00  0.00    -0.206 F 
ATOM    102  C   UNL A   1      47.933  27.900  36.957  1.00  0.00     0.022 A 
BRANCH  99 103
ATOM    103  S   UNL A   1      46.698  25.840  38.311  1.00  0.00     0.124 S 
ATOM    104  O   UNL A   1      46.109  26.554  39.442  1.00  0.00    -0.237 OA
ATOM    105  O   UNL A   1      45.832  24.843  37.687  1.00  0.00    -0.237 OA
ATOM    106  O   UNL A   1      48.091  25.442  38.484  1.00  0.00    -0.744 OA
ENDBRANCH  99 103
ENDBRANCH  73  96
ENDBRANCH  47  48
ENDBRANCH  40  42
ENDBRANCH  39  40
ENDBRANCH  38  39
ENDBRANCH  37  38
ENDBRANCH  36  37
ENDBRANCH  35  36
ENDBRANCH   1  35
TORSDOF 26
ENDMDL
