MODEL 1
REMARK VINA RESULT:      -6.5      0.000      0.000
REMARK SMILES CC(=O)N[C@@H](C(=O)N(CC(=O)OCCOCCOCCOCCOC(=O)c1ccc(-c2c3nc(c(-c4cc(S(=O)(=O)[O-])ccc4F)c4ccc([nH]4)c(-c4cc(S(=O)(=O)[O-])ccc4F)c4nc(c(-c5cc(S(=O)(=O)[O-])ccc5F)c5ccc2[nH]5)C=C4)C=C3)cc1)C(C)(C)C)C(C)C
REMARK SMILES IDX 17 1 16 2 15 3 14 4 13 5 12 6 10 7 11 8 9 9 8 10 6 11 7 12
REMARK SMILES IDX 5 13 4 14 1 15 2 16 3 17 94 19 95 20 96 21 90 22 91 23 92 24
REMARK SMILES IDX 93 25 18 26 19 27 20 28 21 29 22 30 23 31 24 32 25 33 26 34
REMARK SMILES IDX 27 35 28 36 89 37 29 38 88 39 30 40 31 41 32 42 82 43 33 44
REMARK SMILES IDX 87 45 81 46 83 47 34 48 86 49 80 50 79 51 35 53 67 54 47 55
REMARK SMILES IDX 66 56 48 57 51 58 65 59 84 60 49 61 50 62 64 64 85 65 52 66
REMARK SMILES IDX 36 67 37 68 45 69 38 70 44 71 46 72 43 73 39 74 40 75 41 76
REMARK SMILES IDX 42 77 68 78 69 79 77 80 70 81 76 82 78 83 75 84 71 85 72 86
REMARK SMILES IDX 73 87 74 88 53 89 54 90 62 91 55 92 61 93 63 94 60 95 56 96
REMARK SMILES IDX 57 97 58 98 59 99
REMARK H PARENT 4 18 83 52 51 63
REMARK Flexibility Score: inf
ROOT
ATOM      1  C   UNL A   1      41.120  24.993  27.571  1.00  0.00     0.188 C 
ENDROOT
BRANCH   1   2
ATOM      2  C   UNL A   1      40.145  25.833  28.417  1.00  0.00     0.188 C 
BRANCH   2   3
ATOM      3  O   UNL A   1      39.377  26.874  27.821  1.00  0.00    -0.376 OA
BRANCH   3   4
ATOM      4  C   UNL A   1      40.047  27.934  27.155  1.00  0.00     0.202 C 
BRANCH   4   5
ATOM      5  C   UNL A   1      39.653  29.373  27.543  1.00  0.00     0.261 C 
BRANCH   5   6
ATOM      6  O   UNL A   1      38.247  29.718  27.421  1.00  0.00    -0.462 OA
BRANCH   6   7
ATOM      7  C   UNL A   1      37.711  30.506  28.386  1.00  0.00     0.325 C 
ATOM      8  O   UNL A   1      36.572  30.967  28.344  1.00  0.00    -0.250 OA
BRANCH   7   9
ATOM      9  C   UNL A   1      38.614  30.779  29.632  1.00  0.00     0.242 C 
BRANCH   9  10
ATOM     10  N   UNL A   1      38.444  30.251  31.018  1.00  0.00    -0.325 N 
BRANCH  10  11
ATOM     11  C   UNL A   1      37.392  30.685  31.850  1.00  0.00     0.246 C 
ATOM     12  O   UNL A   1      36.520  29.901  32.235  1.00  0.00    -0.272 OA
BRANCH  11  13
ATOM     13  C   UNL A   1      37.283  32.189  32.240  1.00  0.00     0.174 C 
BRANCH  13  14
ATOM     14  N   UNL A   1      36.798  32.914  31.068  1.00  0.00    -0.344 N 
ATOM     15  C   UNL A   1      34.404  32.937  31.680  1.00  0.00     0.114 C 
ATOM     16  C   UNL A   1      35.533  33.309  30.758  1.00  0.00     0.217 C 
ATOM     17  O   UNL A   1      35.332  33.931  29.717  1.00  0.00    -0.275 OA
ATOM     18  H   UNL A   1      37.487  33.150  30.406  1.00  0.00     0.164 HD
ENDBRANCH  13  14
BRANCH  13  19
ATOM     19  C   UNL A   1      38.669  32.730  32.713  1.00  0.00     0.015 C 
ATOM     20  C   UNL A   1      38.737  34.260  32.739  1.00  0.00     0.010 C 
ATOM     21  C   UNL A   1      39.033  32.213  34.116  1.00  0.00     0.010 C 
ENDBRANCH  13  19
ENDBRANCH  11  13
ENDBRANCH  10  11
BRANCH  10  22
ATOM     22  C   UNL A   1      39.248  29.055  31.516  1.00  0.00     0.035 C 
ATOM     23  C   UNL A   1      39.242  28.962  33.064  1.00  0.00     0.034 C 
ATOM     24  C   UNL A   1      38.628  27.738  30.972  1.00  0.00     0.034 C 
ATOM     25  C   UNL A   1      40.716  29.006  31.020  1.00  0.00     0.034 C 
ENDBRANCH  10  22
ENDBRANCH   9  10
ENDBRANCH   7   9
ENDBRANCH   6   7
ENDBRANCH   5   6
ENDBRANCH   4   5
ENDBRANCH   3   4
ENDBRANCH   2   3
ENDBRANCH   1   2
BRANCH   1  26
ATOM     26  O   UNL A   1      41.594  23.839  28.226  1.00  0.00    -0.377 OA
BRANCH  26  27
ATOM     27  C   UNL A   1      41.367  22.620  27.548  1.00  0.00     0.188 C 
BRANCH  27  28
ATOM     28  C   UNL A   1      42.616  21.735  27.402  1.00  0.00     0.188 C 
BRANCH  28  29
ATOM     29  O   UNL A   1      43.701  22.429  26.802  1.00  0.00    -0.376 OA
BRANCH  29  30
ATOM     30  C   UNL A   1      44.523  21.814  25.831  1.00  0.00     0.202 C 
BRANCH  30  31
ATOM     31  C   UNL A   1      45.721  22.523  25.168  1.00  0.00     0.261 C 
BRANCH  31  32
ATOM     32  O   UNL A   1      46.410  23.519  25.922  1.00  0.00    -0.460 OA
BRANCH  32  33
ATOM     33  C   UNL A   1      46.481  24.746  25.361  1.00  0.00     0.338 C 
ATOM     34  O   UNL A   1      46.765  24.988  24.197  1.00  0.00    -0.246 OA
BRANCH  33  35
ATOM     35  C   UNL A   1      45.942  25.739  26.314  1.00  0.00     0.060 A 
ATOM     36  C   UNL A   1      46.857  26.458  27.091  1.00  0.00     0.016 A 
ATOM     37  C   UNL A   1      44.569  25.970  26.444  1.00  0.00     0.016 A 
ATOM     38  C   UNL A   1      46.408  27.398  28.014  1.00  0.00     0.010 A 
ATOM     39  C   UNL A   1      44.116  26.886  27.404  1.00  0.00     0.010 A 
ATOM     40  C   UNL A   1      45.035  27.580  28.211  1.00  0.00    -0.014 A 
BRANCH  40  41
ATOM     41  C   UNL A   1      44.594  28.332  29.412  1.00  0.00     0.031 A 
ATOM     42  C   UNL A   1      44.562  27.607  30.729  1.00  0.00     0.074 A 
ATOM     43  C   UNL A   1      44.309  29.644  29.348  1.00  0.00     0.049 A 
ATOM     44  N   UNL A   1      44.248  28.050  31.917  1.00  0.00    -0.248 NA
ATOM     45  C   UNL A   1      44.944  26.187  30.696  1.00  0.00     0.031 C 
ATOM     46  C   UNL A   1      44.363  30.461  28.137  1.00  0.00     0.029 A 
ATOM     47  N   UNL A   1      43.920  30.521  30.330  1.00  0.00    -0.354 N 
ATOM     48  C   UNL A   1      44.389  26.963  32.774  1.00  0.00     0.074 A 
ATOM     49  C   UNL A   1      44.784  25.834  31.960  1.00  0.00     0.031 C 
ATOM     50  C   UNL A   1      44.006  31.720  28.446  1.00  0.00     0.029 A 
ATOM     51  C   UNL A   1      43.666  31.790  29.867  1.00  0.00     0.049 A 
ATOM     52  H   UNL A   1      43.832  30.265  31.277  1.00  0.00     0.167 HD
ATOM     53  C   UNL A   1      44.210  26.917  34.117  1.00  0.00     0.034 A 
ATOM     54  C   UNL A   1      43.186  32.873  30.511  1.00  0.00     0.034 A 
ATOM     55  C   UNL A   1      43.794  28.051  34.906  1.00  0.00     0.049 A 
ATOM     56  C   UNL A   1      42.901  32.775  31.991  1.00  0.00     0.074 A 
ATOM     57  C   UNL A   1      43.600  28.125  36.274  1.00  0.00     0.029 A 
ATOM     58  N   UNL A   1      43.481  29.305  34.393  1.00  0.00    -0.354 N 
ATOM     59  N   UNL A   1      43.059  31.750  32.799  1.00  0.00    -0.248 NA
ATOM     60  C   UNL A   1      42.384  33.982  32.648  1.00  0.00     0.031 C 
ATOM     61  C   UNL A   1      43.082  29.390  36.575  1.00  0.00     0.029 A 
ATOM     62  C   UNL A   1      43.047  30.143  35.411  1.00  0.00     0.049 A 
ATOM     63  H   UNL A   1      43.557  29.562  33.446  1.00  0.00     0.167 HD
ATOM     64  C   UNL A   1      42.684  32.199  34.064  1.00  0.00     0.074 A 
ATOM     65  C   UNL A   1      42.312  33.591  33.912  1.00  0.00     0.031 C 
ATOM     66  C   UNL A   1      42.654  31.525  35.243  1.00  0.00     0.034 A 
BRANCH  53  67
ATOM     67  C   UNL A   1      44.388  25.577  34.793  1.00  0.00     0.023 A 
ATOM     68  C   UNL A   1      45.644  25.123  35.233  1.00  0.00     0.031 A 
ATOM     69  C   UNL A   1      43.286  24.717  34.952  1.00  0.00     0.131 A 
ATOM     70  C   UNL A   1      45.780  23.818  35.734  1.00  0.00     0.055 A 
ATOM     71  C   UNL A   1      43.413  23.455  35.535  1.00  0.00     0.041 A 
ATOM     72  F   UNL A   1      42.067  25.081  34.525  1.00  0.00    -0.206 F 
ATOM     73  C   UNL A   1      44.669  22.991  35.914  1.00  0.00     0.022 A 
BRANCH  70  74
ATOM     74  S   UNL A   1      47.451  23.156  35.989  1.00  0.00     0.124 S 
ATOM     75  O   UNL A   1      48.211  24.372  36.269  1.00  0.00    -0.237 OA
ATOM     76  O   UNL A   1      47.262  22.248  37.114  1.00  0.00    -0.237 OA
ATOM     77  O   UNL A   1      47.764  22.515  34.714  1.00  0.00    -0.744 OA
ENDBRANCH  70  74
ENDBRANCH  53  67
BRANCH  54  78
ATOM     78  C   UNL A   1      42.888  34.125  29.754  1.00  0.00     0.023 A 
ATOM     79  C   UNL A   1      43.896  35.045  29.426  1.00  0.00     0.031 A 
ATOM     80  C   UNL A   1      41.566  34.437  29.384  1.00  0.00     0.131 A 
ATOM     81  C   UNL A   1      43.561  36.247  28.780  1.00  0.00     0.055 A 
ATOM     82  C   UNL A   1      41.247  35.606  28.694  1.00  0.00     0.041 A 
ATOM     83  F   UNL A   1      40.562  33.597  29.684  1.00  0.00    -0.206 F 
ATOM     84  C   UNL A   1      42.247  36.526  28.396  1.00  0.00     0.022 A 
BRANCH  81  85
ATOM     85  S   UNL A   1      44.860  37.487  28.515  1.00  0.00     0.124 S 
ATOM     86  O   UNL A   1      44.826  38.226  29.772  1.00  0.00    -0.237 OA
ATOM     87  O   UNL A   1      46.037  36.652  28.294  1.00  0.00    -0.237 OA
ATOM     88  O   UNL A   1      44.394  38.225  27.344  1.00  0.00    -0.744 OA
ENDBRANCH  81  85
ENDBRANCH  54  78
BRANCH  66  89
ATOM     89  C   UNL A   1      42.235  32.301  36.471  1.00  0.00     0.023 A 
ATOM     90  C   UNL A   1      40.904  32.317  36.922  1.00  0.00     0.031 A 
ATOM     91  C   UNL A   1      43.183  33.046  37.196  1.00  0.00     0.131 A 
ATOM     92  C   UNL A   1      40.545  33.113  38.021  1.00  0.00     0.055 A 
ATOM     93  C   UNL A   1      42.835  33.778  38.333  1.00  0.00     0.041 A 
ATOM     94  F   UNL A   1      44.470  33.075  36.814  1.00  0.00    -0.206 F 
ATOM     95  C   UNL A   1      41.506  33.827  38.742  1.00  0.00     0.022 A 
BRANCH  92  96
ATOM     96  S   UNL A   1      38.787  33.299  38.427  1.00  0.00     0.124 S 
ATOM     97  O   UNL A   1      38.307  31.924  38.328  1.00  0.00    -0.237 OA
ATOM     98  O   UNL A   1      38.834  33.864  39.771  1.00  0.00    -0.237 OA
ATOM     99  O   UNL A   1      38.290  34.204  37.392  1.00  0.00    -0.744 OA
ENDBRANCH  92  96
ENDBRANCH  66  89
ENDBRANCH  40  41
ENDBRANCH  33  35
ENDBRANCH  32  33
ENDBRANCH  31  32
ENDBRANCH  30  31
ENDBRANCH  29  30
ENDBRANCH  28  29
ENDBRANCH  27  28
ENDBRANCH  26  27
ENDBRANCH   1  26
TORSDOF 29
ENDMDL
MODEL 2
REMARK VINA RESULT:      -6.0      5.650     11.192
REMARK SMILES CC(=O)N[C@@H](C(=O)N(CC(=O)OCCOCCOCCOCCOC(=O)c1ccc(-c2c3nc(c(-c4cc(S(=O)(=O)[O-])ccc4F)c4ccc([nH]4)c(-c4cc(S(=O)(=O)[O-])ccc4F)c4nc(c(-c5cc(S(=O)(=O)[O-])ccc5F)c5ccc2[nH]5)C=C4)C=C3)cc1)C(C)(C)C)C(C)C
REMARK SMILES IDX 17 1 16 2 15 3 14 4 13 5 12 6 10 7 11 8 9 9 8 10 6 11 7 12
REMARK SMILES IDX 5 13 4 14 1 15 2 16 3 17 94 19 95 20 96 21 90 22 91 23 92 24
REMARK SMILES IDX 93 25 18 26 19 27 20 28 21 29 22 30 23 31 24 32 25 33 26 34
REMARK SMILES IDX 27 35 28 36 89 37 29 38 88 39 30 40 31 41 32 42 82 43 33 44
REMARK SMILES IDX 87 45 81 46 83 47 34 48 86 49 80 50 79 51 35 53 67 54 47 55
REMARK SMILES IDX 66 56 48 57 51 58 65 59 84 60 49 61 50 62 64 64 85 65 52 66
REMARK SMILES IDX 36 67 37 68 45 69 38 70 44 71 46 72 43 73 39 74 40 75 41 76
REMARK SMILES IDX 42 77 68 78 69 79 77 80 70 81 76 82 78 83 75 84 71 85 72 86
REMARK SMILES IDX 73 87 74 88 53 89 54 90 62 91 55 92 61 93 63 94 60 95 56 96
REMARK SMILES IDX 57 97 58 98 59 99
REMARK H PARENT 4 18 83 52 51 63
REMARK Flexibility Score: inf
ROOT
ATOM      1  C   UNL A   1      38.581  29.998  28.713  1.00  0.00     0.188 C 
ENDROOT
BRANCH   1   2
ATOM      2  C   UNL A   1      37.514  29.622  27.669  1.00  0.00     0.188 C 
BRANCH   2   3
ATOM      3  O   UNL A   1      36.204  29.237  28.074  1.00  0.00    -0.376 OA
BRANCH   3   4
ATOM      4  C   UNL A   1      35.096  30.030  27.673  1.00  0.00     0.202 C 
BRANCH   4   5
ATOM      5  C   UNL A   1      34.010  29.345  26.819  1.00  0.00     0.261 C 
BRANCH   5   6
ATOM      6  O   UNL A   1      33.342  28.200  27.412  1.00  0.00    -0.462 OA
BRANCH   6   7
ATOM      7  C   UNL A   1      32.032  28.019  27.114  1.00  0.00     0.325 C 
ATOM      8  O   UNL A   1      31.126  28.044  27.945  1.00  0.00    -0.250 OA
BRANCH   7   9
ATOM      9  C   UNL A   1      31.691  27.818  25.602  1.00  0.00     0.242 C 
BRANCH   9  10
ATOM     10  N   UNL A   1      32.001  26.638  24.742  1.00  0.00    -0.325 N 
BRANCH  10  11
ATOM     11  C   UNL A   1      31.218  25.466  24.785  1.00  0.00     0.246 C 
ATOM     12  O   UNL A   1      30.003  25.505  24.573  1.00  0.00    -0.272 OA
BRANCH  11  13
ATOM     13  C   UNL A   1      31.876  24.109  25.173  1.00  0.00     0.174 C 
BRANCH  13  14
ATOM     14  N   UNL A   1      31.590  23.159  24.101  1.00  0.00    -0.344 N 
ATOM     15  C   UNL A   1      33.870  22.234  23.881  1.00  0.00     0.114 C 
ATOM     16  C   UNL A   1      32.418  22.268  23.489  1.00  0.00     0.217 C 
ATOM     17  O   UNL A   1      31.974  21.537  22.608  1.00  0.00    -0.275 OA
ATOM     18  H   UNL A   1      30.662  23.164  23.773  1.00  0.00     0.164 HD
ENDBRANCH  13  14
BRANCH  13  19
ATOM     19  C   UNL A   1      31.322  23.608  26.544  1.00  0.00     0.015 C 
ATOM     20  C   UNL A   1      30.148  22.636  26.396  1.00  0.00     0.010 C 
ATOM     21  C   UNL A   1      32.413  22.916  27.379  1.00  0.00     0.010 C 
ENDBRANCH  13  19
ENDBRANCH  11  13
ENDBRANCH  10  11
BRANCH  10  22
ATOM     22  C   UNL A   1      33.026  26.724  23.615  1.00  0.00     0.035 C 
ATOM     23  C   UNL A   1      34.246  25.803  23.877  1.00  0.00     0.034 C 
ATOM     24  C   UNL A   1      32.380  26.266  22.279  1.00  0.00     0.034 C 
ATOM     25  C   UNL A   1      33.537  28.155  23.309  1.00  0.00     0.034 C 
ENDBRANCH  10  22
ENDBRANCH   9  10
ENDBRANCH   7   9
ENDBRANCH   6   7
ENDBRANCH   5   6
ENDBRANCH   4   5
ENDBRANCH   3   4
ENDBRANCH   2   3
ENDBRANCH   1   2
BRANCH   1  26
ATOM     26  O   UNL A   1      38.644  29.114  29.809  1.00  0.00    -0.377 OA
BRANCH  26  27
ATOM     27  C   UNL A   1      38.518  29.715  31.082  1.00  0.00     0.188 C 
BRANCH  27  28
ATOM     28  C   UNL A   1      37.227  29.344  31.832  1.00  0.00     0.188 C 
BRANCH  28  29
ATOM     29  O   UNL A   1      36.100  30.063  31.351  1.00  0.00    -0.376 OA
BRANCH  29  30
ATOM     30  C   UNL A   1      36.164  31.452  31.099  1.00  0.00     0.202 C 
BRANCH  30  31
ATOM     31  C   UNL A   1      34.922  32.366  31.086  1.00  0.00     0.261 C 
BRANCH  31  32
ATOM     32  O   UNL A   1      34.546  32.999  32.308  1.00  0.00    -0.460 OA
BRANCH  32  33
ATOM     33  C   UNL A   1      35.051  34.235  32.516  1.00  0.00     0.338 C 
ATOM     34  O   UNL A   1      34.547  35.288  32.154  1.00  0.00    -0.246 OA
BRANCH  33  35
ATOM     35  C   UNL A   1      36.194  34.133  33.448  1.00  0.00     0.060 A 
ATOM     36  C   UNL A   1      37.465  34.450  32.955  1.00  0.00     0.016 A 
ATOM     37  C   UNL A   1      36.031  33.741  34.780  1.00  0.00     0.016 A 
ATOM     38  C   UNL A   1      38.581  34.361  33.781  1.00  0.00     0.010 A 
ATOM     39  C   UNL A   1      37.161  33.610  35.600  1.00  0.00     0.010 A 
ATOM     40  C   UNL A   1      38.442  33.892  35.092  1.00  0.00    -0.014 A 
BRANCH  40  41
ATOM     41  C   UNL A   1      39.668  33.498  35.829  1.00  0.00     0.031 A 
ATOM     42  C   UNL A   1      40.267  34.489  36.788  1.00  0.00     0.074 A 
ATOM     43  C   UNL A   1      40.187  32.264  35.711  1.00  0.00     0.049 A 
ATOM     44  N   UNL A   1      41.308  34.371  37.567  1.00  0.00    -0.248 NA
ATOM     45  C   UNL A   1      39.588  35.792  36.880  1.00  0.00     0.031 C 
ATOM     46  C   UNL A   1      39.655  31.204  34.856  1.00  0.00     0.029 A 
ATOM     47  N   UNL A   1      41.278  31.694  36.318  1.00  0.00    -0.354 N 
ATOM     48  C   UNL A   1      41.415  35.584  38.240  1.00  0.00     0.074 A 
ATOM     49  C   UNL A   1      40.352  36.433  37.749  1.00  0.00     0.031 C 
ATOM     50  C   UNL A   1      40.432  30.113  34.984  1.00  0.00     0.029 A 
ATOM     51  C   UNL A   1      41.532  30.409  35.900  1.00  0.00     0.049 A 
ATOM     52  H   UNL A   1      41.827  32.161  36.989  1.00  0.00     0.167 HD
ATOM     53  C   UNL A   1      42.316  35.950  39.185  1.00  0.00     0.034 A 
ATOM     54  C   UNL A   1      42.552  29.580  36.202  1.00  0.00     0.034 A 
ATOM     55  C   UNL A   1      43.384  35.093  39.644  1.00  0.00     0.049 A 
ATOM     56  C   UNL A   1      43.601  30.042  37.186  1.00  0.00     0.074 A 
ATOM     57  C   UNL A   1      44.340  35.351  40.609  1.00  0.00     0.029 A 
ATOM     58  N   UNL A   1      43.650  33.821  39.150  1.00  0.00    -0.354 N 
ATOM     59  N   UNL A   1      43.682  31.182  37.835  1.00  0.00    -0.248 NA
ATOM     60  C   UNL A   1      44.689  29.103  37.485  1.00  0.00     0.031 C 
ATOM     61  C   UNL A   1      45.239  34.279  40.632  1.00  0.00     0.029 A 
ATOM     62  C   UNL A   1      44.787  33.303  39.755  1.00  0.00     0.049 A 
ATOM     63  H   UNL A   1      43.112  33.355  38.472  1.00  0.00     0.167 HD
ATOM     64  C   UNL A   1      44.818  31.084  38.638  1.00  0.00     0.074 A 
ATOM     65  C   UNL A   1      45.374  29.766  38.405  1.00  0.00     0.031 C 
ATOM     66  C   UNL A   1      45.348  31.996  39.495  1.00  0.00     0.034 A 
BRANCH  53  67
ATOM     67  C   UNL A   1      42.226  37.362  39.717  1.00  0.00     0.023 A 
ATOM     68  C   UNL A   1      42.993  38.413  39.184  1.00  0.00     0.031 A 
ATOM     69  C   UNL A   1      41.393  37.648  40.814  1.00  0.00     0.131 A 
ATOM     70  C   UNL A   1      42.972  39.675  39.798  1.00  0.00     0.055 A 
ATOM     71  C   UNL A   1      41.310  38.928  41.363  1.00  0.00     0.041 A 
ATOM     72  F   UNL A   1      40.659  36.680  41.386  1.00  0.00    -0.206 F 
ATOM     73  C   UNL A   1      42.116  39.948  40.866  1.00  0.00     0.022 A 
BRANCH  70  74
ATOM     74  S   UNL A   1      44.205  40.907  39.289  1.00  0.00     0.124 S 
ATOM     75  O   UNL A   1      43.601  42.147  39.775  1.00  0.00    -0.237 OA
ATOM     76  O   UNL A   1      45.403  40.463  39.991  1.00  0.00    -0.237 OA
ATOM     77  O   UNL A   1      44.245  40.772  37.835  1.00  0.00    -0.744 OA
ENDBRANCH  70  74
ENDBRANCH  53  67
BRANCH  54  78
ATOM     78  C   UNL A   1      42.667  28.254  35.526  1.00  0.00     0.023 A 
ATOM     79  C   UNL A   1      43.404  28.090  34.343  1.00  0.00     0.031 A 
ATOM     80  C   UNL A   1      41.995  27.130  36.043  1.00  0.00     0.131 A 
ATOM     81  C   UNL A   1      43.423  26.842  33.698  1.00  0.00     0.055 A 
ATOM     82  C   UNL A   1      42.063  25.880  35.429  1.00  0.00     0.041 A 
ATOM     83  F   UNL A   1      41.266  27.233  37.166  1.00  0.00    -0.206 F 
ATOM     84  C   UNL A   1      42.772  25.732  34.242  1.00  0.00     0.022 A 
BRANCH  81  85
ATOM     85  S   UNL A   1      44.249  26.705  32.088  1.00  0.00     0.124 S 
ATOM     86  O   UNL A   1      43.253  27.285  31.193  1.00  0.00    -0.237 OA
ATOM     87  O   UNL A   1      45.459  27.493  32.297  1.00  0.00    -0.237 OA
ATOM     88  O   UNL A   1      44.463  25.268  31.935  1.00  0.00    -0.744 OA
ENDBRANCH  81  85
ENDBRANCH  54  78
BRANCH  66  89
ATOM     89  C   UNL A   1      46.579  31.581  40.269  1.00  0.00     0.023 A 
ATOM     90  C   UNL A   1      46.491  30.915  41.504  1.00  0.00     0.031 A 
ATOM     91  C   UNL A   1      47.862  31.866  39.766  1.00  0.00     0.131 A 
ATOM     92  C   UNL A   1      47.659  30.618  42.224  1.00  0.00     0.055 A 
ATOM     93  C   UNL A   1      49.022  31.502  40.452  1.00  0.00     0.041 A 
ATOM     94  F   UNL A   1      48.012  32.503  38.593  1.00  0.00    -0.206 F 
ATOM     95  C   UNL A   1      48.923  30.887  41.697  1.00  0.00     0.022 A 
BRANCH  92  96
ATOM     96  S   UNL A   1      47.501  29.979  43.915  1.00  0.00     0.124 S 
ATOM     97  O   UNL A   1      48.838  29.453  44.166  1.00  0.00    -0.237 OA
ATOM     98  O   UNL A   1      47.133  31.174  44.667  1.00  0.00    -0.237 OA
ATOM     99  O   UNL A   1      46.449  28.970  43.803  1.00  0.00    -0.744 OA
ENDBRANCH  92  96
ENDBRANCH  66  89
ENDBRANCH  40  41
ENDBRANCH  33  35
ENDBRANCH  32  33
ENDBRANCH  31  32
ENDBRANCH  30  31
ENDBRANCH  29  30
ENDBRANCH  28  29
ENDBRANCH  27  28
ENDBRANCH  26  27
ENDBRANCH   1  26
TORSDOF 29
ENDMDL
MODEL 3
REMARK VINA RESULT:      -5.8      6.395      9.391
REMARK SMILES CC(=O)N[C@@H](C(=O)N(CC(=O)OCCOCCOCCOCCOC(=O)c1ccc(-c2c3nc(c(-c4cc(S(=O)(=O)[O-])ccc4F)c4ccc([nH]4)c(-c4cc(S(=O)(=O)[O-])ccc4F)c4nc(c(-c5cc(S(=O)(=O)[O-])ccc5F)c5ccc2[nH]5)C=C4)C=C3)cc1)C(C)(C)C)C(C)C
REMARK SMILES IDX 17 1 16 2 15 3 14 4 13 5 12 6 10 7 11 8 9 9 8 10 6 11 7 12
REMARK SMILES IDX 5 13 4 14 1 15 2 16 3 17 94 19 95 20 96 21 90 22 91 23 92 24
REMARK SMILES IDX 93 25 18 26 19 27 20 28 21 29 22 30 23 31 24 32 25 33 26 34
REMARK SMILES IDX 27 35 28 36 89 37 29 38 88 39 30 40 31 41 32 42 82 43 33 44
REMARK SMILES IDX 87 45 81 46 83 47 34 48 86 49 80 50 79 51 35 53 67 54 47 55
REMARK SMILES IDX 66 56 48 57 51 58 65 59 84 60 49 61 50 62 64 64 85 65 52 66
REMARK SMILES IDX 36 67 37 68 45 69 38 70 44 71 46 72 43 73 39 74 40 75 41 76
REMARK SMILES IDX 42 77 68 78 69 79 77 80 70 81 76 82 78 83 75 84 71 85 72 86
REMARK SMILES IDX 73 87 74 88 53 89 54 90 62 91 55 92 61 93 63 94 60 95 56 96
REMARK SMILES IDX 57 97 58 98 59 99
REMARK H PARENT 4 18 83 52 51 63
REMARK Flexibility Score: inf
ROOT
ATOM      1  C   UNL A   1      40.556  20.342  26.062  1.00  0.00     0.188 C 
ENDROOT
BRANCH   1   2
ATOM      2  C   UNL A   1      40.326  21.597  26.925  1.00  0.00     0.188 C 
BRANCH   2   3
ATOM      3  O   UNL A   1      39.786  22.784  26.353  1.00  0.00    -0.376 OA
BRANCH   3   4
ATOM      4  C   UNL A   1      38.562  23.299  26.855  1.00  0.00     0.202 C 
BRANCH   4   5
ATOM      5  C   UNL A   1      37.563  23.872  25.830  1.00  0.00     0.261 C 
BRANCH   5   6
ATOM      6  O   UNL A   1      37.604  23.302  24.494  1.00  0.00    -0.462 OA
BRANCH   6   7
ATOM      7  C   UNL A   1      36.469  23.365  23.754  1.00  0.00     0.325 C 
ATOM      8  O   UNL A   1      36.391  23.000  22.582  1.00  0.00    -0.250 OA
BRANCH   7   9
ATOM      9  C   UNL A   1      35.195  23.892  24.489  1.00  0.00     0.242 C 
BRANCH   9  10
ATOM     10  N   UNL A   1      33.788  23.897  23.993  1.00  0.00    -0.325 N 
BRANCH  10  11
ATOM     11  C   UNL A   1      33.261  24.990  23.276  1.00  0.00     0.246 C 
ATOM     12  O   UNL A   1      33.341  25.041  22.045  1.00  0.00    -0.272 OA
BRANCH  11  13
ATOM     13  C   UNL A   1      32.628  26.187  24.043  1.00  0.00     0.174 C 
BRANCH  13  14
ATOM     14  N   UNL A   1      31.288  26.399  23.501  1.00  0.00    -0.344 N 
ATOM     15  C   UNL A   1      30.031  25.942  25.578  1.00  0.00     0.114 C 
ATOM     16  C   UNL A   1      30.081  26.335  24.127  1.00  0.00     0.217 C 
ATOM     17  O   UNL A   1      29.056  26.566  23.489  1.00  0.00    -0.275 OA
ATOM     18  H   UNL A   1      31.253  26.620  22.543  1.00  0.00     0.164 HD
ENDBRANCH  13  14
BRANCH  13  19
ATOM     19  C   UNL A   1      33.515  27.462  23.889  1.00  0.00     0.015 C 
ATOM     20  C   UNL A   1      32.896  28.514  22.965  1.00  0.00     0.010 C 
ATOM     21  C   UNL A   1      33.796  28.127  25.248  1.00  0.00     0.010 C 
ENDBRANCH  13  19
ENDBRANCH  11  13
ENDBRANCH  10  11
BRANCH  10  22
ATOM     22  C   UNL A   1      32.929  22.636  24.029  1.00  0.00     0.035 C 
ATOM     23  C   UNL A   1      32.337  22.304  22.634  1.00  0.00     0.034 C 
ATOM     24  C   UNL A   1      33.794  21.421  24.463  1.00  0.00     0.034 C 
ATOM     25  C   UNL A   1      31.778  22.662  25.067  1.00  0.00     0.034 C 
ENDBRANCH  10  22
ENDBRANCH   9  10
ENDBRANCH   7   9
ENDBRANCH   6   7
ENDBRANCH   5   6
ENDBRANCH   4   5
ENDBRANCH   3   4
ENDBRANCH   2   3
ENDBRANCH   1   2
BRANCH   1  26
ATOM     26  O   UNL A   1      41.105  19.255  26.772  1.00  0.00    -0.377 OA
BRANCH  26  27
ATOM     27  C   UNL A   1      42.306  18.729  26.244  1.00  0.00     0.188 C 
BRANCH  27  28
ATOM     28  C   UNL A   1      43.336  19.795  25.834  1.00  0.00     0.188 C 
BRANCH  28  29
ATOM     29  O   UNL A   1      43.830  19.588  24.518  1.00  0.00    -0.376 OA
BRANCH  29  30
ATOM     30  C   UNL A   1      45.181  19.841  24.189  1.00  0.00     0.202 C 
BRANCH  30  31
ATOM     31  C   UNL A   1      45.849  21.219  24.370  1.00  0.00     0.261 C 
BRANCH  31  32
ATOM     32  O   UNL A   1      45.262  22.339  23.711  1.00  0.00    -0.460 OA
BRANCH  32  33
ATOM     33  C   UNL A   1      44.283  22.980  24.387  1.00  0.00     0.338 C 
ATOM     34  O   UNL A   1      43.088  22.937  24.134  1.00  0.00    -0.246 OA
BRANCH  33  35
ATOM     35  C   UNL A   1      44.856  23.561  25.619  1.00  0.00     0.060 A 
ATOM     36  C   UNL A   1      45.102  24.940  25.635  1.00  0.00     0.016 A 
ATOM     37  C   UNL A   1      45.144  22.781  26.743  1.00  0.00     0.016 A 
ATOM     38  C   UNL A   1      45.651  25.542  26.762  1.00  0.00     0.010 A 
ATOM     39  C   UNL A   1      45.737  23.382  27.863  1.00  0.00     0.010 A 
ATOM     40  C   UNL A   1      46.019  24.759  27.862  1.00  0.00    -0.014 A 
BRANCH  40  41
ATOM     41  C   UNL A   1      46.890  25.369  28.896  1.00  0.00     0.031 A 
ATOM     42  C   UNL A   1      46.301  25.633  30.253  1.00  0.00     0.074 A 
ATOM     43  C   UNL A   1      48.193  25.605  28.660  1.00  0.00     0.049 A 
ATOM     44  N   UNL A   1      46.863  26.124  31.326  1.00  0.00    -0.248 NA
ATOM     45  C   UNL A   1      44.880  25.288  30.421  1.00  0.00     0.031 C 
ATOM     46  C   UNL A   1      48.884  25.334  27.401  1.00  0.00     0.029 A 
ATOM     47  N   UNL A   1      49.167  26.124  29.475  1.00  0.00    -0.354 N 
ATOM     48  C   UNL A   1      45.866  26.152  32.295  1.00  0.00     0.074 A 
ATOM     49  C   UNL A   1      44.657  25.661  31.670  1.00  0.00     0.031 C 
ATOM     50  C   UNL A   1      50.171  25.702  27.524  1.00  0.00     0.029 A 
ATOM     51  C   UNL A   1      50.386  26.266  28.856  1.00  0.00     0.049 A 
ATOM     52  H   UNL A   1      49.008  26.371  30.415  1.00  0.00     0.167 HD
ATOM     53  C   UNL A   1      45.956  26.548  33.588  1.00  0.00     0.034 A 
ATOM     54  C   UNL A   1      51.533  26.816  29.305  1.00  0.00     0.034 A 
ATOM     55  C   UNL A   1      47.167  27.056  34.185  1.00  0.00     0.049 A 
ATOM     56  C   UNL A   1      51.586  27.339  30.722  1.00  0.00     0.074 A 
ATOM     57  C   UNL A   1      47.379  27.467  35.489  1.00  0.00     0.029 A 
ATOM     58  N   UNL A   1      48.367  27.248  33.509  1.00  0.00    -0.354 N 
ATOM     59  N   UNL A   1      50.645  27.341  31.639  1.00  0.00    -0.248 NA
ATOM     60  C   UNL A   1      52.858  27.923  31.165  1.00  0.00     0.031 C 
ATOM     61  C   UNL A   1      48.672  27.993  35.578  1.00  0.00     0.029 A 
ATOM     62  C   UNL A   1      49.307  27.819  34.356  1.00  0.00     0.049 A 
ATOM     63  H   UNL A   1      48.527  27.013  32.567  1.00  0.00     0.167 HD
ATOM     64  C   UNL A   1      51.222  27.905  32.776  1.00  0.00     0.074 A 
ATOM     65  C   UNL A   1      52.596  28.209  32.432  1.00  0.00     0.031 C 
ATOM     66  C   UNL A   1      50.669  28.143  33.994  1.00  0.00     0.034 A 
BRANCH  53  67
ATOM     67  C   UNL A   1      44.687  26.518  34.411  1.00  0.00     0.023 A 
ATOM     68  C   UNL A   1      43.879  27.656  34.581  1.00  0.00     0.031 A 
ATOM     69  C   UNL A   1      44.311  25.338  35.079  1.00  0.00     0.131 A 
ATOM     70  C   UNL A   1      42.785  27.612  35.460  1.00  0.00     0.055 A 
ATOM     71  C   UNL A   1      43.170  25.277  35.881  1.00  0.00     0.041 A 
ATOM     72  F   UNL A   1      45.057  24.228  34.980  1.00  0.00    -0.206 F 
ATOM     73  C   UNL A   1      42.409  26.423  36.090  1.00  0.00     0.022 A 
BRANCH  70  74
ATOM     74  S   UNL A   1      41.964  29.169  35.902  1.00  0.00     0.124 S 
ATOM     75  O   UNL A   1      40.622  28.706  36.252  1.00  0.00    -0.237 OA
ATOM     76  O   UNL A   1      42.781  29.654  37.008  1.00  0.00    -0.237 OA
ATOM     77  O   UNL A   1      42.041  29.958  34.674  1.00  0.00    -0.744 OA
ENDBRANCH  70  74
ENDBRANCH  53  67
BRANCH  54  78
ATOM     78  C   UNL A   1      52.707  26.953  28.393  1.00  0.00     0.023 A 
ATOM     79  C   UNL A   1      53.760  26.026  28.402  1.00  0.00     0.031 A 
ATOM     80  C   UNL A   1      52.805  28.053  27.520  1.00  0.00     0.131 A 
ATOM     81  C   UNL A   1      54.882  26.234  27.580  1.00  0.00     0.055 A 
ATOM     82  C   UNL A   1      53.895  28.225  26.667  1.00  0.00     0.041 A 
ATOM     83  F   UNL A   1      51.831  28.976  27.479  1.00  0.00    -0.206 F 
ATOM     84  C   UNL A   1      54.948  27.318  26.701  1.00  0.00     0.022 A 
BRANCH  81  85
ATOM     85  S   UNL A   1      56.296  25.109  27.734  1.00  0.00     0.124 S 
ATOM     86  O   UNL A   1      57.331  25.830  27.003  1.00  0.00    -0.237 OA
ATOM     87  O   UNL A   1      56.469  25.032  29.181  1.00  0.00    -0.237 OA
ATOM     88  O   UNL A   1      55.825  23.880  27.100  1.00  0.00    -0.744 OA
ENDBRANCH  81  85
ENDBRANCH  54  78
BRANCH  66  89
ATOM     89  C   UNL A   1      51.568  28.735  35.056  1.00  0.00     0.023 A 
ATOM     90  C   UNL A   1      51.719  30.123  35.213  1.00  0.00     0.031 A 
ATOM     91  C   UNL A   1      52.294  27.893  35.919  1.00  0.00     0.131 A 
ATOM     92  C   UNL A   1      52.623  30.628  36.161  1.00  0.00     0.055 A 
ATOM     93  C   UNL A   1      53.136  28.401  36.909  1.00  0.00     0.041 A 
ATOM     94  F   UNL A   1      52.196  26.558  35.817  1.00  0.00    -0.206 F 
ATOM     95  C   UNL A   1      53.317  29.776  37.024  1.00  0.00     0.022 A 
BRANCH  92  96
ATOM     96  S   UNL A   1      52.971  32.408  36.172  1.00  0.00     0.124 S 
ATOM     97  O   UNL A   1      52.283  32.859  34.967  1.00  0.00    -0.237 OA
ATOM     98  O   UNL A   1      52.384  32.833  37.439  1.00  0.00    -0.237 OA
ATOM     99  O   UNL A   1      54.430  32.473  36.114  1.00  0.00    -0.744 OA
ENDBRANCH  92  96
ENDBRANCH  66  89
ENDBRANCH  40  41
ENDBRANCH  33  35
ENDBRANCH  32  33
ENDBRANCH  31  32
ENDBRANCH  30  31
ENDBRANCH  29  30
ENDBRANCH  28  29
ENDBRANCH  27  28
ENDBRANCH  26  27
ENDBRANCH   1  26
TORSDOF 29
ENDMDL
