MODEL 1
REMARK VINA RESULT:      -7.3      0.000      0.000
REMARK SMILES CN(CCC(F)(F)F)C(=O)c1cccn1CC(=O)OCCOCCOCCOCCOC(=O)c1ccc(-c2c3nc(c(-c4cc(S(=O)(=O)[O-])ccc4F)c4ccc([nH]4)c(-c4cc(S(=O)(=O)[O-])ccc4F)c4nc(c(-c5cc(S(=O)(=O)[O-])ccc5F)c5ccc2[nH]5)C=C4)C=C3)cc1
REMARK SMILES IDX 23 1 22 2 21 3 20 4 19 5 17 6 18 7 16 8 15 9 11 10 12 11
REMARK SMILES IDX 13 12 14 13 9 14 10 15 2 16 1 17 3 18 4 19 5 20 6 21 7 22
REMARK SMILES IDX 8 23 24 24 25 25 26 26 27 27 28 28 29 29 30 30 31 31 32 32
REMARK SMILES IDX 33 33 34 34 35 35 96 36 36 37 95 38 37 39 38 40 39 41 89 42
REMARK SMILES IDX 40 43 94 44 88 45 90 46 41 47 93 48 87 49 86 50 42 52 74 53
REMARK SMILES IDX 54 54 73 55 55 56 58 57 72 58 91 59 56 60 57 61 71 63 92 64
REMARK SMILES IDX 59 65 43 66 44 67 52 68 45 69 51 70 53 71 50 72 46 73 47 74
REMARK SMILES IDX 48 75 49 76 75 77 76 78 84 79 77 80 83 81 85 82 82 83 78 84
REMARK SMILES IDX 79 85 80 86 81 87 60 88 61 89 69 90 62 91 68 92 70 93 67 94
REMARK SMILES IDX 63 95 64 96 65 97 66 98
REMARK H PARENT 90 51 58 62
REMARK Flexibility Score: inf
ROOT
ATOM      1  C   UNL A   1      33.808  30.267  26.477  1.00  0.00     0.188 C 
ENDROOT
BRANCH   1   2
ATOM      2  O   UNL A   1      32.851  29.227  26.315  1.00  0.00    -0.376 OA
BRANCH   2   3
ATOM      3  C   UNL A   1      32.043  29.208  25.156  1.00  0.00     0.202 C 
BRANCH   3   4
ATOM      4  C   UNL A   1      31.091  28.017  24.961  1.00  0.00     0.261 C 
BRANCH   4   5
ATOM      5  O   UNL A   1      31.465  27.049  23.959  1.00  0.00    -0.462 OA
BRANCH   5   6
ATOM      6  C   UNL A   1      32.693  26.492  24.109  1.00  0.00     0.326 C 
ATOM      7  O   UNL A   1      33.578  26.555  23.259  1.00  0.00    -0.250 OA
BRANCH   6   8
ATOM      8  C   UNL A   1      32.879  25.701  25.382  1.00  0.00     0.244 C 
BRANCH   8   9
ATOM      9  N   UNL A   1      32.007  24.549  25.639  1.00  0.00    -0.332 N 
ATOM     10  C   UNL A   1      32.199  23.247  25.192  1.00  0.00     0.107 A 
ATOM     11  C   UNL A   1      31.325  22.452  25.921  1.00  0.00     0.033 A 
ATOM     12  C   UNL A   1      30.549  23.269  26.763  1.00  0.00     0.020 A 
ATOM     13  C   UNL A   1      31.020  24.548  26.605  1.00  0.00     0.087 A 
BRANCH  10  14
ATOM     14  C   UNL A   1      33.233  22.802  24.279  1.00  0.00     0.270 C 
ATOM     15  O   UNL A   1      33.147  23.027  23.071  1.00  0.00    -0.267 OA
BRANCH  14  16
ATOM     16  N   UNL A   1      34.345  22.117  24.801  1.00  0.00    -0.340 N 
ATOM     17  C   UNL A   1      35.481  22.955  25.160  1.00  0.00     0.147 C 
BRANCH  16  18
ATOM     18  C   UNL A   1      34.603  20.686  24.585  1.00  0.00     0.129 C 
BRANCH  18  19
ATOM     19  C   UNL A   1      33.545  19.724  25.131  1.00  0.00     0.137 C 
BRANCH  19  20
ATOM     20  C   UNL A   1      32.955  18.817  24.081  1.00  0.00     0.390 C 
ATOM     21  F   UNL A   1      31.871  18.161  24.540  1.00  0.00    -0.171 F 
ATOM     22  F   UNL A   1      32.566  19.539  23.006  1.00  0.00    -0.171 F 
ATOM     23  F   UNL A   1      33.853  17.912  23.644  1.00  0.00    -0.171 F 
ENDBRANCH  19  20
ENDBRANCH  18  19
ENDBRANCH  16  18
ENDBRANCH  14  16
ENDBRANCH  10  14
ENDBRANCH   8   9
ENDBRANCH   6   8
ENDBRANCH   5   6
ENDBRANCH   4   5
ENDBRANCH   3   4
ENDBRANCH   2   3
ENDBRANCH   1   2
BRANCH   1  24
ATOM     24  C   UNL A   1      34.584  30.452  27.801  1.00  0.00     0.188 C 
BRANCH  24  25
ATOM     25  O   UNL A   1      35.404  31.615  27.843  1.00  0.00    -0.377 OA
BRANCH  25  26
ATOM     26  C   UNL A   1      36.174  31.759  29.029  1.00  0.00     0.188 C 
BRANCH  26  27
ATOM     27  C   UNL A   1      37.585  31.153  28.968  1.00  0.00     0.188 C 
BRANCH  27  28
ATOM     28  O   UNL A   1      38.041  30.634  30.215  1.00  0.00    -0.376 OA
BRANCH  28  29
ATOM     29  C   UNL A   1      39.349  30.088  30.295  1.00  0.00     0.202 C 
BRANCH  29  30
ATOM     30  C   UNL A   1      40.428  31.042  29.760  1.00  0.00     0.261 C 
BRANCH  30  31
ATOM     31  O   UNL A   1      41.104  31.778  30.777  1.00  0.00    -0.460 OA
BRANCH  31  32
ATOM     32  C   UNL A   1      40.563  32.976  30.999  1.00  0.00     0.338 C 
ATOM     33  O   UNL A   1      40.610  33.980  30.270  1.00  0.00    -0.246 OA
BRANCH  32  34
ATOM     34  C   UNL A   1      39.890  33.029  32.274  1.00  0.00     0.060 A 
ATOM     35  C   UNL A   1      39.251  34.243  32.556  1.00  0.00     0.016 A 
ATOM     36  C   UNL A   1      40.423  32.186  33.249  1.00  0.00     0.016 A 
ATOM     37  C   UNL A   1      39.389  34.757  33.818  1.00  0.00     0.010 A 
ATOM     38  C   UNL A   1      40.599  32.723  34.499  1.00  0.00     0.010 A 
ATOM     39  C   UNL A   1      40.148  34.031  34.741  1.00  0.00    -0.014 A 
BRANCH  39  40
ATOM     40  C   UNL A   1      40.415  34.642  36.039  1.00  0.00     0.031 A 
ATOM     41  C   UNL A   1      39.367  34.202  37.062  1.00  0.00     0.074 A 
ATOM     42  C   UNL A   1      41.516  35.456  36.076  1.00  0.00     0.049 A 
ATOM     43  N   UNL A   1      39.085  34.684  38.228  1.00  0.00    -0.248 NA
ATOM     44  C   UNL A   1      38.437  33.083  36.709  1.00  0.00     0.031 C 
ATOM     45  C   UNL A   1      42.390  35.785  34.916  1.00  0.00     0.029 A 
ATOM     46  N   UNL A   1      42.126  36.174  37.076  1.00  0.00    -0.354 N 
ATOM     47  C   UNL A   1      38.180  33.789  38.836  1.00  0.00     0.074 A 
ATOM     48  C   UNL A   1      37.716  32.909  37.814  1.00  0.00     0.031 C 
ATOM     49  C   UNL A   1      43.347  36.677  35.263  1.00  0.00     0.029 A 
ATOM     50  C   UNL A   1      43.231  36.976  36.676  1.00  0.00     0.049 A 
ATOM     51  H   UNL A   1      41.819  36.134  38.011  1.00  0.00     0.167 HD
ATOM     52  C   UNL A   1      37.979  33.740  40.180  1.00  0.00     0.034 A 
ATOM     53  C   UNL A   1      43.979  37.835  37.436  1.00  0.00     0.034 A 
ATOM     54  C   UNL A   1      38.706  34.784  40.820  1.00  0.00     0.049 A 
ATOM     55  C   UNL A   1      43.512  37.594  38.811  1.00  0.00     0.074 A 
ATOM     56  C   UNL A   1      38.507  36.135  40.897  1.00  0.00     0.029 A 
ATOM     57  N   UNL A   1      39.974  34.494  41.263  1.00  0.00    -0.354 N 
ATOM     58  N   UNL A   1      43.789  36.536  39.513  1.00  0.00    -0.248 NA
ATOM     59  C   UNL A   1      42.598  38.563  39.423  1.00  0.00     0.031 C 
ATOM     60  C   UNL A   1      39.808  36.668  40.995  1.00  0.00     0.029 A 
ATOM     61  C   UNL A   1      40.736  35.623  41.082  1.00  0.00     0.049 A 
ATOM     62  H   UNL A   1      40.279  33.637  41.640  1.00  0.00     0.167 HD
ATOM     63  C   UNL A   1      42.848  36.577  40.511  1.00  0.00     0.074 A 
ATOM     64  C   UNL A   1      42.391  37.947  40.583  1.00  0.00     0.031 C 
ATOM     65  C   UNL A   1      42.157  35.457  40.842  1.00  0.00     0.034 A 
BRANCH  52  66
ATOM     66  C   UNL A   1      37.306  32.724  41.055  1.00  0.00     0.023 A 
ATOM     67  C   UNL A   1      35.986  33.034  41.455  1.00  0.00     0.031 A 
ATOM     68  C   UNL A   1      37.934  31.671  41.736  1.00  0.00     0.131 A 
ATOM     69  C   UNL A   1      35.390  32.415  42.556  1.00  0.00     0.055 A 
ATOM     70  C   UNL A   1      37.306  31.000  42.796  1.00  0.00     0.041 A 
ATOM     71  F   UNL A   1      39.197  31.311  41.467  1.00  0.00    -0.206 F 
ATOM     72  C   UNL A   1      36.044  31.393  43.236  1.00  0.00     0.022 A 
BRANCH  69  73
ATOM     73  S   UNL A   1      33.832  33.110  43.175  1.00  0.00     0.124 S 
ATOM     74  O   UNL A   1      33.068  33.300  41.948  1.00  0.00    -0.237 OA
ATOM     75  O   UNL A   1      33.361  32.051  44.063  1.00  0.00    -0.237 OA
ATOM     76  O   UNL A   1      34.253  34.340  43.842  1.00  0.00    -0.744 OA
ENDBRANCH  69  73
ENDBRANCH  52  66
BRANCH  53  77
ATOM     77  C   UNL A   1      45.040  38.911  37.269  1.00  0.00     0.023 A 
ATOM     78  C   UNL A   1      44.818  40.283  37.050  1.00  0.00     0.031 A 
ATOM     79  C   UNL A   1      46.417  38.548  37.411  1.00  0.00     0.131 A 
ATOM     80  C   UNL A   1      45.915  41.196  37.048  1.00  0.00     0.055 A 
ATOM     81  C   UNL A   1      47.475  39.454  37.486  1.00  0.00     0.041 A 
ATOM     82  F   UNL A   1      46.816  37.272  37.498  1.00  0.00    -0.206 F 
ATOM     83  C   UNL A   1      47.225  40.793  37.317  1.00  0.00     0.022 A 
BRANCH  80  84
ATOM     84  S   UNL A   1      45.681  42.970  36.718  1.00  0.00     0.124 S 
ATOM     85  O   UNL A   1      44.569  42.955  35.773  1.00  0.00    -0.237 OA
ATOM     86  O   UNL A   1      45.393  43.518  38.039  1.00  0.00    -0.237 OA
ATOM     87  O   UNL A   1      46.969  43.372  36.154  1.00  0.00    -0.744 OA
ENDBRANCH  80  84
ENDBRANCH  53  77
BRANCH  65  88
ATOM     88  C   UNL A   1      42.865  34.153  40.490  1.00  0.00     0.023 A 
ATOM     89  C   UNL A   1      42.595  33.508  39.269  1.00  0.00     0.031 A 
ATOM     90  C   UNL A   1      43.723  33.470  41.372  1.00  0.00     0.131 A 
ATOM     91  C   UNL A   1      43.152  32.244  38.981  1.00  0.00     0.055 A 
ATOM     92  C   UNL A   1      44.288  32.221  41.085  1.00  0.00     0.041 A 
ATOM     93  F   UNL A   1      44.041  33.989  42.557  1.00  0.00    -0.206 F 
ATOM     94  C   UNL A   1      44.001  31.599  39.881  1.00  0.00     0.022 A 
BRANCH  91  95
ATOM     95  S   UNL A   1      42.787  31.454  37.390  1.00  0.00     0.124 S 
ATOM     96  O   UNL A   1      43.515  30.193  37.487  1.00  0.00    -0.237 OA
ATOM     97  O   UNL A   1      41.331  31.354  37.411  1.00  0.00    -0.237 OA
ATOM     98  O   UNL A   1      43.319  32.400  36.409  1.00  0.00    -0.744 OA
ENDBRANCH  91  95
ENDBRANCH  65  88
ENDBRANCH  39  40
ENDBRANCH  32  34
ENDBRANCH  31  32
ENDBRANCH  30  31
ENDBRANCH  29  30
ENDBRANCH  28  29
ENDBRANCH  27  28
ENDBRANCH  26  27
ENDBRANCH  25  26
ENDBRANCH  24  25
ENDBRANCH   1  24
TORSDOF 29
ENDMDL
MODEL 2
REMARK VINA RESULT:      -7.1     11.011     16.302
REMARK SMILES CN(CCC(F)(F)F)C(=O)c1cccn1CC(=O)OCCOCCOCCOCCOC(=O)c1ccc(-c2c3nc(c(-c4cc(S(=O)(=O)[O-])ccc4F)c4ccc([nH]4)c(-c4cc(S(=O)(=O)[O-])ccc4F)c4nc(c(-c5cc(S(=O)(=O)[O-])ccc5F)c5ccc2[nH]5)C=C4)C=C3)cc1
REMARK SMILES IDX 23 1 22 2 21 3 20 4 19 5 17 6 18 7 16 8 15 9 11 10 12 11
REMARK SMILES IDX 13 12 14 13 9 14 10 15 2 16 1 17 3 18 4 19 5 20 6 21 7 22
REMARK SMILES IDX 8 23 24 24 25 25 26 26 27 27 28 28 29 29 30 30 31 31 32 32
REMARK SMILES IDX 33 33 34 34 35 35 96 36 36 37 95 38 37 39 38 40 39 41 89 42
REMARK SMILES IDX 40 43 94 44 88 45 90 46 41 47 93 48 87 49 86 50 42 52 74 53
REMARK SMILES IDX 54 54 73 55 55 56 58 57 72 58 91 59 56 60 57 61 71 63 92 64
REMARK SMILES IDX 59 65 43 66 44 67 52 68 45 69 51 70 53 71 50 72 46 73 47 74
REMARK SMILES IDX 48 75 49 76 75 77 76 78 84 79 77 80 83 81 85 82 82 83 78 84
REMARK SMILES IDX 79 85 80 86 81 87 60 88 61 89 69 90 62 91 68 92 70 93 67 94
REMARK SMILES IDX 63 95 64 96 65 97 66 98
REMARK H PARENT 90 51 58 62
REMARK Flexibility Score: inf
ROOT
ATOM      1  C   UNL A   1      45.031  17.225  39.119  1.00  0.00     0.188 C 
ENDROOT
BRANCH   1   2
ATOM      2  O   UNL A   1      44.059  16.189  39.061  1.00  0.00    -0.376 OA
BRANCH   2   3
ATOM      3  C   UNL A   1      42.964  16.219  39.954  1.00  0.00     0.202 C 
BRANCH   3   4
ATOM      4  C   UNL A   1      42.266  14.889  40.284  1.00  0.00     0.261 C 
BRANCH   4   5
ATOM      5  O   UNL A   1      42.607  14.278  41.545  1.00  0.00    -0.462 OA
BRANCH   5   6
ATOM      6  C   UNL A   1      41.718  14.471  42.551  1.00  0.00     0.326 C 
ATOM      7  O   UNL A   1      41.426  15.579  42.998  1.00  0.00    -0.250 OA
BRANCH   6   8
ATOM      8  C   UNL A   1      41.161  13.206  43.158  1.00  0.00     0.244 C 
BRANCH   8   9
ATOM      9  N   UNL A   1      42.071  12.090  43.439  1.00  0.00    -0.332 N 
ATOM     10  C   UNL A   1      43.108  12.077  44.364  1.00  0.00     0.107 A 
ATOM     11  C   UNL A   1      43.482  10.749  44.513  1.00  0.00     0.033 A 
ATOM     12  C   UNL A   1      42.726   9.954  43.633  1.00  0.00     0.020 A 
ATOM     13  C   UNL A   1      41.833  10.796  43.019  1.00  0.00     0.087 A 
BRANCH  10  14
ATOM     14  C   UNL A   1      43.572  13.211  45.141  1.00  0.00     0.270 C 
ATOM     15  O   UNL A   1      42.809  13.808  45.901  1.00  0.00    -0.267 OA
BRANCH  14  16
ATOM     16  N   UNL A   1      44.916  13.609  45.017  1.00  0.00    -0.340 N 
ATOM     17  C   UNL A   1      45.781  13.234  46.126  1.00  0.00     0.147 C 
BRANCH  16  18
ATOM     18  C   UNL A   1      45.370  14.701  44.144  1.00  0.00     0.129 C 
BRANCH  18  19
ATOM     19  C   UNL A   1      46.682  15.380  44.546  1.00  0.00     0.137 C 
BRANCH  19  20
ATOM     20  C   UNL A   1      46.753  16.834  44.152  1.00  0.00     0.390 C 
ATOM     21  F   UNL A   1      46.000  17.094  43.065  1.00  0.00    -0.171 F 
ATOM     22  F   UNL A   1      46.296  17.613  45.158  1.00  0.00    -0.171 F 
ATOM     23  F   UNL A   1      48.020  17.218  43.899  1.00  0.00    -0.171 F 
ENDBRANCH  19  20
ENDBRANCH  18  19
ENDBRANCH  16  18
ENDBRANCH  14  16
ENDBRANCH  10  14
ENDBRANCH   8   9
ENDBRANCH   6   8
ENDBRANCH   5   6
ENDBRANCH   4   5
ENDBRANCH   3   4
ENDBRANCH   2   3
ENDBRANCH   1   2
BRANCH   1  24
ATOM     24  C   UNL A   1      46.309  17.088  39.977  1.00  0.00     0.188 C 
BRANCH  24  25
ATOM     25  O   UNL A   1      47.326  18.036  39.671  1.00  0.00    -0.377 OA
BRANCH  25  26
ATOM     26  C   UNL A   1      47.020  18.911  38.594  1.00  0.00     0.188 C 
BRANCH  26  27
ATOM     27  C   UNL A   1      47.805  20.233  38.583  1.00  0.00     0.188 C 
BRANCH  27  28
ATOM     28  O   UNL A   1      48.754  20.328  37.524  1.00  0.00    -0.376 OA
BRANCH  28  29
ATOM     29  C   UNL A   1      48.462  21.161  36.412  1.00  0.00     0.202 C 
BRANCH  29  30
ATOM     30  C   UNL A   1      47.901  22.531  36.824  1.00  0.00     0.261 C 
BRANCH  30  31
ATOM     31  O   UNL A   1      47.032  23.115  35.856  1.00  0.00    -0.460 OA
BRANCH  31  32
ATOM     32  C   UNL A   1      45.753  22.780  36.035  1.00  0.00     0.338 C 
ATOM     33  O   UNL A   1      45.283  21.648  36.227  1.00  0.00    -0.246 OA
BRANCH  32  34
ATOM     34  C   UNL A   1      44.885  23.929  35.949  1.00  0.00     0.060 A 
ATOM     35  C   UNL A   1      43.629  23.679  35.382  1.00  0.00     0.016 A 
ATOM     36  C   UNL A   1      45.546  25.154  35.867  1.00  0.00     0.016 A 
ATOM     37  C   UNL A   1      43.145  24.590  34.480  1.00  0.00     0.010 A 
ATOM     38  C   UNL A   1      45.083  26.043  34.931  1.00  0.00     0.010 A 
ATOM     39  C   UNL A   1      43.933  25.710  34.196  1.00  0.00    -0.014 A 
BRANCH  39  40
ATOM     40  C   UNL A   1      43.488  26.607  33.134  1.00  0.00     0.031 A 
ATOM     41  C   UNL A   1      42.422  27.570  33.660  1.00  0.00     0.074 A 
ATOM     42  C   UNL A   1      44.098  26.413  31.924  1.00  0.00     0.049 A 
ATOM     43  N   UNL A   1      41.602  28.337  33.020  1.00  0.00    -0.248 NA
ATOM     44  C   UNL A   1      42.183  27.648  35.136  1.00  0.00     0.031 C 
ATOM     45  C   UNL A   1      45.104  25.358  31.620  1.00  0.00     0.029 A 
ATOM     46  N   UNL A   1      44.005  27.045  30.707  1.00  0.00    -0.354 N 
ATOM     47  C   UNL A   1      40.976  29.162  33.978  1.00  0.00     0.074 A 
ATOM     48  C   UNL A   1      41.265  28.604  35.259  1.00  0.00     0.031 C 
ATOM     49  C   UNL A   1      45.458  25.382  30.313  1.00  0.00     0.029 A 
ATOM     50  C   UNL A   1      44.769  26.471  29.652  1.00  0.00     0.049 A 
ATOM     51  H   UNL A   1      43.445  27.844  30.574  1.00  0.00     0.167 HD
ATOM     52  C   UNL A   1      40.375  30.340  33.660  1.00  0.00     0.034 A 
ATOM     53  C   UNL A   1      44.819  26.846  28.336  1.00  0.00     0.034 A 
ATOM     54  C   UNL A   1      40.373  30.520  32.247  1.00  0.00     0.049 A 
ATOM     55  C   UNL A   1      44.055  28.104  28.294  1.00  0.00     0.074 A 
ATOM     56  C   UNL A   1      39.645  29.943  31.243  1.00  0.00     0.029 A 
ATOM     57  N   UNL A   1      41.426  31.210  31.696  1.00  0.00    -0.354 N 
ATOM     58  N   UNL A   1      44.474  29.241  28.760  1.00  0.00    -0.248 NA
ATOM     59  C   UNL A   1      42.686  28.078  27.769  1.00  0.00     0.031 C 
ATOM     60  C   UNL A   1      40.517  29.958  30.136  1.00  0.00     0.029 A 
ATOM     61  C   UNL A   1      41.695  30.635  30.477  1.00  0.00     0.049 A 
ATOM     62  H   UNL A   1      41.898  31.974  32.099  1.00  0.00     0.167 HD
ATOM     63  C   UNL A   1      43.319  29.976  28.857  1.00  0.00     0.074 A 
ATOM     64  C   UNL A   1      42.364  29.352  27.968  1.00  0.00     0.031 C 
ATOM     65  C   UNL A   1      43.057  30.688  29.983  1.00  0.00     0.034 A 
BRANCH  52  66
ATOM     66  C   UNL A   1      39.906  31.485  34.508  1.00  0.00     0.023 A 
ATOM     67  C   UNL A   1      40.868  32.485  34.780  1.00  0.00     0.031 A 
ATOM     68  C   UNL A   1      38.735  31.518  35.280  1.00  0.00     0.131 A 
ATOM     69  C   UNL A   1      40.719  33.374  35.846  1.00  0.00     0.055 A 
ATOM     70  C   UNL A   1      38.554  32.461  36.304  1.00  0.00     0.041 A 
ATOM     71  F   UNL A   1      37.769  30.601  35.136  1.00  0.00    -0.206 F 
ATOM     72  C   UNL A   1      39.562  33.370  36.617  1.00  0.00     0.022 A 
BRANCH  69  73
ATOM     73  S   UNL A   1      42.149  34.395  36.300  1.00  0.00     0.124 S 
ATOM     74  O   UNL A   1      41.764  35.709  35.798  1.00  0.00    -0.237 OA
ATOM     75  O   UNL A   1      42.174  34.250  37.752  1.00  0.00    -0.237 OA
ATOM     76  O   UNL A   1      43.256  33.758  35.592  1.00  0.00    -0.744 OA
ENDBRANCH  69  73
ENDBRANCH  52  66
BRANCH  53  77
ATOM     77  C   UNL A   1      45.360  26.347  27.006  1.00  0.00     0.023 A 
ATOM     78  C   UNL A   1      46.212  27.044  26.131  1.00  0.00     0.031 A 
ATOM     79  C   UNL A   1      45.053  25.010  26.595  1.00  0.00     0.131 A 
ATOM     80  C   UNL A   1      46.747  26.393  24.979  1.00  0.00     0.055 A 
ATOM     81  C   UNL A   1      45.641  24.356  25.513  1.00  0.00     0.041 A 
ATOM     82  F   UNL A   1      44.160  24.249  27.243  1.00  0.00    -0.206 F 
ATOM     83  C   UNL A   1      46.507  25.046  24.702  1.00  0.00     0.022 A 
BRANCH  80  84
ATOM     84  S   UNL A   1      47.810  27.272  23.793  1.00  0.00     0.124 S 
ATOM     85  O   UNL A   1      48.753  27.949  24.678  1.00  0.00    -0.237 OA
ATOM     86  O   UNL A   1      48.359  26.193  22.977  1.00  0.00    -0.237 OA
ATOM     87  O   UNL A   1      46.870  28.152  23.098  1.00  0.00    -0.744 OA
ENDBRANCH  80  84
ENDBRANCH  53  77
BRANCH  65  88
ATOM     88  C   UNL A   1      44.294  31.069  30.789  1.00  0.00     0.023 A 
ATOM     89  C   UNL A   1      44.687  30.289  31.893  1.00  0.00     0.031 A 
ATOM     90  C   UNL A   1      45.040  32.242  30.565  1.00  0.00     0.131 A 
ATOM     91  C   UNL A   1      45.758  30.693  32.718  1.00  0.00     0.055 A 
ATOM     92  C   UNL A   1      46.111  32.640  31.374  1.00  0.00     0.041 A 
ATOM     93  F   UNL A   1      44.749  33.054  29.551  1.00  0.00    -0.206 F 
ATOM     94  C   UNL A   1      46.475  31.863  32.462  1.00  0.00     0.022 A 
BRANCH  91  95
ATOM     95  S   UNL A   1      46.240  29.653  34.123  1.00  0.00     0.124 S 
ATOM     96  O   UNL A   1      45.019  29.608  34.920  1.00  0.00    -0.237 OA
ATOM     97  O   UNL A   1      46.627  28.404  33.475  1.00  0.00    -0.237 OA
ATOM     98  O   UNL A   1      47.347  30.393  34.730  1.00  0.00    -0.744 OA
ENDBRANCH  91  95
ENDBRANCH  65  88
ENDBRANCH  39  40
ENDBRANCH  32  34
ENDBRANCH  31  32
ENDBRANCH  30  31
ENDBRANCH  29  30
ENDBRANCH  28  29
ENDBRANCH  27  28
ENDBRANCH  26  27
ENDBRANCH  25  26
ENDBRANCH  24  25
ENDBRANCH   1  24
TORSDOF 29
ENDMDL
MODEL 3
REMARK VINA RESULT:      -7.0     10.881     17.686
REMARK SMILES CN(CCC(F)(F)F)C(=O)c1cccn1CC(=O)OCCOCCOCCOCCOC(=O)c1ccc(-c2c3nc(c(-c4cc(S(=O)(=O)[O-])ccc4F)c4ccc([nH]4)c(-c4cc(S(=O)(=O)[O-])ccc4F)c4nc(c(-c5cc(S(=O)(=O)[O-])ccc5F)c5ccc2[nH]5)C=C4)C=C3)cc1
REMARK SMILES IDX 23 1 22 2 21 3 20 4 19 5 17 6 18 7 16 8 15 9 11 10 12 11
REMARK SMILES IDX 13 12 14 13 9 14 10 15 2 16 1 17 3 18 4 19 5 20 6 21 7 22
REMARK SMILES IDX 8 23 24 24 25 25 26 26 27 27 28 28 29 29 30 30 31 31 32 32
REMARK SMILES IDX 33 33 34 34 35 35 96 36 36 37 95 38 37 39 38 40 39 41 89 42
REMARK SMILES IDX 40 43 94 44 88 45 90 46 41 47 93 48 87 49 86 50 42 52 74 53
REMARK SMILES IDX 54 54 73 55 55 56 58 57 72 58 91 59 56 60 57 61 71 63 92 64
REMARK SMILES IDX 59 65 43 66 44 67 52 68 45 69 51 70 53 71 50 72 46 73 47 74
REMARK SMILES IDX 48 75 49 76 75 77 76 78 84 79 77 80 83 81 85 82 82 83 78 84
REMARK SMILES IDX 79 85 80 86 81 87 60 88 61 89 69 90 62 91 68 92 70 93 67 94
REMARK SMILES IDX 63 95 64 96 65 97 66 98
REMARK H PARENT 90 51 58 62
REMARK Flexibility Score: inf
ROOT
ATOM      1  C   UNL A   1      43.538  16.768  39.125  1.00  0.00     0.188 C 
ENDROOT
BRANCH   1   2
ATOM      2  O   UNL A   1      43.389  15.384  38.833  1.00  0.00    -0.376 OA
BRANCH   2   3
ATOM      3  C   UNL A   1      42.372  14.648  39.482  1.00  0.00     0.202 C 
BRANCH   3   4
ATOM      4  C   UNL A   1      42.512  14.404  40.993  1.00  0.00     0.261 C 
BRANCH   4   5
ATOM      5  O   UNL A   1      41.459  14.923  41.830  1.00  0.00    -0.462 OA
BRANCH   5   6
ATOM      6  C   UNL A   1      41.764  15.056  43.145  1.00  0.00     0.326 C 
ATOM      7  O   UNL A   1      41.190  14.442  44.043  1.00  0.00    -0.250 OA
BRANCH   6   8
ATOM      8  C   UNL A   1      42.821  16.090  43.451  1.00  0.00     0.244 C 
BRANCH   8   9
ATOM      9  N   UNL A   1      44.086  15.658  44.057  1.00  0.00    -0.332 N 
ATOM     10  C   UNL A   1      44.916  16.415  44.874  1.00  0.00     0.107 A 
ATOM     11  C   UNL A   1      45.807  15.525  45.458  1.00  0.00     0.033 A 
ATOM     12  C   UNL A   1      45.572  14.235  44.949  1.00  0.00     0.020 A 
ATOM     13  C   UNL A   1      44.479  14.335  44.125  1.00  0.00     0.087 A 
BRANCH  10  14
ATOM     14  C   UNL A   1      44.755  17.823  45.184  1.00  0.00     0.270 C 
ATOM     15  O   UNL A   1      44.449  18.187  46.320  1.00  0.00    -0.267 OA
BRANCH  14  16
ATOM     16  N   UNL A   1      44.965  18.767  44.162  1.00  0.00    -0.340 N 
ATOM     17  C   UNL A   1      43.790  19.532  43.771  1.00  0.00     0.147 C 
BRANCH  16  18
ATOM     18  C   UNL A   1      46.083  18.709  43.210  1.00  0.00     0.129 C 
BRANCH  18  19
ATOM     19  C   UNL A   1      47.471  18.998  43.785  1.00  0.00     0.137 C 
BRANCH  19  20
ATOM     20  C   UNL A   1      48.416  17.826  43.699  1.00  0.00     0.390 C 
ATOM     21  F   UNL A   1      49.644  18.204  43.293  1.00  0.00    -0.171 F 
ATOM     22  F   UNL A   1      48.551  17.245  44.912  1.00  0.00    -0.171 F 
ATOM     23  F   UNL A   1      47.957  16.879  42.856  1.00  0.00    -0.171 F 
ENDBRANCH  19  20
ENDBRANCH  18  19
ENDBRANCH  16  18
ENDBRANCH  14  16
ENDBRANCH  10  14
ENDBRANCH   8   9
ENDBRANCH   6   8
ENDBRANCH   5   6
ENDBRANCH   4   5
ENDBRANCH   3   4
ENDBRANCH   2   3
ENDBRANCH   1   2
BRANCH   1  24
ATOM     24  C   UNL A   1      44.651  17.280  40.068  1.00  0.00     0.188 C 
BRANCH  24  25
ATOM     25  O   UNL A   1      45.934  17.381  39.460  1.00  0.00    -0.377 OA
BRANCH  25  26
ATOM     26  C   UNL A   1      46.032  18.359  38.433  1.00  0.00     0.188 C 
BRANCH  26  27
ATOM     27  C   UNL A   1      46.988  19.526  38.732  1.00  0.00     0.188 C 
BRANCH  27  28
ATOM     28  O   UNL A   1      48.236  19.434  38.050  1.00  0.00    -0.376 OA
BRANCH  28  29
ATOM     29  C   UNL A   1      48.754  20.590  37.409  1.00  0.00     0.202 C 
BRANCH  29  30
ATOM     30  C   UNL A   1      47.924  21.852  37.691  1.00  0.00     0.261 C 
BRANCH  30  31
ATOM     31  O   UNL A   1      46.817  22.025  36.809  1.00  0.00    -0.460 OA
BRANCH  31  32
ATOM     32  C   UNL A   1      47.060  22.907  35.837  1.00  0.00     0.338 C 
ATOM     33  O   UNL A   1      48.099  23.039  35.172  1.00  0.00    -0.246 OA
BRANCH  32  34
ATOM     34  C   UNL A   1      45.938  23.788  35.625  1.00  0.00     0.060 A 
ATOM     35  C   UNL A   1      44.981  23.319  34.716  1.00  0.00     0.016 A 
ATOM     36  C   UNL A   1      46.209  25.139  35.841  1.00  0.00     0.016 A 
ATOM     37  C   UNL A   1      44.477  24.210  33.806  1.00  0.00     0.010 A 
ATOM     38  C   UNL A   1      45.739  26.020  34.901  1.00  0.00     0.010 A 
ATOM     39  C   UNL A   1      44.944  25.527  33.853  1.00  0.00    -0.014 A 
BRANCH  39  40
ATOM     40  C   UNL A   1      44.518  26.441  32.798  1.00  0.00     0.031 A 
ATOM     41  C   UNL A   1      45.591  26.539  31.711  1.00  0.00     0.074 A 
ATOM     42  C   UNL A   1      43.285  27.004  32.988  1.00  0.00     0.049 A 
ATOM     43  N   UNL A   1      45.733  27.396  30.754  1.00  0.00    -0.248 NA
ATOM     44  C   UNL A   1      46.726  25.563  31.726  1.00  0.00     0.031 C 
ATOM     45  C   UNL A   1      42.409  26.794  34.174  1.00  0.00     0.029 A 
ATOM     46  N   UNL A   1      42.514  27.862  32.241  1.00  0.00    -0.354 N 
ATOM     47  C   UNL A   1      46.765  26.916  29.921  1.00  0.00     0.074 A 
ATOM     48  C   UNL A   1      47.425  25.872  30.636  1.00  0.00     0.031 C 
ATOM     49  C   UNL A   1      41.289  27.551  34.095  1.00  0.00     0.029 A 
ATOM     50  C   UNL A   1      41.294  28.281  32.844  1.00  0.00     0.049 A 
ATOM     51  H   UNL A   1      42.787  28.167  31.345  1.00  0.00     0.167 HD
ATOM     52  C   UNL A   1      46.921  27.316  28.630  1.00  0.00     0.034 A 
ATOM     53  C   UNL A   1      40.371  29.172  32.366  1.00  0.00     0.034 A 
ATOM     54  C   UNL A   1      45.988  28.348  28.325  1.00  0.00     0.049 A 
ATOM     55  C   UNL A   1      40.821  29.452  30.992  1.00  0.00     0.074 A 
ATOM     56  C   UNL A   1      45.928  29.671  28.667  1.00  0.00     0.029 A 
ATOM     57  N   UNL A   1      44.780  27.971  27.787  1.00  0.00    -0.354 N 
ATOM     58  N   UNL A   1      40.721  28.625  29.996  1.00  0.00    -0.248 NA
ATOM     59  C   UNL A   1      41.515  30.716  30.725  1.00  0.00     0.031 C 
ATOM     60  C   UNL A   1      44.548  29.951  28.709  1.00  0.00     0.029 A 
ATOM     61  C   UNL A   1      43.828  28.826  28.288  1.00  0.00     0.049 A 
ATOM     62  H   UNL A   1      44.626  27.227  27.161  1.00  0.00     0.167 HD
ATOM     63  C   UNL A   1      41.598  29.144  29.078  1.00  0.00     0.074 A 
ATOM     64  C   UNL A   1      41.789  30.532  29.437  1.00  0.00     0.031 C 
ATOM     65  C   UNL A   1      42.474  28.329  28.436  1.00  0.00     0.034 A 
BRANCH  52  66
ATOM     66  C   UNL A   1      47.738  26.760  27.502  1.00  0.00     0.023 A 
ATOM     67  C   UNL A   1      49.033  27.307  27.352  1.00  0.00     0.031 A 
ATOM     68  C   UNL A   1      47.258  25.988  26.434  1.00  0.00     0.131 A 
ATOM     69  C   UNL A   1      49.741  27.195  26.153  1.00  0.00     0.055 A 
ATOM     70  C   UNL A   1      48.002  25.816  25.256  1.00  0.00     0.041 A 
ATOM     71  F   UNL A   1      46.031  25.449  26.449  1.00  0.00    -0.206 F 
ATOM     72  C   UNL A   1      49.232  26.450  25.096  1.00  0.00     0.022 A 
BRANCH  69  73
ATOM     73  S   UNL A   1      51.240  28.200  25.961  1.00  0.00     0.124 S 
ATOM     74  O   UNL A   1      51.311  28.898  27.239  1.00  0.00    -0.237 OA
ATOM     75  O   UNL A   1      52.259  27.180  25.733  1.00  0.00    -0.237 OA
ATOM     76  O   UNL A   1      50.935  29.043  24.807  1.00  0.00    -0.744 OA
ENDBRANCH  69  73
ENDBRANCH  52  66
BRANCH  53  77
ATOM     77  C   UNL A   1      39.135  29.925  32.831  1.00  0.00     0.023 A 
ATOM     78  C   UNL A   1      39.044  30.790  33.937  1.00  0.00     0.031 A 
ATOM     79  C   UNL A   1      37.937  29.830  32.053  1.00  0.00     0.131 A 
ATOM     80  C   UNL A   1      37.849  31.533  34.170  1.00  0.00     0.055 A 
ATOM     81  C   UNL A   1      36.801  30.617  32.241  1.00  0.00     0.041 A 
ATOM     82  F   UNL A   1      37.807  28.960  31.042  1.00  0.00    -0.206 F 
ATOM     83  C   UNL A   1      36.757  31.488  33.301  1.00  0.00     0.022 A 
BRANCH  80  84
ATOM     84  S   UNL A   1      37.668  32.623  35.617  1.00  0.00     0.124 S 
ATOM     85  O   UNL A   1      37.704  31.667  36.719  1.00  0.00    -0.237 OA
ATOM     86  O   UNL A   1      38.817  33.516  35.505  1.00  0.00    -0.237 OA
ATOM     87  O   UNL A   1      36.370  33.259  35.389  1.00  0.00    -0.744 OA
ENDBRANCH  80  84
ENDBRANCH  53  77
BRANCH  65  88
ATOM     88  C   UNL A   1      42.035  26.871  28.359  1.00  0.00     0.023 A 
ATOM     89  C   UNL A   1      42.853  25.857  28.891  1.00  0.00     0.031 A 
ATOM     90  C   UNL A   1      40.881  26.439  27.678  1.00  0.00     0.131 A 
ATOM     91  C   UNL A   1      42.518  24.497  28.723  1.00  0.00     0.055 A 
ATOM     92  C   UNL A   1      40.538  25.091  27.521  1.00  0.00     0.041 A 
ATOM     93  F   UNL A   1      40.041  27.316  27.131  1.00  0.00    -0.206 F 
ATOM     94  C   UNL A   1      41.363  24.108  28.044  1.00  0.00     0.022 A 
BRANCH  91  95
ATOM     95  S   UNL A   1      43.592  23.222  29.437  1.00  0.00     0.124 S 
ATOM     96  O   UNL A   1      43.098  22.001  28.809  1.00  0.00    -0.237 OA
ATOM     97  O   UNL A   1      44.922  23.659  29.024  1.00  0.00    -0.237 OA
ATOM     98  O   UNL A   1      43.336  23.325  30.874  1.00  0.00    -0.744 OA
ENDBRANCH  91  95
ENDBRANCH  65  88
ENDBRANCH  39  40
ENDBRANCH  32  34
ENDBRANCH  31  32
ENDBRANCH  30  31
ENDBRANCH  29  30
ENDBRANCH  28  29
ENDBRANCH  27  28
ENDBRANCH  26  27
ENDBRANCH  25  26
ENDBRANCH  24  25
ENDBRANCH   1  24
TORSDOF 29
ENDMDL
