MODEL 1
REMARK VINA RESULT:     -10.8      0.000      0.000
REMARK SMILES Cc1ccccc1/[NH+]=C1\S[C@@H](CC(=O)Nc2ccc(C(=O)OCCOCCOCCOCCOC(=O)c3ccc(-c4c5nc(c(-c6cc(S(=O)(=O)[O-])ccc6F)c6ccc([nH]6)c(-c6cc(S(=O)(=O)[O-])ccc6F)c6nc(c(-c7cc(S(=O)(=O)[O-])ccc7F)c7ccc4[nH]7)C=C6)C=C5)cc3)cc2)C(=O)N1C
REMARK SMILES IDX 27 1 26 2 25 3 24 4 23 5 22 6 20 7 21 8 19 9 16 10 17 11
REMARK SMILES IDX 101 12 18 13 100 14 15 15 13 16 14 17 12 19 11 20 8 21 9 22
REMARK SMILES IDX 10 24 104 25 102 26 105 27 103 28 7 29 1 30 2 31 3 32 4 33
REMARK SMILES IDX 6 34 5 35 28 36 29 37 30 38 31 39 32 40 33 41 34 42 35 43
REMARK SMILES IDX 36 44 37 45 38 46 99 47 39 48 98 49 40 50 41 51 42 52 92 53
REMARK SMILES IDX 43 54 97 55 91 56 93 57 44 58 96 59 90 60 89 61 45 63 77 64
REMARK SMILES IDX 57 65 76 66 58 67 61 68 75 69 94 70 59 71 60 72 74 74 95 75
REMARK SMILES IDX 62 76 46 77 47 78 55 79 48 80 54 81 56 82 53 83 49 84 50 85
REMARK SMILES IDX 51 86 52 87 78 88 79 89 87 90 80 91 86 92 88 93 85 94 81 95
REMARK SMILES IDX 82 96 83 97 84 98 63 99 64 100 72 101 65 102 71 103 73 104
REMARK SMILES IDX 70 105 66 106 67 107 68 108 69 109
REMARK H PARENT 15 18 8 23 93 62 61 73
REMARK Flexibility Score: inf
ROOT
ATOM      1  C   UNL A   1      34.404  31.956  28.807  1.00  0.00     0.188 C 
ENDROOT
BRANCH   1   2
ATOM      2  C   UNL A   1      35.393  31.075  28.000  1.00  0.00     0.188 C 
BRANCH   2   3
ATOM      3  O   UNL A   1      34.640  30.352  27.020  1.00  0.00    -0.376 OA
BRANCH   3   4
ATOM      4  C   UNL A   1      33.237  30.451  27.115  1.00  0.00     0.202 C 
BRANCH   4   5
ATOM      5  C   UNL A   1      32.423  30.191  25.926  1.00  0.00     0.261 C 
BRANCH   5   6
ATOM      6  O   UNL A   1      31.767  28.976  25.979  1.00  0.00    -0.460 OA
BRANCH   6   7
ATOM      7  C   UNL A   1      31.045  28.777  24.875  1.00  0.00     0.338 C 
ATOM      8  O   UNL A   1      30.644  29.598  24.043  1.00  0.00    -0.246 OA
BRANCH   7   9
ATOM      9  C   UNL A   1      31.190  27.354  24.665  1.00  0.00     0.060 A 
ATOM     10  C   UNL A   1      30.991  24.701  24.103  1.00  0.00     0.041 A 
ATOM     11  C   UNL A   1      30.745  25.649  23.164  1.00  0.00     0.027 A 
ATOM     12  C   UNL A   1      31.000  25.097  25.436  1.00  0.00     0.027 A 
ATOM     13  C   UNL A   1      31.154  26.912  23.353  1.00  0.00     0.018 A 
ATOM     14  C   UNL A   1      31.011  26.465  25.720  1.00  0.00     0.018 A 
BRANCH  10  15
ATOM     15  N   UNL A   1      31.233  23.418  23.610  1.00  0.00    -0.326 N 
ATOM     16  C   UNL A   1      32.367  22.988  22.925  1.00  0.00     0.226 C 
ATOM     17  O   UNL A   1      32.352  21.861  22.415  1.00  0.00    -0.275 OA
ATOM     18  H   UNL A   1      30.529  22.747  23.762  1.00  0.00     0.169 HD
BRANCH  16  19
ATOM     19  C   UNL A   1      33.702  23.796  22.910  1.00  0.00     0.128 C 
BRANCH  19  20
ATOM     20  C   UNL A   1      34.618  23.622  24.135  1.00  0.00     0.183 C 
ATOM     21  N   UNL A   1      37.321  22.064  26.054  1.00  0.00    -0.234 N 
ATOM     22  C   UNL A   1      36.499  22.205  25.079  1.00  0.00     0.319 C 
ATOM     23  H   UNL A   1      37.064  21.349  26.681  1.00  0.00     0.313 HD
ATOM     24  S   UNL A   1      36.368  23.188  23.656  1.00  0.00    -0.022 SA
ATOM     25  N   UNL A   1      35.301  21.597  25.187  1.00  0.00    -0.193 N 
ATOM     26  C   UNL A   1      34.263  22.481  25.088  1.00  0.00     0.324 C 
ATOM     27  C   UNL A   1      35.186  20.177  24.991  1.00  0.00     0.301 C 
ATOM     28  O   UNL A   1      33.190  22.393  25.673  1.00  0.00    -0.245 OA
BRANCH  21  29
ATOM     29  C   UNL A   1      38.503  22.714  26.410  1.00  0.00     0.128 A 
ATOM     30  C   UNL A   1      40.162  20.759  26.253  1.00  0.00     0.049 C 
ATOM     31  C   UNL A   1      39.796  22.183  26.526  1.00  0.00    -0.004 A 
ATOM     32  C   UNL A   1      40.871  23.029  26.866  1.00  0.00     0.008 A 
ATOM     33  C   UNL A   1      40.716  24.408  26.932  1.00  0.00     0.001 A 
ATOM     34  C   UNL A   1      38.382  24.121  26.447  1.00  0.00     0.052 A 
ATOM     35  C   UNL A   1      39.472  24.962  26.681  1.00  0.00     0.004 A 
ENDBRANCH  21  29
ENDBRANCH  19  20
ENDBRANCH  16  19
ENDBRANCH  10  15
ENDBRANCH   7   9
ENDBRANCH   6   7
ENDBRANCH   5   6
ENDBRANCH   4   5
ENDBRANCH   3   4
ENDBRANCH   2   3
ENDBRANCH   1   2
BRANCH   1  36
ATOM     36  O   UNL A   1      34.592  33.373  28.755  1.00  0.00    -0.377 OA
BRANCH  36  37
ATOM     37  C   UNL A   1      33.581  34.387  28.662  1.00  0.00     0.188 C 
BRANCH  37  38
ATOM     38  C   UNL A   1      33.889  35.884  28.547  1.00  0.00     0.188 C 
BRANCH  38  39
ATOM     39  O   UNL A   1      33.166  36.683  29.466  1.00  0.00    -0.376 OA
BRANCH  39  40
ATOM     40  C   UNL A   1      32.459  35.938  30.444  1.00  0.00     0.202 C 
BRANCH  40  41
ATOM     41  C   UNL A   1      32.741  36.393  31.888  1.00  0.00     0.261 C 
BRANCH  41  42
ATOM     42  O   UNL A   1      34.151  36.279  32.184  1.00  0.00    -0.460 OA
BRANCH  42  43
ATOM     43  C   UNL A   1      34.493  35.355  33.129  1.00  0.00     0.338 C 
ATOM     44  O   UNL A   1      34.425  35.523  34.334  1.00  0.00    -0.246 OA
BRANCH  43  45
ATOM     45  C   UNL A   1      35.144  34.183  32.470  1.00  0.00     0.060 A 
ATOM     46  C   UNL A   1      35.136  32.944  33.118  1.00  0.00     0.016 A 
ATOM     47  C   UNL A   1      36.074  34.429  31.462  1.00  0.00     0.016 A 
ATOM     48  C   UNL A   1      36.207  32.067  32.923  1.00  0.00     0.010 A 
ATOM     49  C   UNL A   1      37.221  33.651  31.426  1.00  0.00     0.010 A 
ATOM     50  C   UNL A   1      37.336  32.488  32.192  1.00  0.00    -0.014 A 
BRANCH  50  51
ATOM     51  C   UNL A   1      38.661  31.834  32.431  1.00  0.00     0.031 A 
ATOM     52  C   UNL A   1      39.257  30.760  31.421  1.00  0.00     0.074 A 
ATOM     53  C   UNL A   1      39.382  32.540  33.347  1.00  0.00     0.049 A 
ATOM     54  N   UNL A   1      40.324  29.983  31.466  1.00  0.00    -0.248 NA
ATOM     55  C   UNL A   1      38.477  30.439  30.221  1.00  0.00     0.031 C 
ATOM     56  C   UNL A   1      40.135  33.798  33.264  1.00  0.00     0.029 A 
ATOM     57  N   UNL A   1      39.499  32.287  34.699  1.00  0.00    -0.354 N 
ATOM     58  C   UNL A   1      40.487  29.299  30.207  1.00  0.00     0.074 A 
ATOM     59  C   UNL A   1      39.243  29.586  29.545  1.00  0.00     0.031 C 
ATOM     60  C   UNL A   1      40.958  33.950  34.305  1.00  0.00     0.029 A 
ATOM     61  C   UNL A   1      40.755  32.768  35.087  1.00  0.00     0.049 A 
ATOM     62  H   UNL A   1      38.830  31.853  35.278  1.00  0.00     0.167 HD
ATOM     63  C   UNL A   1      41.622  28.622  29.737  1.00  0.00     0.034 A 
ATOM     64  C   UNL A   1      41.377  32.642  36.256  1.00  0.00     0.034 A 
ATOM     65  C   UNL A   1      42.759  28.527  30.712  1.00  0.00     0.049 A 
ATOM     66  C   UNL A   1      42.285  31.419  36.064  1.00  0.00     0.074 A 
ATOM     67  C   UNL A   1      44.135  28.735  30.599  1.00  0.00     0.029 A 
ATOM     68  N   UNL A   1      42.554  28.335  32.093  1.00  0.00    -0.354 N 
ATOM     69  N   UNL A   1      42.526  30.773  34.916  1.00  0.00    -0.248 NA
ATOM     70  C   UNL A   1      43.135  30.937  37.140  1.00  0.00     0.031 C 
ATOM     71  C   UNL A   1      44.700  28.859  31.901  1.00  0.00     0.029 A 
ATOM     72  C   UNL A   1      43.679  28.718  32.838  1.00  0.00     0.049 A 
ATOM     73  H   UNL A   1      41.725  27.977  32.485  1.00  0.00     0.167 HD
ATOM     74  C   UNL A   1      43.406  29.699  35.147  1.00  0.00     0.074 A 
ATOM     75  C   UNL A   1      43.822  29.959  36.529  1.00  0.00     0.031 C 
ATOM     76  C   UNL A   1      43.765  28.641  34.301  1.00  0.00     0.034 A 
BRANCH  63  77
ATOM     77  C   UNL A   1      41.887  28.150  28.201  1.00  0.00     0.023 A 
ATOM     78  C   UNL A   1      42.866  27.153  27.893  1.00  0.00     0.031 A 
ATOM     79  C   UNL A   1      41.253  28.609  27.020  1.00  0.00     0.131 A 
ATOM     80  C   UNL A   1      43.234  26.755  26.574  1.00  0.00     0.055 A 
ATOM     81  C   UNL A   1      41.591  28.197  25.703  1.00  0.00     0.041 A 
ATOM     82  F   UNL A   1      40.207  29.435  27.030  1.00  0.00    -0.206 F 
ATOM     83  C   UNL A   1      42.592  27.275  25.468  1.00  0.00     0.022 A 
BRANCH  80  84
ATOM     84  S   UNL A   1      44.579  25.543  26.321  1.00  0.00     0.124 S 
ATOM     85  O   UNL A   1      45.768  26.329  26.630  1.00  0.00    -0.237 OA
ATOM     86  O   UNL A   1      44.238  24.488  27.268  1.00  0.00    -0.237 OA
ATOM     87  O   UNL A   1      44.444  25.167  24.913  1.00  0.00    -0.744 OA
ENDBRANCH  80  84
ENDBRANCH  63  77
BRANCH  64  88
ATOM     88  C   UNL A   1      40.642  33.496  37.293  1.00  0.00     0.023 A 
ATOM     89  C   UNL A   1      39.287  33.107  37.583  1.00  0.00     0.031 A 
ATOM     90  C   UNL A   1      41.411  33.852  38.426  1.00  0.00     0.131 A 
ATOM     91  C   UNL A   1      38.893  32.758  38.907  1.00  0.00     0.055 A 
ATOM     92  C   UNL A   1      41.009  33.512  39.738  1.00  0.00     0.041 A 
ATOM     93  F   UNL A   1      42.690  34.222  38.267  1.00  0.00    -0.206 F 
ATOM     94  C   UNL A   1      39.779  32.904  39.973  1.00  0.00     0.022 A 
BRANCH  91  95
ATOM     95  S   UNL A   1      37.359  31.791  39.226  1.00  0.00     0.124 S 
ATOM     96  O   UNL A   1      37.693  31.079  40.454  1.00  0.00    -0.237 OA
ATOM     97  O   UNL A   1      36.337  32.824  39.341  1.00  0.00    -0.237 OA
ATOM     98  O   UNL A   1      37.243  30.955  38.029  1.00  0.00    -0.744 OA
ENDBRANCH  91  95
ENDBRANCH  64  88
BRANCH  76  99
ATOM     99  C   UNL A   1      44.388  27.303  34.758  1.00  0.00     0.023 A 
ATOM    100  C   UNL A   1      43.829  26.062  34.469  1.00  0.00     0.031 A 
ATOM    101  C   UNL A   1      45.666  27.233  35.402  1.00  0.00     0.131 A 
ATOM    102  C   UNL A   1      44.456  24.863  34.849  1.00  0.00     0.055 A 
ATOM    103  C   UNL A   1      46.317  26.041  35.724  1.00  0.00     0.041 A 
ATOM    104  F   UNL A   1      46.396  28.314  35.711  1.00  0.00    -0.206 F 
ATOM    105  C   UNL A   1      45.708  24.837  35.450  1.00  0.00     0.022 A 
BRANCH 102 106
ATOM    106  S   UNL A   1      43.552  23.332  34.544  1.00  0.00     0.124 S 
ATOM    107  O   UNL A   1      42.263  23.622  35.165  1.00  0.00    -0.237 OA
ATOM    108  O   UNL A   1      43.549  23.260  33.086  1.00  0.00    -0.237 OA
ATOM    109  O   UNL A   1      44.357  22.318  35.218  1.00  0.00    -0.744 OA
ENDBRANCH 102 106
ENDBRANCH  76  99
ENDBRANCH  50  51
ENDBRANCH  43  45
ENDBRANCH  42  43
ENDBRANCH  41  42
ENDBRANCH  40  41
ENDBRANCH  39  40
ENDBRANCH  38  39
ENDBRANCH  37  38
ENDBRANCH  36  37
ENDBRANCH   1  36
TORSDOF 27
ENDMDL
MODEL 2
REMARK VINA RESULT:     -10.6      1.739      2.441
REMARK SMILES Cc1ccccc1/[NH+]=C1\S[C@@H](CC(=O)Nc2ccc(C(=O)OCCOCCOCCOCCOC(=O)c3ccc(-c4c5nc(c(-c6cc(S(=O)(=O)[O-])ccc6F)c6ccc([nH]6)c(-c6cc(S(=O)(=O)[O-])ccc6F)c6nc(c(-c7cc(S(=O)(=O)[O-])ccc7F)c7ccc4[nH]7)C=C6)C=C5)cc3)cc2)C(=O)N1C
REMARK SMILES IDX 27 1 26 2 25 3 24 4 23 5 22 6 20 7 21 8 19 9 16 10 17 11
REMARK SMILES IDX 101 12 18 13 100 14 15 15 13 16 14 17 12 19 11 20 8 21 9 22
REMARK SMILES IDX 10 24 104 25 102 26 105 27 103 28 7 29 1 30 2 31 3 32 4 33
REMARK SMILES IDX 6 34 5 35 28 36 29 37 30 38 31 39 32 40 33 41 34 42 35 43
REMARK SMILES IDX 36 44 37 45 38 46 99 47 39 48 98 49 40 50 41 51 42 52 92 53
REMARK SMILES IDX 43 54 97 55 91 56 93 57 44 58 96 59 90 60 89 61 45 63 77 64
REMARK SMILES IDX 57 65 76 66 58 67 61 68 75 69 94 70 59 71 60 72 74 74 95 75
REMARK SMILES IDX 62 76 46 77 47 78 55 79 48 80 54 81 56 82 53 83 49 84 50 85
REMARK SMILES IDX 51 86 52 87 78 88 79 89 87 90 80 91 86 92 88 93 85 94 81 95
REMARK SMILES IDX 82 96 83 97 84 98 63 99 64 100 72 101 65 102 71 103 73 104
REMARK SMILES IDX 70 105 66 106 67 107 68 108 69 109
REMARK H PARENT 15 18 8 23 93 62 61 73
REMARK Flexibility Score: inf
ROOT
ATOM      1  C   UNL A   1      34.095  29.434  27.169  1.00  0.00     0.188 C 
ENDROOT
BRANCH   1   2
ATOM      2  C   UNL A   1      33.412  29.668  25.796  1.00  0.00     0.188 C 
BRANCH   2   3
ATOM      3  O   UNL A   1      32.063  29.197  25.890  1.00  0.00    -0.376 OA
BRANCH   3   4
ATOM      4  C   UNL A   1      31.111  29.871  25.097  1.00  0.00     0.202 C 
BRANCH   4   5
ATOM      5  C   UNL A   1      30.701  29.280  23.822  1.00  0.00     0.261 C 
BRANCH   5   6
ATOM      6  O   UNL A   1      30.070  28.060  23.974  1.00  0.00    -0.460 OA
BRANCH   6   7
ATOM      7  C   UNL A   1      30.451  27.205  23.023  1.00  0.00     0.338 C 
ATOM      8  O   UNL A   1      30.791  27.432  21.857  1.00  0.00    -0.246 OA
BRANCH   7   9
ATOM      9  C   UNL A   1      30.763  26.017  23.785  1.00  0.00     0.060 A 
ATOM     10  C   UNL A   1      30.897  23.624  25.070  1.00  0.00     0.041 A 
ATOM     11  C   UNL A   1      30.649  23.705  23.739  1.00  0.00     0.027 A 
ATOM     12  C   UNL A   1      30.733  24.777  25.831  1.00  0.00     0.027 A 
ATOM     13  C   UNL A   1      30.904  24.838  23.070  1.00  0.00     0.018 A 
ATOM     14  C   UNL A   1      30.574  25.994  25.162  1.00  0.00     0.018 A 
BRANCH  10  15
ATOM     15  N   UNL A   1      31.319  22.375  25.527  1.00  0.00    -0.326 N 
ATOM     16  C   UNL A   1      32.093  21.449  24.829  1.00  0.00     0.226 C 
ATOM     17  O   UNL A   1      32.241  20.322  25.317  1.00  0.00    -0.275 OA
ATOM     18  H   UNL A   1      31.040  22.119  26.436  1.00  0.00     0.169 HD
BRANCH  16  19
ATOM     19  C   UNL A   1      32.906  21.822  23.550  1.00  0.00     0.128 C 
BRANCH  19  20
ATOM     20  C   UNL A   1      34.313  22.402  23.782  1.00  0.00     0.183 C 
ATOM     21  N   UNL A   1      36.917  24.101  25.716  1.00  0.00    -0.234 N 
ATOM     22  C   UNL A   1      35.741  23.657  25.461  1.00  0.00     0.319 C 
ATOM     23  H   UNL A   1      37.005  25.073  25.583  1.00  0.00     0.313 HD
ATOM     24  S   UNL A   1      34.912  22.136  25.528  1.00  0.00    -0.022 SA
ATOM     25  N   UNL A   1      34.903  24.476  24.794  1.00  0.00    -0.193 N 
ATOM     26  C   UNL A   1      34.453  23.916  23.630  1.00  0.00     0.324 C 
ATOM     27  C   UNL A   1      34.268  25.575  25.470  1.00  0.00     0.301 C 
ATOM     28  O   UNL A   1      34.195  24.523  22.598  1.00  0.00    -0.245 OA
BRANCH  21  29
ATOM     29  C   UNL A   1      38.098  23.492  26.144  1.00  0.00     0.128 A 
ATOM     30  C   UNL A   1      38.841  25.161  27.950  1.00  0.00     0.049 C 
ATOM     31  C   UNL A   1      39.001  23.923  27.128  1.00  0.00    -0.004 A 
ATOM     32  C   UNL A   1      40.125  23.131  27.438  1.00  0.00     0.008 A 
ATOM     33  C   UNL A   1      40.282  21.855  26.912  1.00  0.00     0.001 A 
ATOM     34  C   UNL A   1      38.262  22.178  25.654  1.00  0.00     0.052 A 
ATOM     35  C   UNL A   1      39.323  21.358  26.045  1.00  0.00     0.004 A 
ENDBRANCH  21  29
ENDBRANCH  19  20
ENDBRANCH  16  19
ENDBRANCH  10  15
ENDBRANCH   7   9
ENDBRANCH   6   7
ENDBRANCH   5   6
ENDBRANCH   4   5
ENDBRANCH   3   4
ENDBRANCH   2   3
ENDBRANCH   1   2
BRANCH   1  36
ATOM     36  O   UNL A   1      34.949  30.469  27.664  1.00  0.00    -0.377 OA
BRANCH  36  37
ATOM     37  C   UNL A   1      34.625  31.854  27.854  1.00  0.00     0.188 C 
BRANCH  37  38
ATOM     38  C   UNL A   1      35.668  32.977  27.860  1.00  0.00     0.188 C 
BRANCH  38  39
ATOM     39  O   UNL A   1      35.210  34.172  28.467  1.00  0.00    -0.376 OA
BRANCH  39  40
ATOM     40  C   UNL A   1      33.845  34.458  28.214  1.00  0.00     0.202 C 
BRANCH  40  41
ATOM     41  C   UNL A   1      33.194  35.351  29.288  1.00  0.00     0.261 C 
BRANCH  41  42
ATOM     42  O   UNL A   1      34.007  35.374  30.482  1.00  0.00    -0.460 OA
BRANCH  42  43
ATOM     43  C   UNL A   1      33.376  35.041  31.645  1.00  0.00     0.338 C 
ATOM     44  O   UNL A   1      32.524  35.713  32.200  1.00  0.00    -0.246 OA
BRANCH  43  45
ATOM     45  C   UNL A   1      34.021  33.829  32.236  1.00  0.00     0.060 A 
ATOM     46  C   UNL A   1      34.520  33.890  33.541  1.00  0.00     0.016 A 
ATOM     47  C   UNL A   1      34.473  32.838  31.368  1.00  0.00     0.016 A 
ATOM     48  C   UNL A   1      35.636  33.118  33.877  1.00  0.00     0.010 A 
ATOM     49  C   UNL A   1      35.689  32.231  31.644  1.00  0.00     0.010 A 
ATOM     50  C   UNL A   1      36.322  32.399  32.878  1.00  0.00    -0.014 A 
BRANCH  50  51
ATOM     51  C   UNL A   1      37.763  32.048  33.074  1.00  0.00     0.031 A 
ATOM     52  C   UNL A   1      38.467  30.901  32.226  1.00  0.00     0.074 A 
ATOM     53  C   UNL A   1      38.410  33.045  33.741  1.00  0.00     0.049 A 
ATOM     54  N   UNL A   1      39.664  30.347  32.290  1.00  0.00    -0.248 NA
ATOM     55  C   UNL A   1      37.664  30.203  31.217  1.00  0.00     0.031 C 
ATOM     56  C   UNL A   1      38.897  34.367  33.324  1.00  0.00     0.029 A 
ATOM     57  N   UNL A   1      38.688  33.110  35.091  1.00  0.00    -0.354 N 
ATOM     58  C   UNL A   1      39.847  29.448  31.177  1.00  0.00     0.074 A 
ATOM     59  C   UNL A   1      38.520  29.370  30.630  1.00  0.00     0.031 C 
ATOM     60  C   UNL A   1      39.760  34.875  34.206  1.00  0.00     0.029 A 
ATOM     61  C   UNL A   1      39.857  33.870  35.221  1.00  0.00     0.049 A 
ATOM     62  H   UNL A   1      38.167  32.701  35.821  1.00  0.00     0.167 HD
ATOM     63  C   UNL A   1      41.048  28.891  30.710  1.00  0.00     0.034 A 
ATOM     64  C   UNL A   1      40.588  34.105  36.307  1.00  0.00     0.034 A 
ATOM     65  C   UNL A   1      42.260  29.201  31.538  1.00  0.00     0.049 A 
ATOM     66  C   UNL A   1      41.696  33.043  36.245  1.00  0.00     0.074 A 
ATOM     67  C   UNL A   1      43.556  29.613  31.218  1.00  0.00     0.029 A 
ATOM     68  N   UNL A   1      42.215  29.276  32.944  1.00  0.00    -0.354 N 
ATOM     69  N   UNL A   1      41.958  32.218  35.223  1.00  0.00    -0.248 NA
ATOM     70  C   UNL A   1      42.711  32.954  37.281  1.00  0.00     0.031 C 
ATOM     71  C   UNL A   1      44.195  30.107  32.392  1.00  0.00     0.029 A 
ATOM     72  C   UNL A   1      43.304  29.996  33.457  1.00  0.00     0.049 A 
ATOM     73  H   UNL A   1      41.507  28.874  33.497  1.00  0.00     0.167 HD
ATOM     74  C   UNL A   1      43.045  31.385  35.547  1.00  0.00     0.074 A 
ATOM     75  C   UNL A   1      43.520  32.000  36.791  1.00  0.00     0.031 C 
ATOM     76  C   UNL A   1      43.528  30.249  34.885  1.00  0.00     0.034 A 
BRANCH  63  77
ATOM     77  C   UNL A   1      41.266  28.154  29.274  1.00  0.00     0.023 A 
ATOM     78  C   UNL A   1      42.073  26.978  29.163  1.00  0.00     0.031 A 
ATOM     79  C   UNL A   1      40.747  28.525  28.010  1.00  0.00     0.131 A 
ATOM     80  C   UNL A   1      42.401  26.330  27.936  1.00  0.00     0.055 A 
ATOM     81  C   UNL A   1      41.043  27.868  26.785  1.00  0.00     0.041 A 
ATOM     82  F   UNL A   1      39.853  29.500  27.848  1.00  0.00    -0.206 F 
ATOM     83  C   UNL A   1      41.881  26.772  26.736  1.00  0.00     0.022 A 
BRANCH  80  84
ATOM     84  S   UNL A   1      43.531  24.893  27.928  1.00  0.00     0.124 S 
ATOM     85  O   UNL A   1      43.070  24.128  29.082  1.00  0.00    -0.237 OA
ATOM     86  O   UNL A   1      43.282  24.300  26.620  1.00  0.00    -0.237 OA
ATOM     87  O   UNL A   1      44.856  25.495  28.084  1.00  0.00    -0.744 OA
ENDBRANCH  80  84
ENDBRANCH  63  77
BRANCH  64  88
ATOM     88  C   UNL A   1      39.794  35.021  37.241  1.00  0.00     0.023 A 
ATOM     89  C   UNL A   1      39.038  34.365  38.275  1.00  0.00     0.031 A 
ATOM     90  C   UNL A   1      40.479  36.187  37.658  1.00  0.00     0.131 A 
ATOM     91  C   UNL A   1      39.273  34.655  39.650  1.00  0.00     0.055 A 
ATOM     92  C   UNL A   1      40.700  36.475  39.024  1.00  0.00     0.041 A 
ATOM     93  F   UNL A   1      41.220  36.871  36.773  1.00  0.00    -0.206 F 
ATOM     94  C   UNL A   1      40.153  35.671  40.021  1.00  0.00     0.022 A 
BRANCH  91  95
ATOM     95  S   UNL A   1      38.718  33.509  40.980  1.00  0.00     0.124 S 
ATOM     96  O   UNL A   1      39.984  33.043  41.533  1.00  0.00    -0.237 OA
ATOM     97  O   UNL A   1      37.919  34.369  41.843  1.00  0.00    -0.237 OA
ATOM     98  O   UNL A   1      37.947  32.503  40.245  1.00  0.00    -0.744 OA
ENDBRANCH  91  95
ENDBRANCH  64  88
BRANCH  76  99
ATOM     99  C   UNL A   1      44.433  29.165  35.513  1.00  0.00     0.023 A 
ATOM    100  C   UNL A   1      43.939  28.024  36.137  1.00  0.00     0.031 A 
ATOM    101  C   UNL A   1      45.860  29.188  35.379  1.00  0.00     0.131 A 
ATOM    102  C   UNL A   1      44.794  27.029  36.642  1.00  0.00     0.055 A 
ATOM    103  C   UNL A   1      46.705  28.171  35.827  1.00  0.00     0.041 A 
ATOM    104  F   UNL A   1      46.527  30.169  34.756  1.00  0.00    -0.206 F 
ATOM    105  C   UNL A   1      46.172  27.077  36.471  1.00  0.00     0.022 A 
BRANCH 102 106
ATOM    106  S   UNL A   1      44.029  25.677  37.558  1.00  0.00     0.124 S 
ATOM    107  O   UNL A   1      43.299  24.982  36.502  1.00  0.00    -0.237 OA
ATOM    108  O   UNL A   1      45.189  24.972  38.094  1.00  0.00    -0.237 OA
ATOM    109  O   UNL A   1      43.199  26.360  38.547  1.00  0.00    -0.744 OA
ENDBRANCH 102 106
ENDBRANCH  76  99
ENDBRANCH  50  51
ENDBRANCH  43  45
ENDBRANCH  42  43
ENDBRANCH  41  42
ENDBRANCH  40  41
ENDBRANCH  39  40
ENDBRANCH  38  39
ENDBRANCH  37  38
ENDBRANCH  36  37
ENDBRANCH   1  36
TORSDOF 27
ENDMDL
MODEL 3
REMARK VINA RESULT:     -10.6      2.282      3.963
REMARK SMILES Cc1ccccc1/[NH+]=C1\S[C@@H](CC(=O)Nc2ccc(C(=O)OCCOCCOCCOCCOC(=O)c3ccc(-c4c5nc(c(-c6cc(S(=O)(=O)[O-])ccc6F)c6ccc([nH]6)c(-c6cc(S(=O)(=O)[O-])ccc6F)c6nc(c(-c7cc(S(=O)(=O)[O-])ccc7F)c7ccc4[nH]7)C=C6)C=C5)cc3)cc2)C(=O)N1C
REMARK SMILES IDX 27 1 26 2 25 3 24 4 23 5 22 6 20 7 21 8 19 9 16 10 17 11
REMARK SMILES IDX 101 12 18 13 100 14 15 15 13 16 14 17 12 19 11 20 8 21 9 22
REMARK SMILES IDX 10 24 104 25 102 26 105 27 103 28 7 29 1 30 2 31 3 32 4 33
REMARK SMILES IDX 6 34 5 35 28 36 29 37 30 38 31 39 32 40 33 41 34 42 35 43
REMARK SMILES IDX 36 44 37 45 38 46 99 47 39 48 98 49 40 50 41 51 42 52 92 53
REMARK SMILES IDX 43 54 97 55 91 56 93 57 44 58 96 59 90 60 89 61 45 63 77 64
REMARK SMILES IDX 57 65 76 66 58 67 61 68 75 69 94 70 59 71 60 72 74 74 95 75
REMARK SMILES IDX 62 76 46 77 47 78 55 79 48 80 54 81 56 82 53 83 49 84 50 85
REMARK SMILES IDX 51 86 52 87 78 88 79 89 87 90 80 91 86 92 88 93 85 94 81 95
REMARK SMILES IDX 82 96 83 97 84 98 63 99 64 100 72 101 65 102 71 103 73 104
REMARK SMILES IDX 70 105 66 106 67 107 68 108 69 109
REMARK H PARENT 15 18 8 23 93 62 61 73
REMARK Flexibility Score: inf
ROOT
ATOM      1  C   UNL A   1      31.885  28.620  25.911  1.00  0.00     0.188 C 
ENDROOT
BRANCH   1   2
ATOM      2  C   UNL A   1      31.304  27.755  27.061  1.00  0.00     0.188 C 
BRANCH   2   3
ATOM      3  O   UNL A   1      31.221  26.404  26.597  1.00  0.00    -0.376 OA
BRANCH   3   4
ATOM      4  C   UNL A   1      29.983  26.007  26.050  1.00  0.00     0.202 C 
BRANCH   4   5
ATOM      5  C   UNL A   1      29.726  26.243  24.628  1.00  0.00     0.261 C 
BRANCH   5   6
ATOM      6  O   UNL A   1      30.278  25.272  23.815  1.00  0.00    -0.460 OA
BRANCH   6   7
ATOM      7  C   UNL A   1      31.114  25.814  22.927  1.00  0.00     0.338 C 
ATOM      8  O   UNL A   1      30.991  26.853  22.269  1.00  0.00    -0.246 OA
BRANCH   7   9
ATOM      9  C   UNL A   1      32.355  25.132  23.217  1.00  0.00     0.060 A 
ATOM     10  C   UNL A   1      34.905  24.245  23.543  1.00  0.00     0.041 A 
ATOM     11  C   UNL A   1      34.509  25.460  23.998  1.00  0.00     0.027 A 
ATOM     12  C   UNL A   1      34.098  23.612  22.605  1.00  0.00     0.027 A 
ATOM     13  C   UNL A   1      33.205  25.745  24.123  1.00  0.00     0.018 A 
ATOM     14  C   UNL A   1      32.819  24.127  22.376  1.00  0.00     0.018 A 
BRANCH  10  15
ATOM     15  N   UNL A   1      36.089  23.754  24.096  1.00  0.00    -0.326 N 
ATOM     16  C   UNL A   1      36.338  23.503  25.444  1.00  0.00     0.226 C 
ATOM     17  O   UNL A   1      37.494  23.223  25.784  1.00  0.00    -0.275 OA
ATOM     18  H   UNL A   1      36.824  23.565  23.469  1.00  0.00     0.169 HD
BRANCH  16  19
ATOM     19  C   UNL A   1      35.202  23.404  26.509  1.00  0.00     0.128 C 
BRANCH  19  20
ATOM     20  C   UNL A   1      34.434  22.070  26.564  1.00  0.00     0.183 C 
ATOM     21  N   UNL A   1      32.140  19.515  25.292  1.00  0.00    -0.234 N 
ATOM     22  C   UNL A   1      32.753  20.642  25.313  1.00  0.00     0.319 C 
ATOM     23  H   UNL A   1      31.202  19.574  25.587  1.00  0.00     0.313 HD
ATOM     24  S   UNL A   1      34.324  21.245  24.896  1.00  0.00    -0.022 SA
ATOM     25  N   UNL A   1      32.163  21.653  25.980  1.00  0.00    -0.193 N 
ATOM     26  C   UNL A   1      32.962  22.155  26.969  1.00  0.00     0.324 C 
ATOM     27  C   UNL A   1      31.043  22.349  25.405  1.00  0.00     0.301 C 
ATOM     28  O   UNL A   1      32.576  22.609  28.039  1.00  0.00    -0.245 OA
BRANCH  21  29
ATOM     29  C   UNL A   1      32.528  18.222  24.937  1.00  0.00     0.128 A 
ATOM     30  C   UNL A   1      32.668  18.473  22.385  1.00  0.00     0.049 C 
ATOM     31  C   UNL A   1      32.768  17.697  23.658  1.00  0.00    -0.004 A 
ATOM     32  C   UNL A   1      33.192  16.360  23.521  1.00  0.00     0.008 A 
ATOM     33  C   UNL A   1      33.537  15.591  24.625  1.00  0.00     0.001 A 
ATOM     34  C   UNL A   1      32.921  17.431  26.039  1.00  0.00     0.052 A 
ATOM     35  C   UNL A   1      33.440  16.143  25.891  1.00  0.00     0.004 A 
ENDBRANCH  21  29
ENDBRANCH  19  20
ENDBRANCH  16  19
ENDBRANCH  10  15
ENDBRANCH   7   9
ENDBRANCH   6   7
ENDBRANCH   5   6
ENDBRANCH   4   5
ENDBRANCH   3   4
ENDBRANCH   2   3
ENDBRANCH   1   2
BRANCH   1  36
ATOM     36  O   UNL A   1      31.122  29.753  25.491  1.00  0.00    -0.377 OA
BRANCH  36  37
ATOM     37  C   UNL A   1      31.397  31.138  25.749  1.00  0.00     0.188 C 
BRANCH  37  38
ATOM     38  C   UNL A   1      31.905  31.665  27.095  1.00  0.00     0.188 C 
BRANCH  38  39
ATOM     39  O   UNL A   1      31.743  33.064  27.252  1.00  0.00    -0.376 OA
BRANCH  39  40
ATOM     40  C   UNL A   1      32.921  33.737  27.665  1.00  0.00     0.202 C 
BRANCH  40  41
ATOM     41  C   UNL A   1      32.653  34.919  28.615  1.00  0.00     0.261 C 
BRANCH  41  42
ATOM     42  O   UNL A   1      33.889  35.378  29.206  1.00  0.00    -0.460 OA
BRANCH  42  43
ATOM     43  C   UNL A   1      34.305  34.711  30.322  1.00  0.00     0.338 C 
ATOM     44  O   UNL A   1      34.238  35.138  31.462  1.00  0.00    -0.246 OA
BRANCH  43  45
ATOM     45  C   UNL A   1      35.029  33.467  29.921  1.00  0.00     0.060 A 
ATOM     46  C   UNL A   1      34.869  32.308  30.686  1.00  0.00     0.016 A 
ATOM     47  C   UNL A   1      36.131  33.593  29.077  1.00  0.00     0.016 A 
ATOM     48  C   UNL A   1      35.933  31.406  30.783  1.00  0.00     0.010 A 
ATOM     49  C   UNL A   1      37.243  32.805  29.333  1.00  0.00     0.010 A 
ATOM     50  C   UNL A   1      37.186  31.733  30.227  1.00  0.00    -0.014 A 
BRANCH  50  51
ATOM     51  C   UNL A   1      38.428  31.098  30.770  1.00  0.00     0.031 A 
ATOM     52  C   UNL A   1      39.153  29.900  30.015  1.00  0.00     0.074 A 
ATOM     53  C   UNL A   1      39.003  31.902  31.707  1.00  0.00     0.049 A 
ATOM     54  N   UNL A   1      40.170  29.123  30.338  1.00  0.00    -0.248 NA
ATOM     55  C   UNL A   1      38.580  29.443  28.744  1.00  0.00     0.031 C 
ATOM     56  C   UNL A   1      39.801  33.132  31.608  1.00  0.00     0.029 A 
ATOM     57  N   UNL A   1      38.878  31.816  33.079  1.00  0.00    -0.354 N 
ATOM     58  C   UNL A   1      40.523  28.287  29.217  1.00  0.00     0.074 A 
ATOM     59  C   UNL A   1      39.423  28.505  28.319  1.00  0.00     0.031 C 
ATOM     60  C   UNL A   1      40.437  33.400  32.751  1.00  0.00     0.029 A 
ATOM     61  C   UNL A   1      40.064  32.326  33.620  1.00  0.00     0.049 A 
ATOM     62  H   UNL A   1      38.105  31.464  33.579  1.00  0.00     0.167 HD
ATOM     63  C   UNL A   1      41.700  27.544  29.036  1.00  0.00     0.034 A 
ATOM     64  C   UNL A   1      40.470  32.337  34.887  1.00  0.00     0.034 A 
ATOM     65  C   UNL A   1      42.648  27.555  30.200  1.00  0.00     0.049 A 
ATOM     66  C   UNL A   1      41.357  31.089  35.004  1.00  0.00     0.074 A 
ATOM     67  C   UNL A   1      44.029  27.732  30.305  1.00  0.00     0.029 A 
ATOM     68  N   UNL A   1      42.203  27.537  31.537  1.00  0.00    -0.354 N 
ATOM     69  N   UNL A   1      41.771  30.304  34.001  1.00  0.00    -0.248 NA
ATOM     70  C   UNL A   1      41.993  30.733  36.261  1.00  0.00     0.031 C 
ATOM     71  C   UNL A   1      44.365  28.009  31.662  1.00  0.00     0.029 A 
ATOM     72  C   UNL A   1      43.195  27.996  32.416  1.00  0.00     0.049 A 
ATOM     73  H   UNL A   1      41.307  27.240  31.817  1.00  0.00     0.167 HD
ATOM     74  C   UNL A   1      42.561  29.257  34.508  1.00  0.00     0.074 A 
ATOM     75  C   UNL A   1      42.742  29.679  35.900  1.00  0.00     0.031 C 
ATOM     76  C   UNL A   1      43.025  28.099  33.870  1.00  0.00     0.034 A 
BRANCH  63  77
ATOM     77  C   UNL A   1      42.209  26.882  27.638  1.00  0.00     0.023 A 
ATOM     78  C   UNL A   1      42.226  25.464  27.455  1.00  0.00     0.031 A 
ATOM     79  C   UNL A   1      42.682  27.542  26.477  1.00  0.00     0.131 A 
ATOM     80  C   UNL A   1      42.749  24.798  26.307  1.00  0.00     0.055 A 
ATOM     81  C   UNL A   1      43.178  26.888  25.317  1.00  0.00     0.041 A 
ATOM     82  F   UNL A   1      42.642  28.865  26.325  1.00  0.00    -0.206 F 
ATOM     83  C   UNL A   1      43.226  25.512  25.226  1.00  0.00     0.022 A 
BRANCH  80  84
ATOM     84  S   UNL A   1      42.804  22.972  26.250  1.00  0.00     0.124 S 
ATOM     85  O   UNL A   1      42.924  22.709  24.820  1.00  0.00    -0.237 OA
ATOM     86  O   UNL A   1      43.974  22.663  27.063  1.00  0.00    -0.237 OA
ATOM     87  O   UNL A   1      41.526  22.569  26.840  1.00  0.00    -0.744 OA
ENDBRANCH  80  84
ENDBRANCH  63  77
BRANCH  64  88
ATOM     88  C   UNL A   1      39.597  33.321  35.670  1.00  0.00     0.023 A 
ATOM     89  C   UNL A   1      38.480  32.749  36.374  1.00  0.00     0.031 A 
ATOM     90  C   UNL A   1      40.310  34.307  36.393  1.00  0.00     0.131 A 
ATOM     91  C   UNL A   1      38.351  32.897  37.785  1.00  0.00     0.055 A 
ATOM     92  C   UNL A   1      40.169  34.456  37.791  1.00  0.00     0.041 A 
ATOM     93  F   UNL A   1      41.374  34.899  35.830  1.00  0.00    -0.206 F 
ATOM     94  C   UNL A   1      39.235  33.703  38.499  1.00  0.00     0.022 A 
BRANCH  91  95
ATOM     95  S   UNL A   1      37.259  31.787  38.769  1.00  0.00     0.124 S 
ATOM     96  O   UNL A   1      37.969  31.703  40.039  1.00  0.00    -0.237 OA
ATOM     97  O   UNL A   1      35.991  32.506  38.790  1.00  0.00    -0.237 OA
ATOM     98  O   UNL A   1      37.243  30.555  37.976  1.00  0.00    -0.744 OA
ENDBRANCH  91  95
ENDBRANCH  64  88
BRANCH  76  99
ATOM     99  C   UNL A   1      43.515  26.819  34.585  1.00  0.00     0.023 A 
ATOM    100  C   UNL A   1      44.834  26.624  34.984  1.00  0.00     0.031 A 
ATOM    101  C   UNL A   1      42.615  25.790  35.015  1.00  0.00     0.131 A 
ATOM    102  C   UNL A   1      45.230  25.473  35.687  1.00  0.00     0.055 A 
ATOM    103  C   UNL A   1      42.998  24.678  35.766  1.00  0.00     0.041 A 
ATOM    104  F   UNL A   1      41.295  25.821  34.784  1.00  0.00    -0.206 F 
ATOM    105  C   UNL A   1      44.322  24.509  36.106  1.00  0.00     0.022 A 
BRANCH 102 106
ATOM    106  S   UNL A   1      46.993  25.277  36.011  1.00  0.00     0.124 S 
ATOM    107  O   UNL A   1      47.085  25.692  37.407  1.00  0.00    -0.237 OA
ATOM    108  O   UNL A   1      47.196  23.853  35.760  1.00  0.00    -0.237 OA
ATOM    109  O   UNL A   1      47.622  26.177  35.048  1.00  0.00    -0.744 OA
ENDBRANCH 102 106
ENDBRANCH  76  99
ENDBRANCH  50  51
ENDBRANCH  43  45
ENDBRANCH  42  43
ENDBRANCH  41  42
ENDBRANCH  40  41
ENDBRANCH  39  40
ENDBRANCH  38  39
ENDBRANCH  37  38
ENDBRANCH  36  37
ENDBRANCH   1  36
TORSDOF 27
ENDMDL
