MODEL 1
REMARK VINA RESULT:      -9.7      0.000      0.000
REMARK SMILES O=C(OCCOCCOCCOCCOC(=O)[C@H]1CCCN(c2nc(-c3ccco3)cc(C(F)(F)F)n2)C1)c1ccc(-c2c3nc(c(-c4cc(S(=O)(=O)[O-])ccc4F)c4ccc([nH]4)c(-c4cc(S(=O)(=O)[O-])ccc4F)c4nc(c(-c5cc(S(=O)(=O)[O-])ccc5F)c5ccc2[nH]5)C=C4)C=C3)cc1
REMARK SMILES IDX 8 1 7 2 6 3 5 4 4 5 3 6 2 7 1 8 39 9 40 10 101 11 41 12
REMARK SMILES IDX 100 13 42 14 43 15 44 16 94 17 45 18 99 19 93 20 95 21 46 22
REMARK SMILES IDX 98 23 92 24 91 25 47 27 79 28 59 29 78 30 60 31 63 32 77 33
REMARK SMILES IDX 96 34 61 35 62 36 76 38 97 39 64 40 48 41 49 42 57 43 50 44
REMARK SMILES IDX 56 45 58 46 55 47 51 48 52 49 53 50 54 51 80 52 81 53 89 54
REMARK SMILES IDX 82 55 88 56 90 57 87 58 83 59 84 60 85 61 86 62 65 63 66 64
REMARK SMILES IDX 74 65 67 66 73 67 75 68 72 69 68 70 69 71 70 72 71 73 9 74
REMARK SMILES IDX 10 75 11 76 12 77 13 78 14 79 15 80 16 81 17 82 18 83 19 84
REMARK SMILES IDX 38 85 20 86 22 87 21 88 23 89 24 90 37 91 25 92 32 93 31 94
REMARK SMILES IDX 26 95 27 96 30 97 28 98 29 99 33 100 34 101 35 102 36 103
REMARK H PARENT 95 26 63 37
REMARK Flexibility Score: inf
ROOT
ATOM      1  C   UNL A   1      49.551  22.433  39.813  1.00  0.00     0.188 C 
ENDROOT
BRANCH   1   2
ATOM      2  C   UNL A   1      49.728  23.921  39.494  1.00  0.00     0.188 C 
BRANCH   2   3
ATOM      3  O   UNL A   1      49.530  24.177  38.109  1.00  0.00    -0.376 OA
BRANCH   3   4
ATOM      4  C   UNL A   1      48.209  24.487  37.663  1.00  0.00     0.202 C 
BRANCH   4   5
ATOM      5  C   UNL A   1      48.122  25.188  36.310  1.00  0.00     0.261 C 
BRANCH   5   6
ATOM      6  O   UNL A   1      48.120  26.626  36.391  1.00  0.00    -0.460 OA
BRANCH   6   7
ATOM      7  C   UNL A   1      47.083  27.456  36.666  1.00  0.00     0.338 C 
ATOM      8  O   UNL A   1      47.083  28.075  37.730  1.00  0.00    -0.246 OA
BRANCH   7   9
ATOM      9  C   UNL A   1      45.948  27.676  35.728  1.00  0.00     0.060 A 
ATOM     10  C   UNL A   1      45.954  28.627  34.717  1.00  0.00     0.016 A 
ATOM     11  C   UNL A   1      44.838  26.822  35.803  1.00  0.00     0.016 A 
ATOM     12  C   UNL A   1      44.862  28.869  33.921  1.00  0.00     0.010 A 
ATOM     13  C   UNL A   1      43.757  26.983  34.927  1.00  0.00     0.010 A 
ATOM     14  C   UNL A   1      43.756  28.042  34.008  1.00  0.00    -0.014 A 
BRANCH  14  15
ATOM     15  C   UNL A   1      42.585  28.467  33.227  1.00  0.00     0.031 A 
ATOM     16  C   UNL A   1      41.619  29.395  33.893  1.00  0.00     0.074 A 
ATOM     17  C   UNL A   1      42.555  28.228  31.901  1.00  0.00     0.049 A 
ATOM     18  N   UNL A   1      40.508  29.899  33.436  1.00  0.00    -0.248 NA
ATOM     19  C   UNL A   1      41.964  29.835  35.258  1.00  0.00     0.031 C 
ATOM     20  C   UNL A   1      43.588  27.499  31.150  1.00  0.00     0.029 A 
ATOM     21  N   UNL A   1      41.668  28.621  30.937  1.00  0.00    -0.354 N 
ATOM     22  C   UNL A   1      40.008  30.689  34.464  1.00  0.00     0.074 A 
ATOM     23  C   UNL A   1      40.924  30.587  35.575  1.00  0.00     0.031 C 
ATOM     24  C   UNL A   1      43.288  27.531  29.842  1.00  0.00     0.029 A 
ATOM     25  C   UNL A   1      41.996  28.177  29.675  1.00  0.00     0.049 A 
ATOM     26  H   UNL A   1      40.873  29.167  31.128  1.00  0.00     0.167 HD
ATOM     27  C   UNL A   1      38.875  31.427  34.464  1.00  0.00     0.034 A 
ATOM     28  C   UNL A   1      41.287  28.242  28.531  1.00  0.00     0.034 A 
ATOM     29  C   UNL A   1      37.995  31.482  33.328  1.00  0.00     0.049 A 
ATOM     30  C   UNL A   1      39.948  28.935  28.605  1.00  0.00     0.074 A 
ATOM     31  C   UNL A   1      36.751  32.070  33.217  1.00  0.00     0.029 A 
ATOM     32  N   UNL A   1      38.285  30.915  32.088  1.00  0.00    -0.354 N 
ATOM     33  N   UNL A   1      39.403  29.567  29.623  1.00  0.00    -0.248 NA
ATOM     34  C   UNL A   1      39.128  28.918  27.394  1.00  0.00     0.031 C 
ATOM     35  C   UNL A   1      36.264  31.806  31.932  1.00  0.00     0.029 A 
ATOM     36  C   UNL A   1      37.235  31.124  31.213  1.00  0.00     0.049 A 
ATOM     37  H   UNL A   1      39.116  30.437  31.868  1.00  0.00     0.167 HD
ATOM     38  C   UNL A   1      38.178  30.035  29.166  1.00  0.00     0.074 A 
ATOM     39  C   UNL A   1      38.090  29.648  27.770  1.00  0.00     0.031 C 
ATOM     40  C   UNL A   1      37.201  30.709  29.829  1.00  0.00     0.034 A 
BRANCH  27  41
ATOM     41  C   UNL A   1      38.509  32.110  35.755  1.00  0.00     0.023 A 
ATOM     42  C   UNL A   1      38.017  31.396  36.862  1.00  0.00     0.031 A 
ATOM     43  C   UNL A   1      38.554  33.512  35.842  1.00  0.00     0.131 A 
ATOM     44  C   UNL A   1      37.523  32.090  37.978  1.00  0.00     0.055 A 
ATOM     45  C   UNL A   1      38.134  34.193  36.986  1.00  0.00     0.041 A 
ATOM     46  F   UNL A   1      38.974  34.247  34.800  1.00  0.00    -0.206 F 
ATOM     47  C   UNL A   1      37.602  33.483  38.058  1.00  0.00     0.022 A 
BRANCH  44  48
ATOM     48  S   UNL A   1      36.641  31.159  39.263  1.00  0.00     0.124 S 
ATOM     49  O   UNL A   1      36.370  29.897  38.580  1.00  0.00    -0.237 OA
ATOM     50  O   UNL A   1      37.620  31.101  40.343  1.00  0.00    -0.237 OA
ATOM     51  O   UNL A   1      35.463  31.981  39.535  1.00  0.00    -0.744 OA
ENDBRANCH  44  48
ENDBRANCH  27  41
BRANCH  28  52
ATOM     52  C   UNL A   1      41.748  27.551  27.288  1.00  0.00     0.023 A 
ATOM     53  C   UNL A   1      41.711  26.154  27.165  1.00  0.00     0.031 A 
ATOM     54  C   UNL A   1      42.331  28.280  26.230  1.00  0.00     0.131 A 
ATOM     55  C   UNL A   1      42.305  25.529  26.053  1.00  0.00     0.055 A 
ATOM     56  C   UNL A   1      42.851  27.659  25.093  1.00  0.00     0.041 A 
ATOM     57  F   UNL A   1      42.411  29.619  26.287  1.00  0.00    -0.206 F 
ATOM     58  C   UNL A   1      42.861  26.273  25.010  1.00  0.00     0.022 A 
BRANCH  55  59
ATOM     59  S   UNL A   1      42.469  23.721  26.056  1.00  0.00     0.124 S 
ATOM     60  O   UNL A   1      41.083  23.299  26.222  1.00  0.00    -0.237 OA
ATOM     61  O   UNL A   1      43.064  23.472  24.748  1.00  0.00    -0.237 OA
ATOM     62  O   UNL A   1      43.342  23.460  27.198  1.00  0.00    -0.744 OA
ENDBRANCH  55  59
ENDBRANCH  28  52
BRANCH  40  63
ATOM     63  C   UNL A   1      35.991  31.090  29.019  1.00  0.00     0.023 A 
ATOM     64  C   UNL A   1      35.158  30.115  28.449  1.00  0.00     0.031 A 
ATOM     65  C   UNL A   1      35.687  32.443  28.797  1.00  0.00     0.131 A 
ATOM     66  C   UNL A   1      34.104  30.507  27.615  1.00  0.00     0.055 A 
ATOM     67  C   UNL A   1      34.588  32.828  28.031  1.00  0.00     0.041 A 
ATOM     68  F   UNL A   1      36.456  33.412  29.322  1.00  0.00    -0.206 F 
ATOM     69  C   UNL A   1      33.800  31.858  27.420  1.00  0.00     0.022 A 
BRANCH  66  70
ATOM     70  S   UNL A   1      33.216  29.227  26.689  1.00  0.00     0.124 S 
ATOM     71  O   UNL A   1      34.046  28.052  26.929  1.00  0.00    -0.237 OA
ATOM     72  O   UNL A   1      31.907  29.226  27.335  1.00  0.00    -0.237 OA
ATOM     73  O   UNL A   1      33.229  29.728  25.316  1.00  0.00    -0.744 OA
ENDBRANCH  66  70
ENDBRANCH  40  63
ENDBRANCH  14  15
ENDBRANCH   7   9
ENDBRANCH   6   7
ENDBRANCH   5   6
ENDBRANCH   4   5
ENDBRANCH   3   4
ENDBRANCH   2   3
ENDBRANCH   1   2
BRANCH   1  74
ATOM     74  O   UNL A   1      50.015  22.023  41.104  1.00  0.00    -0.377 OA
BRANCH  74  75
ATOM     75  C   UNL A   1      51.053  21.041  41.096  1.00  0.00     0.188 C 
BRANCH  75  76
ATOM     76  C   UNL A   1      50.652  19.546  41.132  1.00  0.00     0.188 C 
BRANCH  76  77
ATOM     77  O   UNL A   1      49.418  19.280  41.790  1.00  0.00    -0.376 OA
BRANCH  77  78
ATOM     78  C   UNL A   1      48.328  18.955  40.928  1.00  0.00     0.202 C 
BRANCH  78  79
ATOM     79  C   UNL A   1      47.235  18.038  41.514  1.00  0.00     0.261 C 
BRANCH  79  80
ATOM     80  O   UNL A   1      45.900  18.402  41.125  1.00  0.00    -0.463 OA
BRANCH  80  81
ATOM     81  C   UNL A   1      44.840  17.641  41.511  1.00  0.00     0.310 C 
ATOM     82  O   UNL A   1      43.868  17.390  40.833  1.00  0.00    -0.252 OA
BRANCH  81  83
ATOM     83  C   UNL A   1      45.115  17.076  42.898  1.00  0.00     0.119 C 
ATOM     84  C   UNL A   1      44.872  18.062  44.037  1.00  0.00     0.019 C 
ATOM     85  C   UNL A   1      44.358  15.745  43.074  1.00  0.00     0.135 C 
ATOM     86  C   UNL A   1      45.069  17.365  45.392  1.00  0.00     0.022 C 
ATOM     87  N   UNL A   1      44.615  15.214  44.410  1.00  0.00    -0.340 N 
ATOM     88  C   UNL A   1      44.222  16.092  45.498  1.00  0.00     0.120 C 
BRANCH  87  89
ATOM     89  C   UNL A   1      44.399  13.861  44.583  1.00  0.00     0.226 A 
ATOM     90  N   UNL A   1      44.951  13.266  45.652  1.00  0.00    -0.210 NA
ATOM     91  N   UNL A   1      43.595  13.218  43.721  1.00  0.00    -0.208 NA
ATOM     92  C   UNL A   1      44.655  11.966  45.863  1.00  0.00     0.112 A 
ATOM     93  C   UNL A   1      43.348  11.897  43.928  1.00  0.00     0.150 A 
ATOM     94  C   UNL A   1      43.869  11.226  45.012  1.00  0.00     0.066 A 
BRANCH  92  95
ATOM     95  C   UNL A   1      45.165  11.351  47.082  1.00  0.00     0.152 A 
ATOM     96  C   UNL A   1      44.989  11.609  48.429  1.00  0.00     0.052 A 
ATOM     97  O   UNL A   1      46.129  10.392  46.923  1.00  0.00    -0.463 OA
ATOM     98  C   UNL A   1      45.892  10.769  49.126  1.00  0.00     0.043 A 
ATOM     99  C   UNL A   1      46.565  10.053  48.166  1.00  0.00     0.196 A 
ENDBRANCH  92  95
BRANCH  93 100
ATOM    100  C   UNL A   1      42.470  11.146  42.942  1.00  0.00     0.433 C 
ATOM    101  F   UNL A   1      41.267  10.771  43.466  1.00  0.00    -0.165 F 
ATOM    102  F   UNL A   1      42.190  11.866  41.821  1.00  0.00    -0.165 F 
ATOM    103  F   UNL A   1      43.041   9.986  42.494  1.00  0.00    -0.165 F 
ENDBRANCH  93 100
ENDBRANCH  87  89
ENDBRANCH  81  83
ENDBRANCH  80  81
ENDBRANCH  79  80
ENDBRANCH  78  79
ENDBRANCH  77  78
ENDBRANCH  76  77
ENDBRANCH  75  76
ENDBRANCH  74  75
ENDBRANCH   1  74
TORSDOF 26
ENDMDL
MODEL 2
REMARK VINA RESULT:      -9.2      8.925     15.766
REMARK SMILES O=C(OCCOCCOCCOCCOC(=O)[C@H]1CCCN(c2nc(-c3ccco3)cc(C(F)(F)F)n2)C1)c1ccc(-c2c3nc(c(-c4cc(S(=O)(=O)[O-])ccc4F)c4ccc([nH]4)c(-c4cc(S(=O)(=O)[O-])ccc4F)c4nc(c(-c5cc(S(=O)(=O)[O-])ccc5F)c5ccc2[nH]5)C=C4)C=C3)cc1
REMARK SMILES IDX 8 1 7 2 6 3 5 4 4 5 3 6 2 7 1 8 39 9 40 10 101 11 41 12
REMARK SMILES IDX 100 13 42 14 43 15 44 16 94 17 45 18 99 19 93 20 95 21 46 22
REMARK SMILES IDX 98 23 92 24 91 25 47 27 79 28 59 29 78 30 60 31 63 32 77 33
REMARK SMILES IDX 96 34 61 35 62 36 76 38 97 39 64 40 48 41 49 42 57 43 50 44
REMARK SMILES IDX 56 45 58 46 55 47 51 48 52 49 53 50 54 51 80 52 81 53 89 54
REMARK SMILES IDX 82 55 88 56 90 57 87 58 83 59 84 60 85 61 86 62 65 63 66 64
REMARK SMILES IDX 74 65 67 66 73 67 75 68 72 69 68 70 69 71 70 72 71 73 9 74
REMARK SMILES IDX 10 75 11 76 12 77 13 78 14 79 15 80 16 81 17 82 18 83 19 84
REMARK SMILES IDX 38 85 20 86 22 87 21 88 23 89 24 90 37 91 25 92 32 93 31 94
REMARK SMILES IDX 26 95 27 96 30 97 28 98 29 99 33 100 34 101 35 102 36 103
REMARK H PARENT 95 26 63 37
REMARK Flexibility Score: inf
ROOT
ATOM      1  C   UNL A   1      34.300  33.077  32.846  1.00  0.00     0.188 C 
ENDROOT
BRANCH   1   2
ATOM      2  C   UNL A   1      35.659  32.373  32.930  1.00  0.00     0.188 C 
BRANCH   2   3
ATOM      3  O   UNL A   1      36.499  32.991  33.897  1.00  0.00    -0.376 OA
BRANCH   3   4
ATOM      4  C   UNL A   1      37.398  32.163  34.636  1.00  0.00     0.202 C 
BRANCH   4   5
ATOM      5  C   UNL A   1      38.076  31.055  33.835  1.00  0.00     0.261 C 
BRANCH   5   6
ATOM      6  O   UNL A   1      38.878  31.528  32.737  1.00  0.00    -0.460 OA
BRANCH   6   7
ATOM      7  C   UNL A   1      40.109  32.099  32.772  1.00  0.00     0.338 C 
ATOM      8  O   UNL A   1      40.200  33.300  33.023  1.00  0.00    -0.246 OA
BRANCH   7   9
ATOM      9  C   UNL A   1      41.365  31.333  32.544  1.00  0.00     0.060 A 
ATOM     10  C   UNL A   1      41.481  29.964  32.738  1.00  0.00     0.016 A 
ATOM     11  C   UNL A   1      42.477  32.007  32.020  1.00  0.00     0.016 A 
ATOM     12  C   UNL A   1      42.674  29.296  32.605  1.00  0.00     0.010 A 
ATOM     13  C   UNL A   1      43.674  31.320  31.773  1.00  0.00     0.010 A 
ATOM     14  C   UNL A   1      43.779  29.963  32.109  1.00  0.00    -0.014 A 
BRANCH  14  15
ATOM     15  C   UNL A   1      45.041  29.209  32.142  1.00  0.00     0.031 A 
ATOM     16  C   UNL A   1      45.723  29.074  33.466  1.00  0.00     0.074 A 
ATOM     17  C   UNL A   1      45.395  28.469  31.072  1.00  0.00     0.049 A 
ATOM     18  N   UNL A   1      46.845  28.481  33.762  1.00  0.00    -0.248 NA
ATOM     19  C   UNL A   1      45.034  29.671  34.625  1.00  0.00     0.031 C 
ATOM     20  C   UNL A   1      44.645  28.396  29.810  1.00  0.00     0.029 A 
ATOM     21  N   UNL A   1      46.426  27.590  30.889  1.00  0.00    -0.354 N 
ATOM     22  C   UNL A   1      47.010  28.660  35.130  1.00  0.00     0.074 A 
ATOM     23  C   UNL A   1      45.885  29.429  35.607  1.00  0.00     0.031 C 
ATOM     24  C   UNL A   1      45.225  27.495  29.002  1.00  0.00     0.029 A 
ATOM     25  C   UNL A   1      46.442  27.014  29.638  1.00  0.00     0.049 A 
ATOM     26  H   UNL A   1      47.092  27.389  31.584  1.00  0.00     0.167 HD
ATOM     27  C   UNL A   1      48.024  28.216  35.906  1.00  0.00     0.034 A 
ATOM     28  C   UNL A   1      47.378  26.233  29.064  1.00  0.00     0.034 A 
ATOM     29  C   UNL A   1      49.126  27.461  35.371  1.00  0.00     0.049 A 
ATOM     30  C   UNL A   1      48.580  25.888  29.909  1.00  0.00     0.074 A 
ATOM     31  C   UNL A   1      50.289  27.057  35.994  1.00  0.00     0.029 A 
ATOM     32  N   UNL A   1      49.187  26.992  34.061  1.00  0.00    -0.354 N 
ATOM     33  N   UNL A   1      48.809  26.177  31.173  1.00  0.00    -0.248 NA
ATOM     34  C   UNL A   1      49.648  25.128  29.259  1.00  0.00     0.031 C 
ATOM     35  C   UNL A   1      51.079  26.398  35.045  1.00  0.00     0.029 A 
ATOM     36  C   UNL A   1      50.376  26.319  33.851  1.00  0.00     0.049 A 
ATOM     37  H   UNL A   1      48.485  27.120  33.383  1.00  0.00     0.167 HD
ATOM     38  C   UNL A   1      50.045  25.619  31.471  1.00  0.00     0.074 A 
ATOM     39  C   UNL A   1      50.487  24.942  30.266  1.00  0.00     0.031 C 
ATOM     40  C   UNL A   1      50.766  25.666  32.622  1.00  0.00     0.034 A 
BRANCH  27  41
ATOM     41  C   UNL A   1      48.013  28.642  37.350  1.00  0.00     0.023 A 
ATOM     42  C   UNL A   1      47.275  27.948  38.326  1.00  0.00     0.031 A 
ATOM     43  C   UNL A   1      48.667  29.825  37.735  1.00  0.00     0.131 A 
ATOM     44  C   UNL A   1      47.151  28.482  39.618  1.00  0.00     0.055 A 
ATOM     45  C   UNL A   1      48.604  30.308  39.043  1.00  0.00     0.041 A 
ATOM     46  F   UNL A   1      49.350  30.550  36.836  1.00  0.00    -0.206 F 
ATOM     47  C   UNL A   1      47.832  29.645  39.990  1.00  0.00     0.022 A 
BRANCH  44  48
ATOM     48  S   UNL A   1      45.970  27.719  40.767  1.00  0.00     0.124 S 
ATOM     49  O   UNL A   1      46.746  27.679  42.004  1.00  0.00    -0.237 OA
ATOM     50  O   UNL A   1      44.854  28.657  40.746  1.00  0.00    -0.237 OA
ATOM     51  O   UNL A   1      45.699  26.415  40.165  1.00  0.00    -0.744 OA
ENDBRANCH  44  48
ENDBRANCH  27  41
BRANCH  28  52
ATOM     52  C   UNL A   1      47.288  25.837  27.625  1.00  0.00     0.023 A 
ATOM     53  C   UNL A   1      47.732  26.686  26.599  1.00  0.00     0.031 A 
ATOM     54  C   UNL A   1      46.660  24.634  27.244  1.00  0.00     0.131 A 
ATOM     55  C   UNL A   1      47.481  26.356  25.255  1.00  0.00     0.055 A 
ATOM     56  C   UNL A   1      46.480  24.275  25.907  1.00  0.00     0.041 A 
ATOM     57  F   UNL A   1      46.199  23.781  28.174  1.00  0.00    -0.206 F 
ATOM     58  C   UNL A   1      46.871  25.150  24.902  1.00  0.00     0.022 A 
BRANCH  55  59
ATOM     59  S   UNL A   1      47.833  27.594  23.975  1.00  0.00     0.124 S 
ATOM     60  O   UNL A   1      47.974  26.759  22.787  1.00  0.00    -0.237 OA
ATOM     61  O   UNL A   1      46.642  28.433  24.032  1.00  0.00    -0.237 OA
ATOM     62  O   UNL A   1      49.064  28.227  24.442  1.00  0.00    -0.744 OA
ENDBRANCH  55  59
ENDBRANCH  28  52
BRANCH  40  63
ATOM     63  C   UNL A   1      52.078  24.926  32.614  1.00  0.00     0.023 A 
ATOM     64  C   UNL A   1      52.156  23.575  32.987  1.00  0.00     0.031 A 
ATOM     65  C   UNL A   1      53.262  25.591  32.255  1.00  0.00     0.131 A 
ATOM     66  C   UNL A   1      53.407  22.952  33.070  1.00  0.00     0.055 A 
ATOM     67  C   UNL A   1      54.494  24.942  32.262  1.00  0.00     0.041 A 
ATOM     68  F   UNL A   1      53.237  26.885  31.892  1.00  0.00    -0.206 F 
ATOM     69  C   UNL A   1      54.574  23.619  32.689  1.00  0.00     0.022 A 
BRANCH  66  70
ATOM     70  S   UNL A   1      53.497  21.297  33.802  1.00  0.00     0.124 S 
ATOM     71  O   UNL A   1      54.601  21.444  34.745  1.00  0.00    -0.237 OA
ATOM     72  O   UNL A   1      52.171  21.144  34.392  1.00  0.00    -0.237 OA
ATOM     73  O   UNL A   1      53.770  20.431  32.657  1.00  0.00    -0.744 OA
ENDBRANCH  66  70
ENDBRANCH  40  63
ENDBRANCH  14  15
ENDBRANCH   7   9
ENDBRANCH   6   7
ENDBRANCH   5   6
ENDBRANCH   4   5
ENDBRANCH   3   4
ENDBRANCH   2   3
ENDBRANCH   1   2
BRANCH   1  74
ATOM     74  O   UNL A   1      34.353  34.507  32.789  1.00  0.00    -0.377 OA
BRANCH  74  75
ATOM     75  C   UNL A   1      34.702  35.055  31.517  1.00  0.00     0.188 C 
BRANCH  75  76
ATOM     76  C   UNL A   1      34.219  34.322  30.242  1.00  0.00     0.188 C 
BRANCH  76  77
ATOM     77  O   UNL A   1      35.134  34.367  29.151  1.00  0.00    -0.376 OA
BRANCH  77  78
ATOM     78  C   UNL A   1      36.208  33.429  29.221  1.00  0.00     0.202 C 
BRANCH  78  79
ATOM     79  C   UNL A   1      35.830  31.939  29.097  1.00  0.00     0.261 C 
BRANCH  79  80
ATOM     80  O   UNL A   1      36.956  31.047  29.166  1.00  0.00    -0.463 OA
BRANCH  80  81
ATOM     81  C   UNL A   1      37.053  29.995  28.307  1.00  0.00     0.310 C 
ATOM     82  O   UNL A   1      36.148  29.542  27.642  1.00  0.00    -0.252 OA
BRANCH  81  83
ATOM     83  C   UNL A   1      38.504  29.539  28.246  1.00  0.00     0.119 C 
ATOM     84  C   UNL A   1      39.452  30.337  29.136  1.00  0.00     0.019 C 
ATOM     85  C   UNL A   1      38.578  28.019  28.489  1.00  0.00     0.135 C 
ATOM     86  C   UNL A   1      40.862  29.730  29.087  1.00  0.00     0.022 C 
ATOM     87  N   UNL A   1      39.973  27.587  28.442  1.00  0.00    -0.340 N 
ATOM     88  C   UNL A   1      40.841  28.232  29.412  1.00  0.00     0.120 C 
BRANCH  87  89
ATOM     89  C   UNL A   1      40.191  26.246  28.194  1.00  0.00     0.226 A 
ATOM     90  N   UNL A   1      39.249  25.569  27.518  1.00  0.00    -0.210 NA
ATOM     91  N   UNL A   1      41.355  25.698  28.575  1.00  0.00    -0.208 NA
ATOM     92  C   UNL A   1      39.514  24.285  27.199  1.00  0.00     0.112 A 
ATOM     93  C   UNL A   1      41.581  24.390  28.282  1.00  0.00     0.150 A 
ATOM     94  C   UNL A   1      40.666  23.638  27.579  1.00  0.00     0.066 A 
BRANCH  92  95
ATOM     95  C   UNL A   1      38.541  23.583  26.372  1.00  0.00     0.152 A 
ATOM     96  C   UNL A   1      37.200  23.782  26.099  1.00  0.00     0.052 A 
ATOM     97  O   UNL A   1      38.946  22.395  25.828  1.00  0.00    -0.463 OA
ATOM     98  C   UNL A   1      36.765  22.657  25.355  1.00  0.00     0.043 A 
ATOM     99  C   UNL A   1      37.863  21.841  25.221  1.00  0.00     0.196 A 
ENDBRANCH  92  95
BRANCH  93 100
ATOM    100  C   UNL A   1      42.879  23.744  28.739  1.00  0.00     0.433 C 
ATOM    101  F   UNL A   1      43.705  24.603  29.402  1.00  0.00    -0.165 F 
ATOM    102  F   UNL A   1      42.685  22.683  29.569  1.00  0.00    -0.165 F 
ATOM    103  F   UNL A   1      43.628  23.259  27.701  1.00  0.00    -0.165 F 
ENDBRANCH  93 100
ENDBRANCH  87  89
ENDBRANCH  81  83
ENDBRANCH  80  81
ENDBRANCH  79  80
ENDBRANCH  78  79
ENDBRANCH  77  78
ENDBRANCH  76  77
ENDBRANCH  75  76
ENDBRANCH  74  75
ENDBRANCH   1  74
TORSDOF 26
ENDMDL
MODEL 3
REMARK VINA RESULT:      -8.9     10.962     16.577
REMARK SMILES O=C(OCCOCCOCCOCCOC(=O)[C@H]1CCCN(c2nc(-c3ccco3)cc(C(F)(F)F)n2)C1)c1ccc(-c2c3nc(c(-c4cc(S(=O)(=O)[O-])ccc4F)c4ccc([nH]4)c(-c4cc(S(=O)(=O)[O-])ccc4F)c4nc(c(-c5cc(S(=O)(=O)[O-])ccc5F)c5ccc2[nH]5)C=C4)C=C3)cc1
REMARK SMILES IDX 8 1 7 2 6 3 5 4 4 5 3 6 2 7 1 8 39 9 40 10 101 11 41 12
REMARK SMILES IDX 100 13 42 14 43 15 44 16 94 17 45 18 99 19 93 20 95 21 46 22
REMARK SMILES IDX 98 23 92 24 91 25 47 27 79 28 59 29 78 30 60 31 63 32 77 33
REMARK SMILES IDX 96 34 61 35 62 36 76 38 97 39 64 40 48 41 49 42 57 43 50 44
REMARK SMILES IDX 56 45 58 46 55 47 51 48 52 49 53 50 54 51 80 52 81 53 89 54
REMARK SMILES IDX 82 55 88 56 90 57 87 58 83 59 84 60 85 61 86 62 65 63 66 64
REMARK SMILES IDX 74 65 67 66 73 67 75 68 72 69 68 70 69 71 70 72 71 73 9 74
REMARK SMILES IDX 10 75 11 76 12 77 13 78 14 79 15 80 16 81 17 82 18 83 19 84
REMARK SMILES IDX 38 85 20 86 22 87 21 88 23 89 24 90 37 91 25 92 32 93 31 94
REMARK SMILES IDX 26 95 27 96 30 97 28 98 29 99 33 100 34 101 35 102 36 103
REMARK H PARENT 95 26 63 37
REMARK Flexibility Score: inf
ROOT
ATOM      1  C   UNL A   1      33.303  31.939  27.523  1.00  0.00     0.188 C 
ENDROOT
BRANCH   1   2
ATOM      2  C   UNL A   1      33.641  33.217  28.298  1.00  0.00     0.188 C 
BRANCH   2   3
ATOM      3  O   UNL A   1      35.041  33.324  28.527  1.00  0.00    -0.376 OA
BRANCH   3   4
ATOM      4  C   UNL A   1      35.494  33.470  29.873  1.00  0.00     0.202 C 
BRANCH   4   5
ATOM      5  C   UNL A   1      34.816  32.562  30.896  1.00  0.00     0.261 C 
BRANCH   5   6
ATOM      6  O   UNL A   1      35.681  32.125  31.960  1.00  0.00    -0.460 OA
BRANCH   6   7
ATOM      7  C   UNL A   1      36.624  31.149  31.937  1.00  0.00     0.338 C 
ATOM      8  O   UNL A   1      36.302  30.005  32.255  1.00  0.00    -0.246 OA
BRANCH   7   9
ATOM      9  C   UNL A   1      38.033  31.391  31.522  1.00  0.00     0.060 A 
ATOM     10  C   UNL A   1      39.067  31.648  32.411  1.00  0.00     0.016 A 
ATOM     11  C   UNL A   1      38.364  31.271  30.165  1.00  0.00     0.016 A 
ATOM     12  C   UNL A   1      40.340  31.954  31.997  1.00  0.00     0.010 A 
ATOM     13  C   UNL A   1      39.682  31.473  29.734  1.00  0.00     0.010 A 
ATOM     14  C   UNL A   1      40.665  31.858  30.656  1.00  0.00    -0.014 A 
BRANCH  14  15
ATOM     15  C   UNL A   1      42.003  32.347  30.292  1.00  0.00     0.031 A 
ATOM     16  C   UNL A   1      43.085  31.326  30.134  1.00  0.00     0.074 A 
ATOM     17  C   UNL A   1      42.148  33.619  29.871  1.00  0.00     0.049 A 
ATOM     18  N   UNL A   1      44.343  31.494  29.839  1.00  0.00    -0.248 NA
ATOM     19  C   UNL A   1      42.690  29.916  30.310  1.00  0.00     0.031 C 
ATOM     20  C   UNL A   1      41.068  34.615  29.803  1.00  0.00     0.029 A 
ATOM     21  N   UNL A   1      43.231  34.279  29.361  1.00  0.00    -0.354 N 
ATOM     22  C   UNL A   1      44.895  30.219  29.825  1.00  0.00     0.074 A 
ATOM     23  C   UNL A   1      43.842  29.286  30.156  1.00  0.00     0.031 C 
ATOM     24  C   UNL A   1      41.540  35.742  29.249  1.00  0.00     0.029 A 
ATOM     25  C   UNL A   1      42.971  35.590  29.030  1.00  0.00     0.049 A 
ATOM     26  H   UNL A   1      44.112  33.857  29.241  1.00  0.00     0.167 HD
ATOM     27  C   UNL A   1      46.175  29.873  29.560  1.00  0.00     0.034 A 
ATOM     28  C   UNL A   1      43.819  36.565  28.651  1.00  0.00     0.034 A 
ATOM     29  C   UNL A   1      47.183  30.850  29.246  1.00  0.00     0.049 A 
ATOM     30  C   UNL A   1      45.273  36.182  28.522  1.00  0.00     0.074 A 
ATOM     31  C   UNL A   1      48.543  30.677  29.087  1.00  0.00     0.029 A 
ATOM     32  N   UNL A   1      46.922  32.203  29.040  1.00  0.00    -0.354 N 
ATOM     33  N   UNL A   1      45.826  34.994  28.647  1.00  0.00    -0.248 NA
ATOM     34  C   UNL A   1      46.216  37.258  28.213  1.00  0.00     0.031 C 
ATOM     35  C   UNL A   1      49.111  31.933  28.846  1.00  0.00     0.029 A 
ATOM     36  C   UNL A   1      48.098  32.879  28.773  1.00  0.00     0.049 A 
ATOM     37  H   UNL A   1      46.030  32.617  29.077  1.00  0.00     0.167 HD
ATOM     38  C   UNL A   1      47.183  35.181  28.417  1.00  0.00     0.074 A 
ATOM     39  C   UNL A   1      47.351  36.588  28.104  1.00  0.00     0.031 C 
ATOM     40  C   UNL A   1      48.206  34.288  28.472  1.00  0.00     0.034 A 
BRANCH  27  41
ATOM     41  C   UNL A   1      46.534  28.420  29.718  1.00  0.00     0.023 A 
ATOM     42  C   UNL A   1      46.792  27.849  30.978  1.00  0.00     0.031 A 
ATOM     43  C   UNL A   1      46.723  27.618  28.580  1.00  0.00     0.131 A 
ATOM     44  C   UNL A   1      47.293  26.540  31.062  1.00  0.00     0.055 A 
ATOM     45  C   UNL A   1      47.147  26.292  28.675  1.00  0.00     0.041 A 
ATOM     46  F   UNL A   1      46.533  28.123  27.350  1.00  0.00    -0.206 F 
ATOM     47  C   UNL A   1      47.449  25.749  29.920  1.00  0.00     0.022 A 
BRANCH  44  48
ATOM     48  S   UNL A   1      47.881  25.933  32.668  1.00  0.00     0.124 S 
ATOM     49  O   UNL A   1      48.080  27.182  33.400  1.00  0.00    -0.237 OA
ATOM     50  O   UNL A   1      46.771  25.101  33.119  1.00  0.00    -0.237 OA
ATOM     51  O   UNL A   1      49.106  25.210  32.336  1.00  0.00    -0.744 OA
ENDBRANCH  44  48
ENDBRANCH  27  41
BRANCH  28  52
ATOM     52  C   UNL A   1      43.362  37.981  28.494  1.00  0.00     0.023 A 
ATOM     53  C   UNL A   1      43.447  38.904  29.548  1.00  0.00     0.031 A 
ATOM     54  C   UNL A   1      42.735  38.409  27.306  1.00  0.00     0.131 A 
ATOM     55  C   UNL A   1      42.856  40.174  29.420  1.00  0.00     0.055 A 
ATOM     56  C   UNL A   1      42.217  39.697  27.156  1.00  0.00     0.041 A 
ATOM     57  F   UNL A   1      42.608  37.574  26.262  1.00  0.00    -0.206 F 
ATOM     58  C   UNL A   1      42.256  40.581  28.226  1.00  0.00     0.022 A 
BRANCH  55  59
ATOM     59  S   UNL A   1      42.757  41.239  30.886  1.00  0.00     0.124 S 
ATOM     60  O   UNL A   1      41.329  41.201  31.182  1.00  0.00    -0.237 OA
ATOM     61  O   UNL A   1      43.625  40.539  31.825  1.00  0.00    -0.237 OA
ATOM     62  O   UNL A   1      43.261  42.524  30.409  1.00  0.00    -0.744 OA
ENDBRANCH  55  59
ENDBRANCH  28  52
BRANCH  40  63
ATOM     63  C   UNL A   1      49.574  34.825  28.143  1.00  0.00     0.023 A 
ATOM     64  C   UNL A   1      50.412  35.347  29.140  1.00  0.00     0.031 A 
ATOM     65  C   UNL A   1      50.027  34.836  26.813  1.00  0.00     0.131 A 
ATOM     66  C   UNL A   1      51.632  35.933  28.781  1.00  0.00     0.055 A 
ATOM     67  C   UNL A   1      51.277  35.349  26.473  1.00  0.00     0.041 A 
ATOM     68  F   UNL A   1      49.259  34.349  25.824  1.00  0.00    -0.206 F 
ATOM     69  C   UNL A   1      52.080  35.918  27.457  1.00  0.00     0.022 A 
BRANCH  66  70
ATOM     70  S   UNL A   1      52.564  36.828  30.052  1.00  0.00     0.124 S 
ATOM     71  O   UNL A   1      52.383  35.970  31.218  1.00  0.00    -0.237 OA
ATOM     72  O   UNL A   1      53.910  36.859  29.488  1.00  0.00    -0.237 OA
ATOM     73  O   UNL A   1      51.890  38.123  30.122  1.00  0.00    -0.744 OA
ENDBRANCH  66  70
ENDBRANCH  40  63
ENDBRANCH  14  15
ENDBRANCH   7   9
ENDBRANCH   6   7
ENDBRANCH   5   6
ENDBRANCH   4   5
ENDBRANCH   3   4
ENDBRANCH   2   3
ENDBRANCH   1   2
BRANCH   1  74
ATOM     74  O   UNL A   1      33.859  30.733  28.056  1.00  0.00    -0.377 OA
BRANCH  74  75
ATOM     75  C   UNL A   1      34.752  30.035  27.187  1.00  0.00     0.188 C 
BRANCH  75  76
ATOM     76  C   UNL A   1      36.272  30.127  27.464  1.00  0.00     0.188 C 
BRANCH  76  77
ATOM     77  O   UNL A   1      36.761  29.173  28.403  1.00  0.00    -0.376 OA
BRANCH  77  78
ATOM     78  C   UNL A   1      38.043  28.624  28.099  1.00  0.00     0.202 C 
BRANCH  78  79
ATOM     79  C   UNL A   1      38.630  27.636  29.127  1.00  0.00     0.261 C 
BRANCH  79  80
ATOM     80  O   UNL A   1      39.481  26.633  28.548  1.00  0.00    -0.463 OA
BRANCH  80  81
ATOM     81  C   UNL A   1      40.835  26.748  28.633  1.00  0.00     0.310 C 
ATOM     82  O   UNL A   1      41.485  26.685  29.652  1.00  0.00    -0.252 OA
BRANCH  81  83
ATOM     83  C   UNL A   1      41.410  26.874  27.228  1.00  0.00     0.119 C 
ATOM     84  C   UNL A   1      41.212  28.245  26.589  1.00  0.00     0.019 C 
ATOM     85  C   UNL A   1      42.880  26.409  27.229  1.00  0.00     0.135 C 
ATOM     86  C   UNL A   1      41.922  28.302  25.228  1.00  0.00     0.022 C 
ATOM     87  N   UNL A   1      43.430  26.544  25.882  1.00  0.00    -0.340 N 
ATOM     88  C   UNL A   1      43.394  27.892  25.343  1.00  0.00     0.120 C 
BRANCH  87  89
ATOM     89  C   UNL A   1      44.547  25.782  25.599  1.00  0.00     0.226 A 
ATOM     90  N   UNL A   1      44.411  24.446  25.580  1.00  0.00    -0.210 NA
ATOM     91  N   UNL A   1      45.695  26.405  25.289  1.00  0.00    -0.208 NA
ATOM     92  C   UNL A   1      45.484  23.716  25.208  1.00  0.00     0.112 A 
ATOM     93  C   UNL A   1      46.776  25.647  24.963  1.00  0.00     0.150 A 
ATOM     94  C   UNL A   1      46.704  24.272  24.908  1.00  0.00     0.066 A 
BRANCH  92  95
ATOM     95  C   UNL A   1      45.304  22.276  25.081  1.00  0.00     0.152 A 
ATOM     96  C   UNL A   1      44.196  21.459  24.947  1.00  0.00     0.052 A 
ATOM     97  O   UNL A   1      46.421  21.504  25.256  1.00  0.00    -0.463 OA
ATOM     98  C   UNL A   1      44.660  20.124  25.048  1.00  0.00     0.043 A 
ATOM     99  C   UNL A   1      46.018  20.206  25.240  1.00  0.00     0.196 A 
ENDBRANCH  92  95
BRANCH  93 100
ATOM    100  C   UNL A   1      48.092  26.336  24.645  1.00  0.00     0.433 C 
ATOM    101  F   UNL A   1      48.808  25.708  23.668  1.00  0.00    -0.165 F 
ATOM    102  F   UNL A   1      47.936  27.624  24.236  1.00  0.00    -0.165 F 
ATOM    103  F   UNL A   1      48.936  26.397  25.721  1.00  0.00    -0.165 F 
ENDBRANCH  93 100
ENDBRANCH  87  89
ENDBRANCH  81  83
ENDBRANCH  80  81
ENDBRANCH  79  80
ENDBRANCH  78  79
ENDBRANCH  77  78
ENDBRANCH  76  77
ENDBRANCH  75  76
ENDBRANCH  74  75
ENDBRANCH   1  74
TORSDOF 26
ENDMDL
