MODEL 1
REMARK VINA RESULT:      -9.9      0.000      0.000
REMARK SMILES Cc1ccc2c(=O)c3cccc(CC(=O)OCCOCCOCCOCCOC(=O)c4ccc(-c5c6nc(c(-c7cc(S(=O)(=O)[O-])ccc7F)c7ccc([nH]7)c(-c7cc(S(=O)(=O)[O-])ccc7F)c7nc(c(-c8cc(S(=O)(=O)[O-])ccc8F)c8ccc5[nH]8)C=C7)C=C6)cc4)c3oc2c1C
REMARK SMILES IDX 23 1 22 2 21 3 20 4 19 5 18 6 17 7 16 8 14 9 15 10 13 11
REMARK SMILES IDX 12 12 1 13 2 14 3 15 97 16 4 17 96 18 98 19 5 20 95 21 6 22
REMARK SMILES IDX 94 23 7 24 8 25 9 26 11 27 10 28 24 29 25 30 26 31 27 32
REMARK SMILES IDX 28 33 29 34 30 35 31 36 32 37 93 38 33 39 92 40 34 41 35 42
REMARK SMILES IDX 36 43 86 44 37 45 91 46 85 47 87 48 38 49 90 50 84 51 83 52
REMARK SMILES IDX 39 54 71 55 51 56 70 57 52 58 55 59 69 60 88 61 53 62 54 63
REMARK SMILES IDX 68 65 89 66 56 67 40 68 41 69 49 70 42 71 48 72 50 73 47 74
REMARK SMILES IDX 43 75 44 76 45 77 46 78 72 79 73 80 81 81 74 82 80 83 82 84
REMARK SMILES IDX 79 85 75 86 76 87 77 88 78 89 57 90 58 91 66 92 59 93 65 94
REMARK SMILES IDX 67 95 64 96 60 97 61 98 62 99 63 100
REMARK H PARENT 87 53 55 64
REMARK Flexibility Score: inf
ROOT
ATOM      1  C   UNL A   1      39.473  20.802  25.982  1.00  0.00     0.188 C 
ENDROOT
BRANCH   1   2
ATOM      2  O   UNL A   1      39.517  22.163  25.629  1.00  0.00    -0.377 OA
BRANCH   2   3
ATOM      3  C   UNL A   1      38.773  23.044  26.447  1.00  0.00     0.188 C 
BRANCH   3   4
ATOM      4  C   UNL A   1      37.620  23.926  25.915  1.00  0.00     0.188 C 
BRANCH   4   5
ATOM      5  O   UNL A   1      36.324  23.717  26.437  1.00  0.00    -0.376 OA
BRANCH   5   6
ATOM      6  C   UNL A   1      35.403  22.806  25.870  1.00  0.00     0.202 C 
BRANCH   6   7
ATOM      7  C   UNL A   1      35.063  21.420  26.452  1.00  0.00     0.261 C 
BRANCH   7   8
ATOM      8  O   UNL A   1      33.674  21.143  26.699  1.00  0.00    -0.463 OA
BRANCH   8   9
ATOM      9  C   UNL A   1      32.881  22.142  27.139  1.00  0.00     0.310 C 
ATOM     10  O   UNL A   1      33.063  22.734  28.198  1.00  0.00    -0.252 OA
BRANCH   9  11
ATOM     11  C   UNL A   1      31.767  22.539  26.177  1.00  0.00     0.162 C 
BRANCH  11  12
ATOM     12  C   UNL A   1      32.054  22.951  24.737  1.00  0.00     0.007 A 
ATOM     13  C   UNL A   1      31.896  30.097  26.144  1.00  0.00     0.045 C 
ATOM     14  C   UNL A   1      31.694  28.964  25.166  1.00  0.00    -0.044 A 
ATOM     15  C   UNL A   1      31.801  29.253  23.797  1.00  0.00     0.005 A 
ATOM     16  C   UNL A   1      31.482  27.621  25.594  1.00  0.00    -0.005 A 
ATOM     17  C   UNL A   1      31.744  28.230  22.860  1.00  0.00     0.016 A 
ATOM     18  C   UNL A   1      31.472  26.577  24.638  1.00  0.00     0.141 A 
ATOM     19  C   UNL A   1      31.357  27.333  27.067  1.00  0.00     0.049 C 
ATOM     20  C   UNL A   1      31.605  26.906  23.286  1.00  0.00     0.066 A 
ATOM     21  O   UNL A   1      31.370  25.259  25.071  1.00  0.00    -0.455 OA
ATOM     22  C   UNL A   1      31.719  25.827  22.305  1.00  0.00     0.200 A 
ATOM     23  C   UNL A   1      31.761  24.240  24.210  1.00  0.00     0.142 A 
ATOM     24  O   UNL A   1      31.678  26.052  21.102  1.00  0.00    -0.288 OA
ATOM     25  C   UNL A   1      31.952  24.481  22.839  1.00  0.00     0.066 A 
ATOM     26  C   UNL A   1      32.435  23.492  21.982  1.00  0.00     0.016 A 
ATOM     27  C   UNL A   1      32.559  21.972  23.852  1.00  0.00     0.008 A 
ATOM     28  C   UNL A   1      32.750  22.241  22.493  1.00  0.00     0.001 A 
ENDBRANCH  11  12
ENDBRANCH   9  11
ENDBRANCH   8   9
ENDBRANCH   7   8
ENDBRANCH   6   7
ENDBRANCH   5   6
ENDBRANCH   4   5
ENDBRANCH   3   4
ENDBRANCH   2   3
ENDBRANCH   1   2
BRANCH   1  29
ATOM     29  C   UNL A   1      40.848  20.313  26.445  1.00  0.00     0.188 C 
BRANCH  29  30
ATOM     30  O   UNL A   1      41.231  19.084  25.842  1.00  0.00    -0.376 OA
BRANCH  30  31
ATOM     31  C   UNL A   1      42.434  18.460  26.278  1.00  0.00     0.202 C 
BRANCH  31  32
ATOM     32  C   UNL A   1      43.724  18.530  25.441  1.00  0.00     0.261 C 
BRANCH  32  33
ATOM     33  O   UNL A   1      43.915  19.673  24.610  1.00  0.00    -0.460 OA
BRANCH  33  34
ATOM     34  C   UNL A   1      45.164  20.068  24.310  1.00  0.00     0.338 C 
ATOM     35  O   UNL A   1      45.965  19.511  23.581  1.00  0.00    -0.246 OA
BRANCH  34  36
ATOM     36  C   UNL A   1      45.243  21.446  24.831  1.00  0.00     0.060 A 
ATOM     37  C   UNL A   1      45.489  21.667  26.191  1.00  0.00     0.016 A 
ATOM     38  C   UNL A   1      44.906  22.505  23.981  1.00  0.00     0.016 A 
ATOM     39  C   UNL A   1      45.394  22.957  26.704  1.00  0.00     0.010 A 
ATOM     40  C   UNL A   1      44.788  23.791  24.498  1.00  0.00     0.010 A 
ATOM     41  C   UNL A   1      45.057  24.024  25.856  1.00  0.00    -0.014 A 
BRANCH  41  42
ATOM     42  C   UNL A   1      45.267  25.410  26.315  1.00  0.00     0.031 A 
ATOM     43  C   UNL A   1      44.160  26.266  26.828  1.00  0.00     0.074 A 
ATOM     44  C   UNL A   1      46.519  25.885  26.176  1.00  0.00     0.049 A 
ATOM     45  N   UNL A   1      44.225  27.490  27.278  1.00  0.00    -0.248 NA
ATOM     46  C   UNL A   1      42.807  25.691  26.830  1.00  0.00     0.031 C 
ATOM     47  C   UNL A   1      47.636  25.109  25.630  1.00  0.00     0.029 A 
ATOM     48  N   UNL A   1      47.065  27.105  26.460  1.00  0.00    -0.354 N 
ATOM     49  C   UNL A   1      42.927  27.840  27.624  1.00  0.00     0.074 A 
ATOM     50  C   UNL A   1      42.087  26.706  27.297  1.00  0.00     0.031 C 
ATOM     51  C   UNL A   1      48.735  25.869  25.626  1.00  0.00     0.029 A 
ATOM     52  C   UNL A   1      48.396  27.193  26.131  1.00  0.00     0.049 A 
ATOM     53  H   UNL A   1      46.555  27.847  26.861  1.00  0.00     0.167 HD
ATOM     54  C   UNL A   1      42.500  29.004  28.172  1.00  0.00     0.034 A 
ATOM     55  C   UNL A   1      49.251  28.230  26.219  1.00  0.00     0.034 A 
ATOM     56  C   UNL A   1      43.382  30.111  28.463  1.00  0.00     0.049 A 
ATOM     57  C   UNL A   1      48.754  29.504  26.835  1.00  0.00     0.074 A 
ATOM     58  C   UNL A   1      43.072  31.309  29.083  1.00  0.00     0.029 A 
ATOM     59  N   UNL A   1      44.734  30.172  28.140  1.00  0.00    -0.354 N 
ATOM     60  N   UNL A   1      47.549  29.782  27.280  1.00  0.00    -0.248 NA
ATOM     61  C   UNL A   1      49.719  30.596  26.988  1.00  0.00     0.031 C 
ATOM     62  C   UNL A   1      44.203  32.123  29.050  1.00  0.00     0.029 A 
ATOM     63  C   UNL A   1      45.256  31.403  28.504  1.00  0.00     0.049 A 
ATOM     64  H   UNL A   1      45.245  29.445  27.714  1.00  0.00     0.167 HD
ATOM     65  C   UNL A   1      47.614  31.075  27.783  1.00  0.00     0.074 A 
ATOM     66  C   UNL A   1      48.987  31.511  27.613  1.00  0.00     0.031 C 
ATOM     67  C   UNL A   1      46.628  31.828  28.330  1.00  0.00     0.034 A 
BRANCH  54  68
ATOM     68  C   UNL A   1      41.036  29.168  28.511  1.00  0.00     0.023 A 
ATOM     69  C   UNL A   1      40.621  29.150  29.857  1.00  0.00     0.031 A 
ATOM     70  C   UNL A   1      40.045  29.178  27.514  1.00  0.00     0.131 A 
ATOM     71  C   UNL A   1      39.255  29.093  30.167  1.00  0.00     0.055 A 
ATOM     72  C   UNL A   1      38.684  29.171  27.828  1.00  0.00     0.041 A 
ATOM     73  F   UNL A   1      40.383  29.187  26.213  1.00  0.00    -0.206 F 
ATOM     74  C   UNL A   1      38.285  29.112  29.160  1.00  0.00     0.022 A 
BRANCH  71  75
ATOM     75  S   UNL A   1      38.687  28.908  31.879  1.00  0.00     0.124 S 
ATOM     76  O   UNL A   1      39.605  27.891  32.391  1.00  0.00    -0.237 OA
ATOM     77  O   UNL A   1      38.887  30.252  32.414  1.00  0.00    -0.237 OA
ATOM     78  O   UNL A   1      37.300  28.479  31.746  1.00  0.00    -0.744 OA
ENDBRANCH  71  75
ENDBRANCH  54  68
BRANCH  55  79
ATOM     79  C   UNL A   1      50.659  28.024  25.775  1.00  0.00     0.023 A 
ATOM     80  C   UNL A   1      50.984  28.026  24.404  1.00  0.00     0.031 A 
ATOM     81  C   UNL A   1      51.651  27.638  26.690  1.00  0.00     0.131 A 
ATOM     82  C   UNL A   1      52.236  27.560  23.985  1.00  0.00     0.055 A 
ATOM     83  C   UNL A   1      52.926  27.252  26.272  1.00  0.00     0.041 A 
ATOM     84  F   UNL A   1      51.380  27.595  28.004  1.00  0.00    -0.206 F 
ATOM     85  C   UNL A   1      53.216  27.190  24.912  1.00  0.00     0.022 A 
BRANCH  82  86
ATOM     86  S   UNL A   1      52.571  27.257  22.227  1.00  0.00     0.124 S 
ATOM     87  O   UNL A   1      53.005  28.573  21.769  1.00  0.00    -0.237 OA
ATOM     88  O   UNL A   1      53.616  26.237  22.296  1.00  0.00    -0.237 OA
ATOM     89  O   UNL A   1      51.289  26.797  21.705  1.00  0.00    -0.744 OA
ENDBRANCH  82  86
ENDBRANCH  55  79
BRANCH  67  90
ATOM     90  C   UNL A   1      46.967  33.227  28.791  1.00  0.00     0.023 A 
ATOM     91  C   UNL A   1      47.306  33.456  30.138  1.00  0.00     0.031 A 
ATOM     92  C   UNL A   1      46.794  34.339  27.949  1.00  0.00     0.131 A 
ATOM     93  C   UNL A   1      47.400  34.767  30.619  1.00  0.00     0.055 A 
ATOM     94  C   UNL A   1      46.952  35.643  28.420  1.00  0.00     0.041 A 
ATOM     95  F   UNL A   1      46.461  34.175  26.660  1.00  0.00    -0.206 F 
ATOM     96  C   UNL A   1      47.237  35.862  29.764  1.00  0.00     0.022 A 
BRANCH  93  97
ATOM     97  S   UNL A   1      47.625  35.099  32.388  1.00  0.00     0.124 S 
ATOM     98  O   UNL A   1      47.885  36.536  32.396  1.00  0.00    -0.237 OA
ATOM     99  O   UNL A   1      46.335  34.696  32.941  1.00  0.00    -0.237 OA
ATOM    100  O   UNL A   1      48.759  34.261  32.763  1.00  0.00    -0.744 OA
ENDBRANCH  93  97
ENDBRANCH  67  90
ENDBRANCH  41  42
ENDBRANCH  34  36
ENDBRANCH  33  34
ENDBRANCH  32  33
ENDBRANCH  31  32
ENDBRANCH  30  31
ENDBRANCH  29  30
ENDBRANCH   1  29
TORSDOF 24
ENDMDL
MODEL 2
REMARK VINA RESULT:      -9.9      3.035      4.949
REMARK SMILES Cc1ccc2c(=O)c3cccc(CC(=O)OCCOCCOCCOCCOC(=O)c4ccc(-c5c6nc(c(-c7cc(S(=O)(=O)[O-])ccc7F)c7ccc([nH]7)c(-c7cc(S(=O)(=O)[O-])ccc7F)c7nc(c(-c8cc(S(=O)(=O)[O-])ccc8F)c8ccc5[nH]8)C=C7)C=C6)cc4)c3oc2c1C
REMARK SMILES IDX 23 1 22 2 21 3 20 4 19 5 18 6 17 7 16 8 14 9 15 10 13 11
REMARK SMILES IDX 12 12 1 13 2 14 3 15 97 16 4 17 96 18 98 19 5 20 95 21 6 22
REMARK SMILES IDX 94 23 7 24 8 25 9 26 11 27 10 28 24 29 25 30 26 31 27 32
REMARK SMILES IDX 28 33 29 34 30 35 31 36 32 37 93 38 33 39 92 40 34 41 35 42
REMARK SMILES IDX 36 43 86 44 37 45 91 46 85 47 87 48 38 49 90 50 84 51 83 52
REMARK SMILES IDX 39 54 71 55 51 56 70 57 52 58 55 59 69 60 88 61 53 62 54 63
REMARK SMILES IDX 68 65 89 66 56 67 40 68 41 69 49 70 42 71 48 72 50 73 47 74
REMARK SMILES IDX 43 75 44 76 45 77 46 78 72 79 73 80 81 81 74 82 80 83 82 84
REMARK SMILES IDX 79 85 75 86 76 87 77 88 78 89 57 90 58 91 66 92 59 93 65 94
REMARK SMILES IDX 67 95 64 96 60 97 61 98 62 99 63 100
REMARK H PARENT 87 53 55 64
REMARK Flexibility Score: inf
ROOT
ATOM      1  C   UNL A   1      34.762  24.411  26.072  1.00  0.00     0.188 C 
ENDROOT
BRANCH   1   2
ATOM      2  O   UNL A   1      34.687  25.614  25.347  1.00  0.00    -0.377 OA
BRANCH   2   3
ATOM      3  C   UNL A   1      33.681  26.523  25.746  1.00  0.00     0.188 C 
BRANCH   3   4
ATOM      4  C   UNL A   1      33.983  27.900  26.377  1.00  0.00     0.188 C 
BRANCH   4   5
ATOM      5  O   UNL A   1      32.932  28.841  26.463  1.00  0.00    -0.376 OA
BRANCH   5   6
ATOM      6  C   UNL A   1      32.581  29.703  25.399  1.00  0.00     0.202 C 
BRANCH   6   7
ATOM      7  C   UNL A   1      31.742  29.292  24.173  1.00  0.00     0.261 C 
BRANCH   7   8
ATOM      8  O   UNL A   1      30.863  28.166  24.336  1.00  0.00    -0.463 OA
BRANCH   8   9
ATOM      9  C   UNL A   1      30.179  27.717  23.264  1.00  0.00     0.310 C 
ATOM     10  O   UNL A   1      28.966  27.530  23.264  1.00  0.00    -0.252 OA
BRANCH   9  11
ATOM     11  C   UNL A   1      31.021  27.522  22.009  1.00  0.00     0.162 C 
BRANCH  11  12
ATOM     12  C   UNL A   1      31.699  26.194  21.690  1.00  0.00     0.007 A 
ATOM     13  C   UNL A   1      29.152  22.812  27.619  1.00  0.00     0.045 C 
ATOM     14  C   UNL A   1      30.226  22.948  26.565  1.00  0.00    -0.044 A 
ATOM     15  C   UNL A   1      31.009  21.820  26.279  1.00  0.00     0.005 A 
ATOM     16  C   UNL A   1      30.403  24.145  25.813  1.00  0.00    -0.005 A 
ATOM     17  C   UNL A   1      31.928  21.852  25.238  1.00  0.00     0.016 A 
ATOM     18  C   UNL A   1      31.306  24.158  24.722  1.00  0.00     0.141 A 
ATOM     19  C   UNL A   1      29.561  25.350  26.143  1.00  0.00     0.049 C 
ATOM     20  C   UNL A   1      32.051  23.006  24.457  1.00  0.00     0.066 A 
ATOM     21  O   UNL A   1      31.399  25.296  23.928  1.00  0.00    -0.455 OA
ATOM     22  C   UNL A   1      32.894  22.969  23.263  1.00  0.00     0.200 A 
ATOM     23  C   UNL A   1      31.953  25.182  22.658  1.00  0.00     0.142 A 
ATOM     24  O   UNL A   1      33.684  22.054  23.067  1.00  0.00    -0.288 OA
ATOM     25  C   UNL A   1      32.691  24.046  22.288  1.00  0.00     0.066 A 
ATOM     26  C   UNL A   1      33.171  23.876  20.989  1.00  0.00     0.016 A 
ATOM     27  C   UNL A   1      32.180  25.990  20.377  1.00  0.00     0.008 A 
ATOM     28  C   UNL A   1      32.904  24.844  20.031  1.00  0.00     0.001 A 
ENDBRANCH  11  12
ENDBRANCH   9  11
ENDBRANCH   8   9
ENDBRANCH   7   8
ENDBRANCH   6   7
ENDBRANCH   5   6
ENDBRANCH   4   5
ENDBRANCH   3   4
ENDBRANCH   2   3
ENDBRANCH   1   2
BRANCH   1  29
ATOM     29  C   UNL A   1      35.817  23.477  25.474  1.00  0.00     0.188 C 
BRANCH  29  30
ATOM     30  O   UNL A   1      35.857  22.207  26.112  1.00  0.00    -0.376 OA
BRANCH  30  31
ATOM     31  C   UNL A   1      36.014  21.046  25.302  1.00  0.00     0.202 C 
BRANCH  31  32
ATOM     32  C   UNL A   1      37.342  20.269  25.261  1.00  0.00     0.261 C 
BRANCH  32  33
ATOM     33  O   UNL A   1      38.552  21.023  25.250  1.00  0.00    -0.460 OA
BRANCH  33  34
ATOM     34  C   UNL A   1      39.525  20.721  26.127  1.00  0.00     0.338 C 
ATOM     35  O   UNL A   1      40.011  19.628  26.351  1.00  0.00    -0.246 OA
BRANCH  34  36
ATOM     36  C   UNL A   1      40.053  22.034  26.547  1.00  0.00     0.060 A 
ATOM     37  C   UNL A   1      40.999  22.111  27.578  1.00  0.00     0.016 A 
ATOM     38  C   UNL A   1      39.476  23.191  26.015  1.00  0.00     0.016 A 
ATOM     39  C   UNL A   1      41.364  23.355  28.080  1.00  0.00     0.010 A 
ATOM     40  C   UNL A   1      39.823  24.434  26.534  1.00  0.00     0.010 A 
ATOM     41  C   UNL A   1      40.788  24.520  27.551  1.00  0.00    -0.014 A 
BRANCH  41  42
ATOM     42  C   UNL A   1      41.396  25.831  27.848  1.00  0.00     0.031 A 
ATOM     43  C   UNL A   1      40.656  26.925  28.539  1.00  0.00     0.074 A 
ATOM     44  C   UNL A   1      42.650  26.007  27.391  1.00  0.00     0.049 A 
ATOM     45  N   UNL A   1      41.089  28.111  28.873  1.00  0.00    -0.248 NA
ATOM     46  C   UNL A   1      39.252  26.672  28.893  1.00  0.00     0.031 C 
ATOM     47  C   UNL A   1      43.409  24.989  26.660  1.00  0.00     0.029 A 
ATOM     48  N   UNL A   1      43.498  27.077  27.454  1.00  0.00    -0.354 N 
ATOM     49  C   UNL A   1      40.020  28.752  29.482  1.00  0.00     0.074 A 
ATOM     50  C   UNL A   1      38.902  27.832  29.439  1.00  0.00     0.031 C 
ATOM     51  C   UNL A   1      44.612  25.479  26.349  1.00  0.00     0.029 A 
ATOM     52  C   UNL A   1      44.698  26.856  26.822  1.00  0.00     0.049 A 
ATOM     53  H   UNL A   1      43.272  27.922  27.906  1.00  0.00     0.167 HD
ATOM     54  C   UNL A   1      39.998  29.992  30.028  1.00  0.00     0.034 A 
ATOM     55  C   UNL A   1      45.752  27.673  26.636  1.00  0.00     0.034 A 
ATOM     56  C   UNL A   1      41.142  30.876  30.028  1.00  0.00     0.049 A 
ATOM     57  C   UNL A   1      45.704  29.038  27.257  1.00  0.00     0.074 A 
ATOM     58  C   UNL A   1      41.255  32.124  30.615  1.00  0.00     0.029 A 
ATOM     59  N   UNL A   1      42.356  30.623  29.400  1.00  0.00    -0.354 N 
ATOM     60  N   UNL A   1      44.730  29.589  27.946  1.00  0.00    -0.248 NA
ATOM     61  C   UNL A   1      46.889  29.885  27.106  1.00  0.00     0.031 C 
ATOM     62  C   UNL A   1      42.493  32.660  30.265  1.00  0.00     0.029 A 
ATOM     63  C   UNL A   1      43.204  31.710  29.545  1.00  0.00     0.049 A 
ATOM     64  H   UNL A   1      42.581  29.792  28.921  1.00  0.00     0.167 HD
ATOM     65  C   UNL A   1      45.191  30.843  28.326  1.00  0.00     0.074 A 
ATOM     66  C   UNL A   1      46.544  30.954  27.815  1.00  0.00     0.031 C 
ATOM     67  C   UNL A   1      44.552  31.810  29.029  1.00  0.00     0.034 A 
BRANCH  54  68
ATOM     68  C   UNL A   1      38.730  30.490  30.682  1.00  0.00     0.023 A 
ATOM     69  C   UNL A   1      37.796  31.230  29.930  1.00  0.00     0.031 A 
ATOM     70  C   UNL A   1      38.522  30.380  32.068  1.00  0.00     0.131 A 
ATOM     71  C   UNL A   1      36.727  31.867  30.574  1.00  0.00     0.055 A 
ATOM     72  C   UNL A   1      37.428  30.976  32.698  1.00  0.00     0.041 A 
ATOM     73  F   UNL A   1      39.385  29.694  32.837  1.00  0.00    -0.206 F 
ATOM     74  C   UNL A   1      36.533  31.738  31.952  1.00  0.00     0.022 A 
BRANCH  71  75
ATOM     75  S   UNL A   1      35.597  32.956  29.664  1.00  0.00     0.124 S 
ATOM     76  O   UNL A   1      35.042  33.777  30.739  1.00  0.00    -0.237 OA
ATOM     77  O   UNL A   1      36.507  33.650  28.757  1.00  0.00    -0.237 OA
ATOM     78  O   UNL A   1      34.653  32.039  29.035  1.00  0.00    -0.744 OA
ENDBRANCH  71  75
ENDBRANCH  54  68
BRANCH  55  79
ATOM     79  C   UNL A   1      46.933  27.145  25.897  1.00  0.00     0.023 A 
ATOM     80  C   UNL A   1      47.948  26.444  26.577  1.00  0.00     0.031 A 
ATOM     81  C   UNL A   1      47.156  27.495  24.556  1.00  0.00     0.131 A 
ATOM     82  C   UNL A   1      49.171  26.199  25.942  1.00  0.00     0.055 A 
ATOM     83  C   UNL A   1      48.347  27.176  23.902  1.00  0.00     0.041 A 
ATOM     84  F   UNL A   1      46.229  28.186  23.874  1.00  0.00    -0.206 F 
ATOM     85  C   UNL A   1      49.371  26.545  24.603  1.00  0.00     0.022 A 
BRANCH  82  86
ATOM     86  S   UNL A   1      50.596  25.582  26.883  1.00  0.00     0.124 S 
ATOM     87  O   UNL A   1      50.941  26.738  27.705  1.00  0.00    -0.237 OA
ATOM     88  O   UNL A   1      50.012  24.450  27.599  1.00  0.00    -0.237 OA
ATOM     89  O   UNL A   1      51.565  25.229  25.851  1.00  0.00    -0.744 OA
ENDBRANCH  82  86
ENDBRANCH  55  79
BRANCH  67  90
ATOM     90  C   UNL A   1      45.285  33.104  29.299  1.00  0.00     0.023 A 
ATOM     91  C   UNL A   1      45.146  34.186  28.407  1.00  0.00     0.031 A 
ATOM     92  C   UNL A   1      46.237  33.208  30.327  1.00  0.00     0.131 A 
ATOM     93  C   UNL A   1      45.988  35.297  28.525  1.00  0.00     0.055 A 
ATOM     94  C   UNL A   1      47.030  34.346  30.478  1.00  0.00     0.041 A 
ATOM     95  F   UNL A   1      46.415  32.201  31.197  1.00  0.00    -0.206 F 
ATOM     96  C   UNL A   1      46.921  35.388  29.563  1.00  0.00     0.022 A 
BRANCH  93  97
ATOM     97  S   UNL A   1      45.982  36.609  27.272  1.00  0.00     0.124 S 
ATOM     98  O   UNL A   1      46.930  36.093  26.288  1.00  0.00    -0.237 OA
ATOM     99  O   UNL A   1      44.586  36.620  26.847  1.00  0.00    -0.237 OA
ATOM    100  O   UNL A   1      46.427  37.794  28.001  1.00  0.00    -0.744 OA
ENDBRANCH  93  97
ENDBRANCH  67  90
ENDBRANCH  41  42
ENDBRANCH  34  36
ENDBRANCH  33  34
ENDBRANCH  32  33
ENDBRANCH  31  32
ENDBRANCH  30  31
ENDBRANCH  29  30
ENDBRANCH   1  29
TORSDOF 24
ENDMDL
MODEL 3
REMARK VINA RESULT:      -9.8      3.048      5.105
REMARK SMILES Cc1ccc2c(=O)c3cccc(CC(=O)OCCOCCOCCOCCOC(=O)c4ccc(-c5c6nc(c(-c7cc(S(=O)(=O)[O-])ccc7F)c7ccc([nH]7)c(-c7cc(S(=O)(=O)[O-])ccc7F)c7nc(c(-c8cc(S(=O)(=O)[O-])ccc8F)c8ccc5[nH]8)C=C7)C=C6)cc4)c3oc2c1C
REMARK SMILES IDX 23 1 22 2 21 3 20 4 19 5 18 6 17 7 16 8 14 9 15 10 13 11
REMARK SMILES IDX 12 12 1 13 2 14 3 15 97 16 4 17 96 18 98 19 5 20 95 21 6 22
REMARK SMILES IDX 94 23 7 24 8 25 9 26 11 27 10 28 24 29 25 30 26 31 27 32
REMARK SMILES IDX 28 33 29 34 30 35 31 36 32 37 93 38 33 39 92 40 34 41 35 42
REMARK SMILES IDX 36 43 86 44 37 45 91 46 85 47 87 48 38 49 90 50 84 51 83 52
REMARK SMILES IDX 39 54 71 55 51 56 70 57 52 58 55 59 69 60 88 61 53 62 54 63
REMARK SMILES IDX 68 65 89 66 56 67 40 68 41 69 49 70 42 71 48 72 50 73 47 74
REMARK SMILES IDX 43 75 44 76 45 77 46 78 72 79 73 80 81 81 74 82 80 83 82 84
REMARK SMILES IDX 79 85 75 86 76 87 77 88 78 89 57 90 58 91 66 92 59 93 65 94
REMARK SMILES IDX 67 95 64 96 60 97 61 98 62 99 63 100
REMARK H PARENT 87 53 55 64
REMARK Flexibility Score: inf
ROOT
ATOM      1  C   UNL A   1      34.669  24.852  25.974  1.00  0.00     0.188 C 
ENDROOT
BRANCH   1   2
ATOM      2  O   UNL A   1      34.517  26.101  25.343  1.00  0.00    -0.377 OA
BRANCH   2   3
ATOM      3  C   UNL A   1      33.478  26.925  25.832  1.00  0.00     0.188 C 
BRANCH   3   4
ATOM      4  C   UNL A   1      33.722  28.312  26.468  1.00  0.00     0.188 C 
BRANCH   4   5
ATOM      5  O   UNL A   1      32.623  29.191  26.595  1.00  0.00    -0.376 OA
BRANCH   5   6
ATOM      6  C   UNL A   1      32.182  30.031  25.547  1.00  0.00     0.202 C 
BRANCH   6   7
ATOM      7  C   UNL A   1      31.086  29.665  24.527  1.00  0.00     0.261 C 
BRANCH   7   8
ATOM      8  O   UNL A   1      30.572  28.324  24.580  1.00  0.00    -0.463 OA
BRANCH   8   9
ATOM      9  C   UNL A   1      30.069  27.777  23.455  1.00  0.00     0.310 C 
ATOM     10  O   UNL A   1      28.899  27.426  23.337  1.00  0.00    -0.252 OA
BRANCH   9  11
ATOM     11  C   UNL A   1      31.055  27.689  22.295  1.00  0.00     0.162 C 
BRANCH  11  12
ATOM     12  C   UNL A   1      31.697  26.370  21.880  1.00  0.00     0.007 A 
ATOM     13  C   UNL A   1      29.199  22.676  27.641  1.00  0.00     0.045 C 
ATOM     14  C   UNL A   1      30.253  22.856  26.574  1.00  0.00    -0.044 A 
ATOM     15  C   UNL A   1      31.006  21.732  26.201  1.00  0.00     0.005 A 
ATOM     16  C   UNL A   1      30.441  24.094  25.894  1.00  0.00    -0.005 A 
ATOM     17  C   UNL A   1      31.903  21.810  25.144  1.00  0.00     0.016 A 
ATOM     18  C   UNL A   1      31.322  24.156  24.787  1.00  0.00     0.141 A 
ATOM     19  C   UNL A   1      29.633  25.292  26.318  1.00  0.00     0.049 C 
ATOM     20  C   UNL A   1      32.036  23.008  24.434  1.00  0.00     0.066 A 
ATOM     21  O   UNL A   1      31.423  25.340  24.064  1.00  0.00    -0.455 OA
ATOM     22  C   UNL A   1      32.853  23.029  23.222  1.00  0.00     0.200 A 
ATOM     23  C   UNL A   1      31.948  25.295  22.777  1.00  0.00     0.142 A 
ATOM     24  O   UNL A   1      33.618  22.112  22.952  1.00  0.00    -0.288 OA
ATOM     25  C   UNL A   1      32.654  24.169  22.321  1.00  0.00     0.066 A 
ATOM     26  C   UNL A   1      33.103  24.071  21.003  1.00  0.00     0.016 A 
ATOM     27  C   UNL A   1      32.146  26.240  20.546  1.00  0.00     0.008 A 
ATOM     28  C   UNL A   1      32.837  25.103  20.114  1.00  0.00     0.001 A 
ENDBRANCH  11  12
ENDBRANCH   9  11
ENDBRANCH   8   9
ENDBRANCH   7   8
ENDBRANCH   6   7
ENDBRANCH   5   6
ENDBRANCH   4   5
ENDBRANCH   3   4
ENDBRANCH   2   3
ENDBRANCH   1   2
BRANCH   1  29
ATOM     29  C   UNL A   1      35.771  24.030  25.299  1.00  0.00     0.188 C 
BRANCH  29  30
ATOM     30  O   UNL A   1      35.994  22.778  25.934  1.00  0.00    -0.376 OA
BRANCH  30  31
ATOM     31  C   UNL A   1      36.355  21.662  25.126  1.00  0.00     0.202 C 
BRANCH  31  32
ATOM     32  C   UNL A   1      37.711  20.954  25.296  1.00  0.00     0.261 C 
BRANCH  32  33
ATOM     33  O   UNL A   1      38.876  21.766  25.414  1.00  0.00    -0.460 OA
BRANCH  33  34
ATOM     34  C   UNL A   1      39.748  21.528  26.408  1.00  0.00     0.338 C 
ATOM     35  O   UNL A   1      40.263  20.467  26.706  1.00  0.00    -0.246 OA
BRANCH  34  36
ATOM     36  C   UNL A   1      40.147  22.873  26.869  1.00  0.00     0.060 A 
ATOM     37  C   UNL A   1      41.149  23.012  27.837  1.00  0.00     0.016 A 
ATOM     38  C   UNL A   1      39.399  23.976  26.447  1.00  0.00     0.016 A 
ATOM     39  C   UNL A   1      41.401  24.264  28.388  1.00  0.00     0.010 A 
ATOM     40  C   UNL A   1      39.634  25.224  27.014  1.00  0.00     0.010 A 
ATOM     41  C   UNL A   1      40.653  25.376  27.968  1.00  0.00    -0.014 A 
BRANCH  41  42
ATOM     42  C   UNL A   1      41.122  26.734  28.301  1.00  0.00     0.031 A 
ATOM     43  C   UNL A   1      40.211  27.800  28.808  1.00  0.00     0.074 A 
ATOM     44  C   UNL A   1      42.423  26.978  28.053  1.00  0.00     0.049 A 
ATOM     45  N   UNL A   1      40.509  29.023  29.154  1.00  0.00    -0.248 NA
ATOM     46  C   UNL A   1      38.785  27.466  28.933  1.00  0.00     0.031 C 
ATOM     47  C   UNL A   1      43.355  25.987  27.507  1.00  0.00     0.029 A 
ATOM     48  N   UNL A   1      43.181  28.104  28.207  1.00  0.00    -0.354 N 
ATOM     49  C   UNL A   1      39.315  29.612  29.545  1.00  0.00     0.074 A 
ATOM     50  C   UNL A   1      38.278  28.618  29.358  1.00  0.00     0.031 C 
ATOM     51  C   UNL A   1      44.561  26.546  27.380  1.00  0.00     0.029 A 
ATOM     52  C   UNL A   1      44.483  27.941  27.796  1.00  0.00     0.049 A 
ATOM     53  H   UNL A   1      42.831  28.948  28.575  1.00  0.00     0.167 HD
ATOM     54  C   UNL A   1      39.126  30.867  30.022  1.00  0.00     0.034 A 
ATOM     55  C   UNL A   1      45.501  28.820  27.751  1.00  0.00     0.034 A 
ATOM     56  C   UNL A   1      40.198  31.825  30.171  1.00  0.00     0.049 A 
ATOM     57  C   UNL A   1      45.266  30.200  28.291  1.00  0.00     0.074 A 
ATOM     58  C   UNL A   1      40.134  33.098  30.711  1.00  0.00     0.029 A 
ATOM     59  N   UNL A   1      41.514  31.632  29.768  1.00  0.00    -0.354 N 
ATOM     60  N   UNL A   1      44.159  30.709  28.781  1.00  0.00    -0.248 NA
ATOM     61  C   UNL A   1      46.407  31.119  28.301  1.00  0.00     0.031 C 
ATOM     62  C   UNL A   1      41.379  33.703  30.548  1.00  0.00     0.029 A 
ATOM     63  C   UNL A   1      42.258  32.778  30.002  1.00  0.00     0.049 A 
ATOM     64  H   UNL A   1      41.867  30.801  29.373  1.00  0.00     0.167 HD
ATOM     65  C   UNL A   1      44.472  32.004  29.174  1.00  0.00     0.074 A 
ATOM     66  C   UNL A   1      45.883  32.187  28.892  1.00  0.00     0.031 C 
ATOM     67  C   UNL A   1      43.666  32.950  29.715  1.00  0.00     0.034 A 
BRANCH  54  68
ATOM     68  C   UNL A   1      37.737  31.301  30.430  1.00  0.00     0.023 A 
ATOM     69  C   UNL A   1      36.888  31.915  29.489  1.00  0.00     0.031 A 
ATOM     70  C   UNL A   1      37.317  31.262  31.771  1.00  0.00     0.131 A 
ATOM     71  C   UNL A   1      35.687  32.504  29.908  1.00  0.00     0.055 A 
ATOM     72  C   UNL A   1      36.097  31.807  32.176  1.00  0.00     0.041 A 
ATOM     73  F   UNL A   1      38.090  30.698  32.714  1.00  0.00    -0.206 F 
ATOM     74  C   UNL A   1      35.284  32.446  31.245  1.00  0.00     0.022 A 
BRANCH  71  75
ATOM     75  S   UNL A   1      34.646  33.439  28.754  1.00  0.00     0.124 S 
ATOM     76  O   UNL A   1      35.543  33.607  27.611  1.00  0.00    -0.237 OA
ATOM     77  O   UNL A   1      33.529  32.522  28.540  1.00  0.00    -0.237 OA
ATOM     78  O   UNL A   1      34.329  34.664  29.479  1.00  0.00    -0.744 OA
ENDBRANCH  71  75
ENDBRANCH  54  68
BRANCH  55  79
ATOM     79  C   UNL A   1      46.821  28.347  27.245  1.00  0.00     0.023 A 
ATOM     80  C   UNL A   1      47.057  28.235  25.860  1.00  0.00     0.031 A 
ATOM     81  C   UNL A   1      47.783  27.827  28.125  1.00  0.00     0.131 A 
ATOM     82  C   UNL A   1      48.179  27.535  25.400  1.00  0.00     0.055 A 
ATOM     83  C   UNL A   1      48.942  27.202  27.660  1.00  0.00     0.041 A 
ATOM     84  F   UNL A   1      47.589  27.888  29.452  1.00  0.00    -0.206 F 
ATOM     85  C   UNL A   1      49.133  27.033  26.291  1.00  0.00     0.022 A 
BRANCH  82  86
ATOM     86  S   UNL A   1      48.348  27.105  23.645  1.00  0.00     0.124 S 
ATOM     87  O   UNL A   1      47.431  28.048  23.011  1.00  0.00    -0.237 OA
ATOM     88  O   UNL A   1      49.769  27.355  23.413  1.00  0.00    -0.237 OA
ATOM     89  O   UNL A   1      47.948  25.703  23.592  1.00  0.00    -0.744 OA
ENDBRANCH  82  86
ENDBRANCH  55  79
BRANCH  67  90
ATOM     90  C   UNL A   1      44.263  34.299  30.042  1.00  0.00     0.023 A 
ATOM     91  C   UNL A   1      44.718  34.564  31.349  1.00  0.00     0.031 A 
ATOM     92  C   UNL A   1      44.228  35.360  29.122  1.00  0.00     0.131 A 
ATOM     93  C   UNL A   1      45.061  35.870  31.715  1.00  0.00     0.055 A 
ATOM     94  C   UNL A   1      44.633  36.648  29.475  1.00  0.00     0.041 A 
ATOM     95  F   UNL A   1      43.794  35.162  27.867  1.00  0.00    -0.206 F 
ATOM     96  C   UNL A   1      45.033  36.912  30.782  1.00  0.00     0.022 A 
BRANCH  93  97
ATOM     97  S   UNL A   1      45.447  36.287  33.438  1.00  0.00     0.124 S 
ATOM     98  O   UNL A   1      44.339  35.662  34.156  1.00  0.00    -0.237 OA
ATOM     99  O   UNL A   1      46.747  35.650  33.622  1.00  0.00    -0.237 OA
ATOM    100  O   UNL A   1      45.454  37.746  33.455  1.00  0.00    -0.744 OA
ENDBRANCH  93  97
ENDBRANCH  67  90
ENDBRANCH  41  42
ENDBRANCH  34  36
ENDBRANCH  33  34
ENDBRANCH  32  33
ENDBRANCH  31  32
ENDBRANCH  30  31
ENDBRANCH  29  30
ENDBRANCH   1  29
TORSDOF 24
ENDMDL
