MODEL 1
REMARK VINA RESULT:      -9.2      0.000      0.000
REMARK SMILES Cc1sc2nc(SCc3ccc(C(=O)OCCOCCOCCOCCOC(=O)c4ccc(-c5c6nc(c(-c7cc(S(=O)(=O)[O-])ccc7F)c7ccc([nH]7)c(-c7cc(S(=O)(=O)[O-])ccc7F)c7nc(c(-c8cc(S(=O)(=O)[O-])ccc8F)c8ccc5[nH]8)C=C7)C=C6)cc4)cc3)n(Cc3ccco3)c(=O)c2c1C
REMARK SMILES IDX 20 1 19 2 18 3 17 4 16 5 15 6 13 7 14 8 12 9 9 10 10 11
REMARK SMILES IDX 94 12 11 13 93 14 8 15 7 16 6 17 1 18 2 19 3 20 105 21 4 22
REMARK SMILES IDX 104 23 106 24 5 25 102 26 95 27 103 28 96 29 97 30 98 31
REMARK SMILES IDX 101 32 99 33 100 34 21 35 22 36 23 37 24 38 25 39 26 40
REMARK SMILES IDX 27 41 28 42 29 43 30 44 31 45 92 46 32 47 91 48 33 49 34 50
REMARK SMILES IDX 35 51 85 52 36 53 90 54 84 55 86 56 37 57 89 58 83 59 82 60
REMARK SMILES IDX 38 62 70 63 50 64 69 65 51 66 54 67 68 68 87 69 52 70 53 71
REMARK SMILES IDX 67 73 88 74 55 75 39 76 40 77 48 78 41 79 47 80 49 81 46 82
REMARK SMILES IDX 42 83 43 84 44 85 45 86 71 87 72 88 80 89 73 90 79 91 81 92
REMARK SMILES IDX 78 93 74 94 75 95 76 96 77 97 56 98 57 99 65 100 58 101
REMARK SMILES IDX 64 102 66 103 63 104 59 105 60 106 61 107 62 108
REMARK H PARENT 86 61 54 72
REMARK Flexibility Score: inf
ROOT
ATOM      1  C   UNL A   1      42.279  19.389  26.668  1.00  0.00     0.188 C 
ENDROOT
BRANCH   1   2
ATOM      2  C   UNL A   1      41.763  20.757  27.180  1.00  0.00     0.188 C 
BRANCH   2   3
ATOM      3  O   UNL A   1      42.692  21.777  27.553  1.00  0.00    -0.376 OA
BRANCH   3   4
ATOM      4  C   UNL A   1      42.350  22.653  28.625  1.00  0.00     0.202 C 
BRANCH   4   5
ATOM      5  C   UNL A   1      42.321  24.157  28.325  1.00  0.00     0.261 C 
BRANCH   5   6
ATOM      6  O   UNL A   1      41.482  24.472  27.202  1.00  0.00    -0.460 OA
BRANCH   6   7
ATOM      7  C   UNL A   1      40.190  24.728  27.478  1.00  0.00     0.338 C 
ATOM      8  O   UNL A   1      39.261  23.937  27.426  1.00  0.00    -0.246 OA
BRANCH   7   9
ATOM      9  C   UNL A   1      40.013  26.129  27.923  1.00  0.00     0.060 A 
ATOM     10  C   UNL A   1      39.027  28.707  28.451  1.00  0.00    -0.038 A 
ATOM     11  C   UNL A   1      38.939  27.721  29.425  1.00  0.00     0.005 A 
ATOM     12  C   UNL A   1      39.785  28.433  27.290  1.00  0.00     0.005 A 
ATOM     13  C   UNL A   1      39.386  26.432  29.136  1.00  0.00     0.016 A 
ATOM     14  C   UNL A   1      40.277  27.154  27.025  1.00  0.00     0.016 A 
BRANCH  10  15
ATOM     15  C   UNL A   1      38.214  29.973  28.459  1.00  0.00     0.113 C 
BRANCH  15  16
ATOM     16  S   UNL A   1      36.477  30.017  28.788  1.00  0.00    -0.083 SA
BRANCH  16  17
ATOM     17  C   UNL A   1      35.791  31.419  29.574  1.00  0.00     0.173 A 
ATOM     18  C   UNL A   1      33.016  36.872  28.946  1.00  0.00     0.057 C 
ATOM     19  C   UNL A   1      33.680  35.573  29.273  1.00  0.00     0.007 A 
ATOM     20  S   UNL A   1      34.272  34.590  28.000  1.00  0.00    -0.120 S 
ATOM     21  C   UNL A   1      33.903  35.001  30.518  1.00  0.00    -0.022 A 
ATOM     22  C   UNL A   1      34.778  33.379  29.078  1.00  0.00     0.132 A 
ATOM     23  C   UNL A   1      34.434  33.671  30.367  1.00  0.00     0.080 A 
ATOM     24  C   UNL A   1      33.628  35.662  31.830  1.00  0.00     0.046 C 
ATOM     25  N   UNL A   1      35.398  32.259  28.659  1.00  0.00    -0.213 NA
ATOM     26  C   UNL A   1      34.682  32.643  31.353  1.00  0.00     0.263 A 
ATOM     27  N   UNL A   1      35.551  31.610  30.937  1.00  0.00    -0.279 N 
ATOM     28  O   UNL A   1      34.118  32.662  32.447  1.00  0.00    -0.268 OA
BRANCH  27  29
ATOM     29  C   UNL A   1      36.041  30.823  32.063  1.00  0.00     0.203 C 
BRANCH  29  30
ATOM     30  C   UNL A   1      37.358  31.353  32.584  1.00  0.00     0.123 A 
ATOM     31  C   UNL A   1      37.699  32.122  33.681  1.00  0.00     0.047 A 
ATOM     32  O   UNL A   1      38.497  31.062  31.876  1.00  0.00    -0.467 OA
ATOM     33  C   UNL A   1      39.104  32.322  33.622  1.00  0.00     0.042 A 
ATOM     34  C   UNL A   1      39.537  31.676  32.492  1.00  0.00     0.195 A 
ENDBRANCH  29  30
ENDBRANCH  27  29
ENDBRANCH  16  17
ENDBRANCH  15  16
ENDBRANCH  10  15
ENDBRANCH   7   9
ENDBRANCH   6   7
ENDBRANCH   5   6
ENDBRANCH   4   5
ENDBRANCH   3   4
ENDBRANCH   2   3
ENDBRANCH   1   2
BRANCH   1  35
ATOM     35  O   UNL A   1      42.675  19.401  25.312  1.00  0.00    -0.377 OA
BRANCH  35  36
ATOM     36  C   UNL A   1      43.659  18.445  24.948  1.00  0.00     0.188 C 
BRANCH  36  37
ATOM     37  C   UNL A   1      45.032  18.574  25.630  1.00  0.00     0.188 C 
BRANCH  37  38
ATOM     38  O   UNL A   1      46.093  18.860  24.716  1.00  0.00    -0.376 OA
BRANCH  38  39
ATOM     39  C   UNL A   1      46.432  20.235  24.539  1.00  0.00     0.202 C 
BRANCH  39  40
ATOM     40  C   UNL A   1      45.667  21.223  25.436  1.00  0.00     0.261 C 
BRANCH  40  41
ATOM     41  O   UNL A   1      45.667  22.594  25.007  1.00  0.00    -0.460 OA
BRANCH  41  42
ATOM     42  C   UNL A   1      44.464  23.188  24.852  1.00  0.00     0.338 C 
ATOM     43  O   UNL A   1      43.429  22.673  24.484  1.00  0.00    -0.246 OA
BRANCH  42  44
ATOM     44  C   UNL A   1      44.563  24.546  25.393  1.00  0.00     0.060 A 
ATOM     45  C   UNL A   1      45.442  24.803  26.451  1.00  0.00     0.016 A 
ATOM     46  C   UNL A   1      43.714  25.530  24.909  1.00  0.00     0.016 A 
ATOM     47  C   UNL A   1      45.446  26.053  27.056  1.00  0.00     0.010 A 
ATOM     48  C   UNL A   1      43.680  26.759  25.557  1.00  0.00     0.010 A 
ATOM     49  C   UNL A   1      44.510  27.020  26.662  1.00  0.00    -0.014 A 
BRANCH  49  50
ATOM     50  C   UNL A   1      44.345  28.243  27.490  1.00  0.00     0.031 A 
ATOM     51  C   UNL A   1      44.003  28.031  28.925  1.00  0.00     0.074 A 
ATOM     52  C   UNL A   1      45.061  29.354  27.193  1.00  0.00     0.049 A 
ATOM     53  N   UNL A   1      44.895  27.597  29.766  1.00  0.00    -0.248 NA
ATOM     54  C   UNL A   1      42.641  28.024  29.452  1.00  0.00     0.031 C 
ATOM     55  C   UNL A   1      46.269  29.338  26.347  1.00  0.00     0.029 A 
ATOM     56  N   UNL A   1      45.049  30.621  27.732  1.00  0.00    -0.354 N 
ATOM     57  C   UNL A   1      44.221  27.132  30.873  1.00  0.00     0.074 A 
ATOM     58  C   UNL A   1      42.831  27.474  30.663  1.00  0.00     0.031 C 
ATOM     59  C   UNL A   1      46.974  30.460  26.569  1.00  0.00     0.029 A 
ATOM     60  C   UNL A   1      46.216  31.335  27.452  1.00  0.00     0.049 A 
ATOM     61  H   UNL A   1      44.299  30.984  28.257  1.00  0.00     0.167 HD
ATOM     62  C   UNL A   1      44.843  26.436  31.859  1.00  0.00     0.034 A 
ATOM     63  C   UNL A   1      46.793  32.252  28.275  1.00  0.00     0.034 A 
ATOM     64  C   UNL A   1      46.248  26.209  31.671  1.00  0.00     0.049 A 
ATOM     65  C   UNL A   1      47.251  31.384  29.425  1.00  0.00     0.074 A 
ATOM     66  C   UNL A   1      47.042  25.205  31.159  1.00  0.00     0.029 A 
ATOM     67  N   UNL A   1      47.121  27.235  31.950  1.00  0.00    -0.354 N 
ATOM     68  N   UNL A   1      48.317  30.624  29.450  1.00  0.00    -0.248 NA
ATOM     69  C   UNL A   1      46.287  31.108  30.491  1.00  0.00     0.031 C 
ATOM     70  C   UNL A   1      48.259  25.841  30.756  1.00  0.00     0.029 A 
ATOM     71  C   UNL A   1      48.108  27.208  30.992  1.00  0.00     0.049 A 
ATOM     72  H   UNL A   1      47.052  27.871  32.698  1.00  0.00     0.167 HD
ATOM     73  C   UNL A   1      48.023  29.598  30.355  1.00  0.00     0.074 A 
ATOM     74  C   UNL A   1      46.778  29.982  30.986  1.00  0.00     0.031 C 
ATOM     75  C   UNL A   1      48.692  28.406  30.415  1.00  0.00     0.034 A 
BRANCH  62  76
ATOM     76  C   UNL A   1      44.177  26.018  33.104  1.00  0.00     0.023 A 
ATOM     77  C   UNL A   1      43.551  26.923  33.972  1.00  0.00     0.031 A 
ATOM     78  C   UNL A   1      44.050  24.640  33.345  1.00  0.00     0.131 A 
ATOM     79  C   UNL A   1      42.804  26.424  35.048  1.00  0.00     0.055 A 
ATOM     80  C   UNL A   1      43.305  24.149  34.411  1.00  0.00     0.041 A 
ATOM     81  F   UNL A   1      44.626  23.756  32.512  1.00  0.00    -0.206 F 
ATOM     82  C   UNL A   1      42.671  25.045  35.266  1.00  0.00     0.022 A 
BRANCH  79  83
ATOM     83  S   UNL A   1      41.935  27.534  36.190  1.00  0.00     0.124 S 
ATOM     84  O   UNL A   1      41.104  28.321  35.284  1.00  0.00    -0.237 OA
ATOM     85  O   UNL A   1      41.214  26.589  37.039  1.00  0.00    -0.237 OA
ATOM     86  O   UNL A   1      43.011  28.267  36.850  1.00  0.00    -0.744 OA
ENDBRANCH  79  83
ENDBRANCH  62  76
BRANCH  63  87
ATOM     87  C   UNL A   1      45.986  33.505  28.433  1.00  0.00     0.023 A 
ATOM     88  C   UNL A   1      44.823  33.621  29.205  1.00  0.00     0.031 A 
ATOM     89  C   UNL A   1      46.394  34.660  27.725  1.00  0.00     0.131 A 
ATOM     90  C   UNL A   1      44.021  34.770  29.108  1.00  0.00     0.055 A 
ATOM     91  C   UNL A   1      45.627  35.828  27.680  1.00  0.00     0.041 A 
ATOM     92  F   UNL A   1      47.552  34.667  27.041  1.00  0.00    -0.206 F 
ATOM     93  C   UNL A   1      44.414  35.875  28.350  1.00  0.00     0.022 A 
BRANCH  90  94
ATOM     94  S   UNL A   1      42.400  34.819  29.920  1.00  0.00     0.124 S 
ATOM     95  O   UNL A   1      41.984  33.420  29.883  1.00  0.00    -0.237 OA
ATOM     96  O   UNL A   1      42.758  35.338  31.237  1.00  0.00    -0.237 OA
ATOM     97  O   UNL A   1      41.629  35.724  29.074  1.00  0.00    -0.744 OA
ENDBRANCH  90  94
ENDBRANCH  63  87
BRANCH  75  98
ATOM     98  C   UNL A   1      49.977  28.311  29.648  1.00  0.00     0.023 A 
ATOM     99  C   UNL A   1      50.027  27.752  28.356  1.00  0.00     0.031 A 
ATOM    100  C   UNL A   1      51.187  28.677  30.257  1.00  0.00     0.131 A 
ATOM    101  C   UNL A   1      51.266  27.510  27.746  1.00  0.00     0.055 A 
ATOM    102  C   UNL A   1      52.416  28.487  29.621  1.00  0.00     0.041 A 
ATOM    103  F   UNL A   1      51.202  29.175  31.505  1.00  0.00    -0.206 F 
ATOM    104  C   UNL A   1      52.460  27.888  28.365  1.00  0.00     0.022 A 
BRANCH 101 105
ATOM    105  S   UNL A   1      51.371  26.640  26.158  1.00  0.00     0.124 S 
ATOM    106  O   UNL A   1      50.000  26.172  25.960  1.00  0.00    -0.237 OA
ATOM    107  O   UNL A   1      51.796  27.710  25.258  1.00  0.00    -0.237 OA
ATOM    108  O   UNL A   1      52.358  25.592  26.395  1.00  0.00    -0.744 OA
ENDBRANCH 101 105
ENDBRANCH  75  98
ENDBRANCH  49  50
ENDBRANCH  42  44
ENDBRANCH  41  42
ENDBRANCH  40  41
ENDBRANCH  39  40
ENDBRANCH  38  39
ENDBRANCH  37  38
ENDBRANCH  36  37
ENDBRANCH  35  36
ENDBRANCH   1  35
TORSDOF 28
ENDMDL
MODEL 2
REMARK VINA RESULT:      -8.1      1.530      2.142
REMARK SMILES Cc1sc2nc(SCc3ccc(C(=O)OCCOCCOCCOCCOC(=O)c4ccc(-c5c6nc(c(-c7cc(S(=O)(=O)[O-])ccc7F)c7ccc([nH]7)c(-c7cc(S(=O)(=O)[O-])ccc7F)c7nc(c(-c8cc(S(=O)(=O)[O-])ccc8F)c8ccc5[nH]8)C=C7)C=C6)cc4)cc3)n(Cc3ccco3)c(=O)c2c1C
REMARK SMILES IDX 20 1 19 2 18 3 17 4 16 5 15 6 13 7 14 8 12 9 9 10 10 11
REMARK SMILES IDX 94 12 11 13 93 14 8 15 7 16 6 17 1 18 2 19 3 20 105 21 4 22
REMARK SMILES IDX 104 23 106 24 5 25 102 26 95 27 103 28 96 29 97 30 98 31
REMARK SMILES IDX 101 32 99 33 100 34 21 35 22 36 23 37 24 38 25 39 26 40
REMARK SMILES IDX 27 41 28 42 29 43 30 44 31 45 92 46 32 47 91 48 33 49 34 50
REMARK SMILES IDX 35 51 85 52 36 53 90 54 84 55 86 56 37 57 89 58 83 59 82 60
REMARK SMILES IDX 38 62 70 63 50 64 69 65 51 66 54 67 68 68 87 69 52 70 53 71
REMARK SMILES IDX 67 73 88 74 55 75 39 76 40 77 48 78 41 79 47 80 49 81 46 82
REMARK SMILES IDX 42 83 43 84 44 85 45 86 71 87 72 88 80 89 73 90 79 91 81 92
REMARK SMILES IDX 78 93 74 94 75 95 76 96 77 97 56 98 57 99 65 100 58 101
REMARK SMILES IDX 64 102 66 103 63 104 59 105 60 106 61 107 62 108
REMARK H PARENT 86 61 54 72
REMARK Flexibility Score: inf
ROOT
ATOM      1  C   UNL A   1      42.262  19.520  26.824  1.00  0.00     0.188 C 
ENDROOT
BRANCH   1   2
ATOM      2  C   UNL A   1      41.719  20.891  27.296  1.00  0.00     0.188 C 
BRANCH   2   3
ATOM      3  O   UNL A   1      42.579  21.804  27.980  1.00  0.00    -0.376 OA
BRANCH   3   4
ATOM      4  C   UNL A   1      41.992  22.807  28.807  1.00  0.00     0.202 C 
BRANCH   4   5
ATOM      5  C   UNL A   1      42.303  24.271  28.469  1.00  0.00     0.261 C 
BRANCH   5   6
ATOM      6  O   UNL A   1      41.513  24.756  27.371  1.00  0.00    -0.460 OA
BRANCH   6   7
ATOM      7  C   UNL A   1      40.179  24.644  27.505  1.00  0.00     0.338 C 
ATOM      8  O   UNL A   1      39.504  23.648  27.297  1.00  0.00    -0.246 OA
BRANCH   7   9
ATOM      9  C   UNL A   1      39.591  25.909  28.004  1.00  0.00     0.060 A 
ATOM     10  C   UNL A   1      39.119  28.363  29.289  1.00  0.00    -0.038 A 
ATOM     11  C   UNL A   1      39.546  28.346  27.968  1.00  0.00     0.005 A 
ATOM     12  C   UNL A   1      38.750  27.136  29.888  1.00  0.00     0.005 A 
ATOM     13  C   UNL A   1      39.825  27.125  27.355  1.00  0.00     0.016 A 
ATOM     14  C   UNL A   1      38.982  25.915  29.252  1.00  0.00     0.016 A 
BRANCH  10  15
ATOM     15  C   UNL A   1      39.204  29.568  30.187  1.00  0.00     0.113 C 
BRANCH  15  16
ATOM     16  S   UNL A   1      38.756  31.200  29.675  1.00  0.00    -0.083 SA
BRANCH  16  17
ATOM     17  C   UNL A   1      37.131  31.503  29.108  1.00  0.00     0.173 A 
ATOM     18  C   UNL A   1      32.255  29.409  25.999  1.00  0.00     0.057 C 
ATOM     19  C   UNL A   1      33.345  30.064  26.785  1.00  0.00     0.007 A 
ATOM     20  S   UNL A   1      34.859  29.275  26.936  1.00  0.00    -0.120 S 
ATOM     21  C   UNL A   1      33.323  31.280  27.454  1.00  0.00    -0.022 A 
ATOM     22  C   UNL A   1      35.478  30.506  27.928  1.00  0.00     0.132 A 
ATOM     23  C   UNL A   1      34.536  31.454  28.209  1.00  0.00     0.080 A 
ATOM     24  C   UNL A   1      32.203  32.268  27.405  1.00  0.00     0.046 C 
ATOM     25  N   UNL A   1      36.741  30.482  28.399  1.00  0.00    -0.213 NA
ATOM     26  C   UNL A   1      34.906  32.472  29.167  1.00  0.00     0.263 A 
ATOM     27  N   UNL A   1      36.290  32.569  29.435  1.00  0.00    -0.279 N 
ATOM     28  O   UNL A   1      34.051  33.152  29.733  1.00  0.00    -0.268 OA
BRANCH  27  29
ATOM     29  C   UNL A   1      36.630  33.819  30.106  1.00  0.00     0.203 C 
BRANCH  29  30
ATOM     30  C   UNL A   1      36.446  33.717  31.604  1.00  0.00     0.123 A 
ATOM     31  C   UNL A   1      36.222  34.655  32.594  1.00  0.00     0.047 A 
ATOM     32  O   UNL A   1      36.507  32.472  32.178  1.00  0.00    -0.467 OA
ATOM     33  C   UNL A   1      36.166  33.948  33.825  1.00  0.00     0.042 A 
ATOM     34  C   UNL A   1      36.368  32.626  33.518  1.00  0.00     0.195 A 
ENDBRANCH  29  30
ENDBRANCH  27  29
ENDBRANCH  16  17
ENDBRANCH  15  16
ENDBRANCH  10  15
ENDBRANCH   7   9
ENDBRANCH   6   7
ENDBRANCH   5   6
ENDBRANCH   4   5
ENDBRANCH   3   4
ENDBRANCH   2   3
ENDBRANCH   1   2
BRANCH   1  35
ATOM     35  O   UNL A   1      42.783  19.536  25.511  1.00  0.00    -0.377 OA
BRANCH  35  36
ATOM     36  C   UNL A   1      43.740  18.530  25.215  1.00  0.00     0.188 C 
BRANCH  36  37
ATOM     37  C   UNL A   1      45.211  18.869  25.511  1.00  0.00     0.188 C 
BRANCH  37  38
ATOM     38  O   UNL A   1      45.953  19.233  24.344  1.00  0.00    -0.376 OA
BRANCH  38  39
ATOM     39  C   UNL A   1      46.339  20.603  24.234  1.00  0.00     0.202 C 
BRANCH  39  40
ATOM     40  C   UNL A   1      45.707  21.552  25.267  1.00  0.00     0.261 C 
BRANCH  40  41
ATOM     41  O   UNL A   1      45.596  22.928  24.873  1.00  0.00    -0.460 OA
BRANCH  41  42
ATOM     42  C   UNL A   1      44.353  23.453  24.819  1.00  0.00     0.338 C 
ATOM     43  O   UNL A   1      43.331  22.895  24.480  1.00  0.00    -0.246 OA
BRANCH  42  44
ATOM     44  C   UNL A   1      44.402  24.783  25.433  1.00  0.00     0.060 A 
ATOM     45  C   UNL A   1      45.288  25.022  26.489  1.00  0.00     0.016 A 
ATOM     46  C   UNL A   1      43.502  25.752  25.017  1.00  0.00     0.016 A 
ATOM     47  C   UNL A   1      45.249  26.236  27.161  1.00  0.00     0.010 A 
ATOM     48  C   UNL A   1      43.426  26.942  25.732  1.00  0.00     0.010 A 
ATOM     49  C   UNL A   1      44.264  27.180  26.836  1.00  0.00    -0.014 A 
BRANCH  49  50
ATOM     50  C   UNL A   1      44.061  28.348  27.732  1.00  0.00     0.031 A 
ATOM     51  C   UNL A   1      43.828  28.046  29.173  1.00  0.00     0.074 A 
ATOM     52  C   UNL A   1      44.671  29.523  27.448  1.00  0.00     0.049 A 
ATOM     53  N   UNL A   1      44.802  27.645  29.936  1.00  0.00    -0.248 NA
ATOM     54  C   UNL A   1      42.507  27.908  29.779  1.00  0.00     0.031 C 
ATOM     55  C   UNL A   1      45.821  29.640  26.533  1.00  0.00     0.029 A 
ATOM     56  N   UNL A   1      44.599  30.760  28.050  1.00  0.00    -0.354 N 
ATOM     57  C   UNL A   1      44.236  27.078  31.057  1.00  0.00     0.074 A 
ATOM     58  C   UNL A   1      42.813  27.321  30.949  1.00  0.00     0.031 C 
ATOM     59  C   UNL A   1      46.453  30.802  26.768  1.00  0.00     0.029 A 
ATOM     60  C   UNL A   1      45.689  31.575  27.737  1.00  0.00     0.049 A 
ATOM     61  H   UNL A   1      43.859  31.039  28.636  1.00  0.00     0.167 HD
ATOM     62  C   UNL A   1      44.970  26.389  31.968  1.00  0.00     0.034 A 
ATOM     63  C   UNL A   1      46.246  32.495  28.569  1.00  0.00     0.034 A 
ATOM     64  C   UNL A   1      46.373  26.282  31.685  1.00  0.00     0.049 A 
ATOM     65  C   UNL A   1      46.841  31.615  29.644  1.00  0.00     0.074 A 
ATOM     66  C   UNL A   1      47.206  25.367  31.077  1.00  0.00     0.029 A 
ATOM     67  N   UNL A   1      47.183  27.359  31.962  1.00  0.00    -0.354 N 
ATOM     68  N   UNL A   1      47.960  30.940  29.567  1.00  0.00    -0.248 NA
ATOM     69  C   UNL A   1      45.970  31.217  30.750  1.00  0.00     0.031 C 
ATOM     70  C   UNL A   1      48.344  26.113  30.634  1.00  0.00     0.029 A 
ATOM     71  C   UNL A   1      48.106  27.452  30.947  1.00  0.00     0.049 A 
ATOM     72  H   UNL A   1      47.114  27.953  32.744  1.00  0.00     0.167 HD
ATOM     73  C   UNL A   1      47.801  29.854  30.436  1.00  0.00     0.074 A 
ATOM     74  C   UNL A   1      46.574  30.112  31.159  1.00  0.00     0.031 C 
ATOM     75  C   UNL A   1      48.561  28.717  30.396  1.00  0.00     0.034 A 
BRANCH  62  76
ATOM     76  C   UNL A   1      44.417  25.865  33.228  1.00  0.00     0.023 A 
ATOM     77  C   UNL A   1      43.979  26.695  34.270  1.00  0.00     0.031 A 
ATOM     78  C   UNL A   1      44.197  24.481  33.317  1.00  0.00     0.131 A 
ATOM     79  C   UNL A   1      43.319  26.117  35.364  1.00  0.00     0.055 A 
ATOM     80  C   UNL A   1      43.539  23.913  34.403  1.00  0.00     0.041 A 
ATOM     81  F   UNL A   1      44.592  23.671  32.320  1.00  0.00    -0.206 F 
ATOM     82  C   UNL A   1      43.091  24.736  35.431  1.00  0.00     0.022 A 
BRANCH  79  83
ATOM     83  S   UNL A   1      42.691  27.133  36.730  1.00  0.00     0.124 S 
ATOM     84  O   UNL A   1      43.487  28.349  36.603  1.00  0.00    -0.237 OA
ATOM     85  O   UNL A   1      41.279  27.269  36.378  1.00  0.00    -0.237 OA
ATOM     86  O   UNL A   1      42.961  26.327  37.916  1.00  0.00    -0.744 OA
ENDBRANCH  79  83
ENDBRANCH  62  76
BRANCH  63  87
ATOM     87  C   UNL A   1      45.360  33.674  28.837  1.00  0.00     0.023 A 
ATOM     88  C   UNL A   1      44.454  34.223  27.922  1.00  0.00     0.031 A 
ATOM     89  C   UNL A   1      45.461  34.318  30.093  1.00  0.00     0.131 A 
ATOM     90  C   UNL A   1      43.838  35.456  28.189  1.00  0.00     0.055 A 
ATOM     91  C   UNL A   1      44.797  35.513  30.384  1.00  0.00     0.041 A 
ATOM     92  F   UNL A   1      46.231  33.799  31.066  1.00  0.00    -0.206 F 
ATOM     93  C   UNL A   1      44.003  36.107  29.414  1.00  0.00     0.022 A 
BRANCH  90  94
ATOM     94  S   UNL A   1      42.854  36.280  26.907  1.00  0.00     0.124 S 
ATOM     95  O   UNL A   1      41.643  36.658  27.631  1.00  0.00    -0.237 OA
ATOM     96  O   UNL A   1      43.737  37.381  26.534  1.00  0.00    -0.237 OA
ATOM     97  O   UNL A   1      42.680  35.240  25.899  1.00  0.00    -0.744 OA
ENDBRANCH  90  94
ENDBRANCH  63  87
BRANCH  75  98
ATOM     98  C   UNL A   1      49.798  28.757  29.550  1.00  0.00     0.023 A 
ATOM     99  C   UNL A   1      49.746  28.568  28.155  1.00  0.00     0.031 A 
ATOM    100  C   UNL A   1      51.059  28.870  30.154  1.00  0.00     0.131 A 
ATOM    101  C   UNL A   1      50.933  28.427  27.423  1.00  0.00     0.055 A 
ATOM    102  C   UNL A   1      52.239  28.787  29.412  1.00  0.00     0.041 A 
ATOM    103  F   UNL A   1      51.169  29.009  31.487  1.00  0.00    -0.206 F 
ATOM    104  C   UNL A   1      52.180  28.550  28.041  1.00  0.00     0.022 A 
BRANCH 101 105
ATOM    105  S   UNL A   1      50.899  28.015  25.657  1.00  0.00     0.124 S 
ATOM    106  O   UNL A   1      51.948  27.002  25.546  1.00  0.00    -0.237 OA
ATOM    107  O   UNL A   1      49.536  27.515  25.492  1.00  0.00    -0.237 OA
ATOM    108  O   UNL A   1      51.186  29.282  24.994  1.00  0.00    -0.744 OA
ENDBRANCH 101 105
ENDBRANCH  75  98
ENDBRANCH  49  50
ENDBRANCH  42  44
ENDBRANCH  41  42
ENDBRANCH  40  41
ENDBRANCH  39  40
ENDBRANCH  38  39
ENDBRANCH  37  38
ENDBRANCH  36  37
ENDBRANCH  35  36
ENDBRANCH   1  35
TORSDOF 28
ENDMDL
MODEL 3
REMARK VINA RESULT:      -7.8      2.130      3.262
REMARK SMILES Cc1sc2nc(SCc3ccc(C(=O)OCCOCCOCCOCCOC(=O)c4ccc(-c5c6nc(c(-c7cc(S(=O)(=O)[O-])ccc7F)c7ccc([nH]7)c(-c7cc(S(=O)(=O)[O-])ccc7F)c7nc(c(-c8cc(S(=O)(=O)[O-])ccc8F)c8ccc5[nH]8)C=C7)C=C6)cc4)cc3)n(Cc3ccco3)c(=O)c2c1C
REMARK SMILES IDX 20 1 19 2 18 3 17 4 16 5 15 6 13 7 14 8 12 9 9 10 10 11
REMARK SMILES IDX 94 12 11 13 93 14 8 15 7 16 6 17 1 18 2 19 3 20 105 21 4 22
REMARK SMILES IDX 104 23 106 24 5 25 102 26 95 27 103 28 96 29 97 30 98 31
REMARK SMILES IDX 101 32 99 33 100 34 21 35 22 36 23 37 24 38 25 39 26 40
REMARK SMILES IDX 27 41 28 42 29 43 30 44 31 45 92 46 32 47 91 48 33 49 34 50
REMARK SMILES IDX 35 51 85 52 36 53 90 54 84 55 86 56 37 57 89 58 83 59 82 60
REMARK SMILES IDX 38 62 70 63 50 64 69 65 51 66 54 67 68 68 87 69 52 70 53 71
REMARK SMILES IDX 67 73 88 74 55 75 39 76 40 77 48 78 41 79 47 80 49 81 46 82
REMARK SMILES IDX 42 83 43 84 44 85 45 86 71 87 72 88 80 89 73 90 79 91 81 92
REMARK SMILES IDX 78 93 74 94 75 95 76 96 77 97 56 98 57 99 65 100 58 101
REMARK SMILES IDX 64 102 66 103 63 104 59 105 60 106 61 107 62 108
REMARK H PARENT 86 61 54 72
REMARK Flexibility Score: inf
ROOT
ATOM      1  C   UNL A   1      42.057  19.535  26.380  1.00  0.00     0.188 C 
ENDROOT
BRANCH   1   2
ATOM      2  C   UNL A   1      41.667  20.919  26.955  1.00  0.00     0.188 C 
BRANCH   2   3
ATOM      3  O   UNL A   1      40.987  21.869  26.134  1.00  0.00    -0.376 OA
BRANCH   3   4
ATOM      4  C   UNL A   1      41.007  23.243  26.517  1.00  0.00     0.202 C 
BRANCH   4   5
ATOM      5  C   UNL A   1      39.773  23.790  27.245  1.00  0.00     0.261 C 
BRANCH   5   6
ATOM      6  O   UNL A   1      40.118  24.500  28.445  1.00  0.00    -0.460 OA
BRANCH   6   7
ATOM      7  C   UNL A   1      41.000  25.506  28.308  1.00  0.00     0.338 C 
ATOM      8  O   UNL A   1      42.196  25.405  28.082  1.00  0.00    -0.246 OA
BRANCH   7   9
ATOM      9  C   UNL A   1      40.324  26.819  28.416  1.00  0.00     0.060 A 
ATOM     10  C   UNL A   1      38.513  28.962  28.259  1.00  0.00    -0.038 A 
ATOM     11  C   UNL A   1      38.564  28.184  29.409  1.00  0.00     0.005 A 
ATOM     12  C   UNL A   1      39.510  28.769  27.277  1.00  0.00     0.005 A 
ATOM     13  C   UNL A   1      39.430  27.092  29.457  1.00  0.00     0.016 A 
ATOM     14  C   UNL A   1      40.412  27.706  27.352  1.00  0.00     0.016 A 
BRANCH  10  15
ATOM     15  C   UNL A   1      37.360  29.861  27.902  1.00  0.00     0.113 C 
BRANCH  15  16
ATOM     16  S   UNL A   1      36.410  30.754  29.096  1.00  0.00    -0.083 SA
BRANCH  16  17
ATOM     17  C   UNL A   1      37.234  31.759  30.265  1.00  0.00     0.173 A 
ATOM     18  C   UNL A   1      42.587  33.952  32.354  1.00  0.00     0.057 C 
ATOM     19  C   UNL A   1      41.209  33.515  31.974  1.00  0.00     0.007 A 
ATOM     20  S   UNL A   1      41.012  32.359  30.723  1.00  0.00    -0.120 S 
ATOM     21  C   UNL A   1      39.992  33.922  32.501  1.00  0.00    -0.022 A 
ATOM     22  C   UNL A   1      39.319  32.428  30.832  1.00  0.00     0.132 A 
ATOM     23  C   UNL A   1      38.906  33.365  31.738  1.00  0.00     0.080 A 
ATOM     24  C   UNL A   1      39.825  34.814  33.688  1.00  0.00     0.046 C 
ATOM     25  N   UNL A   1      38.517  31.666  30.063  1.00  0.00    -0.213 NA
ATOM     26  C   UNL A   1      37.484  33.616  31.808  1.00  0.00     0.263 A 
ATOM     27  N   UNL A   1      36.671  32.639  31.192  1.00  0.00    -0.279 N 
ATOM     28  O   UNL A   1      37.046  34.644  32.323  1.00  0.00    -0.268 OA
BRANCH  27  29
ATOM     29  C   UNL A   1      35.276  32.751  31.604  1.00  0.00     0.203 C 
BRANCH  29  30
ATOM     30  C   UNL A   1      34.536  33.789  30.790  1.00  0.00     0.123 A 
ATOM     31  C   UNL A   1      33.746  34.872  31.133  1.00  0.00     0.047 A 
ATOM     32  O   UNL A   1      34.605  33.707  29.422  1.00  0.00    -0.467 OA
ATOM     33  C   UNL A   1      33.301  35.457  29.918  1.00  0.00     0.042 A 
ATOM     34  C   UNL A   1      33.833  34.696  28.907  1.00  0.00     0.195 A 
ENDBRANCH  29  30
ENDBRANCH  27  29
ENDBRANCH  16  17
ENDBRANCH  15  16
ENDBRANCH  10  15
ENDBRANCH   7   9
ENDBRANCH   6   7
ENDBRANCH   5   6
ENDBRANCH   4   5
ENDBRANCH   3   4
ENDBRANCH   2   3
ENDBRANCH   1   2
BRANCH   1  35
ATOM     35  O   UNL A   1      42.695  19.602  25.121  1.00  0.00    -0.377 OA
BRANCH  35  36
ATOM     36  C   UNL A   1      43.826  18.759  24.958  1.00  0.00     0.188 C 
BRANCH  36  37
ATOM     37  C   UNL A   1      45.163  19.283  25.509  1.00  0.00     0.188 C 
BRANCH  37  38
ATOM     38  O   UNL A   1      46.022  19.814  24.497  1.00  0.00    -0.376 OA
BRANCH  38  39
ATOM     39  C   UNL A   1      46.339  21.202  24.592  1.00  0.00     0.202 C 
BRANCH  39  40
ATOM     40  C   UNL A   1      45.368  22.044  25.438  1.00  0.00     0.261 C 
BRANCH  40  41
ATOM     41  O   UNL A   1      45.465  23.468  25.277  1.00  0.00    -0.460 OA
BRANCH  41  42
ATOM     42  C   UNL A   1      44.333  24.126  24.946  1.00  0.00     0.338 C 
ATOM     43  O   UNL A   1      43.325  23.660  24.458  1.00  0.00    -0.246 OA
BRANCH  42  44
ATOM     44  C   UNL A   1      44.447  25.495  25.455  1.00  0.00     0.060 A 
ATOM     45  C   UNL A   1      45.405  25.790  26.431  1.00  0.00     0.016 A 
ATOM     46  C   UNL A   1      43.537  26.452  25.029  1.00  0.00     0.016 A 
ATOM     47  C   UNL A   1      45.432  27.050  27.014  1.00  0.00     0.010 A 
ATOM     48  C   UNL A   1      43.530  27.692  25.658  1.00  0.00     0.010 A 
ATOM     49  C   UNL A   1      44.444  27.989  26.684  1.00  0.00    -0.014 A 
BRANCH  49  50
ATOM     50  C   UNL A   1      44.322  29.223  27.503  1.00  0.00     0.031 A 
ATOM     51  C   UNL A   1      44.011  29.032  28.949  1.00  0.00     0.074 A 
ATOM     52  C   UNL A   1      45.050  30.318  27.178  1.00  0.00     0.049 A 
ATOM     53  N   UNL A   1      44.915  28.590  29.772  1.00  0.00    -0.248 NA
ATOM     54  C   UNL A   1      42.663  29.055  29.508  1.00  0.00     0.031 C 
ATOM     55  C   UNL A   1      46.237  30.272  26.304  1.00  0.00     0.029 A 
ATOM     56  N   UNL A   1      45.074  31.590  27.704  1.00  0.00    -0.354 N 
ATOM     57  C   UNL A   1      44.260  28.147  30.900  1.00  0.00     0.074 A 
ATOM     58  C   UNL A   1      42.871  28.513  30.721  1.00  0.00     0.031 C 
ATOM     59  C   UNL A   1      46.967  31.383  26.497  1.00  0.00     0.029 A 
ATOM     60  C   UNL A   1      46.247  32.280  27.389  1.00  0.00     0.049 A 
ATOM     61  H   UNL A   1      44.344  31.972  28.244  1.00  0.00     0.167 HD
ATOM     62  C   UNL A   1      44.894  27.450  31.878  1.00  0.00     0.034 A 
ATOM     63  C   UNL A   1      46.860  33.194  28.189  1.00  0.00     0.034 A 
ATOM     64  C   UNL A   1      46.289  27.196  31.657  1.00  0.00     0.049 A 
ATOM     65  C   UNL A   1      47.330  32.329  29.336  1.00  0.00     0.074 A 
ATOM     66  C   UNL A   1      47.052  26.172  31.137  1.00  0.00     0.029 A 
ATOM     67  N   UNL A   1      47.187  28.208  31.905  1.00  0.00    -0.354 N 
ATOM     68  N   UNL A   1      48.383  31.551  29.343  1.00  0.00    -0.248 NA
ATOM     69  C   UNL A   1      46.388  32.082  30.427  1.00  0.00     0.031 C 
ATOM     70  C   UNL A   1      48.270  26.782  30.699  1.00  0.00     0.029 A 
ATOM     71  C   UNL A   1      48.149  28.153  30.924  1.00  0.00     0.049 A 
ATOM     72  H   UNL A   1      47.148  28.852  32.649  1.00  0.00     0.167 HD
ATOM     73  C   UNL A   1      48.092  30.538  30.265  1.00  0.00     0.074 A 
ATOM     74  C   UNL A   1      46.870  30.952  30.922  1.00  0.00     0.031 C 
ATOM     75  C   UNL A   1      48.741  29.335  30.321  1.00  0.00     0.034 A 
BRANCH  62  76
ATOM     76  C   UNL A   1      44.250  27.057  33.142  1.00  0.00     0.023 A 
ATOM     77  C   UNL A   1      43.926  25.728  33.450  1.00  0.00     0.031 A 
ATOM     78  C   UNL A   1      44.089  28.046  34.127  1.00  0.00     0.131 A 
ATOM     79  C   UNL A   1      43.464  25.424  34.738  1.00  0.00     0.055 A 
ATOM     80  C   UNL A   1      43.634  27.739  35.405  1.00  0.00     0.041 A 
ATOM     81  F   UNL A   1      44.414  29.322  33.858  1.00  0.00    -0.206 F 
ATOM     82  C   UNL A   1      43.325  26.419  35.717  1.00  0.00     0.022 A 
BRANCH  79  83
ATOM     83  S   UNL A   1      43.062  23.722  35.219  1.00  0.00     0.124 S 
ATOM     84  O   UNL A   1      44.071  23.441  36.237  1.00  0.00    -0.237 OA
ATOM     85  O   UNL A   1      41.695  23.864  35.716  1.00  0.00    -0.237 OA
ATOM     86  O   UNL A   1      43.197  22.968  33.978  1.00  0.00    -0.744 OA
ENDBRANCH  79  83
ENDBRANCH  62  76
BRANCH  63  87
ATOM     87  C   UNL A   1      46.081  34.464  28.354  1.00  0.00     0.023 A 
ATOM     88  C   UNL A   1      44.802  34.696  27.832  1.00  0.00     0.031 A 
ATOM     89  C   UNL A   1      46.683  35.536  29.055  1.00  0.00     0.131 A 
ATOM     90  C   UNL A   1      44.255  35.989  27.849  1.00  0.00     0.055 A 
ATOM     91  C   UNL A   1      46.108  36.807  29.128  1.00  0.00     0.041 A 
ATOM     92  F   UNL A   1      47.864  35.367  29.674  1.00  0.00    -0.206 F 
ATOM     93  C   UNL A   1      44.898  37.047  28.493  1.00  0.00     0.022 A 
BRANCH  90  94
ATOM     94  S   UNL A   1      42.710  36.335  26.964  1.00  0.00     0.124 S 
ATOM     95  O   UNL A   1      42.767  35.396  25.847  1.00  0.00    -0.237 OA
ATOM     96  O   UNL A   1      41.719  36.034  27.993  1.00  0.00    -0.237 OA
ATOM     97  O   UNL A   1      42.839  37.743  26.604  1.00  0.00    -0.744 OA
ENDBRANCH  90  94
ENDBRANCH  63  87
BRANCH  75  98
ATOM     98  C   UNL A   1      50.005  29.209  29.524  1.00  0.00     0.023 A 
ATOM     99  C   UNL A   1      51.262  29.522  30.077  1.00  0.00     0.031 A 
ATOM    100  C   UNL A   1      49.946  28.882  28.161  1.00  0.00     0.131 A 
ATOM    101  C   UNL A   1      52.396  29.571  29.255  1.00  0.00     0.055 A 
ATOM    102  C   UNL A   1      51.088  28.876  27.357  1.00  0.00     0.041 A 
ATOM    103  F   UNL A   1      48.768  28.616  27.571  1.00  0.00    -0.206 F 
ATOM    104  C   UNL A   1      52.319  29.235  27.901  1.00  0.00     0.022 A 
BRANCH 101 105
ATOM    105  S   UNL A   1      53.995  30.134  29.900  1.00  0.00     0.124 S 
ATOM    106  O   UNL A   1      54.852  28.969  29.684  1.00  0.00    -0.237 OA
ATOM    107  O   UNL A   1      54.280  31.279  29.037  1.00  0.00    -0.237 OA
ATOM    108  O   UNL A   1      53.720  30.454  31.296  1.00  0.00    -0.744 OA
ENDBRANCH 101 105
ENDBRANCH  75  98
ENDBRANCH  49  50
ENDBRANCH  42  44
ENDBRANCH  41  42
ENDBRANCH  40  41
ENDBRANCH  39  40
ENDBRANCH  38  39
ENDBRANCH  37  38
ENDBRANCH  36  37
ENDBRANCH  35  36
ENDBRANCH   1  35
TORSDOF 28
ENDMDL
