MODEL 1
REMARK VINA RESULT:      -9.0      0.000      0.000
REMARK SMILES COc1ccc(-c2cc(Cl)cc3c2O[C@H](C(F)(F)F)C(C(=O)OCCOCCOCCOCCOC(=O)c2ccc(-c4c5nc(c(-c6cc(S(=O)(=O)[O-])ccc6F)c6ccc([nH]6)c(-c6cc(S(=O)(=O)[O-])ccc6F)c6nc(c(-c7cc(S(=O)(=O)[O-])ccc7F)c7ccc4[nH]7)C=C6)C=C5)cc2)=C3)cc1C
REMARK SMILES IDX 30 1 29 2 28 3 27 4 26 5 25 6 24 7 23 8 21 9 22 10 20 11
REMARK SMILES IDX 7 12 8 13 13 14 9 15 12 16 14 17 10 18 11 19 101 20 15 21
REMARK SMILES IDX 6 22 3 23 4 24 103 25 5 26 102 27 104 28 2 29 1 30 16 31
REMARK SMILES IDX 17 32 18 33 19 34 31 35 32 36 33 37 34 38 35 39 36 40 37 41
REMARK SMILES IDX 38 42 39 43 100 44 40 45 99 46 41 47 42 48 43 49 93 50 44 51
REMARK SMILES IDX 98 52 92 53 94 54 45 55 97 56 91 57 90 58 46 60 78 61 58 62
REMARK SMILES IDX 77 63 59 64 62 65 76 66 95 67 60 68 61 69 75 71 96 72 63 73
REMARK SMILES IDX 47 74 48 75 56 76 49 77 55 78 57 79 54 80 50 81 51 82 52 83
REMARK SMILES IDX 53 84 79 85 80 86 88 87 81 88 87 89 89 90 86 91 82 92 83 93
REMARK SMILES IDX 84 94 85 95 64 96 65 97 73 98 66 99 72 100 74 101 71 102
REMARK SMILES IDX 67 103 68 104 69 105 70 106
REMARK H PARENT 94 59 62 70
REMARK Flexibility Score: inf
ROOT
ATOM      1  C   UNL A   1      43.844  23.697  26.176  1.00  0.00     0.188 C 
ENDROOT
BRANCH   1   2
ATOM      2  O   UNL A   1      44.985  24.015  26.970  1.00  0.00    -0.377 OA
BRANCH   2   3
ATOM      3  C   UNL A   1      45.039  23.591  28.332  1.00  0.00     0.188 C 
BRANCH   3   4
ATOM      4  C   UNL A   1      44.153  24.336  29.335  1.00  0.00     0.188 C 
BRANCH   4   5
ATOM      5  O   UNL A   1      43.813  23.655  30.525  1.00  0.00    -0.376 OA
BRANCH   5   6
ATOM      6  C   UNL A   1      44.256  24.279  31.696  1.00  0.00     0.202 C 
BRANCH   6   7
ATOM      7  C   UNL A   1      44.826  23.342  32.657  1.00  0.00     0.261 C 
BRANCH   7   8
ATOM      8  O   UNL A   1      45.059  23.651  33.999  1.00  0.00    -0.460 OA
BRANCH   8   9
ATOM      9  C   UNL A   1      45.050  22.591  34.875  1.00  0.00     0.338 C 
ATOM     10  O   UNL A   1      44.139  21.849  35.128  1.00  0.00    -0.246 OA
BRANCH   9  11
ATOM     11  C   UNL A   1      46.440  22.324  35.293  1.00  0.00     0.087 C 
ATOM     12  C   UNL A   1      45.599  24.965  38.117  1.00  0.00     0.026 A 
ATOM     13  C   UNL A   1      46.541  25.408  39.023  1.00  0.00     0.033 A 
ATOM     14  C   UNL A   1      46.049  23.862  37.231  1.00  0.00     0.135 A 
ATOM     15  C   UNL A   1      47.832  24.864  38.940  1.00  0.00     0.042 A 
ATOM     16  C   UNL A   1      47.353  23.838  36.812  1.00  0.00     0.019 A 
ATOM     17  O   UNL A   1      45.898  22.330  37.499  1.00  0.00    -0.475 OA
ATOM     18  Cl  UNL A   1      48.945  25.152  40.221  1.00  0.00    -0.084 Cl
ATOM     19  C   UNL A   1      48.256  24.123  37.818  1.00  0.00     0.032 A 
ATOM     20  C   UNL A   1      47.554  23.016  35.615  1.00  0.00     0.027 C 
ATOM     21  C   UNL A   1      46.080  21.267  36.256  1.00  0.00     0.316 C 
BRANCH  12  22
ATOM     22  C   UNL A   1      44.441  25.939  37.596  1.00  0.00    -0.014 A 
ATOM     23  C   UNL A   1      42.240  27.441  35.058  1.00  0.00     0.121 A 
ATOM     24  C   UNL A   1      42.436  25.487  35.797  1.00  0.00     0.047 A 
ATOM     25  C   UNL A   1      43.402  28.513  35.901  1.00  0.00    -0.008 A 
ATOM     26  C   UNL A   1      43.409  25.021  37.033  1.00  0.00     0.013 A 
ATOM     27  C   UNL A   1      44.424  27.653  37.161  1.00  0.00     0.016 A 
ATOM     28  C   UNL A   1      43.496  29.899  35.314  1.00  0.00     0.048 C 
BRANCH  23  29
ATOM     29  O   UNL A   1      41.015  28.185  34.826  1.00  0.00    -0.496 OA
ATOM     30  C   UNL A   1      40.543  28.697  33.603  1.00  0.00     0.278 C 
ENDBRANCH  23  29
ENDBRANCH  12  22
BRANCH  21  31
ATOM     31  C   UNL A   1      46.820  20.271  35.085  1.00  0.00     0.430 C 
ATOM     32  F   UNL A   1      48.157  20.158  35.284  1.00  0.00    -0.167 F 
ATOM     33  F   UNL A   1      46.305  19.012  35.134  1.00  0.00    -0.167 F 
ATOM     34  F   UNL A   1      46.680  20.617  33.761  1.00  0.00    -0.167 F 
ENDBRANCH  21  31
ENDBRANCH   9  11
ENDBRANCH   8   9
ENDBRANCH   7   8
ENDBRANCH   6   7
ENDBRANCH   5   6
ENDBRANCH   4   5
ENDBRANCH   3   4
ENDBRANCH   2   3
ENDBRANCH   1   2
BRANCH   1  35
ATOM     35  C   UNL A   1      43.845  22.312  25.573  1.00  0.00     0.188 C 
BRANCH  35  36
ATOM     36  O   UNL A   1      42.560  21.823  25.205  1.00  0.00    -0.376 OA
BRANCH  36  37
ATOM     37  C   UNL A   1      41.948  20.981  26.149  1.00  0.00     0.202 C 
BRANCH  37  38
ATOM     38  C   UNL A   1      42.232  21.649  27.489  1.00  0.00     0.261 C 
BRANCH  38  39
ATOM     39  O   UNL A   1      40.884  22.107  28.017  1.00  0.00    -0.460 OA
BRANCH  39  40
ATOM     40  C   UNL A   1      39.894  22.718  27.245  1.00  0.00     0.338 C 
ATOM     41  O   UNL A   1      39.104  22.073  26.568  1.00  0.00    -0.246 OA
BRANCH  40  42
ATOM     42  C   UNL A   1      39.923  24.285  27.187  1.00  0.00     0.060 A 
ATOM     43  C   UNL A   1      40.336  25.101  26.083  1.00  0.00     0.016 A 
ATOM     44  C   UNL A   1      39.807  24.975  28.358  1.00  0.00     0.016 A 
ATOM     45  C   UNL A   1      40.722  26.527  26.190  1.00  0.00     0.010 A 
ATOM     46  C   UNL A   1      40.358  26.278  28.450  1.00  0.00     0.010 A 
ATOM     47  C   UNL A   1      40.797  27.166  27.421  1.00  0.00    -0.014 A 
BRANCH  47  48
ATOM     48  C   UNL A   1      41.261  28.667  27.782  1.00  0.00     0.031 A 
ATOM     49  C   UNL A   1      39.962  29.607  28.304  1.00  0.00     0.074 A 
ATOM     50  C   UNL A   1      42.558  28.972  28.219  1.00  0.00     0.049 A 
ATOM     51  N   UNL A   1      40.284  30.704  29.446  1.00  0.00    -0.248 NA
ATOM     52  C   UNL A   1      38.340  28.524  28.734  1.00  0.00     0.031 C 
ATOM     53  C   UNL A   1      42.995  29.830  29.374  1.00  0.00     0.029 A 
ATOM     54  N   UNL A   1      43.769  28.325  27.994  1.00  0.00    -0.354 N 
ATOM     55  C   UNL A   1      39.209  30.522  30.962  1.00  0.00     0.074 A 
ATOM     56  C   UNL A   1      37.875  28.973  30.296  1.00  0.00     0.031 C 
ATOM     57  C   UNL A   1      44.282  29.639  29.760  1.00  0.00     0.029 A 
ATOM     58  C   UNL A   1      44.869  28.830  28.738  1.00  0.00     0.049 A 
ATOM     59  H   UNL A   1      43.857  27.572  27.366  1.00  0.00     0.167 HD
ATOM     60  C   UNL A   1      39.432  31.643  31.871  1.00  0.00     0.034 A 
ATOM     61  C   UNL A   1      46.115  29.012  28.239  1.00  0.00     0.034 A 
ATOM     62  C   UNL A   1      40.919  32.071  31.779  1.00  0.00     0.049 A 
ATOM     63  C   UNL A   1      46.025  30.598  28.042  1.00  0.00     0.074 A 
ATOM     64  C   UNL A   1      41.961  32.038  32.695  1.00  0.00     0.029 A 
ATOM     65  N   UNL A   1      41.570  32.457  30.578  1.00  0.00    -0.354 N 
ATOM     66  N   UNL A   1      44.872  31.274  27.990  1.00  0.00    -0.248 NA
ATOM     67  C   UNL A   1      47.088  31.496  28.525  1.00  0.00     0.031 C 
ATOM     68  C   UNL A   1      43.218  32.279  32.027  1.00  0.00     0.029 A 
ATOM     69  C   UNL A   1      42.993  32.530  30.675  1.00  0.00     0.049 A 
ATOM     70  H   UNL A   1      41.082  32.658  29.748  1.00  0.00     0.167 HD
ATOM     71  C   UNL A   1      44.931  32.296  28.963  1.00  0.00     0.074 A 
ATOM     72  C   UNL A   1      46.379  32.506  29.075  1.00  0.00     0.031 C 
ATOM     73  C   UNL A   1      43.859  33.007  29.516  1.00  0.00     0.034 A 
BRANCH  60  74
ATOM     74  C   UNL A   1      38.448  32.456  33.014  1.00  0.00     0.023 A 
ATOM     75  C   UNL A   1      38.682  32.190  34.379  1.00  0.00     0.031 A 
ATOM     76  C   UNL A   1      37.424  33.500  32.909  1.00  0.00     0.131 A 
ATOM     77  C   UNL A   1      37.973  32.853  35.442  1.00  0.00     0.055 A 
ATOM     78  C   UNL A   1      36.767  34.178  33.950  1.00  0.00     0.041 A 
ATOM     79  F   UNL A   1      36.909  34.024  31.791  1.00  0.00    -0.206 F 
ATOM     80  C   UNL A   1      37.038  33.858  35.237  1.00  0.00     0.022 A 
BRANCH  77  81
ATOM     81  S   UNL A   1      38.224  32.334  37.154  1.00  0.00     0.124 S 
ATOM     82  O   UNL A   1      37.914  33.562  37.880  1.00  0.00    -0.237 OA
ATOM     83  O   UNL A   1      37.280  31.233  37.280  1.00  0.00    -0.237 OA
ATOM     84  O   UNL A   1      39.635  31.943  37.191  1.00  0.00    -0.744 OA
ENDBRANCH  77  81
ENDBRANCH  60  74
BRANCH  61  85
ATOM     85  C   UNL A   1      46.400  27.698  27.473  1.00  0.00     0.023 A 
ATOM     86  C   UNL A   1      46.682  27.795  26.043  1.00  0.00     0.031 A 
ATOM     87  C   UNL A   1      47.082  26.659  28.135  1.00  0.00     0.131 A 
ATOM     88  C   UNL A   1      47.717  27.026  25.421  1.00  0.00     0.055 A 
ATOM     89  C   UNL A   1      48.175  25.991  27.531  1.00  0.00     0.041 A 
ATOM     90  F   UNL A   1      46.947  26.518  29.461  1.00  0.00    -0.206 F 
ATOM     91  C   UNL A   1      48.515  26.189  26.193  1.00  0.00     0.022 A 
BRANCH  88  92
ATOM     92  S   UNL A   1      48.197  27.231  23.647  1.00  0.00     0.124 S 
ATOM     93  O   UNL A   1      48.221  25.856  23.163  1.00  0.00    -0.237 OA
ATOM     94  O   UNL A   1      47.135  28.088  23.133  1.00  0.00    -0.237 OA
ATOM     95  O   UNL A   1      49.511  27.873  23.721  1.00  0.00    -0.744 OA
ENDBRANCH  88  92
ENDBRANCH  61  85
BRANCH  73  96
ATOM     96  C   UNL A   1      43.846  34.491  29.267  1.00  0.00     0.023 A 
ATOM     97  C   UNL A   1      44.262  35.372  30.267  1.00  0.00     0.031 A 
ATOM     98  C   UNL A   1      43.496  35.070  28.031  1.00  0.00     0.131 A 
ATOM     99  C   UNL A   1      44.196  36.748  30.091  1.00  0.00     0.055 A 
ATOM    100  C   UNL A   1      43.524  36.447  27.819  1.00  0.00     0.041 A 
ATOM    101  F   UNL A   1      43.138  34.346  26.964  1.00  0.00    -0.206 F 
ATOM    102  C   UNL A   1      43.853  37.301  28.864  1.00  0.00     0.022 A 
BRANCH  99 103
ATOM    103  S   UNL A   1      44.499  37.746  31.559  1.00  0.00     0.124 S 
ATOM    104  O   UNL A   1      45.920  38.054  31.420  1.00  0.00    -0.237 OA
ATOM    105  O   UNL A   1      43.592  38.874  31.368  1.00  0.00    -0.237 OA
ATOM    106  O   UNL A   1      44.155  36.849  32.658  1.00  0.00    -0.744 OA
ENDBRANCH  99 103
ENDBRANCH  73  96
ENDBRANCH  47  48
ENDBRANCH  40  42
ENDBRANCH  39  40
ENDBRANCH  38  39
ENDBRANCH  37  38
ENDBRANCH  36  37
ENDBRANCH  35  36
ENDBRANCH   1  35
TORSDOF 26
ENDMDL
MODEL 2
REMARK VINA RESULT:      -9.0      2.055      2.397
REMARK SMILES COc1ccc(-c2cc(Cl)cc3c2O[C@H](C(F)(F)F)C(C(=O)OCCOCCOCCOCCOC(=O)c2ccc(-c4c5nc(c(-c6cc(S(=O)(=O)[O-])ccc6F)c6ccc([nH]6)c(-c6cc(S(=O)(=O)[O-])ccc6F)c6nc(c(-c7cc(S(=O)(=O)[O-])ccc7F)c7ccc4[nH]7)C=C6)C=C5)cc2)=C3)cc1C
REMARK SMILES IDX 30 1 29 2 28 3 27 4 26 5 25 6 24 7 23 8 21 9 22 10 20 11
REMARK SMILES IDX 7 12 8 13 13 14 9 15 12 16 14 17 10 18 11 19 101 20 15 21
REMARK SMILES IDX 6 22 3 23 4 24 103 25 5 26 102 27 104 28 2 29 1 30 16 31
REMARK SMILES IDX 17 32 18 33 19 34 31 35 32 36 33 37 34 38 35 39 36 40 37 41
REMARK SMILES IDX 38 42 39 43 100 44 40 45 99 46 41 47 42 48 43 49 93 50 44 51
REMARK SMILES IDX 98 52 92 53 94 54 45 55 97 56 91 57 90 58 46 60 78 61 58 62
REMARK SMILES IDX 77 63 59 64 62 65 76 66 95 67 60 68 61 69 75 71 96 72 63 73
REMARK SMILES IDX 47 74 48 75 56 76 49 77 55 78 57 79 54 80 50 81 51 82 52 83
REMARK SMILES IDX 53 84 79 85 80 86 88 87 81 88 87 89 89 90 86 91 82 92 83 93
REMARK SMILES IDX 84 94 85 95 64 96 65 97 73 98 66 99 72 100 74 101 71 102
REMARK SMILES IDX 67 103 68 104 69 105 70 106
REMARK H PARENT 94 59 62 70
REMARK Flexibility Score: inf
ROOT
ATOM      1  C   UNL A   1      43.771  23.242  26.023  1.00  0.00     0.188 C 
ENDROOT
BRANCH   1   2
ATOM      2  O   UNL A   1      44.777  23.825  26.850  1.00  0.00    -0.377 OA
BRANCH   2   3
ATOM      3  C   UNL A   1      44.813  23.516  28.243  1.00  0.00     0.188 C 
BRANCH   3   4
ATOM      4  C   UNL A   1      43.687  24.079  29.116  1.00  0.00     0.188 C 
BRANCH   4   5
ATOM      5  O   UNL A   1      43.590  23.589  30.438  1.00  0.00    -0.376 OA
BRANCH   5   6
ATOM      6  C   UNL A   1      44.612  24.019  31.291  1.00  0.00     0.202 C 
BRANCH   6   7
ATOM      7  C   UNL A   1      44.325  23.755  32.697  1.00  0.00     0.261 C 
BRANCH   7   8
ATOM      8  O   UNL A   1      45.199  24.069  33.740  1.00  0.00    -0.460 OA
BRANCH   8   9
ATOM      9  C   UNL A   1      45.054  23.334  34.893  1.00  0.00     0.338 C 
ATOM     10  O   UNL A   1      44.037  23.052  35.468  1.00  0.00    -0.246 OA
BRANCH   9  11
ATOM     11  C   UNL A   1      46.351  22.702  35.204  1.00  0.00     0.087 C 
ATOM     12  C   UNL A   1      46.861  25.937  37.424  1.00  0.00     0.026 A 
ATOM     13  C   UNL A   1      48.040  26.199  38.095  1.00  0.00     0.033 A 
ATOM     14  C   UNL A   1      46.793  24.606  36.770  1.00  0.00     0.135 A 
ATOM     15  C   UNL A   1      49.071  25.253  37.995  1.00  0.00     0.042 A 
ATOM     16  C   UNL A   1      47.933  24.076  36.225  1.00  0.00     0.019 A 
ATOM     17  O   UNL A   1      46.240  23.286  37.396  1.00  0.00    -0.475 OA
ATOM     18  Cl  UNL A   1      50.429  25.382  39.044  1.00  0.00    -0.084 Cl
ATOM     19  C   UNL A   1      49.045  24.222  37.032  1.00  0.00     0.032 A 
ATOM     20  C   UNL A   1      47.661  23.032  35.233  1.00  0.00     0.027 C 
ATOM     21  C   UNL A   1      45.869  22.016  36.418  1.00  0.00     0.316 C 
BRANCH  12  22
ATOM     22  C   UNL A   1      45.977  27.128  36.827  1.00  0.00    -0.014 A 
ATOM     23  C   UNL A   1      43.802  30.090  37.030  1.00  0.00     0.121 A 
ATOM     24  C   UNL A   1      45.792  29.742  37.599  1.00  0.00     0.047 A 
ATOM     25  C   UNL A   1      43.124  28.601  36.300  1.00  0.00    -0.008 A 
ATOM     26  C   UNL A   1      46.644  28.368  37.319  1.00  0.00     0.013 A 
ATOM     27  C   UNL A   1      44.313  27.203  36.232  1.00  0.00     0.016 A 
ATOM     28  C   UNL A   1      41.641  28.666  36.038  1.00  0.00     0.048 C 
BRANCH  23  29
ATOM     29  O   UNL A   1      43.270  31.235  36.314  1.00  0.00    -0.496 OA
ATOM     30  C   UNL A   1      42.413  32.234  36.812  1.00  0.00     0.278 C 
ENDBRANCH  23  29
ENDBRANCH  12  22
BRANCH  21  31
ATOM     31  C   UNL A   1      46.054  20.637  35.431  1.00  0.00     0.430 C 
ATOM     32  F   UNL A   1      47.235  20.008  35.650  1.00  0.00    -0.167 F 
ATOM     33  F   UNL A   1      45.070  19.731  35.686  1.00  0.00    -0.167 F 
ATOM     34  F   UNL A   1      45.980  20.804  34.066  1.00  0.00    -0.167 F 
ENDBRANCH  21  31
ENDBRANCH   9  11
ENDBRANCH   8   9
ENDBRANCH   7   8
ENDBRANCH   6   7
ENDBRANCH   5   6
ENDBRANCH   4   5
ENDBRANCH   3   4
ENDBRANCH   2   3
ENDBRANCH   1   2
BRANCH   1  35
ATOM     35  C   UNL A   1      43.755  21.732  25.997  1.00  0.00     0.188 C 
BRANCH  35  36
ATOM     36  O   UNL A   1      42.595  21.160  25.404  1.00  0.00    -0.376 OA
BRANCH  36  37
ATOM     37  C   UNL A   1      41.773  20.431  26.281  1.00  0.00     0.202 C 
BRANCH  37  38
ATOM     38  C   UNL A   1      41.950  21.125  27.626  1.00  0.00     0.261 C 
BRANCH  38  39
ATOM     39  O   UNL A   1      40.627  21.814  27.914  1.00  0.00    -0.460 OA
BRANCH  39  40
ATOM     40  C   UNL A   1      39.890  22.541  26.977  1.00  0.00     0.338 C 
ATOM     41  O   UNL A   1      39.311  22.001  26.043  1.00  0.00    -0.246 OA
BRANCH  40  42
ATOM     42  C   UNL A   1      39.945  24.103  27.107  1.00  0.00     0.060 A 
ATOM     43  C   UNL A   1      40.256  25.044  26.071  1.00  0.00     0.016 A 
ATOM     44  C   UNL A   1      39.967  24.644  28.358  1.00  0.00     0.016 A 
ATOM     45  C   UNL A   1      40.681  26.444  26.308  1.00  0.00     0.010 A 
ATOM     46  C   UNL A   1      40.551  25.922  28.547  1.00  0.00     0.010 A 
ATOM     47  C   UNL A   1      40.898  26.927  27.593  1.00  0.00    -0.014 A 
BRANCH  47  48
ATOM     48  C   UNL A   1      41.427  28.369  28.081  1.00  0.00     0.031 A 
ATOM     49  C   UNL A   1      40.150  29.396  28.474  1.00  0.00     0.074 A 
ATOM     50  C   UNL A   1      42.674  28.546  28.696  1.00  0.00     0.049 A 
ATOM     51  N   UNL A   1      40.403  30.419  29.699  1.00  0.00    -0.248 NA
ATOM     52  C   UNL A   1      38.404  28.440  28.639  1.00  0.00     0.031 C 
ATOM     53  C   UNL A   1      43.021  29.321  29.937  1.00  0.00     0.029 A 
ATOM     54  N   UNL A   1      43.850  27.807  28.600  1.00  0.00    -0.354 N 
ATOM     55  C   UNL A   1      39.125  30.275  31.052  1.00  0.00     0.074 A 
ATOM     56  C   UNL A   1      37.773  28.870  30.147  1.00  0.00     0.031 C 
ATOM     57  C   UNL A   1      44.226  29.008  30.477  1.00  0.00     0.029 A 
ATOM     58  C   UNL A   1      44.878  28.189  29.503  1.00  0.00     0.049 A 
ATOM     59  H   UNL A   1      43.960  27.072  27.954  1.00  0.00     0.167 HD
ATOM     60  C   UNL A   1      39.313  31.339  32.035  1.00  0.00     0.034 A 
ATOM     61  C   UNL A   1      46.190  28.282  29.179  1.00  0.00     0.034 A 
ATOM     62  C   UNL A   1      40.829  31.642  32.156  1.00  0.00     0.049 A 
ATOM     63  C   UNL A   1      46.253  29.876  29.046  1.00  0.00     0.074 A 
ATOM     64  C   UNL A   1      41.734  31.487  33.197  1.00  0.00     0.029 A 
ATOM     65  N   UNL A   1      41.663  32.015  31.069  1.00  0.00    -0.354 N 
ATOM     66  N   UNL A   1      45.174  30.650  28.877  1.00  0.00    -0.248 NA
ATOM     67  C   UNL A   1      47.310  30.663  29.705  1.00  0.00     0.031 C 
ATOM     68  C   UNL A   1      43.084  31.645  32.710  1.00  0.00     0.029 A 
ATOM     69  C   UNL A   1      43.061  31.963  31.353  1.00  0.00     0.049 A 
ATOM     70  H   UNL A   1      41.306  32.286  30.193  1.00  0.00     0.167 HD
ATOM     71  C   UNL A   1      45.185  31.627  29.898  1.00  0.00     0.074 A 
ATOM     72  C   UNL A   1      46.617  31.708  30.205  1.00  0.00     0.031 C 
ATOM     73  C   UNL A   1      44.109  32.405  30.339  1.00  0.00     0.034 A 
BRANCH  60  74
ATOM     74  C   UNL A   1      38.254  32.191  33.078  1.00  0.00     0.023 A 
ATOM     75  C   UNL A   1      37.041  32.657  32.531  1.00  0.00     0.031 A 
ATOM     76  C   UNL A   1      38.265  32.485  34.514  1.00  0.00     0.131 A 
ATOM     77  C   UNL A   1      36.034  33.327  33.311  1.00  0.00     0.055 A 
ATOM     78  C   UNL A   1      37.259  33.099  35.280  1.00  0.00     0.041 A 
ATOM     79  F   UNL A   1      39.239  32.220  35.391  1.00  0.00    -0.206 F 
ATOM     80  C   UNL A   1      36.125  33.530  34.681  1.00  0.00     0.022 A 
BRANCH  77  81
ATOM     81  S   UNL A   1      34.583  34.031  32.497  1.00  0.00     0.124 S 
ATOM     82  O   UNL A   1      35.108  34.327  31.168  1.00  0.00    -0.237 OA
ATOM     83  O   UNL A   1      33.618  32.945  32.601  1.00  0.00    -0.237 OA
ATOM     84  O   UNL A   1      34.272  35.211  33.306  1.00  0.00    -0.744 OA
ENDBRANCH  77  81
ENDBRANCH  60  74
BRANCH  61  85
ATOM     85  C   UNL A   1      46.469  26.978  28.394  1.00  0.00     0.023 A 
ATOM     86  C   UNL A   1      46.715  27.089  26.959  1.00  0.00     0.031 A 
ATOM     87  C   UNL A   1      47.175  25.940  29.032  1.00  0.00     0.131 A 
ATOM     88  C   UNL A   1      47.742  26.335  26.307  1.00  0.00     0.055 A 
ATOM     89  C   UNL A   1      48.260  25.287  28.396  1.00  0.00     0.041 A 
ATOM     90  F   UNL A   1      47.074  25.787  30.359  1.00  0.00    -0.206 F 
ATOM     91  C   UNL A   1      48.566  25.500  27.052  1.00  0.00     0.022 A 
BRANCH  88  92
ATOM     92  S   UNL A   1      48.177  26.559  24.523  1.00  0.00     0.124 S 
ATOM     93  O   UNL A   1      47.408  25.507  23.873  1.00  0.00    -0.237 OA
ATOM     94  O   UNL A   1      47.755  27.932  24.269  1.00  0.00    -0.237 OA
ATOM     95  O   UNL A   1      49.627  26.357  24.498  1.00  0.00    -0.744 OA
ENDBRANCH  88  92
ENDBRANCH  61  85
BRANCH  73  96
ATOM     96  C   UNL A   1      44.247  33.893  30.162  1.00  0.00     0.023 A 
ATOM     97  C   UNL A   1      43.886  34.491  28.953  1.00  0.00     0.031 A 
ATOM     98  C   UNL A   1      44.666  34.764  31.188  1.00  0.00     0.131 A 
ATOM     99  C   UNL A   1      44.067  35.851  28.737  1.00  0.00     0.055 A 
ATOM    100  C   UNL A   1      44.753  36.143  31.006  1.00  0.00     0.041 A 
ATOM    101  F   UNL A   1      44.983  34.340  32.418  1.00  0.00    -0.206 F 
ATOM    102  C   UNL A   1      44.475  36.695  29.762  1.00  0.00     0.022 A 
BRANCH  99 103
ATOM    103  S   UNL A   1      43.819  36.421  27.047  1.00  0.00     0.124 S 
ATOM    104  O   UNL A   1      45.191  36.479  26.548  1.00  0.00    -0.237 OA
ATOM    105  O   UNL A   1      42.988  35.364  26.475  1.00  0.00    -0.237 OA
ATOM    106  O   UNL A   1      43.157  37.711  27.216  1.00  0.00    -0.744 OA
ENDBRANCH  99 103
ENDBRANCH  73  96
ENDBRANCH  47  48
ENDBRANCH  40  42
ENDBRANCH  39  40
ENDBRANCH  38  39
ENDBRANCH  37  38
ENDBRANCH  36  37
ENDBRANCH  35  36
ENDBRANCH   1  35
TORSDOF 26
ENDMDL
MODEL 3
REMARK VINA RESULT:      -8.9      2.846      4.219
REMARK SMILES COc1ccc(-c2cc(Cl)cc3c2O[C@H](C(F)(F)F)C(C(=O)OCCOCCOCCOCCOC(=O)c2ccc(-c4c5nc(c(-c6cc(S(=O)(=O)[O-])ccc6F)c6ccc([nH]6)c(-c6cc(S(=O)(=O)[O-])ccc6F)c6nc(c(-c7cc(S(=O)(=O)[O-])ccc7F)c7ccc4[nH]7)C=C6)C=C5)cc2)=C3)cc1C
REMARK SMILES IDX 30 1 29 2 28 3 27 4 26 5 25 6 24 7 23 8 21 9 22 10 20 11
REMARK SMILES IDX 7 12 8 13 13 14 9 15 12 16 14 17 10 18 11 19 101 20 15 21
REMARK SMILES IDX 6 22 3 23 4 24 103 25 5 26 102 27 104 28 2 29 1 30 16 31
REMARK SMILES IDX 17 32 18 33 19 34 31 35 32 36 33 37 34 38 35 39 36 40 37 41
REMARK SMILES IDX 38 42 39 43 100 44 40 45 99 46 41 47 42 48 43 49 93 50 44 51
REMARK SMILES IDX 98 52 92 53 94 54 45 55 97 56 91 57 90 58 46 60 78 61 58 62
REMARK SMILES IDX 77 63 59 64 62 65 76 66 95 67 60 68 61 69 75 71 96 72 63 73
REMARK SMILES IDX 47 74 48 75 56 76 49 77 55 78 57 79 54 80 50 81 51 82 52 83
REMARK SMILES IDX 53 84 79 85 80 86 88 87 81 88 87 89 89 90 86 91 82 92 83 93
REMARK SMILES IDX 84 94 85 95 64 96 65 97 73 98 66 99 72 100 74 101 71 102
REMARK SMILES IDX 67 103 68 104 69 105 70 106
REMARK H PARENT 94 59 62 70
REMARK Flexibility Score: inf
ROOT
ATOM      1  C   UNL A   1      43.736  23.250  25.968  1.00  0.00     0.188 C 
ENDROOT
BRANCH   1   2
ATOM      2  O   UNL A   1      44.706  23.819  26.847  1.00  0.00    -0.377 OA
BRANCH   2   3
ATOM      3  C   UNL A   1      44.708  23.456  28.227  1.00  0.00     0.188 C 
BRANCH   3   4
ATOM      4  C   UNL A   1      43.542  23.955  29.087  1.00  0.00     0.188 C 
BRANCH   4   5
ATOM      5  O   UNL A   1      43.311  23.288  30.311  1.00  0.00    -0.376 OA
BRANCH   5   6
ATOM      6  C   UNL A   1      44.338  23.430  31.250  1.00  0.00     0.202 C 
BRANCH   6   7
ATOM      7  C   UNL A   1      44.415  24.776  31.805  1.00  0.00     0.261 C 
BRANCH   7   8
ATOM      8  O   UNL A   1      45.353  25.167  32.764  1.00  0.00    -0.460 OA
BRANCH   8   9
ATOM      9  C   UNL A   1      45.030  26.279  33.508  1.00  0.00     0.338 C 
ATOM     10  O   UNL A   1      44.553  27.313  33.124  1.00  0.00    -0.246 OA
BRANCH   9  11
ATOM     11  C   UNL A   1      45.119  25.920  34.938  1.00  0.00     0.087 C 
ATOM     12  C   UNL A   1      48.948  26.775  34.425  1.00  0.00     0.026 A 
ATOM     13  C   UNL A   1      49.888  26.596  35.421  1.00  0.00     0.033 A 
ATOM     14  C   UNL A   1      47.542  26.551  34.842  1.00  0.00     0.135 A 
ATOM     15  C   UNL A   1      49.441  26.120  36.662  1.00  0.00     0.042 A 
ATOM     16  C   UNL A   1      47.271  25.575  35.765  1.00  0.00     0.019 A 
ATOM     17  O   UNL A   1      46.549  27.625  35.392  1.00  0.00    -0.475 OA
ATOM     18  Cl  UNL A   1      50.509  26.168  38.011  1.00  0.00    -0.084 Cl
ATOM     19  C   UNL A   1      48.155  25.565  36.827  1.00  0.00     0.032 A 
ATOM     20  C   UNL A   1      45.872  25.139  35.743  1.00  0.00     0.027 C 
ATOM     21  C   UNL A   1      44.937  27.300  35.424  1.00  0.00     0.316 C 
BRANCH  12  22
ATOM     22  C   UNL A   1      49.333  26.561  32.887  1.00  0.00    -0.014 A 
ATOM     23  C   UNL A   1      51.595  26.576  29.984  1.00  0.00     0.121 A 
ATOM     24  C   UNL A   1      51.574  25.472  31.768  1.00  0.00     0.047 A 
ATOM     25  C   UNL A   1      50.190  27.688  29.958  1.00  0.00    -0.008 A 
ATOM     26  C   UNL A   1      50.400  25.519  32.914  1.00  0.00     0.013 A 
ATOM     27  C   UNL A   1      49.124  27.568  31.449  1.00  0.00     0.016 A 
ATOM     28  C   UNL A   1      50.210  28.677  28.820  1.00  0.00     0.048 C 
BRANCH  23  29
ATOM     29  O   UNL A   1      51.815  26.085  28.636  1.00  0.00    -0.496 OA
ATOM     30  C   UNL A   1      52.863  26.425  27.761  1.00  0.00     0.278 C 
ENDBRANCH  23  29
ENDBRANCH  12  22
BRANCH  21  31
ATOM     31  C   UNL A   1      43.430  26.676  35.926  1.00  0.00     0.430 C 
ATOM     32  F   UNL A   1      43.458  25.327  36.067  1.00  0.00    -0.167 F 
ATOM     33  F   UNL A   1      43.077  27.192  37.135  1.00  0.00    -0.167 F 
ATOM     34  F   UNL A   1      42.330  26.935  35.140  1.00  0.00    -0.167 F 
ENDBRANCH  21  31
ENDBRANCH   9  11
ENDBRANCH   8   9
ENDBRANCH   7   8
ENDBRANCH   6   7
ENDBRANCH   5   6
ENDBRANCH   4   5
ENDBRANCH   3   4
ENDBRANCH   2   3
ENDBRANCH   1   2
BRANCH   1  35
ATOM     35  C   UNL A   1      43.700  21.740  25.942  1.00  0.00     0.188 C 
BRANCH  35  36
ATOM     36  O   UNL A   1      42.526  21.183  25.360  1.00  0.00    -0.376 OA
BRANCH  36  37
ATOM     37  C   UNL A   1      41.721  20.436  26.236  1.00  0.00     0.202 C 
BRANCH  37  38
ATOM     38  C   UNL A   1      41.895  21.124  27.585  1.00  0.00     0.261 C 
BRANCH  38  39
ATOM     39  O   UNL A   1      40.570  21.807  27.876  1.00  0.00    -0.460 OA
BRANCH  39  40
ATOM     40  C   UNL A   1      39.824  22.524  26.938  1.00  0.00     0.338 C 
ATOM     41  O   UNL A   1      39.223  21.974  26.025  1.00  0.00    -0.246 OA
BRANCH  40  42
ATOM     42  C   UNL A   1      39.896  24.088  27.038  1.00  0.00     0.060 A 
ATOM     43  C   UNL A   1      40.266  25.002  25.997  1.00  0.00     0.016 A 
ATOM     44  C   UNL A   1      39.873  24.655  28.277  1.00  0.00     0.016 A 
ATOM     45  C   UNL A   1      40.701  26.400  26.223  1.00  0.00     0.010 A 
ATOM     46  C   UNL A   1      40.468  25.929  28.465  1.00  0.00     0.010 A 
ATOM     47  C   UNL A   1      40.870  26.907  27.506  1.00  0.00    -0.014 A 
BRANCH  47  48
ATOM     48  C   UNL A   1      41.400  28.352  27.986  1.00  0.00     0.031 A 
ATOM     49  C   UNL A   1      40.124  29.369  28.411  1.00  0.00     0.074 A 
ATOM     50  C   UNL A   1      42.659  28.537  28.574  1.00  0.00     0.049 A 
ATOM     51  N   UNL A   1      40.397  30.390  29.633  1.00  0.00    -0.248 NA
ATOM     52  C   UNL A   1      38.389  28.400  28.611  1.00  0.00     0.031 C 
ATOM     53  C   UNL A   1      43.028  29.311  29.809  1.00  0.00     0.029 A 
ATOM     54  N   UNL A   1      43.837  27.806  28.450  1.00  0.00    -0.354 N 
ATOM     55  C   UNL A   1      39.151  30.233  31.013  1.00  0.00     0.074 A 
ATOM     56  C   UNL A   1      37.789  28.821  30.134  1.00  0.00     0.031 C 
ATOM     57  C   UNL A   1      44.246  29.005  30.322  1.00  0.00     0.029 A 
ATOM     58  C   UNL A   1      44.883  28.193  29.331  1.00  0.00     0.049 A 
ATOM     59  H   UNL A   1      43.939  27.074  27.799  1.00  0.00     0.167 HD
ATOM     60  C   UNL A   1      39.353  31.296  31.995  1.00  0.00     0.034 A 
ATOM     61  C   UNL A   1      46.186  28.297  28.978  1.00  0.00     0.034 A 
ATOM     62  C   UNL A   1      40.869  31.610  32.083  1.00  0.00     0.049 A 
ATOM     63  C   UNL A   1      46.235  29.891  28.849  1.00  0.00     0.074 A 
ATOM     64  C   UNL A   1      41.798  31.459  33.103  1.00  0.00     0.029 A 
ATOM     65  N   UNL A   1      41.676  31.991  30.979  1.00  0.00    -0.354 N 
ATOM     66  N   UNL A   1      45.147  30.658  28.706  1.00  0.00    -0.248 NA
ATOM     67  C   UNL A   1      47.301  30.683  29.486  1.00  0.00     0.031 C 
ATOM     68  C   UNL A   1      43.136  31.627  32.586  1.00  0.00     0.029 A 
ATOM     69  C   UNL A   1      43.080  31.949  31.231  1.00  0.00     0.049 A 
ATOM     70  H   UNL A   1      41.298  32.263  30.112  1.00  0.00     0.167 HD
ATOM     71  C   UNL A   1      45.174  31.632  29.729  1.00  0.00     0.074 A 
ATOM     72  C   UNL A   1      46.612  31.723  30.005  1.00  0.00     0.031 C 
ATOM     73  C   UNL A   1      44.103  32.402  30.196  1.00  0.00     0.034 A 
BRANCH  60  74
ATOM     74  C   UNL A   1      38.311  32.138  33.063  1.00  0.00     0.023 A 
ATOM     75  C   UNL A   1      37.091  32.613  32.540  1.00  0.00     0.031 A 
ATOM     76  C   UNL A   1      38.343  32.414  34.502  1.00  0.00     0.131 A 
ATOM     77  C   UNL A   1      36.097  33.276  33.343  1.00  0.00     0.055 A 
ATOM     78  C   UNL A   1      37.351  33.021  35.291  1.00  0.00     0.041 A 
ATOM     79  F   UNL A   1      39.330  32.136  35.362  1.00  0.00    -0.206 F 
ATOM     80  C   UNL A   1      36.209  33.461  34.713  1.00  0.00     0.022 A 
BRANCH  77  81
ATOM     81  S   UNL A   1      34.636  33.993  32.558  1.00  0.00     0.124 S 
ATOM     82  O   UNL A   1      33.646  32.942  32.769  1.00  0.00    -0.237 OA
ATOM     83  O   UNL A   1      34.462  35.228  33.310  1.00  0.00    -0.237 OA
ATOM     84  O   UNL A   1      35.048  34.172  31.165  1.00  0.00    -0.744 OA
ENDBRANCH  77  81
ENDBRANCH  60  74
BRANCH  61  85
ATOM     85  C   UNL A   1      46.457  26.996  28.184  1.00  0.00     0.023 A 
ATOM     86  C   UNL A   1      46.767  27.122  26.762  1.00  0.00     0.031 A 
ATOM     87  C   UNL A   1      47.103  25.927  28.832  1.00  0.00     0.131 A 
ATOM     88  C   UNL A   1      47.797  26.346  26.140  1.00  0.00     0.055 A 
ATOM     89  C   UNL A   1      48.193  25.250  28.231  1.00  0.00     0.041 A 
ATOM     90  F   UNL A   1      46.942  25.756  30.152  1.00  0.00    -0.206 F 
ATOM     91  C   UNL A   1      48.562  25.473  26.905  1.00  0.00     0.022 A 
BRANCH  88  92
ATOM     92  S   UNL A   1      48.313  26.584  24.381  1.00  0.00     0.124 S 
ATOM     93  O   UNL A   1      49.767  26.614  24.476  1.00  0.00    -0.237 OA
ATOM     94  O   UNL A   1      47.723  25.424  23.722  1.00  0.00    -0.237 OA
ATOM     95  O   UNL A   1      47.701  27.863  24.016  1.00  0.00    -0.744 OA
ENDBRANCH  88  92
ENDBRANCH  61  85
BRANCH  73  96
ATOM     96  C   UNL A   1      44.226  33.891  30.020  1.00  0.00     0.023 A 
ATOM     97  C   UNL A   1      43.785  34.495  28.841  1.00  0.00     0.031 A 
ATOM     98  C   UNL A   1      44.709  34.756  31.023  1.00  0.00     0.131 A 
ATOM     99  C   UNL A   1      43.949  35.858  28.623  1.00  0.00     0.055 A 
ATOM    100  C   UNL A   1      44.782  36.136  30.844  1.00  0.00     0.041 A 
ATOM    101  F   UNL A   1      45.107  34.325  32.226  1.00  0.00    -0.206 F 
ATOM    102  C   UNL A   1      44.422  36.696  29.625  1.00  0.00     0.022 A 
BRANCH  99 103
ATOM    103  S   UNL A   1      43.590  36.437  26.957  1.00  0.00     0.124 S 
ATOM    104  O   UNL A   1      42.216  36.913  27.097  1.00  0.00    -0.237 OA
ATOM    105  O   UNL A   1      44.596  37.478  26.759  1.00  0.00    -0.237 OA
ATOM    106  O   UNL A   1      43.761  35.242  26.136  1.00  0.00    -0.744 OA
ENDBRANCH  99 103
ENDBRANCH  73  96
ENDBRANCH  47  48
ENDBRANCH  40  42
ENDBRANCH  39  40
ENDBRANCH  38  39
ENDBRANCH  37  38
ENDBRANCH  36  37
ENDBRANCH  35  36
ENDBRANCH   1  35
TORSDOF 26
ENDMDL
