MODEL 1
REMARK VINA RESULT:     -10.6      0.000      0.000
REMARK SMILES C[C@@H](NC(=O)[C@H]1CC=CC[C@@H]1C(=O)OCCOCCOCCOCCOC(=O)c1ccc(-c2c3nc(c(-c4cc(S(=O)(=O)[O-])ccc4F)c4ccc([nH]4)c(-c4cc(S(=O)(=O)[O-])ccc4F)c4nc(c(-c5cc(S(=O)(=O)[O-])ccc5F)c5ccc2[nH]5)C=C4)C=C3)cc1)c1ccc(-n2ccnc2)cc1
REMARK SMILES IDX 19 1 18 2 17 3 16 4 15 5 14 6 12 7 13 8 11 9 6 10 7 11 8 12
REMARK SMILES IDX 10 13 9 14 4 15 3 16 5 18 2 19 1 20 92 21 93 22 102 23 94 24
REMARK SMILES IDX 101 25 95 26 96 27 97 28 100 29 98 30 99 31 20 32 21 33
REMARK SMILES IDX 22 34 23 35 24 36 25 37 26 38 27 39 28 40 29 41 30 42 91 43
REMARK SMILES IDX 31 44 90 45 32 46 33 47 34 48 84 49 35 50 89 51 83 52 85 53
REMARK SMILES IDX 36 54 88 55 82 56 81 57 37 59 69 60 49 61 68 62 50 63 53 64
REMARK SMILES IDX 67 65 86 66 51 67 52 68 66 70 87 71 54 72 38 73 39 74 47 75
REMARK SMILES IDX 40 76 46 77 48 78 45 79 41 80 42 81 43 82 44 83 70 84 71 85
REMARK SMILES IDX 79 86 72 87 78 88 80 89 77 90 73 91 74 92 75 93 76 94 55 95
REMARK SMILES IDX 56 96 64 97 57 98 63 99 65 100 62 101 58 102 59 103 60 104
REMARK SMILES IDX 61 105
REMARK H PARENT 3 17 85 58 53 69
REMARK Flexibility Score: inf
ROOT
ATOM      1  C   UNL A   1      30.949  26.470  23.121  1.00  0.00     0.188 C 
ENDROOT
BRANCH   1   2
ATOM      2  C   UNL A   1      30.502  25.221  23.894  1.00  0.00     0.188 C 
BRANCH   2   3
ATOM      3  O   UNL A   1      30.674  25.211  25.301  1.00  0.00    -0.376 OA
BRANCH   3   4
ATOM      4  C   UNL A   1      31.961  24.813  25.792  1.00  0.00     0.202 C 
BRANCH   4   5
ATOM      5  C   UNL A   1      31.965  23.701  26.844  1.00  0.00     0.261 C 
BRANCH   5   6
ATOM      6  O   UNL A   1      32.322  22.409  26.276  1.00  0.00    -0.463 OA
BRANCH   6   7
ATOM      7  C   UNL A   1      33.653  22.154  26.288  1.00  0.00     0.310 C 
ATOM      8  O   UNL A   1      34.276  21.849  27.305  1.00  0.00    -0.252 OA
BRANCH   7   9
ATOM      9  C   UNL A   1      34.355  22.163  24.937  1.00  0.00     0.115 C 
ATOM     10  C   UNL A   1      35.177  23.406  24.490  1.00  0.00     0.097 C 
ATOM     11  C   UNL A   1      34.480  24.305  23.458  1.00  0.00     0.041 C 
ATOM     12  C   UNL A   1      33.522  23.640  22.525  1.00  0.00    -0.030 C 
ATOM     13  C   UNL A   1      33.414  21.548  23.880  1.00  0.00     0.043 C 
ATOM     14  C   UNL A   1      33.047  22.407  22.715  1.00  0.00    -0.030 C 
BRANCH  10  15
ATOM     15  C   UNL A   1      36.500  22.923  23.879  1.00  0.00     0.224 C 
ATOM     16  N   UNL A   1      37.586  22.526  24.580  1.00  0.00    -0.349 N 
ATOM     17  H   UNL A   1      38.209  22.037  23.995  1.00  0.00     0.164 HD
ATOM     18  O   UNL A   1      36.640  22.864  22.649  1.00  0.00    -0.275 OA
BRANCH  16  19
ATOM     19  C   UNL A   1      38.126  22.600  25.954  1.00  0.00     0.109 C 
ATOM     20  C   UNL A   1      38.349  24.093  26.264  1.00  0.00     0.036 C 
BRANCH  19  21
ATOM     21  C   UNL A   1      39.365  21.776  26.205  1.00  0.00    -0.026 A 
ATOM     22  C   UNL A   1      39.356  20.394  25.942  1.00  0.00     0.008 A 
ATOM     23  C   UNL A   1      40.561  22.368  26.629  1.00  0.00     0.008 A 
ATOM     24  C   UNL A   1      40.550  19.671  25.884  1.00  0.00     0.027 A 
ATOM     25  C   UNL A   1      41.751  21.657  26.582  1.00  0.00     0.027 A 
ATOM     26  C   UNL A   1      41.748  20.343  26.118  1.00  0.00     0.046 A 
BRANCH  26  27
ATOM     27  N   UNL A   1      42.979  19.761  25.772  1.00  0.00    -0.306 N 
ATOM     28  C   UNL A   1      44.106  20.385  25.327  1.00  0.00     0.113 A 
ATOM     29  C   UNL A   1      43.301  18.430  25.887  1.00  0.00     0.204 A 
ATOM     30  C   UNL A   1      45.026  19.390  25.098  1.00  0.00     0.131 A 
ATOM     31  N   UNL A   1      44.534  18.180  25.506  1.00  0.00    -0.245 NA
ENDBRANCH  26  27
ENDBRANCH  19  21
ENDBRANCH  16  19
ENDBRANCH  10  15
ENDBRANCH   7   9
ENDBRANCH   6   7
ENDBRANCH   5   6
ENDBRANCH   4   5
ENDBRANCH   3   4
ENDBRANCH   2   3
ENDBRANCH   1   2
BRANCH   1  32
ATOM     32  O   UNL A   1      29.937  27.382  22.717  1.00  0.00    -0.377 OA
BRANCH  32  33
ATOM     33  C   UNL A   1      30.058  28.652  23.350  1.00  0.00     0.188 C 
BRANCH  33  34
ATOM     34  C   UNL A   1      31.150  28.775  24.423  1.00  0.00     0.188 C 
BRANCH  34  35
ATOM     35  O   UNL A   1      31.206  29.979  25.178  1.00  0.00    -0.376 OA
BRANCH  35  36
ATOM     36  C   UNL A   1      32.167  30.028  26.233  1.00  0.00     0.202 C 
BRANCH  36  37
ATOM     37  C   UNL A   1      32.299  31.381  26.936  1.00  0.00     0.261 C 
BRANCH  37  38
ATOM     38  O   UNL A   1      33.626  31.925  26.780  1.00  0.00    -0.460 OA
BRANCH  38  39
ATOM     39  C   UNL A   1      34.076  32.701  27.802  1.00  0.00     0.338 C 
ATOM     40  O   UNL A   1      33.507  33.646  28.306  1.00  0.00    -0.246 OA
BRANCH  39  41
ATOM     41  C   UNL A   1      35.324  32.113  28.335  1.00  0.00     0.060 A 
ATOM     42  C   UNL A   1      35.330  30.756  28.686  1.00  0.00     0.016 A 
ATOM     43  C   UNL A   1      36.474  32.891  28.503  1.00  0.00     0.016 A 
ATOM     44  C   UNL A   1      36.492  30.175  29.212  1.00  0.00     0.010 A 
ATOM     45  C   UNL A   1      37.628  32.312  29.041  1.00  0.00     0.010 A 
ATOM     46  C   UNL A   1      37.643  30.954  29.412  1.00  0.00    -0.014 A 
BRANCH  46  47
ATOM     47  C   UNL A   1      38.771  30.429  30.225  1.00  0.00     0.031 A 
ATOM     48  C   UNL A   1      38.876  30.913  31.643  1.00  0.00     0.074 A 
ATOM     49  C   UNL A   1      39.690  29.575  29.735  1.00  0.00     0.049 A 
ATOM     50  N   UNL A   1      39.778  30.647  32.549  1.00  0.00    -0.248 NA
ATOM     51  C   UNL A   1      37.821  31.837  32.088  1.00  0.00     0.031 C 
ATOM     52  C   UNL A   1      39.689  29.019  28.388  1.00  0.00     0.029 A 
ATOM     53  N   UNL A   1      40.810  29.025  30.314  1.00  0.00    -0.354 N 
ATOM     54  C   UNL A   1      39.396  31.362  33.676  1.00  0.00     0.074 A 
ATOM     55  C   UNL A   1      38.209  32.112  33.322  1.00  0.00     0.031 C 
ATOM     56  C   UNL A   1      40.744  28.201  28.241  1.00  0.00     0.029 A 
ATOM     57  C   UNL A   1      41.533  28.212  29.469  1.00  0.00     0.049 A 
ATOM     58  H   UNL A   1      41.071  29.199  31.248  1.00  0.00     0.167 HD
ATOM     59  C   UNL A   1      39.976  31.387  34.899  1.00  0.00     0.034 A 
ATOM     60  C   UNL A   1      42.706  27.570  29.657  1.00  0.00     0.034 A 
ATOM     61  C   UNL A   1      41.190  30.681  35.221  1.00  0.00     0.049 A 
ATOM     62  C   UNL A   1      43.398  27.707  30.995  1.00  0.00     0.074 A 
ATOM     63  C   UNL A   1      41.869  30.643  36.424  1.00  0.00     0.029 A 
ATOM     64  N   UNL A   1      41.922  29.912  34.325  1.00  0.00    -0.354 N 
ATOM     65  N   UNL A   1      43.008  28.362  32.065  1.00  0.00    -0.248 NA
ATOM     66  C   UNL A   1      44.686  27.018  31.151  1.00  0.00     0.031 C 
ATOM     67  C   UNL A   1      43.054  29.924  36.233  1.00  0.00     0.029 A 
ATOM     68  C   UNL A   1      43.067  29.430  34.938  1.00  0.00     0.049 A 
ATOM     69  H   UNL A   1      41.664  29.735  33.391  1.00  0.00     0.167 HD
ATOM     70  C   UNL A   1      43.983  28.126  33.032  1.00  0.00     0.074 A 
ATOM     71  C   UNL A   1      44.972  27.264  32.420  1.00  0.00     0.031 C 
ATOM     72  C   UNL A   1      44.050  28.575  34.312  1.00  0.00     0.034 A 
BRANCH  59  73
ATOM     73  C   UNL A   1      39.326  32.263  35.940  1.00  0.00     0.023 A 
ATOM     74  C   UNL A   1      39.701  33.608  36.105  1.00  0.00     0.031 A 
ATOM     75  C   UNL A   1      38.379  31.728  36.831  1.00  0.00     0.131 A 
ATOM     76  C   UNL A   1      39.204  34.344  37.190  1.00  0.00     0.055 A 
ATOM     77  C   UNL A   1      37.816  32.494  37.852  1.00  0.00     0.041 A 
ATOM     78  F   UNL A   1      38.008  30.441  36.742  1.00  0.00    -0.206 F 
ATOM     79  C   UNL A   1      38.242  33.805  38.048  1.00  0.00     0.022 A 
BRANCH  76  80
ATOM     80  S   UNL A   1      39.966  35.945  37.568  1.00  0.00     0.124 S 
ATOM     81  O   UNL A   1      39.749  36.676  36.322  1.00  0.00    -0.237 OA
ATOM     82  O   UNL A   1      39.191  36.400  38.718  1.00  0.00    -0.237 OA
ATOM     83  O   UNL A   1      41.359  35.605  37.848  1.00  0.00    -0.744 OA
ENDBRANCH  76  80
ENDBRANCH  59  73
BRANCH  60  84
ATOM     84  C   UNL A   1      43.336  26.772  28.560  1.00  0.00     0.023 A 
ATOM     85  C   UNL A   1      44.436  27.267  27.839  1.00  0.00     0.031 A 
ATOM     86  C   UNL A   1      42.797  25.535  28.161  1.00  0.00     0.131 A 
ATOM     87  C   UNL A   1      44.926  26.559  26.728  1.00  0.00     0.055 A 
ATOM     88  C   UNL A   1      43.326  24.805  27.094  1.00  0.00     0.041 A 
ATOM     89  F   UNL A   1      41.739  25.014  28.804  1.00  0.00    -0.206 F 
ATOM     90  C   UNL A   1      44.388  25.324  26.360  1.00  0.00     0.022 A 
BRANCH  87  91
ATOM     91  S   UNL A   1      46.207  27.329  25.699  1.00  0.00     0.124 S 
ATOM     92  O   UNL A   1      46.803  28.281  26.630  1.00  0.00    -0.237 OA
ATOM     93  O   UNL A   1      47.034  26.183  25.335  1.00  0.00    -0.237 OA
ATOM     94  O   UNL A   1      45.449  27.922  24.599  1.00  0.00    -0.744 OA
ENDBRANCH  87  91
ENDBRANCH  60  84
BRANCH  72  95
ATOM     95  C   UNL A   1      45.205  28.089  35.156  1.00  0.00     0.023 A 
ATOM     96  C   UNL A   1      45.146  26.884  35.878  1.00  0.00     0.031 A 
ATOM     97  C   UNL A   1      46.387  28.847  35.234  1.00  0.00     0.131 A 
ATOM     98  C   UNL A   1      46.224  26.504  36.692  1.00  0.00     0.055 A 
ATOM     99  C   UNL A   1      47.483  28.429  35.988  1.00  0.00     0.041 A 
ATOM    100  F   UNL A   1      46.499  30.009  34.568  1.00  0.00    -0.206 F 
ATOM    101  C   UNL A   1      47.401  27.258  36.734  1.00  0.00     0.022 A 
BRANCH  98 102
ATOM    102  S   UNL A   1      46.032  25.062  37.774  1.00  0.00     0.124 S 
ATOM    103  O   UNL A   1      45.844  23.983  36.809  1.00  0.00    -0.237 OA
ATOM    104  O   UNL A   1      47.294  25.049  38.507  1.00  0.00    -0.237 OA
ATOM    105  O   UNL A   1      44.854  25.389  38.576  1.00  0.00    -0.744 OA
ENDBRANCH  98 102
ENDBRANCH  72  95
ENDBRANCH  46  47
ENDBRANCH  39  41
ENDBRANCH  38  39
ENDBRANCH  37  38
ENDBRANCH  36  37
ENDBRANCH  35  36
ENDBRANCH  34  35
ENDBRANCH  33  34
ENDBRANCH  32  33
ENDBRANCH   1  32
TORSDOF 27
ENDMDL
MODEL 2
REMARK VINA RESULT:     -10.3      1.930      2.177
REMARK SMILES C[C@@H](NC(=O)[C@H]1CC=CC[C@@H]1C(=O)OCCOCCOCCOCCOC(=O)c1ccc(-c2c3nc(c(-c4cc(S(=O)(=O)[O-])ccc4F)c4ccc([nH]4)c(-c4cc(S(=O)(=O)[O-])ccc4F)c4nc(c(-c5cc(S(=O)(=O)[O-])ccc5F)c5ccc2[nH]5)C=C4)C=C3)cc1)c1ccc(-n2ccnc2)cc1
REMARK SMILES IDX 19 1 18 2 17 3 16 4 15 5 14 6 12 7 13 8 11 9 6 10 7 11 8 12
REMARK SMILES IDX 10 13 9 14 4 15 3 16 5 18 2 19 1 20 92 21 93 22 102 23 94 24
REMARK SMILES IDX 101 25 95 26 96 27 97 28 100 29 98 30 99 31 20 32 21 33
REMARK SMILES IDX 22 34 23 35 24 36 25 37 26 38 27 39 28 40 29 41 30 42 91 43
REMARK SMILES IDX 31 44 90 45 32 46 33 47 34 48 84 49 35 50 89 51 83 52 85 53
REMARK SMILES IDX 36 54 88 55 82 56 81 57 37 59 69 60 49 61 68 62 50 63 53 64
REMARK SMILES IDX 67 65 86 66 51 67 52 68 66 70 87 71 54 72 38 73 39 74 47 75
REMARK SMILES IDX 40 76 46 77 48 78 45 79 41 80 42 81 43 82 44 83 70 84 71 85
REMARK SMILES IDX 79 86 72 87 78 88 80 89 77 90 73 91 74 92 75 93 76 94 55 95
REMARK SMILES IDX 56 96 64 97 57 98 63 99 65 100 62 101 58 102 59 103 60 104
REMARK SMILES IDX 61 105
REMARK H PARENT 3 17 85 58 53 69
REMARK Flexibility Score: inf
ROOT
ATOM      1  C   UNL A   1      30.955  26.106  23.069  1.00  0.00     0.188 C 
ENDROOT
BRANCH   1   2
ATOM      2  C   UNL A   1      30.395  25.130  24.112  1.00  0.00     0.188 C 
BRANCH   2   3
ATOM      3  O   UNL A   1      31.311  24.495  24.990  1.00  0.00    -0.376 OA
BRANCH   3   4
ATOM      4  C   UNL A   1      30.750  23.761  26.087  1.00  0.00     0.202 C 
BRANCH   4   5
ATOM      5  C   UNL A   1      31.745  23.249  27.132  1.00  0.00     0.261 C 
BRANCH   5   6
ATOM      6  O   UNL A   1      32.564  22.159  26.623  1.00  0.00    -0.463 OA
BRANCH   6   7
ATOM      7  C   UNL A   1      33.885  22.454  26.547  1.00  0.00     0.310 C 
ATOM      8  O   UNL A   1      34.569  22.755  27.524  1.00  0.00    -0.252 OA
BRANCH   7   9
ATOM      9  C   UNL A   1      34.534  22.299  25.179  1.00  0.00     0.115 C 
ATOM     10  C   UNL A   1      35.273  23.501  24.522  1.00  0.00     0.097 C 
ATOM     11  C   UNL A   1      34.493  24.208  23.404  1.00  0.00     0.041 C 
ATOM     12  C   UNL A   1      33.536  23.370  22.619  1.00  0.00    -0.030 C 
ATOM     13  C   UNL A   1      33.588  21.494  24.263  1.00  0.00     0.043 C 
ATOM     14  C   UNL A   1      33.134  22.158  23.004  1.00  0.00    -0.030 C 
BRANCH  10  15
ATOM     15  C   UNL A   1      36.596  22.996  23.928  1.00  0.00     0.224 C 
ATOM     16  N   UNL A   1      37.663  22.573  24.643  1.00  0.00    -0.349 N 
ATOM     17  H   UNL A   1      38.285  22.076  24.066  1.00  0.00     0.164 HD
ATOM     18  O   UNL A   1      36.754  22.942  22.701  1.00  0.00    -0.275 OA
BRANCH  16  19
ATOM     19  C   UNL A   1      38.182  22.628  26.026  1.00  0.00     0.109 C 
ATOM     20  C   UNL A   1      38.181  24.112  26.443  1.00  0.00     0.036 C 
BRANCH  19  21
ATOM     21  C   UNL A   1      39.530  21.981  26.235  1.00  0.00    -0.026 A 
ATOM     22  C   UNL A   1      39.643  20.578  26.241  1.00  0.00     0.008 A 
ATOM     23  C   UNL A   1      40.696  22.746  26.352  1.00  0.00     0.008 A 
ATOM     24  C   UNL A   1      40.892  19.963  26.137  1.00  0.00     0.027 A 
ATOM     25  C   UNL A   1      41.942  22.144  26.257  1.00  0.00     0.027 A 
ATOM     26  C   UNL A   1      42.027  20.768  26.054  1.00  0.00     0.046 A 
BRANCH  26  27
ATOM     27  N   UNL A   1      43.259  20.235  25.640  1.00  0.00    -0.306 N 
ATOM     28  C   UNL A   1      43.522  18.966  25.214  1.00  0.00     0.113 A 
ATOM     29  C   UNL A   1      44.439  20.928  25.522  1.00  0.00     0.204 A 
ATOM     30  C   UNL A   1      44.870  18.926  24.953  1.00  0.00     0.131 A 
ATOM     31  N   UNL A   1      45.423  20.170  25.091  1.00  0.00    -0.245 NA
ENDBRANCH  26  27
ENDBRANCH  19  21
ENDBRANCH  16  19
ENDBRANCH  10  15
ENDBRANCH   7   9
ENDBRANCH   6   7
ENDBRANCH   5   6
ENDBRANCH   4   5
ENDBRANCH   3   4
ENDBRANCH   2   3
ENDBRANCH   1   2
BRANCH   1  32
ATOM     32  O   UNL A   1      30.171  27.252  22.762  1.00  0.00    -0.377 OA
BRANCH  32  33
ATOM     33  C   UNL A   1      30.211  28.235  23.792  1.00  0.00     0.188 C 
BRANCH  33  34
ATOM     34  C   UNL A   1      31.530  28.353  24.569  1.00  0.00     0.188 C 
BRANCH  34  35
ATOM     35  O   UNL A   1      31.475  28.261  25.987  1.00  0.00    -0.376 OA
BRANCH  35  36
ATOM     36  C   UNL A   1      32.558  28.851  26.708  1.00  0.00     0.202 C 
BRANCH  36  37
ATOM     37  C   UNL A   1      32.515  30.376  26.824  1.00  0.00     0.261 C 
BRANCH  37  38
ATOM     38  O   UNL A   1      33.839  30.944  26.755  1.00  0.00    -0.460 OA
BRANCH  38  39
ATOM     39  C   UNL A   1      34.208  31.725  27.806  1.00  0.00     0.338 C 
ATOM     40  O   UNL A   1      33.559  32.610  28.320  1.00  0.00    -0.246 OA
BRANCH  39  41
ATOM     41  C   UNL A   1      35.487  31.219  28.351  1.00  0.00     0.060 A 
ATOM     42  C   UNL A   1      35.506  29.952  28.950  1.00  0.00     0.016 A 
ATOM     43  C   UNL A   1      36.653  31.989  28.288  1.00  0.00     0.016 A 
ATOM     44  C   UNL A   1      36.698  29.454  29.494  1.00  0.00     0.010 A 
ATOM     45  C   UNL A   1      37.838  31.495  28.844  1.00  0.00     0.010 A 
ATOM     46  C   UNL A   1      37.867  30.231  29.462  1.00  0.00    -0.014 A 
BRANCH  46  47
ATOM     47  C   UNL A   1      39.047  29.842  30.278  1.00  0.00     0.031 A 
ATOM     48  C   UNL A   1      39.142  30.418  31.662  1.00  0.00     0.074 A 
ATOM     49  C   UNL A   1      40.019  29.031  29.818  1.00  0.00     0.049 A 
ATOM     50  N   UNL A   1      40.078  30.276  32.561  1.00  0.00    -0.248 NA
ATOM     51  C   UNL A   1      38.028  31.286  32.076  1.00  0.00     0.031 C 
ATOM     52  C   UNL A   1      40.036  28.396  28.507  1.00  0.00     0.029 A 
ATOM     53  N   UNL A   1      41.189  28.604  30.403  1.00  0.00    -0.354 N 
ATOM     54  C   UNL A   1      39.664  31.029  33.652  1.00  0.00     0.074 A 
ATOM     55  C   UNL A   1      38.417  31.664  33.281  1.00  0.00     0.031 C 
ATOM     56  C   UNL A   1      41.147  27.652  28.385  1.00  0.00     0.029 A 
ATOM     57  C   UNL A   1      41.956  27.797  29.591  1.00  0.00     0.049 A 
ATOM     58  H   UNL A   1      41.454  28.853  31.318  1.00  0.00     0.167 HD
ATOM     59  C   UNL A   1      40.263  31.171  34.858  1.00  0.00     0.034 A 
ATOM     60  C   UNL A   1      43.178  27.258  29.789  1.00  0.00     0.034 A 
ATOM     61  C   UNL A   1      41.533  30.580  35.193  1.00  0.00     0.049 A 
ATOM     62  C   UNL A   1      43.882  27.527  31.100  1.00  0.00     0.074 A 
ATOM     63  C   UNL A   1      42.236  30.665  36.380  1.00  0.00     0.029 A 
ATOM     64  N   UNL A   1      42.305  29.814  34.327  1.00  0.00    -0.354 N 
ATOM     65  N   UNL A   1      43.463  28.215  32.138  1.00  0.00    -0.248 NA
ATOM     66  C   UNL A   1      45.222  26.947  31.267  1.00  0.00     0.031 C 
ATOM     67  C   UNL A   1      43.468  30.027  36.204  1.00  0.00     0.029 A 
ATOM     68  C   UNL A   1      43.495  29.458  34.940  1.00  0.00     0.049 A 
ATOM     69  H   UNL A   1      42.044  29.562  33.411  1.00  0.00     0.167 HD
ATOM     70  C   UNL A   1      44.471  28.112  33.095  1.00  0.00     0.074 A 
ATOM     71  C   UNL A   1      45.512  27.291  32.513  1.00  0.00     0.031 C 
ATOM     72  C   UNL A   1      44.528  28.642  34.344  1.00  0.00     0.034 A 
BRANCH  59  73
ATOM     73  C   UNL A   1      39.567  32.058  35.860  1.00  0.00     0.023 A 
ATOM     74  C   UNL A   1      38.880  31.519  36.962  1.00  0.00     0.031 A 
ATOM     75  C   UNL A   1      39.522  33.449  35.669  1.00  0.00     0.131 A 
ATOM     76  C   UNL A   1      38.102  32.355  37.776  1.00  0.00     0.055 A 
ATOM     77  C   UNL A   1      38.823  34.287  36.539  1.00  0.00     0.041 A 
ATOM     78  F   UNL A   1      40.131  34.015  34.616  1.00  0.00    -0.206 F 
ATOM     79  C   UNL A   1      38.092  33.739  37.589  1.00  0.00     0.022 A 
BRANCH  76  80
ATOM     80  S   UNL A   1      36.966  31.589  38.964  1.00  0.00     0.124 S 
ATOM     81  O   UNL A   1      35.850  32.532  38.953  1.00  0.00    -0.237 OA
ATOM     82  O   UNL A   1      36.707  30.287  38.359  1.00  0.00    -0.237 OA
ATOM     83  O   UNL A   1      37.735  31.560  40.205  1.00  0.00    -0.744 OA
ENDBRANCH  76  80
ENDBRANCH  59  73
BRANCH  60  84
ATOM     84  C   UNL A   1      43.846  26.443  28.728  1.00  0.00     0.023 A 
ATOM     85  C   UNL A   1      44.655  27.046  27.749  1.00  0.00     0.031 A 
ATOM     86  C   UNL A   1      43.620  25.058  28.625  1.00  0.00     0.131 A 
ATOM     87  C   UNL A   1      45.163  26.280  26.686  1.00  0.00     0.055 A 
ATOM     88  C   UNL A   1      44.178  24.289  27.601  1.00  0.00     0.041 A 
ATOM     89  F   UNL A   1      42.848  24.426  29.524  1.00  0.00    -0.206 F 
ATOM     90  C   UNL A   1      44.942  24.903  26.614  1.00  0.00     0.022 A 
BRANCH  87  91
ATOM     91  S   UNL A   1      46.026  27.129  25.333  1.00  0.00     0.124 S 
ATOM     92  O   UNL A   1      44.948  27.914  24.742  1.00  0.00    -0.237 OA
ATOM     93  O   UNL A   1      47.050  27.881  26.051  1.00  0.00    -0.237 OA
ATOM     94  O   UNL A   1      46.526  26.032  24.507  1.00  0.00    -0.744 OA
ENDBRANCH  87  91
ENDBRANCH  60  84
BRANCH  72  95
ATOM     95  C   UNL A   1      45.732  28.296  35.188  1.00  0.00     0.023 A 
ATOM     96  C   UNL A   1      46.873  29.114  35.230  1.00  0.00     0.031 A 
ATOM     97  C   UNL A   1      45.732  27.123  35.965  1.00  0.00     0.131 A 
ATOM     98  C   UNL A   1      47.989  28.720  35.985  1.00  0.00     0.055 A 
ATOM     99  C   UNL A   1      46.815  26.773  36.771  1.00  0.00     0.041 A 
ATOM    100  F   UNL A   1      44.670  26.301  35.961  1.00  0.00    -0.206 F 
ATOM    101  C   UNL A   1      47.958  27.566  36.773  1.00  0.00     0.022 A 
BRANCH  98 102
ATOM    102  S   UNL A   1      49.518  29.684  35.848  1.00  0.00     0.124 S 
ATOM    103  O   UNL A   1      50.532  28.636  35.784  1.00  0.00    -0.237 OA
ATOM    104  O   UNL A   1      49.304  30.440  34.618  1.00  0.00    -0.237 OA
ATOM    105  O   UNL A   1      49.530  30.484  37.072  1.00  0.00    -0.744 OA
ENDBRANCH  98 102
ENDBRANCH  72  95
ENDBRANCH  46  47
ENDBRANCH  39  41
ENDBRANCH  38  39
ENDBRANCH  37  38
ENDBRANCH  36  37
ENDBRANCH  35  36
ENDBRANCH  34  35
ENDBRANCH  33  34
ENDBRANCH  32  33
ENDBRANCH   1  32
TORSDOF 27
ENDMDL
MODEL 3
REMARK VINA RESULT:      -9.5      2.153      7.499
REMARK SMILES C[C@@H](NC(=O)[C@H]1CC=CC[C@@H]1C(=O)OCCOCCOCCOCCOC(=O)c1ccc(-c2c3nc(c(-c4cc(S(=O)(=O)[O-])ccc4F)c4ccc([nH]4)c(-c4cc(S(=O)(=O)[O-])ccc4F)c4nc(c(-c5cc(S(=O)(=O)[O-])ccc5F)c5ccc2[nH]5)C=C4)C=C3)cc1)c1ccc(-n2ccnc2)cc1
REMARK SMILES IDX 19 1 18 2 17 3 16 4 15 5 14 6 12 7 13 8 11 9 6 10 7 11 8 12
REMARK SMILES IDX 10 13 9 14 4 15 3 16 5 18 2 19 1 20 92 21 93 22 102 23 94 24
REMARK SMILES IDX 101 25 95 26 96 27 97 28 100 29 98 30 99 31 20 32 21 33
REMARK SMILES IDX 22 34 23 35 24 36 25 37 26 38 27 39 28 40 29 41 30 42 91 43
REMARK SMILES IDX 31 44 90 45 32 46 33 47 34 48 84 49 35 50 89 51 83 52 85 53
REMARK SMILES IDX 36 54 88 55 82 56 81 57 37 59 69 60 49 61 68 62 50 63 53 64
REMARK SMILES IDX 67 65 86 66 51 67 52 68 66 70 87 71 54 72 38 73 39 74 47 75
REMARK SMILES IDX 40 76 46 77 48 78 45 79 41 80 42 81 43 82 44 83 70 84 71 85
REMARK SMILES IDX 79 86 72 87 78 88 80 89 77 90 73 91 74 92 75 93 76 94 55 95
REMARK SMILES IDX 56 96 64 97 57 98 63 99 65 100 62 101 58 102 59 103 60 104
REMARK SMILES IDX 61 105
REMARK H PARENT 3 17 85 58 53 69
REMARK Flexibility Score: inf
ROOT
ATOM      1  C   UNL A   1      31.509  26.900  24.764  1.00  0.00     0.188 C 
ENDROOT
BRANCH   1   2
ATOM      2  C   UNL A   1      30.840  26.523  26.092  1.00  0.00     0.188 C 
BRANCH   2   3
ATOM      3  O   UNL A   1      31.362  25.418  26.812  1.00  0.00    -0.376 OA
BRANCH   3   4
ATOM      4  C   UNL A   1      30.817  24.128  26.501  1.00  0.00     0.202 C 
BRANCH   4   5
ATOM      5  C   UNL A   1      31.675  22.923  26.893  1.00  0.00     0.261 C 
BRANCH   5   6
ATOM      6  O   UNL A   1      32.131  22.173  25.732  1.00  0.00    -0.463 OA
BRANCH   6   7
ATOM      7  C   UNL A   1      33.437  21.815  25.788  1.00  0.00     0.310 C 
ATOM      8  O   UNL A   1      33.921  21.163  26.713  1.00  0.00    -0.252 OA
BRANCH   7   9
ATOM      9  C   UNL A   1      34.289  22.176  24.579  1.00  0.00     0.115 C 
ATOM     10  C   UNL A   1      35.276  23.377  24.647  1.00  0.00     0.097 C 
ATOM     11  C   UNL A   1      34.796  24.649  23.933  1.00  0.00     0.041 C 
ATOM     12  C   UNL A   1      33.893  24.461  22.758  1.00  0.00    -0.030 C 
ATOM     13  C   UNL A   1      33.422  22.072  23.307  1.00  0.00     0.043 C 
ATOM     14  C   UNL A   1      33.281  23.308  22.479  1.00  0.00    -0.030 C 
BRANCH  10  15
ATOM     15  C   UNL A   1      36.607  22.952  24.012  1.00  0.00     0.224 C 
ATOM     16  N   UNL A   1      37.708  22.561  24.692  1.00  0.00    -0.349 N 
ATOM     17  H   UNL A   1      38.341  22.111  24.088  1.00  0.00     0.164 HD
ATOM     18  O   UNL A   1      36.741  22.940  22.780  1.00  0.00    -0.275 OA
BRANCH  16  19
ATOM     19  C   UNL A   1      38.255  22.602  26.065  1.00  0.00     0.109 C 
ATOM     20  C   UNL A   1      38.296  24.084  26.483  1.00  0.00     0.036 C 
BRANCH  19  21
ATOM     21  C   UNL A   1      39.590  21.923  26.248  1.00  0.00    -0.026 A 
ATOM     22  C   UNL A   1      39.662  20.519  26.322  1.00  0.00     0.008 A 
ATOM     23  C   UNL A   1      40.783  22.655  26.274  1.00  0.00     0.008 A 
ATOM     24  C   UNL A   1      40.886  19.859  26.196  1.00  0.00     0.027 A 
ATOM     25  C   UNL A   1      42.005  22.008  26.156  1.00  0.00     0.027 A 
ATOM     26  C   UNL A   1      42.039  20.622  26.021  1.00  0.00     0.046 A 
BRANCH  26  27
ATOM     27  N   UNL A   1      43.234  20.028  25.582  1.00  0.00    -0.306 N 
ATOM     28  C   UNL A   1      44.425  20.638  25.318  1.00  0.00     0.113 A 
ATOM     29  C   UNL A   1      43.447  18.684  25.398  1.00  0.00     0.204 A 
ATOM     30  C   UNL A   1      45.273  19.644  24.890  1.00  0.00     0.131 A 
ATOM     31  N   UNL A   1      44.672  18.421  25.000  1.00  0.00    -0.245 NA
ENDBRANCH  26  27
ENDBRANCH  19  21
ENDBRANCH  16  19
ENDBRANCH  10  15
ENDBRANCH   7   9
ENDBRANCH   6   7
ENDBRANCH   5   6
ENDBRANCH   4   5
ENDBRANCH   3   4
ENDBRANCH   2   3
ENDBRANCH   1   2
BRANCH   1  32
ATOM     32  O   UNL A   1      31.088  28.107  24.142  1.00  0.00    -0.377 OA
BRANCH  32  33
ATOM     33  C   UNL A   1      31.398  29.260  24.917  1.00  0.00     0.188 C 
BRANCH  33  34
ATOM     34  C   UNL A   1      32.865  29.423  25.339  1.00  0.00     0.188 C 
BRANCH  34  35
ATOM     35  O   UNL A   1      33.189  29.217  26.708  1.00  0.00    -0.376 OA
BRANCH  35  36
ATOM     36  C   UNL A   1      34.126  30.126  27.287  1.00  0.00     0.202 C 
BRANCH  36  37
ATOM     37  C   UNL A   1      33.575  31.517  27.611  1.00  0.00     0.261 C 
BRANCH  37  38
ATOM     38  O   UNL A   1      34.625  32.409  28.039  1.00  0.00    -0.460 OA
BRANCH  38  39
ATOM     39  C   UNL A   1      34.301  33.276  29.035  1.00  0.00     0.338 C 
ATOM     40  O   UNL A   1      33.293  33.943  29.122  1.00  0.00    -0.246 OA
BRANCH  39  41
ATOM     41  C   UNL A   1      35.311  33.166  30.110  1.00  0.00     0.060 A 
ATOM     42  C   UNL A   1      36.362  34.093  30.142  1.00  0.00     0.016 A 
ATOM     43  C   UNL A   1      35.235  32.152  31.070  1.00  0.00     0.016 A 
ATOM     44  C   UNL A   1      37.345  34.002  31.136  1.00  0.00     0.010 A 
ATOM     45  C   UNL A   1      36.226  32.054  32.053  1.00  0.00     0.010 A 
ATOM     46  C   UNL A   1      37.294  32.970  32.087  1.00  0.00    -0.014 A 
BRANCH  46  47
ATOM     47  C   UNL A   1      38.469  32.694  32.955  1.00  0.00     0.031 A 
ATOM     48  C   UNL A   1      39.596  31.906  32.352  1.00  0.00     0.074 A 
ATOM     49  C   UNL A   1      38.539  33.097  34.239  1.00  0.00     0.049 A 
ATOM     50  N   UNL A   1      40.710  31.495  32.897  1.00  0.00    -0.248 NA
ATOM     51  C   UNL A   1      39.429  31.518  30.942  1.00  0.00     0.031 C 
ATOM     52  C   UNL A   1      37.525  33.880  34.932  1.00  0.00     0.029 A 
ATOM     53  N   UNL A   1      39.509  32.899  35.194  1.00  0.00    -0.354 N 
ATOM     54  C   UNL A   1      41.382  30.809  31.895  1.00  0.00     0.074 A 
ATOM     55  C   UNL A   1      40.528  30.816  30.726  1.00  0.00     0.031 C 
ATOM     56  C   UNL A   1      37.923  34.108  36.195  1.00  0.00     0.029 A 
ATOM     57  C   UNL A   1      39.201  33.441  36.422  1.00  0.00     0.049 A 
ATOM     58  H   UNL A   1      40.347  32.412  35.016  1.00  0.00     0.167 HD
ATOM     59  C   UNL A   1      42.606  30.231  31.940  1.00  0.00     0.034 A 
ATOM     60  C   UNL A   1      39.862  33.387  37.598  1.00  0.00     0.034 A 
ATOM     61  C   UNL A   1      43.421  30.180  33.127  1.00  0.00     0.049 A 
ATOM     62  C   UNL A   1      41.173  32.634  37.656  1.00  0.00     0.074 A 
ATOM     63  C   UNL A   1      44.671  29.613  33.289  1.00  0.00     0.029 A 
ATOM     64  N   UNL A   1      43.052  30.693  34.365  1.00  0.00    -0.354 N 
ATOM     65  N   UNL A   1      41.815  32.016  36.690  1.00  0.00    -0.248 NA
ATOM     66  C   UNL A   1      41.848  32.573  38.959  1.00  0.00     0.031 C 
ATOM     67  C   UNL A   1      45.021  29.706  34.640  1.00  0.00     0.029 A 
ATOM     68  C   UNL A   1      44.033  30.418  35.304  1.00  0.00     0.049 A 
ATOM     69  H   UNL A   1      42.217  31.181  34.548  1.00  0.00     0.167 HD
ATOM     70  C   UNL A   1      42.989  31.531  37.264  1.00  0.00     0.074 A 
ATOM     71  C   UNL A   1      42.968  31.936  38.654  1.00  0.00     0.031 C 
ATOM     72  C   UNL A   1      43.996  30.823  36.691  1.00  0.00     0.034 A 
BRANCH  59  73
ATOM     73  C   UNL A   1      43.084  29.555  30.680  1.00  0.00     0.023 A 
ATOM     74  C   UNL A   1      43.867  30.239  29.733  1.00  0.00     0.031 A 
ATOM     75  C   UNL A   1      42.687  28.240  30.382  1.00  0.00     0.131 A 
ATOM     76  C   UNL A   1      44.150  29.640  28.497  1.00  0.00     0.055 A 
ATOM     77  C   UNL A   1      43.052  27.615  29.189  1.00  0.00     0.041 A 
ATOM     78  F   UNL A   1      41.912  27.551  31.234  1.00  0.00    -0.206 F 
ATOM     79  C   UNL A   1      43.772  28.322  28.230  1.00  0.00     0.022 A 
BRANCH  76  80
ATOM     80  S   UNL A   1      44.856  30.669  27.181  1.00  0.00     0.124 S 
ATOM     81  O   UNL A   1      43.748  31.576  26.891  1.00  0.00    -0.237 OA
ATOM     82  O   UNL A   1      46.016  31.265  27.835  1.00  0.00    -0.237 OA
ATOM     83  O   UNL A   1      45.160  29.710  26.122  1.00  0.00    -0.744 OA
ENDBRANCH  76  80
ENDBRANCH  59  73
BRANCH  60  84
ATOM     84  C   UNL A   1      39.301  34.020  38.832  1.00  0.00     0.023 A 
ATOM     85  C   UNL A   1      39.809  35.236  39.321  1.00  0.00     0.031 A 
ATOM     86  C   UNL A   1      38.304  33.378  39.589  1.00  0.00     0.131 A 
ATOM     87  C   UNL A   1      39.359  35.743  40.552  1.00  0.00     0.055 A 
ATOM     88  C   UNL A   1      37.816  33.916  40.781  1.00  0.00     0.041 A 
ATOM     89  F   UNL A   1      37.787  32.208  39.179  1.00  0.00    -0.206 F 
ATOM     90  C   UNL A   1      38.355  35.099  41.278  1.00  0.00     0.022 A 
BRANCH  87  91
ATOM     91  S   UNL A   1      40.184  37.201  41.249  1.00  0.00     0.124 S 
ATOM     92  O   UNL A   1      40.055  38.164  40.162  1.00  0.00    -0.237 OA
ATOM     93  O   UNL A   1      39.382  37.464  42.440  1.00  0.00    -0.237 OA
ATOM     94  O   UNL A   1      41.543  36.731  41.508  1.00  0.00    -0.744 OA
ENDBRANCH  87  91
ENDBRANCH  60  84
BRANCH  72  95
ATOM     95  C   UNL A   1      45.189  30.494  37.557  1.00  0.00     0.023 A 
ATOM     96  C   UNL A   1      45.231  29.344  38.364  1.00  0.00     0.031 A 
ATOM     97  C   UNL A   1      46.305  31.350  37.570  1.00  0.00     0.131 A 
ATOM     98  C   UNL A   1      46.339  29.112  39.193  1.00  0.00     0.055 A 
ATOM     99  C   UNL A   1      47.435  31.078  38.343  1.00  0.00     0.041 A 
ATOM    100  F   UNL A   1      46.320  32.466  36.822  1.00  0.00    -0.206 F 
ATOM    101  C   UNL A   1      47.450  29.960  39.171  1.00  0.00     0.022 A 
BRANCH  98 102
ATOM    102  S   UNL A   1      46.269  27.741  40.377  1.00  0.00     0.124 S 
ATOM    103  O   UNL A   1      46.881  26.654  39.618  1.00  0.00    -0.237 OA
ATOM    104  O   UNL A   1      47.050  28.254  41.498  1.00  0.00    -0.237 OA
ATOM    105  O   UNL A   1      44.838  27.586  40.638  1.00  0.00    -0.744 OA
ENDBRANCH  98 102
ENDBRANCH  72  95
ENDBRANCH  46  47
ENDBRANCH  39  41
ENDBRANCH  38  39
ENDBRANCH  37  38
ENDBRANCH  36  37
ENDBRANCH  35  36
ENDBRANCH  34  35
ENDBRANCH  33  34
ENDBRANCH  32  33
ENDBRANCH   1  32
TORSDOF 27
ENDMDL
