MODEL 1
REMARK VINA RESULT:      -8.5      0.000      0.000
REMARK SMILES C[C@@H](C(=O)OCCOCCOCCOCCOC(=O)c1ccc(-c2c3nc(c(-c4cc(S(=O)(=O)[O-])ccc4F)c4ccc([nH]4)c(-c4cc(S(=O)(=O)[O-])ccc4F)c4nc(c(-c5cc(S(=O)(=O)[O-])ccc5F)c5ccc2[nH]5)C=C4)C=C3)cc1)c1ccc(C[C@@H]2CCC[C@@H]2O)cc1F
REMARK SMILES IDX 10 1 9 2 8 3 7 4 6 5 5 6 3 7 4 8 2 9 1 10 83 11 84 12 95 13
REMARK SMILES IDX 85 14 94 15 96 16 86 17 87 18 88 19 89 20 92 21 90 22 91 23
REMARK SMILES IDX 93 24 11 26 12 27 13 28 14 29 15 30 16 31 17 32 18 33 19 34
REMARK SMILES IDX 20 35 21 36 82 37 22 38 81 39 23 40 24 41 25 42 75 43 26 44
REMARK SMILES IDX 80 45 74 46 76 47 27 48 79 49 73 50 72 51 28 53 60 54 40 55
REMARK SMILES IDX 59 56 41 57 44 58 58 59 77 60 42 61 43 62 57 64 78 65 45 66
REMARK SMILES IDX 29 67 30 68 38 69 31 70 37 71 39 72 36 73 32 74 33 75 34 76
REMARK SMILES IDX 35 77 61 78 62 79 70 80 63 81 69 82 71 83 68 84 64 85 65 86
REMARK SMILES IDX 66 87 67 88 46 89 47 90 55 91 48 92 54 93 56 94 53 95 49 96
REMARK SMILES IDX 50 97 51 98 52 99
REMARK H PARENT 93 25 76 52 44 63
REMARK Flexibility Score: inf
ROOT
ATOM      1  C   UNL A   1      33.804  21.525  24.910  1.00  0.00     0.188 C 
ENDROOT
BRANCH   1   2
ATOM      2  C   UNL A   1      32.380  21.271  25.424  1.00  0.00     0.188 C 
BRANCH   2   3
ATOM      3  O   UNL A   1      31.441  22.299  25.190  1.00  0.00    -0.376 OA
BRANCH   3   4
ATOM      4  C   UNL A   1      31.634  23.243  24.146  1.00  0.00     0.202 C 
BRANCH   4   5
ATOM      5  C   UNL A   1      30.537  24.120  23.502  1.00  0.00     0.261 C 
BRANCH   5   6
ATOM      6  O   UNL A   1      30.989  25.204  22.687  1.00  0.00    -0.463 OA
BRANCH   6   7
ATOM      7  C   UNL A   1      30.671  26.473  23.037  1.00  0.00     0.313 C 
ATOM      8  O   UNL A   1      29.580  26.827  23.467  1.00  0.00    -0.252 OA
BRANCH   7   9
ATOM      9  C   UNL A   1      31.859  27.424  22.863  1.00  0.00     0.129 C 
ATOM     10  C   UNL A   1      33.021  26.774  22.077  1.00  0.00     0.025 C 
BRANCH   9  11
ATOM     11  C   UNL A   1      32.320  28.162  24.125  1.00  0.00     0.002 A 
ATOM     12  C   UNL A   1      33.482  27.740  24.794  1.00  0.00     0.008 A 
ATOM     13  C   UNL A   1      31.691  29.304  24.634  1.00  0.00     0.127 A 
ATOM     14  C   UNL A   1      33.964  28.412  25.926  1.00  0.00     0.004 A 
ATOM     15  C   UNL A   1      32.136  29.949  25.794  1.00  0.00     0.043 A 
ATOM     16  F   UNL A   1      30.622  29.832  24.025  1.00  0.00    -0.207 F 
ATOM     17  C   UNL A   1      33.285  29.512  26.459  1.00  0.00    -0.045 A 
BRANCH  17  18
ATOM     18  C   UNL A   1      33.815  30.285  27.645  1.00  0.00     0.041 C 
BRANCH  18  19
ATOM     19  C   UNL A   1      35.256  30.842  27.632  1.00  0.00     0.022 C 
ATOM     20  C   UNL A   1      36.354  29.841  27.996  1.00  0.00     0.007 C 
ATOM     21  C   UNL A   1      35.550  32.024  28.559  1.00  0.00     0.117 C 
ATOM     22  C   UNL A   1      36.730  30.116  29.455  1.00  0.00     0.003 C 
ATOM     23  C   UNL A   1      35.988  31.383  29.869  1.00  0.00     0.032 C 
BRANCH  21  24
ATOM     24  O   UNL A   1      34.457  32.909  28.682  1.00  0.00    -0.393 OA
ATOM     25  H   UNL A   1      33.928  32.664  29.458  1.00  0.00     0.210 HD
ENDBRANCH  21  24
ENDBRANCH  18  19
ENDBRANCH  17  18
ENDBRANCH   9  11
ENDBRANCH   7   9
ENDBRANCH   6   7
ENDBRANCH   5   6
ENDBRANCH   4   5
ENDBRANCH   3   4
ENDBRANCH   2   3
ENDBRANCH   1   2
BRANCH   1  26
ATOM     26  O   UNL A   1      34.707  20.463  25.148  1.00  0.00    -0.377 OA
BRANCH  26  27
ATOM     27  C   UNL A   1      36.103  20.735  25.041  1.00  0.00     0.188 C 
BRANCH  27  28
ATOM     28  C   UNL A   1      36.644  22.184  25.013  1.00  0.00     0.188 C 
BRANCH  28  29
ATOM     29  O   UNL A   1      37.501  22.529  26.095  1.00  0.00    -0.376 OA
BRANCH  29  30
ATOM     30  C   UNL A   1      37.707  23.907  26.370  1.00  0.00     0.202 C 
BRANCH  30  31
ATOM     31  C   UNL A   1      39.162  24.403  26.336  1.00  0.00     0.261 C 
BRANCH  31  32
ATOM     32  O   UNL A   1      39.457  25.547  27.152  1.00  0.00    -0.460 OA
BRANCH  32  33
ATOM     33  C   UNL A   1      40.754  25.898  27.292  1.00  0.00     0.338 C 
ATOM     34  O   UNL A   1      41.707  25.420  26.702  1.00  0.00    -0.246 OA
BRANCH  33  35
ATOM     35  C   UNL A   1      40.803  27.110  28.135  1.00  0.00     0.060 A 
ATOM     36  C   UNL A   1      40.188  28.282  27.674  1.00  0.00     0.016 A 
ATOM     37  C   UNL A   1      41.446  27.087  29.374  1.00  0.00     0.016 A 
ATOM     38  C   UNL A   1      40.247  29.447  28.439  1.00  0.00     0.010 A 
ATOM     39  C   UNL A   1      41.524  28.261  30.128  1.00  0.00     0.010 A 
ATOM     40  C   UNL A   1      40.957  29.455  29.647  1.00  0.00    -0.014 A 
BRANCH  40  41
ATOM     41  C   UNL A   1      41.299  30.749  30.289  1.00  0.00     0.031 A 
ATOM     42  C   UNL A   1      42.557  31.445  29.849  1.00  0.00     0.074 A 
ATOM     43  C   UNL A   1      40.503  31.308  31.219  1.00  0.00     0.049 A 
ATOM     44  N   UNL A   1      43.104  32.544  30.298  1.00  0.00    -0.248 NA
ATOM     45  C   UNL A   1      43.302  30.805  28.753  1.00  0.00     0.031 C 
ATOM     46  C   UNL A   1      39.232  30.757  31.685  1.00  0.00     0.029 A 
ATOM     47  N   UNL A   1      40.656  32.464  31.943  1.00  0.00    -0.354 N 
ATOM     48  C   UNL A   1      44.260  32.726  29.544  1.00  0.00     0.074 A 
ATOM     49  C   UNL A   1      44.354  31.599  28.641  1.00  0.00     0.031 C 
ATOM     50  C   UNL A   1      38.725  31.573  32.627  1.00  0.00     0.029 A 
ATOM     51  C   UNL A   1      39.656  32.676  32.863  1.00  0.00     0.049 A 
ATOM     52  H   UNL A   1      41.411  33.083  31.816  1.00  0.00     0.167 HD
ATOM     53  C   UNL A   1      45.153  33.743  29.595  1.00  0.00     0.034 A 
ATOM     54  C   UNL A   1      39.525  33.634  33.804  1.00  0.00     0.034 A 
ATOM     55  C   UNL A   1      45.053  34.849  30.515  1.00  0.00     0.049 A 
ATOM     56  C   UNL A   1      40.589  34.703  33.917  1.00  0.00     0.074 A 
ATOM     57  C   UNL A   1      45.899  35.935  30.651  1.00  0.00     0.029 A 
ATOM     58  N   UNL A   1      44.054  35.003  31.469  1.00  0.00    -0.354 N 
ATOM     59  N   UNL A   1      41.678  34.866  33.199  1.00  0.00    -0.248 NA
ATOM     60  C   UNL A   1      40.402  35.718  34.961  1.00  0.00     0.031 C 
ATOM     61  C   UNL A   1      45.461  36.698  31.738  1.00  0.00     0.029 A 
ATOM     62  C   UNL A   1      44.286  36.144  32.222  1.00  0.00     0.049 A 
ATOM     63  H   UNL A   1      43.293  34.390  31.592  1.00  0.00     0.167 HD
ATOM     64  C   UNL A   1      42.284  36.024  33.685  1.00  0.00     0.074 A 
ATOM     65  C   UNL A   1      41.434  36.521  34.747  1.00  0.00     0.031 C 
ATOM     66  C   UNL A   1      43.435  36.625  33.286  1.00  0.00     0.034 A 
BRANCH  53  67
ATOM     67  C   UNL A   1      46.344  33.665  28.669  1.00  0.00     0.023 A 
ATOM     68  C   UNL A   1      47.555  33.068  29.066  1.00  0.00     0.031 A 
ATOM     69  C   UNL A   1      46.282  34.232  27.384  1.00  0.00     0.131 A 
ATOM     70  C   UNL A   1      48.672  33.123  28.220  1.00  0.00     0.055 A 
ATOM     71  C   UNL A   1      47.371  34.203  26.511  1.00  0.00     0.041 A 
ATOM     72  F   UNL A   1      45.163  34.839  26.958  1.00  0.00    -0.206 F 
ATOM     73  C   UNL A   1      48.582  33.661  26.934  1.00  0.00     0.022 A 
BRANCH  70  74
ATOM     74  S   UNL A   1      50.286  32.629  28.884  1.00  0.00     0.124 S 
ATOM     75  O   UNL A   1      50.614  31.482  28.040  1.00  0.00    -0.237 OA
ATOM     76  O   UNL A   1      51.093  33.825  28.675  1.00  0.00    -0.237 OA
ATOM     77  O   UNL A   1      49.998  32.303  30.280  1.00  0.00    -0.744 OA
ENDBRANCH  70  74
ENDBRANCH  53  67
BRANCH  54  78
ATOM     78  C   UNL A   1      38.372  33.610  34.754  1.00  0.00     0.023 A 
ATOM     79  C   UNL A   1      38.457  32.945  35.987  1.00  0.00     0.031 A 
ATOM     80  C   UNL A   1      37.144  34.202  34.409  1.00  0.00     0.131 A 
ATOM     81  C   UNL A   1      37.322  32.849  36.810  1.00  0.00     0.055 A 
ATOM     82  C   UNL A   1      36.036  34.156  35.257  1.00  0.00     0.041 A 
ATOM     83  F   UNL A   1      37.003  34.844  33.237  1.00  0.00    -0.206 F 
ATOM     84  C   UNL A   1      36.118  33.463  36.461  1.00  0.00     0.022 A 
BRANCH  81  85
ATOM     85  S   UNL A   1      37.416  31.827  38.305  1.00  0.00     0.124 S 
ATOM     86  O   UNL A   1      36.213  32.237  39.021  1.00  0.00    -0.237 OA
ATOM     87  O   UNL A   1      37.403  30.477  37.751  1.00  0.00    -0.237 OA
ATOM     88  O   UNL A   1      38.678  32.235  38.919  1.00  0.00    -0.744 OA
ENDBRANCH  81  85
ENDBRANCH  54  78
BRANCH  66  89
ATOM     89  C   UNL A   1      43.812  37.922  33.965  1.00  0.00     0.023 A 
ATOM     90  C   UNL A   1      43.228  39.149  33.608  1.00  0.00     0.031 A 
ATOM     91  C   UNL A   1      44.776  37.926  34.992  1.00  0.00     0.131 A 
ATOM     92  C   UNL A   1      43.653  40.335  34.229  1.00  0.00     0.055 A 
ATOM     93  C   UNL A   1      45.144  39.098  35.654  1.00  0.00     0.041 A 
ATOM     94  F   UNL A   1      45.372  36.785  35.375  1.00  0.00    -0.206 F 
ATOM     95  C   UNL A   1      44.592  40.314  35.263  1.00  0.00     0.022 A 
BRANCH  92  96
ATOM     96  S   UNL A   1      43.037  41.920  33.598  1.00  0.00     0.124 S 
ATOM     97  O   UNL A   1      44.223  42.471  32.952  1.00  0.00    -0.237 OA
ATOM     98  O   UNL A   1      41.960  41.504  32.705  1.00  0.00    -0.237 OA
ATOM     99  O   UNL A   1      42.603  42.624  34.803  1.00  0.00    -0.744 OA
ENDBRANCH  92  96
ENDBRANCH  66  89
ENDBRANCH  40  41
ENDBRANCH  33  35
ENDBRANCH  32  33
ENDBRANCH  31  32
ENDBRANCH  30  31
ENDBRANCH  29  30
ENDBRANCH  28  29
ENDBRANCH  27  28
ENDBRANCH  26  27
ENDBRANCH   1  26
TORSDOF 27
ENDMDL
MODEL 2
REMARK VINA RESULT:      -7.7      4.582      7.030
REMARK SMILES C[C@@H](C(=O)OCCOCCOCCOCCOC(=O)c1ccc(-c2c3nc(c(-c4cc(S(=O)(=O)[O-])ccc4F)c4ccc([nH]4)c(-c4cc(S(=O)(=O)[O-])ccc4F)c4nc(c(-c5cc(S(=O)(=O)[O-])ccc5F)c5ccc2[nH]5)C=C4)C=C3)cc1)c1ccc(C[C@@H]2CCC[C@@H]2O)cc1F
REMARK SMILES IDX 10 1 9 2 8 3 7 4 6 5 5 6 3 7 4 8 2 9 1 10 83 11 84 12 95 13
REMARK SMILES IDX 85 14 94 15 96 16 86 17 87 18 88 19 89 20 92 21 90 22 91 23
REMARK SMILES IDX 93 24 11 26 12 27 13 28 14 29 15 30 16 31 17 32 18 33 19 34
REMARK SMILES IDX 20 35 21 36 82 37 22 38 81 39 23 40 24 41 25 42 75 43 26 44
REMARK SMILES IDX 80 45 74 46 76 47 27 48 79 49 73 50 72 51 28 53 60 54 40 55
REMARK SMILES IDX 59 56 41 57 44 58 58 59 77 60 42 61 43 62 57 64 78 65 45 66
REMARK SMILES IDX 29 67 30 68 38 69 31 70 37 71 39 72 36 73 32 74 33 75 34 76
REMARK SMILES IDX 35 77 61 78 62 79 70 80 63 81 69 82 71 83 68 84 64 85 65 86
REMARK SMILES IDX 66 87 67 88 46 89 47 90 55 91 48 92 54 93 56 94 53 95 49 96
REMARK SMILES IDX 50 97 51 98 52 99
REMARK H PARENT 93 25 76 52 44 63
REMARK Flexibility Score: inf
ROOT
ATOM      1  C   UNL A   1      33.402  22.715  26.174  1.00  0.00     0.188 C 
ENDROOT
BRANCH   1   2
ATOM      2  C   UNL A   1      32.124  23.067  26.948  1.00  0.00     0.188 C 
BRANCH   2   3
ATOM      3  O   UNL A   1      31.170  23.843  26.254  1.00  0.00    -0.376 OA
BRANCH   3   4
ATOM      4  C   UNL A   1      31.416  24.292  24.929  1.00  0.00     0.202 C 
BRANCH   4   5
ATOM      5  C   UNL A   1      30.421  25.064  24.033  1.00  0.00     0.261 C 
BRANCH   5   6
ATOM      6  O   UNL A   1      30.857  25.351  22.702  1.00  0.00    -0.463 OA
BRANCH   6   7
ATOM      7  C   UNL A   1      31.237  26.612  22.387  1.00  0.00     0.313 C 
ATOM      8  O   UNL A   1      30.482  27.488  21.983  1.00  0.00    -0.252 OA
BRANCH   7   9
ATOM      9  C   UNL A   1      32.733  26.832  22.630  1.00  0.00     0.129 C 
ATOM     10  C   UNL A   1      33.570  25.570  22.318  1.00  0.00     0.025 C 
BRANCH   9  11
ATOM     11  C   UNL A   1      33.108  27.494  23.960  1.00  0.00     0.002 A 
ATOM     12  C   UNL A   1      33.740  26.736  24.961  1.00  0.00     0.008 A 
ATOM     13  C   UNL A   1      32.929  28.855  24.232  1.00  0.00     0.127 A 
ATOM     14  C   UNL A   1      34.141  27.311  26.176  1.00  0.00     0.004 A 
ATOM     15  C   UNL A   1      33.278  29.424  25.462  1.00  0.00     0.043 A 
ATOM     16  F   UNL A   1      32.407  29.679  23.315  1.00  0.00    -0.207 F 
ATOM     17  C   UNL A   1      33.893  28.658  26.456  1.00  0.00    -0.045 A 
BRANCH  17  18
ATOM     18  C   UNL A   1      34.365  29.311  27.735  1.00  0.00     0.041 C 
BRANCH  18  19
ATOM     19  C   UNL A   1      35.551  30.301  27.714  1.00  0.00     0.022 C 
ATOM     20  C   UNL A   1      36.942  29.664  27.685  1.00  0.00     0.007 C 
ATOM     21  C   UNL A   1      35.651  31.286  28.880  1.00  0.00     0.117 C 
ATOM     22  C   UNL A   1      37.482  29.728  29.117  1.00  0.00     0.003 C 
ATOM     23  C   UNL A   1      36.490  30.562  29.924  1.00  0.00     0.032 C 
BRANCH  21  24
ATOM     24  O   UNL A   1      34.389  31.714  29.346  1.00  0.00    -0.393 OA
ATOM     25  H   UNL A   1      34.384  32.681  29.427  1.00  0.00     0.210 HD
ENDBRANCH  21  24
ENDBRANCH  18  19
ENDBRANCH  17  18
ENDBRANCH   9  11
ENDBRANCH   7   9
ENDBRANCH   6   7
ENDBRANCH   5   6
ENDBRANCH   4   5
ENDBRANCH   3   4
ENDBRANCH   2   3
ENDBRANCH   1   2
BRANCH   1  26
ATOM     26  O   UNL A   1      33.842  21.382  26.351  1.00  0.00    -0.377 OA
BRANCH  26  27
ATOM     27  C   UNL A   1      35.127  21.029  25.844  1.00  0.00     0.188 C 
BRANCH  27  28
ATOM     28  C   UNL A   1      36.269  22.067  25.743  1.00  0.00     0.188 C 
BRANCH  28  29
ATOM     29  O   UNL A   1      37.551  21.527  25.445  1.00  0.00    -0.376 OA
BRANCH  29  30
ATOM     30  C   UNL A   1      38.696  22.249  25.873  1.00  0.00     0.202 C 
BRANCH  30  31
ATOM     31  C   UNL A   1      39.840  21.424  26.484  1.00  0.00     0.261 C 
BRANCH  31  32
ATOM     32  O   UNL A   1      41.042  22.145  26.795  1.00  0.00    -0.460 OA
BRANCH  32  33
ATOM     33  C   UNL A   1      42.172  21.786  26.148  1.00  0.00     0.338 C 
ATOM     34  O   UNL A   1      42.332  20.799  25.452  1.00  0.00    -0.246 OA
BRANCH  33  35
ATOM     35  C   UNL A   1      43.128  22.906  26.258  1.00  0.00     0.060 A 
ATOM     36  C   UNL A   1      44.038  22.920  27.323  1.00  0.00     0.016 A 
ATOM     37  C   UNL A   1      43.131  23.932  25.310  1.00  0.00     0.016 A 
ATOM     38  C   UNL A   1      44.931  23.982  27.464  1.00  0.00     0.010 A 
ATOM     39  C   UNL A   1      44.011  25.007  25.466  1.00  0.00     0.010 A 
ATOM     40  C   UNL A   1      44.889  25.054  26.564  1.00  0.00    -0.014 A 
BRANCH  40  41
ATOM     41  C   UNL A   1      45.594  26.318  26.893  1.00  0.00     0.031 A 
ATOM     42  C   UNL A   1      46.967  26.533  26.314  1.00  0.00     0.074 A 
ATOM     43  C   UNL A   1      45.026  27.264  27.662  1.00  0.00     0.049 A 
ATOM     44  N   UNL A   1      47.807  27.516  26.502  1.00  0.00    -0.248 NA
ATOM     45  C   UNL A   1      47.455  25.487  25.401  1.00  0.00     0.031 C 
ATOM     46  C   UNL A   1      43.682  27.194  28.232  1.00  0.00     0.029 A 
ATOM     47  N   UNL A   1      45.518  28.469  28.102  1.00  0.00    -0.354 N 
ATOM     48  C   UNL A   1      48.927  27.206  25.736  1.00  0.00     0.074 A 
ATOM     49  C   UNL A   1      48.672  25.923  25.118  1.00  0.00     0.031 C 
ATOM     50  C   UNL A   1      43.460  28.306  28.957  1.00  0.00     0.029 A 
ATOM     51  C   UNL A   1      44.660  29.142  28.939  1.00  0.00     0.049 A 
ATOM     52  H   UNL A   1      46.401  28.817  27.841  1.00  0.00     0.167 HD
ATOM     53  C   UNL A   1      50.058  27.931  25.558  1.00  0.00     0.034 A 
ATOM     54  C   UNL A   1      44.838  30.287  29.633  1.00  0.00     0.034 A 
ATOM     55  C   UNL A   1      50.303  29.200  26.197  1.00  0.00     0.049 A 
ATOM     56  C   UNL A   1      46.150  31.027  29.505  1.00  0.00     0.074 A 
ATOM     57  C   UNL A   1      51.412  30.020  26.086  1.00  0.00     0.029 A 
ATOM     58  N   UNL A   1      49.433  29.827  27.082  1.00  0.00    -0.354 N 
ATOM     59  N   UNL A   1      47.203  30.726  28.777  1.00  0.00    -0.248 NA
ATOM     60  C   UNL A   1      46.294  32.262  30.285  1.00  0.00     0.031 C 
ATOM     61  C   UNL A   1      51.249  31.097  26.964  1.00  0.00     0.029 A 
ATOM     62  C   UNL A   1      49.998  31.002  27.553  1.00  0.00     0.049 A 
ATOM     63  H   UNL A   1      48.546  29.485  27.337  1.00  0.00     0.167 HD
ATOM     64  C   UNL A   1      48.118  31.756  28.988  1.00  0.00     0.074 A 
ATOM     65  C   UNL A   1      47.488  32.689  29.899  1.00  0.00     0.031 C 
ATOM     66  C   UNL A   1      49.364  31.921  28.471  1.00  0.00     0.034 A 
BRANCH  53  67
ATOM     67  C   UNL A   1      51.134  27.329  24.684  1.00  0.00     0.023 A 
ATOM     68  C   UNL A   1      51.244  27.647  23.319  1.00  0.00     0.031 A 
ATOM     69  C   UNL A   1      52.036  26.391  25.216  1.00  0.00     0.131 A 
ATOM     70  C   UNL A   1      52.181  26.976  22.518  1.00  0.00     0.055 A 
ATOM     71  C   UNL A   1      53.025  25.793  24.433  1.00  0.00     0.041 A 
ATOM     72  F   UNL A   1      51.962  26.027  26.505  1.00  0.00    -0.206 F 
ATOM     73  C   UNL A   1      53.091  26.072  23.070  1.00  0.00     0.022 A 
BRANCH  70  74
ATOM     74  S   UNL A   1      52.086  27.180  20.718  1.00  0.00     0.124 S 
ATOM     75  O   UNL A   1      53.280  27.977  20.448  1.00  0.00    -0.237 OA
ATOM     76  O   UNL A   1      52.117  25.802  20.242  1.00  0.00    -0.237 OA
ATOM     77  O   UNL A   1      50.819  27.883  20.519  1.00  0.00    -0.744 OA
ENDBRANCH  70  74
ENDBRANCH  53  67
BRANCH  54  78
ATOM     78  C   UNL A   1      43.772  30.787  30.553  1.00  0.00     0.023 A 
ATOM     79  C   UNL A   1      43.576  30.215  31.820  1.00  0.00     0.031 A 
ATOM     80  C   UNL A   1      42.893  31.807  30.148  1.00  0.00     0.131 A 
ATOM     81  C   UNL A   1      42.498  30.636  32.618  1.00  0.00     0.055 A 
ATOM     82  C   UNL A   1      41.860  32.263  30.969  1.00  0.00     0.041 A 
ATOM     83  F   UNL A   1      43.029  32.383  28.942  1.00  0.00    -0.206 F 
ATOM     84  C   UNL A   1      41.650  31.666  32.208  1.00  0.00     0.022 A 
BRANCH  81  85
ATOM     85  S   UNL A   1      42.164  29.750  34.165  1.00  0.00     0.124 S 
ATOM     86  O   UNL A   1      40.820  30.216  34.489  1.00  0.00    -0.237 OA
ATOM     87  O   UNL A   1      42.276  28.356  33.747  1.00  0.00    -0.237 OA
ATOM     88  O   UNL A   1      43.220  30.217  35.060  1.00  0.00    -0.744 OA
ENDBRANCH  81  85
ENDBRANCH  54  78
BRANCH  66  89
ATOM     89  C   UNL A   1      50.105  33.186  28.835  1.00  0.00     0.023 A 
ATOM     90  C   UNL A   1      49.989  34.364  28.077  1.00  0.00     0.031 A 
ATOM     91  C   UNL A   1      50.943  33.211  29.966  1.00  0.00     0.131 A 
ATOM     92  C   UNL A   1      50.743  35.497  28.424  1.00  0.00     0.055 A 
ATOM     93  C   UNL A   1      51.636  34.362  30.346  1.00  0.00     0.041 A 
ATOM     94  F   UNL A   1      51.097  32.115  30.728  1.00  0.00    -0.206 F 
ATOM     95  C   UNL A   1      51.550  35.509  29.565  1.00  0.00     0.022 A 
BRANCH  92  96
ATOM     96  S   UNL A   1      50.735  36.925  27.305  1.00  0.00     0.124 S 
ATOM     97  O   UNL A   1      49.620  36.610  26.419  1.00  0.00    -0.237 OA
ATOM     98  O   UNL A   1      50.524  38.040  28.223  1.00  0.00    -0.237 OA
ATOM     99  O   UNL A   1      52.056  36.880  26.681  1.00  0.00    -0.744 OA
ENDBRANCH  92  96
ENDBRANCH  66  89
ENDBRANCH  40  41
ENDBRANCH  33  35
ENDBRANCH  32  33
ENDBRANCH  31  32
ENDBRANCH  30  31
ENDBRANCH  29  30
ENDBRANCH  28  29
ENDBRANCH  27  28
ENDBRANCH  26  27
ENDBRANCH   1  26
TORSDOF 27
ENDMDL
MODEL 3
REMARK VINA RESULT:      -7.7      8.448     10.843
REMARK SMILES C[C@@H](C(=O)OCCOCCOCCOCCOC(=O)c1ccc(-c2c3nc(c(-c4cc(S(=O)(=O)[O-])ccc4F)c4ccc([nH]4)c(-c4cc(S(=O)(=O)[O-])ccc4F)c4nc(c(-c5cc(S(=O)(=O)[O-])ccc5F)c5ccc2[nH]5)C=C4)C=C3)cc1)c1ccc(C[C@@H]2CCC[C@@H]2O)cc1F
REMARK SMILES IDX 10 1 9 2 8 3 7 4 6 5 5 6 3 7 4 8 2 9 1 10 83 11 84 12 95 13
REMARK SMILES IDX 85 14 94 15 96 16 86 17 87 18 88 19 89 20 92 21 90 22 91 23
REMARK SMILES IDX 93 24 11 26 12 27 13 28 14 29 15 30 16 31 17 32 18 33 19 34
REMARK SMILES IDX 20 35 21 36 82 37 22 38 81 39 23 40 24 41 25 42 75 43 26 44
REMARK SMILES IDX 80 45 74 46 76 47 27 48 79 49 73 50 72 51 28 53 60 54 40 55
REMARK SMILES IDX 59 56 41 57 44 58 58 59 77 60 42 61 43 62 57 64 78 65 45 66
REMARK SMILES IDX 29 67 30 68 38 69 31 70 37 71 39 72 36 73 32 74 33 75 34 76
REMARK SMILES IDX 35 77 61 78 62 79 70 80 63 81 69 82 71 83 68 84 64 85 65 86
REMARK SMILES IDX 66 87 67 88 46 89 47 90 55 91 48 92 54 93 56 94 53 95 49 96
REMARK SMILES IDX 50 97 51 98 52 99
REMARK H PARENT 93 25 76 52 44 63
REMARK Flexibility Score: inf
ROOT
ATOM      1  C   UNL A   1      33.276  23.246  26.470  1.00  0.00     0.188 C 
ENDROOT
BRANCH   1   2
ATOM      2  C   UNL A   1      32.276  23.585  27.584  1.00  0.00     0.188 C 
BRANCH   2   3
ATOM      3  O   UNL A   1      30.921  23.684  27.197  1.00  0.00    -0.376 OA
BRANCH   3   4
ATOM      4  C   UNL A   1      30.485  24.711  26.317  1.00  0.00     0.202 C 
BRANCH   4   5
ATOM      5  C   UNL A   1      31.092  26.128  26.206  1.00  0.00     0.261 C 
BRANCH   5   6
ATOM      6  O   UNL A   1      30.964  26.774  24.937  1.00  0.00    -0.463 OA
BRANCH   6   7
ATOM      7  C   UNL A   1      32.079  27.158  24.273  1.00  0.00     0.313 C 
ATOM      8  O   UNL A   1      32.908  27.953  24.701  1.00  0.00    -0.252 OA
BRANCH   7   9
ATOM      9  C   UNL A   1      32.208  26.449  22.921  1.00  0.00     0.129 C 
ATOM     10  C   UNL A   1      31.057  26.814  21.956  1.00  0.00     0.025 C 
BRANCH   9  11
ATOM     11  C   UNL A   1      32.502  24.946  22.975  1.00  0.00     0.002 A 
ATOM     12  C   UNL A   1      33.834  24.497  22.975  1.00  0.00     0.008 A 
ATOM     13  C   UNL A   1      31.515  23.962  23.099  1.00  0.00     0.127 A 
ATOM     14  C   UNL A   1      34.151  23.134  23.067  1.00  0.00     0.004 A 
ATOM     15  C   UNL A   1      31.821  22.597  23.138  1.00  0.00     0.043 A 
ATOM     16  F   UNL A   1      30.220  24.290  23.185  1.00  0.00    -0.207 F 
ATOM     17  C   UNL A   1      33.149  22.160  23.124  1.00  0.00    -0.045 A 
BRANCH  17  18
ATOM     18  C   UNL A   1      33.466  20.690  23.278  1.00  0.00     0.041 C 
BRANCH  18  19
ATOM     19  C   UNL A   1      32.416  19.724  23.869  1.00  0.00     0.022 C 
ATOM     20  C   UNL A   1      32.747  19.152  25.248  1.00  0.00     0.007 C 
ATOM     21  C   UNL A   1      32.088  18.473  23.050  1.00  0.00     0.117 C 
ATOM     22  C   UNL A   1      33.279  17.734  25.017  1.00  0.00     0.003 C 
ATOM     23  C   UNL A   1      33.081  17.426  23.536  1.00  0.00     0.032 C 
BRANCH  21  24
ATOM     24  O   UNL A   1      32.125  18.705  21.658  1.00  0.00    -0.393 OA
ATOM     25  H   UNL A   1      32.279  17.866  21.194  1.00  0.00     0.210 HD
ENDBRANCH  21  24
ENDBRANCH  18  19
ENDBRANCH  17  18
ENDBRANCH   9  11
ENDBRANCH   7   9
ENDBRANCH   6   7
ENDBRANCH   5   6
ENDBRANCH   4   5
ENDBRANCH   3   4
ENDBRANCH   2   3
ENDBRANCH   1   2
BRANCH   1  26
ATOM     26  O   UNL A   1      33.927  22.000  26.631  1.00  0.00    -0.377 OA
BRANCH  26  27
ATOM     27  C   UNL A   1      35.353  21.989  26.657  1.00  0.00     0.188 C 
BRANCH  27  28
ATOM     28  C   UNL A   1      36.182  23.127  26.017  1.00  0.00     0.188 C 
BRANCH  28  29
ATOM     29  O   UNL A   1      37.593  22.966  26.101  1.00  0.00    -0.376 OA
BRANCH  29  30
ATOM     30  C   UNL A   1      38.365  24.069  26.552  1.00  0.00     0.202 C 
BRANCH  30  31
ATOM     31  C   UNL A   1      39.819  23.772  26.954  1.00  0.00     0.261 C 
BRANCH  31  32
ATOM     32  O   UNL A   1      40.620  24.909  27.309  1.00  0.00    -0.460 OA
BRANCH  32  33
ATOM     33  C   UNL A   1      41.313  25.518  26.322  1.00  0.00     0.338 C 
ATOM     34  O   UNL A   1      40.861  25.967  25.283  1.00  0.00    -0.246 OA
BRANCH  33  35
ATOM     35  C   UNL A   1      42.690  25.737  26.809  1.00  0.00     0.060 A 
ATOM     36  C   UNL A   1      43.610  24.682  26.738  1.00  0.00     0.016 A 
ATOM     37  C   UNL A   1      43.073  26.978  27.322  1.00  0.00     0.016 A 
ATOM     38  C   UNL A   1      44.908  24.855  27.218  1.00  0.00     0.010 A 
ATOM     39  C   UNL A   1      44.367  27.142  27.824  1.00  0.00     0.010 A 
ATOM     40  C   UNL A   1      45.279  26.071  27.807  1.00  0.00    -0.014 A 
BRANCH  40  41
ATOM     41  C   UNL A   1      46.529  26.150  28.603  1.00  0.00     0.031 A 
ATOM     42  C   UNL A   1      47.802  26.509  27.886  1.00  0.00     0.074 A 
ATOM     43  C   UNL A   1      46.534  25.938  29.932  1.00  0.00     0.049 A 
ATOM     44  N   UNL A   1      49.025  26.579  28.341  1.00  0.00    -0.248 NA
ATOM     45  C   UNL A   1      47.672  26.825  26.454  1.00  0.00     0.031 C 
ATOM     46  C   UNL A   1      45.357  25.640  30.745  1.00  0.00     0.029 A 
ATOM     47  N   UNL A   1      47.574  25.933  30.828  1.00  0.00    -0.354 N 
ATOM     48  C   UNL A   1      49.812  26.942  27.253  1.00  0.00     0.074 A 
ATOM     49  C   UNL A   1      48.931  27.033  26.109  1.00  0.00     0.031 C 
ATOM     50  C   UNL A   1      45.744  25.471  32.022  1.00  0.00     0.029 A 
ATOM     51  C   UNL A   1      47.197  25.603  32.109  1.00  0.00     0.049 A 
ATOM     52  H   UNL A   1      48.502  26.147  30.578  1.00  0.00     0.167 HD
ATOM     53  C   UNL A   1      51.144  27.187  27.215  1.00  0.00     0.034 A 
ATOM     54  C   UNL A   1      47.946  25.402  33.214  1.00  0.00     0.034 A 
ATOM     55  C   UNL A   1      52.011  27.072  28.362  1.00  0.00     0.049 A 
ATOM     56  C   UNL A   1      49.446  25.575  33.127  1.00  0.00     0.074 A 
ATOM     57  C   UNL A   1      53.374  27.299  28.438  1.00  0.00     0.029 A 
ATOM     58  N   UNL A   1      51.602  26.684  29.632  1.00  0.00    -0.354 N 
ATOM     59  N   UNL A   1      50.181  25.920  32.093  1.00  0.00    -0.248 NA
ATOM     60  C   UNL A   1      50.214  25.339  34.356  1.00  0.00     0.031 C 
ATOM     61  C   UNL A   1      53.801  26.967  29.727  1.00  0.00     0.029 A 
ATOM     62  C   UNL A   1      52.693  26.626  30.487  1.00  0.00     0.049 A 
ATOM     63  H   UNL A   1      50.674  26.478  29.887  1.00  0.00     0.167 HD
ATOM     64  C   UNL A   1      51.493  25.975  32.560  1.00  0.00     0.074 A 
ATOM     65  C   UNL A   1      51.445  25.640  33.968  1.00  0.00     0.031 C 
ATOM     66  C   UNL A   1      52.634  26.281  31.889  1.00  0.00     0.034 A 
BRANCH  53  67
ATOM     67  C   UNL A   1      51.745  27.538  25.874  1.00  0.00     0.023 A 
ATOM     68  C   UNL A   1      51.933  28.873  25.473  1.00  0.00     0.031 A 
ATOM     69  C   UNL A   1      52.095  26.524  24.966  1.00  0.00     0.131 A 
ATOM     70  C   UNL A   1      52.382  29.157  24.174  1.00  0.00     0.055 A 
ATOM     71  C   UNL A   1      52.626  26.811  23.708  1.00  0.00     0.041 A 
ATOM     72  F   UNL A   1      51.913  25.232  25.281  1.00  0.00    -0.206 F 
ATOM     73  C   UNL A   1      52.756  28.135  23.298  1.00  0.00     0.022 A 
BRANCH  70  74
ATOM     74  S   UNL A   1      52.314  30.873  23.589  1.00  0.00     0.124 S 
ATOM     75  O   UNL A   1      51.540  31.515  24.649  1.00  0.00    -0.237 OA
ATOM     76  O   UNL A   1      53.724  31.237  23.518  1.00  0.00    -0.237 OA
ATOM     77  O   UNL A   1      51.629  30.770  22.302  1.00  0.00    -0.744 OA
ENDBRANCH  70  74
ENDBRANCH  53  67
BRANCH  54  78
ATOM     78  C   UNL A   1      47.307  24.967  34.492  1.00  0.00     0.023 A 
ATOM     79  C   UNL A   1      47.263  23.613  34.861  1.00  0.00     0.031 A 
ATOM     80  C   UNL A   1      46.674  25.898  35.335  1.00  0.00     0.131 A 
ATOM     81  C   UNL A   1      46.562  23.224  36.015  1.00  0.00     0.055 A 
ATOM     82  C   UNL A   1      46.029  25.514  36.511  1.00  0.00     0.041 A 
ATOM     83  F   UNL A   1      46.677  27.205  35.026  1.00  0.00    -0.206 F 
ATOM     84  C   UNL A   1      45.959  24.166  36.850  1.00  0.00     0.022 A 
BRANCH  81  85
ATOM     85  S   UNL A   1      46.368  21.454  36.360  1.00  0.00     0.124 S 
ATOM     86  O   UNL A   1      46.341  21.437  37.819  1.00  0.00    -0.237 OA
ATOM     87  O   UNL A   1      45.107  21.151  35.692  1.00  0.00    -0.237 OA
ATOM     88  O   UNL A   1      47.554  20.856  35.750  1.00  0.00    -0.744 OA
ENDBRANCH  81  85
ENDBRANCH  54  78
BRANCH  66  89
ATOM     89  C   UNL A   1      53.918  26.322  32.685  1.00  0.00     0.023 A 
ATOM     90  C   UNL A   1      54.681  25.168  32.933  1.00  0.00     0.031 A 
ATOM     91  C   UNL A   1      54.387  27.544  33.204  1.00  0.00     0.131 A 
ATOM     92  C   UNL A   1      55.836  25.249  33.727  1.00  0.00     0.055 A 
ATOM     93  C   UNL A   1      55.573  27.630  33.933  1.00  0.00     0.041 A 
ATOM     94  F   UNL A   1      53.699  28.681  33.003  1.00  0.00    -0.206 F 
ATOM     95  C   UNL A   1      56.298  26.476  34.211  1.00  0.00     0.022 A 
BRANCH  92  96
ATOM     96  S   UNL A   1      56.675  23.713  34.205  1.00  0.00     0.124 S 
ATOM     97  O   UNL A   1      57.786  24.212  35.009  1.00  0.00    -0.237 OA
ATOM     98  O   UNL A   1      55.631  23.000  34.934  1.00  0.00    -0.237 OA
ATOM     99  O   UNL A   1      57.054  23.116  32.926  1.00  0.00    -0.744 OA
ENDBRANCH  92  96
ENDBRANCH  66  89
ENDBRANCH  40  41
ENDBRANCH  33  35
ENDBRANCH  32  33
ENDBRANCH  31  32
ENDBRANCH  30  31
ENDBRANCH  29  30
ENDBRANCH  28  29
ENDBRANCH  27  28
ENDBRANCH  26  27
ENDBRANCH   1  26
TORSDOF 27
ENDMDL
