MODEL 1
REMARK VINA RESULT:      -7.6      0.000      0.000
REMARK SMILES O=C(Cn1nc(C(=O)OCCOCCOCCOCCOC(=O)c2ccc(-c3c4nc(c(-c5cc(S(=O)(=O)[O-])ccc5F)c5ccc([nH]5)c(-c5cc(S(=O)(=O)[O-])ccc5F)c5nc(c(-c6cc(S(=O)(=O)[O-])ccc6F)c6ccc3[nH]6)C=C5)C=C4)cc2)c2ccccc2c1=O)Nc1ccc2c(c1)C(=O)c1ccccc1C2=O
REMARK SMILES IDX 15 1 14 2 13 3 12 4 11 5 10 6 9 7 7 8 8 9 6 10 4 11 5 12
REMARK SMILES IDX 93 13 92 14 94 15 87 16 91 17 88 18 90 19 89 20 3 21 2 22
REMARK SMILES IDX 1 23 95 24 96 26 97 27 101 28 98 29 100 30 99 31 102 32
REMARK SMILES IDX 110 33 103 34 104 35 109 36 111 37 105 38 108 39 106 40
REMARK SMILES IDX 107 41 16 42 17 43 18 44 19 45 20 46 21 47 22 48 23 49 24 50
REMARK SMILES IDX 25 51 86 52 26 53 85 54 27 55 28 56 29 57 79 58 30 59 84 60
REMARK SMILES IDX 78 61 80 62 31 63 83 64 77 65 76 66 32 68 64 69 44 70 63 71
REMARK SMILES IDX 45 72 48 73 62 74 81 75 46 76 47 77 61 79 82 80 49 81 33 82
REMARK SMILES IDX 34 83 42 84 35 85 41 86 43 87 40 88 36 89 37 90 38 91 39 92
REMARK SMILES IDX 65 93 66 94 74 95 67 96 73 97 75 98 72 99 68 100 69 101
REMARK SMILES IDX 70 102 71 103 50 104 51 105 59 106 52 107 58 108 60 109
REMARK SMILES IDX 57 110 53 111 54 112 55 113 56 114
REMARK H PARENT 95 25 80 67 48 78
REMARK Flexibility Score: inf
ROOT
ATOM      1  O   UNL A   1      45.462  24.279  29.211  1.00  0.00    -0.377 OA
ENDROOT
BRANCH   1   2
ATOM      2  C   UNL A   1      44.431  24.899  29.947  1.00  0.00     0.188 C 
BRANCH   2   3
ATOM      3  C   UNL A   1      44.427  24.710  31.472  1.00  0.00     0.188 C 
BRANCH   3   4
ATOM      4  O   UNL A   1      44.065  23.408  31.923  1.00  0.00    -0.376 OA
BRANCH   4   5
ATOM      5  C   UNL A   1      44.316  23.136  33.298  1.00  0.00     0.202 C 
BRANCH   5   6
ATOM      6  C   UNL A   1      45.611  23.763  33.819  1.00  0.00     0.261 C 
BRANCH   6   7
ATOM      7  O   UNL A   1      46.450  22.816  34.493  1.00  0.00    -0.458 OA
BRANCH   7   8
ATOM      8  C   UNL A   1      46.026  22.333  35.672  1.00  0.00     0.359 C 
ATOM      9  O   UNL A   1      45.547  21.240  35.911  1.00  0.00    -0.244 OA
BRANCH   8  10
ATOM     10  C   UNL A   1      46.363  23.350  36.753  1.00  0.00     0.176 A 
ATOM     11  N   UNL A   1      45.640  25.049  38.134  1.00  0.00    -0.219 N 
ATOM     12  N   UNL A   1      45.379  24.073  37.203  1.00  0.00    -0.161 NA
ATOM     13  C   UNL A   1      46.877  25.230  38.743  1.00  0.00     0.275 A 
ATOM     14  C   UNL A   1      48.002  24.458  38.181  1.00  0.00     0.051 A 
ATOM     15  O   UNL A   1      47.076  26.003  39.678  1.00  0.00    -0.267 OA
ATOM     16  C   UNL A   1      47.760  23.510  37.192  1.00  0.00     0.022 A 
ATOM     17  C   UNL A   1      49.311  24.706  38.618  1.00  0.00     0.014 A 
ATOM     18  C   UNL A   1      48.833  22.793  36.646  1.00  0.00     0.011 A 
ATOM     19  C   UNL A   1      50.380  24.006  38.056  1.00  0.00     0.001 A 
ATOM     20  C   UNL A   1      50.140  23.050  37.072  1.00  0.00     0.001 A 
BRANCH  11  21
ATOM     21  C   UNL A   1      44.523  25.922  38.500  1.00  0.00     0.248 C 
BRANCH  21  22
ATOM     22  C   UNL A   1      44.302  26.926  37.359  1.00  0.00     0.246 C 
ATOM     23  O   UNL A   1      44.104  28.119  37.575  1.00  0.00    -0.273 OA
ATOM     24  N   UNL A   1      44.216  26.322  36.109  1.00  0.00    -0.324 N 
ATOM     25  H   UNL A   1      44.765  25.518  35.958  1.00  0.00     0.169 HD
BRANCH  24  26
ATOM     26  C   UNL A   1      43.408  26.761  35.036  1.00  0.00     0.042 A 
ATOM     27  C   UNL A   1      42.134  26.178  34.913  1.00  0.00     0.027 A 
ATOM     28  C   UNL A   1      43.729  27.884  34.271  1.00  0.00     0.039 A 
ATOM     29  C   UNL A   1      41.134  26.802  34.163  1.00  0.00     0.015 A 
ATOM     30  C   UNL A   1      42.710  28.542  33.585  1.00  0.00     0.036 A 
ATOM     31  C   UNL A   1      41.410  28.036  33.581  1.00  0.00     0.034 A 
ATOM     32  C   UNL A   1      42.935  29.934  33.155  1.00  0.00     0.194 C 
ATOM     33  C   UNL A   1      40.295  28.951  33.249  1.00  0.00     0.194 C 
ATOM     34  O   UNL A   1      43.986  30.319  32.668  1.00  0.00    -0.289 OA
ATOM     35  C   UNL A   1      41.850  30.866  33.496  1.00  0.00     0.034 A 
ATOM     36  C   UNL A   1      40.542  30.379  33.554  1.00  0.00     0.034 A 
ATOM     37  O   UNL A   1      39.197  28.544  32.899  1.00  0.00    -0.289 OA
ATOM     38  C   UNL A   1      42.155  32.155  33.933  1.00  0.00     0.013 A 
ATOM     39  C   UNL A   1      39.521  31.181  34.063  1.00  0.00     0.013 A 
ATOM     40  C   UNL A   1      41.141  32.941  34.479  1.00  0.00     0.001 A 
ATOM     41  C   UNL A   1      39.831  32.455  34.545  1.00  0.00     0.001 A 
ENDBRANCH  24  26
ENDBRANCH  21  22
ENDBRANCH  11  21
ENDBRANCH   8  10
ENDBRANCH   7   8
ENDBRANCH   6   7
ENDBRANCH   5   6
ENDBRANCH   4   5
ENDBRANCH   3   4
ENDBRANCH   2   3
ENDBRANCH   1   2
BRANCH   1  42
ATOM     42  C   UNL A   1      45.396  24.224  27.795  1.00  0.00     0.188 C 
BRANCH  42  43
ATOM     43  C   UNL A   1      44.326  23.385  27.071  1.00  0.00     0.188 C 
BRANCH  43  44
ATOM     44  O   UNL A   1      44.833  22.326  26.262  1.00  0.00    -0.376 OA
BRANCH  44  45
ATOM     45  C   UNL A   1      43.863  21.621  25.496  1.00  0.00     0.202 C 
BRANCH  45  46
ATOM     46  C   UNL A   1      42.534  21.451  26.237  1.00  0.00     0.261 C 
BRANCH  46  47
ATOM     47  O   UNL A   1      41.447  22.197  25.673  1.00  0.00    -0.460 OA
BRANCH  47  48
ATOM     48  C   UNL A   1      40.388  22.448  26.476  1.00  0.00     0.338 C 
ATOM     49  O   UNL A   1      39.581  21.642  26.903  1.00  0.00    -0.246 OA
BRANCH  48  50
ATOM     50  C   UNL A   1      40.487  23.858  26.902  1.00  0.00     0.060 A 
ATOM     51  C   UNL A   1      40.324  24.203  28.247  1.00  0.00     0.016 A 
ATOM     52  C   UNL A   1      40.700  24.844  25.931  1.00  0.00     0.016 A 
ATOM     53  C   UNL A   1      40.406  25.541  28.628  1.00  0.00     0.010 A 
ATOM     54  C   UNL A   1      40.770  26.184  26.315  1.00  0.00     0.010 A 
ATOM     55  C   UNL A   1      40.648  26.536  27.668  1.00  0.00    -0.014 A 
BRANCH  55  56
ATOM     56  C   UNL A   1      40.994  27.903  28.116  1.00  0.00     0.031 A 
ATOM     57  C   UNL A   1      39.962  28.881  28.574  1.00  0.00     0.074 A 
ATOM     58  C   UNL A   1      42.299  28.237  28.107  1.00  0.00     0.049 A 
ATOM     59  N   UNL A   1      40.139  30.064  29.103  1.00  0.00    -0.248 NA
ATOM     60  C   UNL A   1      38.553  28.494  28.415  1.00  0.00     0.031 C 
ATOM     61  C   UNL A   1      43.375  27.355  27.652  1.00  0.00     0.029 A 
ATOM     62  N   UNL A   1      42.941  29.385  28.486  1.00  0.00    -0.354 N 
ATOM     63  C   UNL A   1      38.870  30.557  29.372  1.00  0.00     0.074 A 
ATOM     64  C   UNL A   1      37.928  29.563  28.897  1.00  0.00     0.031 C 
ATOM     65  C   UNL A   1      44.546  27.990  27.788  1.00  0.00     0.029 A 
ATOM     66  C   UNL A   1      44.305  29.327  28.325  1.00  0.00     0.049 A 
ATOM     67  H   UNL A   1      42.472  30.176  28.839  1.00  0.00     0.167 HD
ATOM     68  C   UNL A   1      38.536  31.722  29.979  1.00  0.00     0.034 A 
ATOM     69  C   UNL A   1      45.259  30.239  28.592  1.00  0.00     0.034 A 
ATOM     70  C   UNL A   1      39.499  32.700  30.426  1.00  0.00     0.049 A 
ATOM     71  C   UNL A   1      44.859  31.535  29.243  1.00  0.00     0.074 A 
ATOM     72  C   UNL A   1      39.261  33.884  31.105  1.00  0.00     0.029 A 
ATOM     73  N   UNL A   1      40.872  32.622  30.234  1.00  0.00    -0.354 N 
ATOM     74  N   UNL A   1      43.663  31.937  29.605  1.00  0.00    -0.248 NA
ATOM     75  C   UNL A   1      45.931  32.491  29.544  1.00  0.00     0.031 C 
ATOM     76  C   UNL A   1      40.480  34.548  31.267  1.00  0.00     0.029 A 
ATOM     77  C   UNL A   1      41.489  33.753  30.749  1.00  0.00     0.049 A 
ATOM     78  H   UNL A   1      41.339  31.874  29.797  1.00  0.00     0.167 HD
ATOM     79  C   UNL A   1      43.841  33.184  30.196  1.00  0.00     0.074 A 
ATOM     80  C   UNL A   1      45.264  33.457  30.164  1.00  0.00     0.031 C 
ATOM     81  C   UNL A   1      42.908  34.021  30.715  1.00  0.00     0.034 A 
BRANCH  68  82
ATOM     82  C   UNL A   1      37.079  32.011  30.241  1.00  0.00     0.023 A 
ATOM     83  C   UNL A   1      36.337  32.805  29.348  1.00  0.00     0.031 A 
ATOM     84  C   UNL A   1      36.474  31.628  31.452  1.00  0.00     0.131 A 
ATOM     85  C   UNL A   1      35.042  33.217  29.692  1.00  0.00     0.055 A 
ATOM     86  C   UNL A   1      35.172  32.014  31.776  1.00  0.00     0.041 A 
ATOM     87  F   UNL A   1      37.142  30.877  32.342  1.00  0.00    -0.206 F 
ATOM     88  C   UNL A   1      34.455  32.823  30.899  1.00  0.00     0.022 A 
BRANCH  85  89
ATOM     89  S   UNL A   1      34.090  34.329  28.621  1.00  0.00     0.124 S 
ATOM     90  O   UNL A   1      34.820  35.586  28.770  1.00  0.00    -0.237 OA
ATOM     91  O   UNL A   1      34.221  33.684  27.317  1.00  0.00    -0.237 OA
ATOM     92  O   UNL A   1      32.752  34.315  29.200  1.00  0.00    -0.744 OA
ENDBRANCH  85  89
ENDBRANCH  68  82
BRANCH  69  93
ATOM     93  C   UNL A   1      46.680  29.887  28.317  1.00  0.00     0.023 A 
ATOM     94  C   UNL A   1      47.446  29.188  29.270  1.00  0.00     0.031 A 
ATOM     95  C   UNL A   1      47.327  30.365  27.167  1.00  0.00     0.131 A 
ATOM     96  C   UNL A   1      48.827  29.046  29.083  1.00  0.00     0.055 A 
ATOM     97  C   UNL A   1      48.692  30.168  26.955  1.00  0.00     0.041 A 
ATOM     98  F   UNL A   1      46.639  31.054  26.243  1.00  0.00    -0.206 F 
ATOM     99  C   UNL A   1      49.452  29.521  27.925  1.00  0.00     0.022 A 
BRANCH  96 100
ATOM    100  S   UNL A   1      49.879  28.370  30.398  1.00  0.00     0.124 S 
ATOM    101  O   UNL A   1      49.556  29.243  31.522  1.00  0.00    -0.237 OA
ATOM    102  O   UNL A   1      49.388  26.999  30.500  1.00  0.00    -0.237 OA
ATOM    103  O   UNL A   1      51.230  28.506  29.862  1.00  0.00    -0.744 OA
ENDBRANCH  96 100
ENDBRANCH  69  93
BRANCH  81 104
ATOM    104  C   UNL A   1      43.372  35.338  31.290  1.00  0.00     0.023 A 
ATOM    105  C   UNL A   1      43.416  36.489  30.481  1.00  0.00     0.031 A 
ATOM    106  C   UNL A   1      43.896  35.420  32.592  1.00  0.00     0.131 A 
ATOM    107  C   UNL A   1      44.004  37.663  30.969  1.00  0.00     0.055 A 
ATOM    108  C   UNL A   1      44.443  36.603  33.089  1.00  0.00     0.041 A 
ATOM    109  F   UNL A   1      43.885  34.347  33.399  1.00  0.00    -0.206 F 
ATOM    110  C   UNL A   1      44.511  37.728  32.272  1.00  0.00     0.022 A 
BRANCH 107 111
ATOM    111  S   UNL A   1      44.210  39.122  29.910  1.00  0.00     0.124 S 
ATOM    112  O   UNL A   1      44.193  38.530  28.575  1.00  0.00    -0.237 OA
ATOM    113  O   UNL A   1      43.035  39.920  30.254  1.00  0.00    -0.237 OA
ATOM    114  O   UNL A   1      45.491  39.682  30.326  1.00  0.00    -0.744 OA
ENDBRANCH 107 111
ENDBRANCH  81 104
ENDBRANCH  55  56
ENDBRANCH  48  50
ENDBRANCH  47  48
ENDBRANCH  46  47
ENDBRANCH  45  46
ENDBRANCH  44  45
ENDBRANCH  43  44
ENDBRANCH  42  43
ENDBRANCH   1  42
TORSDOF 26
ENDMDL
MODEL 2
REMARK VINA RESULT:      -7.1      4.797     11.655
REMARK SMILES O=C(Cn1nc(C(=O)OCCOCCOCCOCCOC(=O)c2ccc(-c3c4nc(c(-c5cc(S(=O)(=O)[O-])ccc5F)c5ccc([nH]5)c(-c5cc(S(=O)(=O)[O-])ccc5F)c5nc(c(-c6cc(S(=O)(=O)[O-])ccc6F)c6ccc3[nH]6)C=C5)C=C4)cc2)c2ccccc2c1=O)Nc1ccc2c(c1)C(=O)c1ccccc1C2=O
REMARK SMILES IDX 15 1 14 2 13 3 12 4 11 5 10 6 9 7 7 8 8 9 6 10 4 11 5 12
REMARK SMILES IDX 93 13 92 14 94 15 87 16 91 17 88 18 90 19 89 20 3 21 2 22
REMARK SMILES IDX 1 23 95 24 96 26 97 27 101 28 98 29 100 30 99 31 102 32
REMARK SMILES IDX 110 33 103 34 104 35 109 36 111 37 105 38 108 39 106 40
REMARK SMILES IDX 107 41 16 42 17 43 18 44 19 45 20 46 21 47 22 48 23 49 24 50
REMARK SMILES IDX 25 51 86 52 26 53 85 54 27 55 28 56 29 57 79 58 30 59 84 60
REMARK SMILES IDX 78 61 80 62 31 63 83 64 77 65 76 66 32 68 64 69 44 70 63 71
REMARK SMILES IDX 45 72 48 73 62 74 81 75 46 76 47 77 61 79 82 80 49 81 33 82
REMARK SMILES IDX 34 83 42 84 35 85 41 86 43 87 40 88 36 89 37 90 38 91 39 92
REMARK SMILES IDX 65 93 66 94 74 95 67 96 73 97 75 98 72 99 68 100 69 101
REMARK SMILES IDX 70 102 71 103 50 104 51 105 59 106 52 107 58 108 60 109
REMARK SMILES IDX 57 110 53 111 54 112 55 113 56 114
REMARK H PARENT 95 25 80 67 48 78
REMARK Flexibility Score: inf
ROOT
ATOM      1  O   UNL A   1      36.932  32.337  31.431  1.00  0.00    -0.377 OA
ENDROOT
BRANCH   1   2
ATOM      2  C   UNL A   1      37.365  31.230  30.670  1.00  0.00     0.188 C 
BRANCH   2   3
ATOM      3  C   UNL A   1      36.407  30.675  29.605  1.00  0.00     0.188 C 
BRANCH   3   4
ATOM      4  O   UNL A   1      36.888  29.545  28.884  1.00  0.00    -0.376 OA
BRANCH   4   5
ATOM      5  C   UNL A   1      38.304  29.411  28.812  1.00  0.00     0.202 C 
BRANCH   5   6
ATOM      6  C   UNL A   1      38.828  28.114  29.433  1.00  0.00     0.261 C 
BRANCH   6   7
ATOM      7  O   UNL A   1      40.153  27.789  28.993  1.00  0.00    -0.458 OA
BRANCH   7   8
ATOM      8  C   UNL A   1      40.369  27.701  27.670  1.00  0.00     0.359 C 
ATOM      9  O   UNL A   1      39.913  28.399  26.784  1.00  0.00    -0.244 OA
BRANCH   8  10
ATOM     10  C   UNL A   1      41.421  26.628  27.429  1.00  0.00     0.176 A 
ATOM     11  N   UNL A   1      43.645  26.103  27.126  1.00  0.00    -0.219 N 
ATOM     12  N   UNL A   1      42.661  27.021  27.403  1.00  0.00    -0.161 NA
ATOM     13  C   UNL A   1      43.421  24.736  27.008  1.00  0.00     0.275 A 
ATOM     14  C   UNL A   1      42.010  24.306  26.969  1.00  0.00     0.051 A 
ATOM     15  O   UNL A   1      44.316  23.898  26.906  1.00  0.00    -0.267 OA
ATOM     16  C   UNL A   1      41.000  25.237  27.184  1.00  0.00     0.022 A 
ATOM     17  C   UNL A   1      41.691  22.971  26.679  1.00  0.00     0.014 A 
ATOM     18  C   UNL A   1      39.660  24.830  27.126  1.00  0.00     0.011 A 
ATOM     19  C   UNL A   1      40.356  22.573  26.599  1.00  0.00     0.001 A 
ATOM     20  C   UNL A   1      39.342  23.502  26.824  1.00  0.00     0.001 A 
BRANCH  11  21
ATOM     21  C   UNL A   1      45.005  26.626  26.973  1.00  0.00     0.248 C 
BRANCH  21  22
ATOM     22  C   UNL A   1      44.917  28.148  26.795  1.00  0.00     0.246 C 
ATOM     23  O   UNL A   1      45.246  28.698  25.746  1.00  0.00    -0.273 OA
ATOM     24  N   UNL A   1      44.571  28.816  27.965  1.00  0.00    -0.324 N 
ATOM     25  H   UNL A   1      43.954  28.356  28.580  1.00  0.00     0.169 HD
BRANCH  24  26
ATOM     26  C   UNL A   1      45.028  30.097  28.348  1.00  0.00     0.042 A 
ATOM     27  C   UNL A   1      45.996  30.703  27.528  1.00  0.00     0.027 A 
ATOM     28  C   UNL A   1      44.396  30.850  29.340  1.00  0.00     0.039 A 
ATOM     29  C   UNL A   1      46.215  32.083  27.583  1.00  0.00     0.015 A 
ATOM     30  C   UNL A   1      44.561  32.233  29.340  1.00  0.00     0.036 A 
ATOM     31  C   UNL A   1      45.419  32.850  28.429  1.00  0.00     0.034 A 
ATOM     32  C   UNL A   1      43.583  33.059  30.070  1.00  0.00     0.194 C 
ATOM     33  C   UNL A   1      45.239  34.292  28.151  1.00  0.00     0.194 C 
ATOM     34  O   UNL A   1      43.150  32.762  31.172  1.00  0.00    -0.289 OA
ATOM     35  C   UNL A   1      43.049  34.198  29.307  1.00  0.00     0.034 A 
ATOM     36  C   UNL A   1      43.863  34.803  28.348  1.00  0.00     0.034 A 
ATOM     37  O   UNL A   1      46.118  34.975  27.647  1.00  0.00    -0.289 OA
ATOM     38  C   UNL A   1      41.698  34.531  29.414  1.00  0.00     0.013 A 
ATOM     39  C   UNL A   1      43.328  35.748  27.474  1.00  0.00     0.013 A 
ATOM     40  C   UNL A   1      41.154  35.446  28.513  1.00  0.00     0.001 A 
ATOM     41  C   UNL A   1      41.965  36.050  27.547  1.00  0.00     0.001 A 
ENDBRANCH  24  26
ENDBRANCH  21  22
ENDBRANCH  11  21
ENDBRANCH   8  10
ENDBRANCH   7   8
ENDBRANCH   6   7
ENDBRANCH   5   6
ENDBRANCH   4   5
ENDBRANCH   3   4
ENDBRANCH   2   3
ENDBRANCH   1   2
BRANCH   1  42
ATOM     42  C   UNL A   1      36.014  32.155  32.497  1.00  0.00     0.188 C 
BRANCH  42  43
ATOM     43  C   UNL A   1      35.855  33.207  33.611  1.00  0.00     0.188 C 
BRANCH  43  44
ATOM     44  O   UNL A   1      36.802  33.111  34.672  1.00  0.00    -0.376 OA
BRANCH  44  45
ATOM     45  C   UNL A   1      37.949  33.945  34.548  1.00  0.00     0.202 C 
BRANCH  45  46
ATOM     46  C   UNL A   1      38.603  34.255  35.897  1.00  0.00     0.261 C 
BRANCH  46  47
ATOM     47  O   UNL A   1      40.010  34.523  35.821  1.00  0.00    -0.460 OA
BRANCH  47  48
ATOM     48  C   UNL A   1      40.396  35.817  35.884  1.00  0.00     0.338 C 
ATOM     49  O   UNL A   1      40.071  36.641  36.719  1.00  0.00    -0.246 OA
BRANCH  48  50
ATOM     50  C   UNL A   1      41.440  36.012  34.858  1.00  0.00     0.060 A 
ATOM     51  C   UNL A   1      42.406  37.011  35.014  1.00  0.00     0.016 A 
ATOM     52  C   UNL A   1      41.415  35.214  33.709  1.00  0.00     0.016 A 
ATOM     53  C   UNL A   1      43.374  37.190  34.027  1.00  0.00     0.010 A 
ATOM     54  C   UNL A   1      42.379  35.403  32.717  1.00  0.00     0.010 A 
ATOM     55  C   UNL A   1      43.378  36.376  32.884  1.00  0.00    -0.014 A 
BRANCH  55  56
ATOM     56  C   UNL A   1      44.553  36.398  31.986  1.00  0.00     0.031 A 
ATOM     57  C   UNL A   1      45.545  35.283  31.936  1.00  0.00     0.074 A 
ATOM     58  C   UNL A   1      44.693  37.477  31.191  1.00  0.00     0.049 A 
ATOM     59  N   UNL A   1      46.549  35.122  31.113  1.00  0.00    -0.248 NA
ATOM     60  C   UNL A   1      45.404  34.214  32.935  1.00  0.00     0.031 C 
ATOM     61  C   UNL A   1      43.787  38.627  31.189  1.00  0.00     0.029 A 
ATOM     62  N   UNL A   1      45.630  37.784  30.241  1.00  0.00    -0.354 N 
ATOM     63  C   UNL A   1      47.146  33.920  31.469  1.00  0.00     0.074 A 
ATOM     64  C   UNL A   1      46.421  33.419  32.620  1.00  0.00     0.031 C 
ATOM     65  C   UNL A   1      44.206  39.511  30.275  1.00  0.00     0.029 A 
ATOM     66  C   UNL A   1      45.416  38.999  29.635  1.00  0.00     0.049 A 
ATOM     67  H   UNL A   1      46.384  37.193  30.014  1.00  0.00     0.167 HD
ATOM     68  C   UNL A   1      48.188  33.295  30.869  1.00  0.00     0.034 A 
ATOM     69  C   UNL A   1      46.105  39.629  28.664  1.00  0.00     0.034 A 
ATOM     70  C   UNL A   1      48.901  33.828  29.733  1.00  0.00     0.049 A 
ATOM     71  C   UNL A   1      47.273  38.922  28.032  1.00  0.00     0.074 A 
ATOM     72  C   UNL A   1      49.931  33.241  29.018  1.00  0.00     0.029 A 
ATOM     73  N   UNL A   1      48.673  35.069  29.152  1.00  0.00    -0.354 N 
ATOM     74  N   UNL A   1      47.752  37.729  28.297  1.00  0.00    -0.248 NA
ATOM     75  C   UNL A   1      47.981  39.629  26.958  1.00  0.00     0.031 C 
ATOM     76  C   UNL A   1      50.367  34.149  28.049  1.00  0.00     0.029 A 
ATOM     77  C   UNL A   1      49.567  35.279  28.112  1.00  0.00     0.049 A 
ATOM     78  H   UNL A   1      47.978  35.706  29.436  1.00  0.00     0.167 HD
ATOM     79  C   UNL A   1      48.804  37.533  27.408  1.00  0.00     0.074 A 
ATOM     80  C   UNL A   1      48.874  38.722  26.583  1.00  0.00     0.031 C 
ATOM     81  C   UNL A   1      49.633  36.465  27.291  1.00  0.00     0.034 A 
BRANCH  68  82
ATOM     82  C   UNL A   1      48.616  31.943  31.385  1.00  0.00     0.023 A 
ATOM     83  C   UNL A   1      48.068  30.766  30.845  1.00  0.00     0.031 A 
ATOM     84  C   UNL A   1      49.448  31.833  32.514  1.00  0.00     0.131 A 
ATOM     85  C   UNL A   1      48.334  29.530  31.452  1.00  0.00     0.055 A 
ATOM     86  C   UNL A   1      49.736  30.597  33.096  1.00  0.00     0.041 A 
ATOM     87  F   UNL A   1      49.989  32.928  33.072  1.00  0.00    -0.206 F 
ATOM     88  C   UNL A   1      49.167  29.440  32.572  1.00  0.00     0.022 A 
BRANCH  85  89
ATOM     89  S   UNL A   1      47.563  28.001  30.855  1.00  0.00     0.124 S 
ATOM     90  O   UNL A   1      47.564  28.210  29.409  1.00  0.00    -0.237 OA
ATOM     91  O   UNL A   1      48.491  26.982  31.337  1.00  0.00    -0.237 OA
ATOM     92  O   UNL A   1      46.246  28.003  31.482  1.00  0.00    -0.744 OA
ENDBRANCH  85  89
ENDBRANCH  68  82
BRANCH  69  93
ATOM     93  C   UNL A   1      45.623  40.957  28.194  1.00  0.00     0.023 A 
ATOM     94  C   UNL A   1      44.881  41.074  27.003  1.00  0.00     0.031 A 
ATOM     95  C   UNL A   1      46.017  42.135  28.849  1.00  0.00     0.131 A 
ATOM     96  C   UNL A   1      44.615  42.342  26.471  1.00  0.00     0.055 A 
ATOM     97  C   UNL A   1      45.696  43.397  28.348  1.00  0.00     0.041 A 
ATOM     98  F   UNL A   1      46.742  42.070  29.976  1.00  0.00    -0.206 F 
ATOM     99  C   UNL A   1      45.007  43.504  27.144  1.00  0.00     0.022 A 
BRANCH  96 100
ATOM    100  S   UNL A   1      43.879  42.524  24.822  1.00  0.00     0.124 S 
ATOM    101  O   UNL A   1      43.788  43.975  24.691  1.00  0.00    -0.237 OA
ATOM    102  O   UNL A   1      44.876  41.874  23.975  1.00  0.00    -0.237 OA
ATOM    103  O   UNL A   1      42.607  41.819  24.933  1.00  0.00    -0.744 OA
ENDBRANCH  96 100
ENDBRANCH  69  93
BRANCH  81 104
ATOM    104  C   UNL A   1      50.716  36.514  26.240  1.00  0.00     0.023 A 
ATOM    105  C   UNL A   1      51.925  37.187  26.498  1.00  0.00     0.031 A 
ATOM    106  C   UNL A   1      50.496  36.014  24.945  1.00  0.00     0.131 A 
ATOM    107  C   UNL A   1      52.853  37.374  25.465  1.00  0.00     0.055 A 
ATOM    108  C   UNL A   1      51.442  36.165  23.930  1.00  0.00     0.041 A 
ATOM    109  F   UNL A   1      49.355  35.372  24.647  1.00  0.00    -0.206 F 
ATOM    110  C   UNL A   1      52.621  36.860  24.185  1.00  0.00     0.022 A 
BRANCH 107 111
ATOM    111  S   UNL A   1      54.356  38.359  25.718  1.00  0.00     0.124 S 
ATOM    112  O   UNL A   1      54.772  37.935  27.053  1.00  0.00    -0.237 OA
ATOM    113  O   UNL A   1      55.211  37.904  24.624  1.00  0.00    -0.237 OA
ATOM    114  O   UNL A   1      53.893  39.740  25.620  1.00  0.00    -0.744 OA
ENDBRANCH 107 111
ENDBRANCH  81 104
ENDBRANCH  55  56
ENDBRANCH  48  50
ENDBRANCH  47  48
ENDBRANCH  46  47
ENDBRANCH  45  46
ENDBRANCH  44  45
ENDBRANCH  43  44
ENDBRANCH  42  43
ENDBRANCH   1  42
TORSDOF 26
ENDMDL
MODEL 3
REMARK VINA RESULT:      -7.1      3.834     11.166
REMARK SMILES O=C(Cn1nc(C(=O)OCCOCCOCCOCCOC(=O)c2ccc(-c3c4nc(c(-c5cc(S(=O)(=O)[O-])ccc5F)c5ccc([nH]5)c(-c5cc(S(=O)(=O)[O-])ccc5F)c5nc(c(-c6cc(S(=O)(=O)[O-])ccc6F)c6ccc3[nH]6)C=C5)C=C4)cc2)c2ccccc2c1=O)Nc1ccc2c(c1)C(=O)c1ccccc1C2=O
REMARK SMILES IDX 15 1 14 2 13 3 12 4 11 5 10 6 9 7 7 8 8 9 6 10 4 11 5 12
REMARK SMILES IDX 93 13 92 14 94 15 87 16 91 17 88 18 90 19 89 20 3 21 2 22
REMARK SMILES IDX 1 23 95 24 96 26 97 27 101 28 98 29 100 30 99 31 102 32
REMARK SMILES IDX 110 33 103 34 104 35 109 36 111 37 105 38 108 39 106 40
REMARK SMILES IDX 107 41 16 42 17 43 18 44 19 45 20 46 21 47 22 48 23 49 24 50
REMARK SMILES IDX 25 51 86 52 26 53 85 54 27 55 28 56 29 57 79 58 30 59 84 60
REMARK SMILES IDX 78 61 80 62 31 63 83 64 77 65 76 66 32 68 64 69 44 70 63 71
REMARK SMILES IDX 45 72 48 73 62 74 81 75 46 76 47 77 61 79 82 80 49 81 33 82
REMARK SMILES IDX 34 83 42 84 35 85 41 86 43 87 40 88 36 89 37 90 38 91 39 92
REMARK SMILES IDX 65 93 66 94 74 95 67 96 73 97 75 98 72 99 68 100 69 101
REMARK SMILES IDX 70 102 71 103 50 104 51 105 59 106 52 107 58 108 60 109
REMARK SMILES IDX 57 110 53 111 54 112 55 113 56 114
REMARK H PARENT 95 25 80 67 48 78
REMARK Flexibility Score: inf
ROOT
ATOM      1  O   UNL A   1      37.670  32.788  32.695  1.00  0.00    -0.377 OA
ENDROOT
BRANCH   1   2
ATOM      2  C   UNL A   1      37.979  31.746  31.794  1.00  0.00     0.188 C 
BRANCH   2   3
ATOM      3  C   UNL A   1      38.232  32.121  30.326  1.00  0.00     0.188 C 
BRANCH   3   4
ATOM      4  O   UNL A   1      38.501  31.026  29.456  1.00  0.00    -0.376 OA
BRANCH   4   5
ATOM      5  C   UNL A   1      39.222  29.940  30.030  1.00  0.00     0.202 C 
BRANCH   5   6
ATOM      6  C   UNL A   1      38.645  28.568  29.676  1.00  0.00     0.261 C 
BRANCH   6   7
ATOM      7  O   UNL A   1      39.642  27.656  29.198  1.00  0.00    -0.458 OA
BRANCH   7   8
ATOM      8  C   UNL A   1      39.963  27.709  27.895  1.00  0.00     0.359 C 
ATOM      9  O   UNL A   1      39.637  28.543  27.071  1.00  0.00    -0.244 OA
BRANCH   8  10
ATOM     10  C   UNL A   1      40.950  26.588  27.601  1.00  0.00     0.176 A 
ATOM     11  N   UNL A   1      43.141  25.946  27.277  1.00  0.00    -0.219 N 
ATOM     12  N   UNL A   1      42.212  26.906  27.598  1.00  0.00    -0.161 NA
ATOM     13  C   UNL A   1      42.836  24.603  27.088  1.00  0.00     0.275 A 
ATOM     14  C   UNL A   1      41.402  24.261  27.023  1.00  0.00     0.051 A 
ATOM     15  O   UNL A   1      43.679  23.719  26.946  1.00  0.00    -0.267 OA
ATOM     16  C   UNL A   1      40.449  25.239  27.284  1.00  0.00     0.022 A 
ATOM     17  C   UNL A   1      41.005  22.965  26.664  1.00  0.00     0.014 A 
ATOM     18  C   UNL A   1      39.087  24.917  27.202  1.00  0.00     0.011 A 
ATOM     19  C   UNL A   1      39.649  22.652  26.561  1.00  0.00     0.001 A 
ATOM     20  C   UNL A   1      38.692  23.627  26.831  1.00  0.00     0.001 A 
BRANCH  11  21
ATOM     21  C   UNL A   1      44.530  26.394  27.154  1.00  0.00     0.248 C 
BRANCH  21  22
ATOM     22  C   UNL A   1      44.525  27.858  26.694  1.00  0.00     0.246 C 
ATOM     23  O   UNL A   1      44.708  28.169  25.520  1.00  0.00    -0.273 OA
ATOM     24  N   UNL A   1      44.434  28.762  27.748  1.00  0.00    -0.324 N 
ATOM     25  H   UNL A   1      43.900  28.489  28.530  1.00  0.00     0.169 HD
BRANCH  24  26
ATOM     26  C   UNL A   1      45.042  30.036  27.795  1.00  0.00     0.042 A 
ATOM     27  C   UNL A   1      45.808  30.422  26.680  1.00  0.00     0.027 A 
ATOM     28  C   UNL A   1      44.720  30.983  28.770  1.00  0.00     0.039 A 
ATOM     29  C   UNL A   1      46.108  31.768  26.452  1.00  0.00     0.015 A 
ATOM     30  C   UNL A   1      44.957  32.329  28.502  1.00  0.00     0.036 A 
ATOM     31  C   UNL A   1      45.593  32.722  27.325  1.00  0.00     0.034 A 
ATOM     32  C   UNL A   1      44.238  33.342  29.297  1.00  0.00     0.194 C 
ATOM     33  C   UNL A   1      45.429  34.119  26.863  1.00  0.00     0.194 C 
ATOM     34  O   UNL A   1      44.078  33.251  30.504  1.00  0.00    -0.289 OA
ATOM     35  C   UNL A   1      43.595  34.401  28.505  1.00  0.00     0.034 A 
ATOM     36  C   UNL A   1      44.176  34.780  27.294  1.00  0.00     0.034 A 
ATOM     37  O   UNL A   1      46.191  34.635  26.059  1.00  0.00    -0.289 OA
ATOM     38  C   UNL A   1      42.334  34.872  28.873  1.00  0.00     0.013 A 
ATOM     39  C   UNL A   1      43.493  35.633  26.428  1.00  0.00     0.013 A 
ATOM     40  C   UNL A   1      41.634  35.692  27.990  1.00  0.00     0.001 A 
ATOM     41  C   UNL A   1      42.211  36.070  26.772  1.00  0.00     0.001 A 
ENDBRANCH  24  26
ENDBRANCH  21  22
ENDBRANCH  11  21
ENDBRANCH   8  10
ENDBRANCH   7   8
ENDBRANCH   6   7
ENDBRANCH   5   6
ENDBRANCH   4   5
ENDBRANCH   3   4
ENDBRANCH   2   3
ENDBRANCH   1   2
BRANCH   1  42
ATOM     42  C   UNL A   1      36.977  32.507  33.900  1.00  0.00     0.188 C 
BRANCH  42  43
ATOM     43  C   UNL A   1      36.948  33.514  35.066  1.00  0.00     0.188 C 
BRANCH  43  44
ATOM     44  O   UNL A   1      37.961  33.327  36.051  1.00  0.00    -0.376 OA
BRANCH  44  45
ATOM     45  C   UNL A   1      38.923  34.372  36.148  1.00  0.00     0.202 C 
BRANCH  45  46
ATOM     46  C   UNL A   1      39.726  34.316  37.450  1.00  0.00     0.261 C 
BRANCH  46  47
ATOM     47  O   UNL A   1      40.728  33.291  37.480  1.00  0.00    -0.460 OA
BRANCH  47  48
ATOM     48  C   UNL A   1      41.984  33.663  37.811  1.00  0.00     0.338 C 
ATOM     49  O   UNL A   1      42.355  34.140  38.869  1.00  0.00    -0.246 OA
BRANCH  48  50
ATOM     50  C   UNL A   1      42.875  33.215  36.723  1.00  0.00     0.060 A 
ATOM     51  C   UNL A   1      44.196  32.844  36.997  1.00  0.00     0.016 A 
ATOM     52  C   UNL A   1      42.390  33.215  35.410  1.00  0.00     0.016 A 
ATOM     53  C   UNL A   1      45.026  32.439  35.954  1.00  0.00     0.010 A 
ATOM     54  C   UNL A   1      43.228  32.819  34.366  1.00  0.00     0.010 A 
ATOM     55  C   UNL A   1      44.542  32.405  34.637  1.00  0.00    -0.014 A 
BRANCH  55  56
ATOM     56  C   UNL A   1      45.340  31.728  33.591  1.00  0.00     0.031 A 
ATOM     57  C   UNL A   1      45.323  30.246  33.405  1.00  0.00     0.074 A 
ATOM     58  C   UNL A   1      46.089  32.511  32.791  1.00  0.00     0.049 A 
ATOM     59  N   UNL A   1      45.878  29.538  32.457  1.00  0.00    -0.248 NA
ATOM     60  C   UNL A   1      44.599  29.451  34.408  1.00  0.00     0.031 C 
ATOM     61  C   UNL A   1      46.187  33.966  32.916  1.00  0.00     0.029 A 
ATOM     62  N   UNL A   1      46.896  32.207  31.728  1.00  0.00    -0.354 N 
ATOM     63  C   UNL A   1      45.550  28.216  32.724  1.00  0.00     0.074 A 
ATOM     64  C   UNL A   1      44.789  28.216  33.957  1.00  0.00     0.031 C 
ATOM     65  C   UNL A   1      47.001  34.431  31.959  1.00  0.00     0.029 A 
ATOM     66  C   UNL A   1      47.493  33.309  31.163  1.00  0.00     0.049 A 
ATOM     67  H   UNL A   1      47.037  31.289  31.401  1.00  0.00     0.167 HD
ATOM     68  C   UNL A   1      45.845  27.116  31.988  1.00  0.00     0.034 A 
ATOM     69  C   UNL A   1      48.330  33.411  30.113  1.00  0.00     0.034 A 
ATOM     70  C   UNL A   1      46.621  27.146  30.771  1.00  0.00     0.049 A 
ATOM     71  C   UNL A   1      48.661  32.171  29.329  1.00  0.00     0.074 A 
ATOM     72  C   UNL A   1      46.922  26.093  29.924  1.00  0.00     0.029 A 
ATOM     73  N   UNL A   1      47.226  28.274  30.232  1.00  0.00    -0.354 N 
ATOM     74  N   UNL A   1      48.243  30.942  29.521  1.00  0.00    -0.248 NA
ATOM     75  C   UNL A   1      49.555  32.328  28.174  1.00  0.00     0.031 C 
ATOM     76  C   UNL A   1      47.758  26.570  28.911  1.00  0.00     0.029 A 
ATOM     77  C   UNL A   1      47.929  27.935  29.085  1.00  0.00     0.049 A 
ATOM     78  H   UNL A   1      47.165  29.181  30.609  1.00  0.00     0.167 HD
ATOM     79  C   UNL A   1      48.805  30.182  28.500  1.00  0.00     0.074 A 
ATOM     80  C   UNL A   1      49.573  31.097  27.680  1.00  0.00     0.031 C 
ATOM     81  C   UNL A   1      48.693  28.849  28.269  1.00  0.00     0.034 A 
BRANCH  68  82
ATOM     82  C   UNL A   1      45.307  25.779  32.436  1.00  0.00     0.023 A 
ATOM     83  C   UNL A   1      45.914  25.087  33.501  1.00  0.00     0.031 A 
ATOM     84  C   UNL A   1      44.296  25.127  31.707  1.00  0.00     0.131 A 
ATOM     85  C   UNL A   1      45.524  23.772  33.788  1.00  0.00     0.055 A 
ATOM     86  C   UNL A   1      43.889  23.828  32.018  1.00  0.00     0.041 A 
ATOM     87  F   UNL A   1      43.693  25.741  30.677  1.00  0.00    -0.206 F 
ATOM     88  C   UNL A   1      44.514  23.140  33.054  1.00  0.00     0.022 A 
BRANCH  85  89
ATOM     89  S   UNL A   1      46.351  22.804  35.080  1.00  0.00     0.124 S 
ATOM     90  O   UNL A   1      45.460  23.004  36.221  1.00  0.00    -0.237 OA
ATOM     91  O   UNL A   1      46.341  21.460  34.510  1.00  0.00    -0.237 OA
ATOM     92  O   UNL A   1      47.664  23.428  35.200  1.00  0.00    -0.744 OA
ENDBRANCH  85  89
ENDBRANCH  68  82
BRANCH  69  93
ATOM     93  C   UNL A   1      48.817  34.762  29.718  1.00  0.00     0.023 A 
ATOM     94  C   UNL A   1      47.985  35.650  29.010  1.00  0.00     0.031 A 
ATOM     95  C   UNL A   1      50.159  35.126  29.916  1.00  0.00     0.131 A 
ATOM     96  C   UNL A   1      48.522  36.825  28.470  1.00  0.00     0.055 A 
ATOM     97  C   UNL A   1      50.674  36.328  29.431  1.00  0.00     0.041 A 
ATOM     98  F   UNL A   1      50.992  34.301  30.569  1.00  0.00    -0.206 F 
ATOM     99  C   UNL A   1      49.858  37.176  28.688  1.00  0.00     0.022 A 
BRANCH  96 100
ATOM    100  S   UNL A   1      47.543  37.866  27.351  1.00  0.00     0.124 S 
ATOM    101  O   UNL A   1      46.178  37.521  27.733  1.00  0.00    -0.237 OA
ATOM    102  O   UNL A   1      47.985  39.207  27.725  1.00  0.00    -0.237 OA
ATOM    103  O   UNL A   1      47.957  37.427  26.022  1.00  0.00    -0.744 OA
ENDBRANCH  96 100
ENDBRANCH  69  93
BRANCH  81 104
ATOM    104  C   UNL A   1      49.426  28.266  27.085  1.00  0.00     0.023 A 
ATOM    105  C   UNL A   1      48.816  28.242  25.816  1.00  0.00     0.031 A 
ATOM    106  C   UNL A   1      50.661  27.615  27.242  1.00  0.00     0.131 A 
ATOM    107  C   UNL A   1      49.428  27.550  24.763  1.00  0.00     0.055 A 
ATOM    108  C   UNL A   1      51.287  26.963  26.179  1.00  0.00     0.041 A 
ATOM    109  F   UNL A   1      51.278  27.602  28.435  1.00  0.00    -0.206 F 
ATOM    110  C   UNL A   1      50.663  26.917  24.936  1.00  0.00     0.022 A 
BRANCH 107 111
ATOM    111  S   UNL A   1      48.608  27.374  23.153  1.00  0.00     0.124 S 
ATOM    112  O   UNL A   1      47.350  28.083  23.377  1.00  0.00    -0.237 OA
ATOM    113  O   UNL A   1      49.548  28.040  22.254  1.00  0.00    -0.237 OA
ATOM    114  O   UNL A   1      48.487  25.931  22.975  1.00  0.00    -0.744 OA
ENDBRANCH 107 111
ENDBRANCH  81 104
ENDBRANCH  55  56
ENDBRANCH  48  50
ENDBRANCH  47  48
ENDBRANCH  46  47
ENDBRANCH  45  46
ENDBRANCH  44  45
ENDBRANCH  43  44
ENDBRANCH  42  43
ENDBRANCH   1  42
TORSDOF 26
ENDMDL
