MODEL 1
REMARK VINA RESULT:      -5.8      0.000      0.000
REMARK SMILES COc1cc([C@H]2CC(c3ccc(S(C)(=O)=O)cc3)=NN2c2ccc(C(=O)OCCOCCOCCOCCOC(=O)c3ccc(-c4c5nc(c(-c6cc(S(=O)(=O)[O-])ccc6F)c6ccc([nH]6)c(-c6cc(S(=O)(=O)[O-])ccc6F)c6nc(c(-c7cc(S(=O)(=O)[O-])ccc7F)c7ccc4[nH]7)C=C6)C=C5)cc3)cc2)cc(OC)c1OC
REMARK SMILES IDX 33 1 32 2 31 3 30 4 29 5 28 6 27 7 25 8 26 9 24 10 21 11
REMARK SMILES IDX 22 12 106 13 23 14 105 15 20 16 6 17 7 18 8 19 19 20 5 21
REMARK SMILES IDX 3 22 4 23 111 24 108 25 107 26 2 27 1 28 112 29 113 30
REMARK SMILES IDX 109 31 110 32 9 33 10 34 18 35 11 36 17 37 12 38 13 39 14 40
REMARK SMILES IDX 15 41 16 42 34 43 35 44 36 45 37 46 38 47 39 48 40 49 41 50
REMARK SMILES IDX 42 51 43 52 104 53 44 54 103 55 45 56 46 57 47 58 97 59
REMARK SMILES IDX 48 60 102 61 96 62 98 63 49 64 101 65 95 66 94 67 50 69
REMARK SMILES IDX 82 70 62 71 81 72 63 73 66 74 80 75 99 76 64 77 65 78 79 80
REMARK SMILES IDX 100 81 67 82 51 83 52 84 60 85 53 86 59 87 61 88 58 89 54 90
REMARK SMILES IDX 55 91 56 92 57 93 83 94 84 95 92 96 85 97 91 98 93 99 90 100
REMARK SMILES IDX 86 101 87 102 88 103 89 104 68 105 69 106 77 107 70 108
REMARK SMILES IDX 76 109 78 110 75 111 71 112 72 113 73 114 74 115
REMARK H PARENT 98 68 66 79
REMARK Flexibility Score: inf
ROOT
ATOM      1  O   UNL A   1      41.484  31.246  44.164  1.00  0.00    -0.377 OA
ENDROOT
BRANCH   1   2
ATOM      2  C   UNL A   1      40.756  32.452  44.326  1.00  0.00     0.188 C 
BRANCH   2   3
ATOM      3  C   UNL A   1      39.998  33.027  43.111  1.00  0.00     0.188 C 
BRANCH   3   4
ATOM      4  O   UNL A   1      40.548  34.229  42.605  1.00  0.00    -0.376 OA
BRANCH   4   5
ATOM      5  C   UNL A   1      40.191  35.463  43.199  1.00  0.00     0.202 C 
BRANCH   5   6
ATOM      6  C   UNL A   1      38.895  36.167  42.772  1.00  0.00     0.261 C 
BRANCH   6   7
ATOM      7  O   UNL A   1      38.743  36.423  41.373  1.00  0.00    -0.460 OA
BRANCH   7   8
ATOM      8  C   UNL A   1      38.692  35.355  40.550  1.00  0.00     0.338 C 
ATOM      9  O   UNL A   1      37.880  34.448  40.576  1.00  0.00    -0.246 OA
BRANCH   8  10
ATOM     10  C   UNL A   1      39.679  35.575  39.466  1.00  0.00     0.060 A 
ATOM     11  C   UNL A   1      41.464  35.971  37.343  1.00  0.00     0.060 A 
ATOM     12  C   UNL A   1      40.320  36.771  37.463  1.00  0.00     0.029 A 
ATOM     13  C   UNL A   1      41.756  35.051  38.360  1.00  0.00     0.029 A 
ATOM     14  C   UNL A   1      39.412  36.553  38.501  1.00  0.00     0.018 A 
ATOM     15  C   UNL A   1      40.877  34.859  39.426  1.00  0.00     0.018 A 
BRANCH  11  16
ATOM     16  N   UNL A   1      42.210  35.965  36.166  1.00  0.00    -0.257 N 
ATOM     17  C   UNL A   1      42.160  34.807  35.258  1.00  0.00     0.144 C 
ATOM     18  C   UNL A   1      42.856  35.356  34.003  1.00  0.00     0.091 C 
ATOM     19  C   UNL A   1      43.093  36.786  34.418  1.00  0.00     0.071 C 
ATOM     20  N   UNL A   1      42.689  37.108  35.607  1.00  0.00    -0.176 NA
BRANCH  17  21
ATOM     21  C   UNL A   1      40.730  34.299  35.051  1.00  0.00    -0.015 A 
ATOM     22  C   UNL A   1      38.565  34.473  33.898  1.00  0.00     0.164 A 
ATOM     23  C   UNL A   1      39.829  35.002  34.230  1.00  0.00     0.056 A 
ATOM     24  C   UNL A   1      38.152  33.222  34.391  1.00  0.00     0.203 A 
ATOM     25  C   UNL A   1      39.055  32.510  35.211  1.00  0.00     0.164 A 
ATOM     26  C   UNL A   1      40.316  33.050  35.528  1.00  0.00     0.056 A 
BRANCH  22  27
ATOM     27  O   UNL A   1      37.858  35.140  32.929  1.00  0.00    -0.493 OA
ATOM     28  C   UNL A   1      37.918  34.507  31.652  1.00  0.00     0.278 C 
ENDBRANCH  22  27
BRANCH  24  29
ATOM     29  O   UNL A   1      36.959  32.602  34.147  1.00  0.00    -0.490 OA
ATOM     30  C   UNL A   1      35.721  33.194  34.488  1.00  0.00     0.278 C 
ENDBRANCH  24  29
BRANCH  25  31
ATOM     31  O   UNL A   1      38.879  31.273  35.789  1.00  0.00    -0.493 OA
ATOM     32  C   UNL A   1      39.794  30.237  35.461  1.00  0.00     0.278 C 
ENDBRANCH  25  31
ENDBRANCH  17  21
BRANCH  19  33
ATOM     33  C   UNL A   1      43.814  37.719  33.534  1.00  0.00    -0.002 A 
ATOM     34  C   UNL A   1      44.973  37.273  32.883  1.00  0.00     0.011 A 
ATOM     35  C   UNL A   1      43.338  39.014  33.316  1.00  0.00     0.011 A 
ATOM     36  C   UNL A   1      45.645  38.114  31.990  1.00  0.00     0.021 A 
ATOM     37  C   UNL A   1      44.023  39.868  32.444  1.00  0.00     0.021 A 
ATOM     38  C   UNL A   1      45.170  39.413  31.782  1.00  0.00     0.067 A 
BRANCH  38  39
ATOM     39  S   UNL A   1      46.004  40.473  30.619  1.00  0.00     0.175 S 
ATOM     40  C   UNL A   1      46.722  39.372  29.430  1.00  0.00     0.163 C 
ATOM     41  O   UNL A   1      44.980  41.257  29.956  1.00  0.00    -0.224 OA
ATOM     42  O   UNL A   1      47.096  41.121  31.323  1.00  0.00    -0.224 OA
ENDBRANCH  38  39
ENDBRANCH  19  33
ENDBRANCH  11  16
ENDBRANCH   8  10
ENDBRANCH   7   8
ENDBRANCH   6   7
ENDBRANCH   5   6
ENDBRANCH   4   5
ENDBRANCH   3   4
ENDBRANCH   2   3
ENDBRANCH   1   2
BRANCH   1  43
ATOM     43  C   UNL A   1      42.881  31.208  44.449  1.00  0.00     0.188 C 
BRANCH  43  44
ATOM     44  C   UNL A   1      43.938  31.763  43.465  1.00  0.00     0.188 C 
BRANCH  44  45
ATOM     45  O   UNL A   1      44.919  30.825  43.049  1.00  0.00    -0.376 OA
BRANCH  45  46
ATOM     46  C   UNL A   1      46.148  31.340  42.572  1.00  0.00     0.202 C 
BRANCH  46  47
ATOM     47  C   UNL A   1      46.114  32.765  42.003  1.00  0.00     0.261 C 
BRANCH  47  48
ATOM     48  O   UNL A   1      46.175  32.874  40.573  1.00  0.00    -0.460 OA
BRANCH  48  49
ATOM     49  C   UNL A   1      45.019  33.124  39.919  1.00  0.00     0.338 C 
ATOM     50  O   UNL A   1      44.272  34.074  40.090  1.00  0.00    -0.246 OA
BRANCH  49  51
ATOM     51  C   UNL A   1      44.914  32.143  38.820  1.00  0.00     0.060 A 
ATOM     52  C   UNL A   1      46.082  31.650  38.222  1.00  0.00     0.016 A 
ATOM     53  C   UNL A   1      43.660  31.687  38.406  1.00  0.00     0.016 A 
ATOM     54  C   UNL A   1      45.994  30.713  37.190  1.00  0.00     0.010 A 
ATOM     55  C   UNL A   1      43.574  30.767  37.360  1.00  0.00     0.010 A 
ATOM     56  C   UNL A   1      44.739  30.294  36.729  1.00  0.00    -0.014 A 
BRANCH  56  57
ATOM     57  C   UNL A   1      44.629  29.510  35.475  1.00  0.00     0.031 A 
ATOM     58  C   UNL A   1      44.145  30.211  34.236  1.00  0.00     0.074 A 
ATOM     59  C   UNL A   1      44.952  28.205  35.432  1.00  0.00     0.049 A 
ATOM     60  N   UNL A   1      43.905  29.730  33.044  1.00  0.00    -0.248 NA
ATOM     61  C   UNL A   1      43.889  31.653  34.369  1.00  0.00     0.031 C 
ATOM     62  C   UNL A   1      45.481  27.429  36.551  1.00  0.00     0.029 A 
ATOM     63  N   UNL A   1      44.874  27.302  34.401  1.00  0.00    -0.354 N 
ATOM     64  C   UNL A   1      43.459  30.809  32.286  1.00  0.00     0.074 A 
ATOM     65  C   UNL A   1      43.424  31.955  33.169  1.00  0.00     0.031 C 
ATOM     66  C   UNL A   1      45.682  26.163  36.145  1.00  0.00     0.029 A 
ATOM     67  C   UNL A   1      45.252  26.028  34.754  1.00  0.00     0.049 A 
ATOM     68  H   UNL A   1      44.577  27.544  33.493  1.00  0.00     0.167 HD
ATOM     69  C   UNL A   1      43.115  30.838  30.974  1.00  0.00     0.034 A 
ATOM     70  C   UNL A   1      45.228  24.882  34.041  1.00  0.00     0.034 A 
ATOM     71  C   UNL A   1      43.137  29.679  30.116  1.00  0.00     0.049 A 
ATOM     72  C   UNL A   1      44.733  24.914  32.614  1.00  0.00     0.074 A 
ATOM     73  C   UNL A   1      42.837  29.598  28.767  1.00  0.00     0.029 A 
ATOM     74  N   UNL A   1      43.454  28.389  30.527  1.00  0.00    -0.354 N 
ATOM     75  N   UNL A   1      44.328  25.940  31.900  1.00  0.00    -0.248 NA
ATOM     76  C   UNL A   1      44.692  23.632  31.899  1.00  0.00     0.031 C 
ATOM     77  C   UNL A   1      42.880  28.252  28.387  1.00  0.00     0.029 A 
ATOM     78  C   UNL A   1      43.304  27.500  29.472  1.00  0.00     0.049 A 
ATOM     79  H   UNL A   1      43.743  28.142  31.435  1.00  0.00     0.167 HD
ATOM     80  C   UNL A   1      44.017  25.429  30.641  1.00  0.00     0.074 A 
ATOM     81  C   UNL A   1      44.290  24.007  30.693  1.00  0.00     0.031 C 
ATOM     82  C   UNL A   1      43.557  26.078  29.539  1.00  0.00     0.034 A 
BRANCH  69  83
ATOM     83  C   UNL A   1      42.618  32.154  30.422  1.00  0.00     0.023 A 
ATOM     84  C   UNL A   1      43.469  33.047  29.746  1.00  0.00     0.031 A 
ATOM     85  C   UNL A   1      41.285  32.551  30.629  1.00  0.00     0.131 A 
ATOM     86  C   UNL A   1      43.006  34.323  29.391  1.00  0.00     0.055 A 
ATOM     87  C   UNL A   1      40.805  33.785  30.188  1.00  0.00     0.041 A 
ATOM     88  F   UNL A   1      40.429  31.755  31.291  1.00  0.00    -0.206 F 
ATOM     89  C   UNL A   1      41.672  34.689  29.582  1.00  0.00     0.022 A 
BRANCH  86  90
ATOM     90  S   UNL A   1      44.217  35.563  28.851  1.00  0.00     0.124 S 
ATOM     91  O   UNL A   1      43.728  36.764  29.524  1.00  0.00    -0.237 OA
ATOM     92  O   UNL A   1      45.472  35.015  29.351  1.00  0.00    -0.237 OA
ATOM     93  O   UNL A   1      44.073  35.572  27.397  1.00  0.00    -0.744 OA
ENDBRANCH  86  90
ENDBRANCH  69  83
BRANCH  70  94
ATOM     94  C   UNL A   1      45.657  23.597  34.666  1.00  0.00     0.023 A 
ATOM     95  C   UNL A   1      47.016  23.270  34.784  1.00  0.00     0.031 A 
ATOM     96  C   UNL A   1      44.710  22.659  35.119  1.00  0.00     0.131 A 
ATOM     97  C   UNL A   1      47.392  22.025  35.313  1.00  0.00     0.055 A 
ATOM     98  C   UNL A   1      45.091  21.445  35.692  1.00  0.00     0.041 A 
ATOM     99  F   UNL A   1      43.396  22.918  35.022  1.00  0.00    -0.206 F 
ATOM    100  C   UNL A   1      46.440  21.118  35.782  1.00  0.00     0.022 A 
BRANCH  97 101
ATOM    101  S   UNL A   1      49.150  21.575  35.316  1.00  0.00     0.124 S 
ATOM    102  O   UNL A   1      49.106  20.212  35.831  1.00  0.00    -0.237 OA
ATOM    103  O   UNL A   1      49.501  21.718  33.907  1.00  0.00    -0.237 OA
ATOM    104  O   UNL A   1      49.752  22.562  36.208  1.00  0.00    -0.744 OA
ENDBRANCH  97 101
ENDBRANCH  70  94
BRANCH  82 105
ATOM    105  C   UNL A   1      43.361  25.258  28.283  1.00  0.00     0.023 A 
ATOM    106  C   UNL A   1      42.288  24.360  28.141  1.00  0.00     0.031 A 
ATOM    107  C   UNL A   1      44.264  25.379  27.211  1.00  0.00     0.131 A 
ATOM    108  C   UNL A   1      42.179  23.577  26.980  1.00  0.00     0.055 A 
ATOM    109  C   UNL A   1      44.111  24.650  26.031  1.00  0.00     0.041 A 
ATOM    110  F   UNL A   1      45.310  26.217  27.289  1.00  0.00    -0.206 F 
ATOM    111  C   UNL A   1      43.071  23.733  25.915  1.00  0.00     0.022 A 
BRANCH 108 112
ATOM    112  S   UNL A   1      40.914  22.278  26.918  1.00  0.00     0.124 S 
ATOM    113  O   UNL A   1      41.026  21.813  25.540  1.00  0.00    -0.237 OA
ATOM    114  O   UNL A   1      41.371  21.348  27.945  1.00  0.00    -0.237 OA
ATOM    115  O   UNL A   1      39.676  22.989  27.234  1.00  0.00    -0.744 OA
ENDBRANCH 108 112
ENDBRANCH  82 105
ENDBRANCH  56  57
ENDBRANCH  49  51
ENDBRANCH  48  49
ENDBRANCH  47  48
ENDBRANCH  46  47
ENDBRANCH  45  46
ENDBRANCH  44  45
ENDBRANCH  43  44
ENDBRANCH   1  43
TORSDOF 30
ENDMDL
MODEL 2
REMARK VINA RESULT:      -5.6      5.440     13.600
REMARK SMILES COc1cc([C@H]2CC(c3ccc(S(C)(=O)=O)cc3)=NN2c2ccc(C(=O)OCCOCCOCCOCCOC(=O)c3ccc(-c4c5nc(c(-c6cc(S(=O)(=O)[O-])ccc6F)c6ccc([nH]6)c(-c6cc(S(=O)(=O)[O-])ccc6F)c6nc(c(-c7cc(S(=O)(=O)[O-])ccc7F)c7ccc4[nH]7)C=C6)C=C5)cc3)cc2)cc(OC)c1OC
REMARK SMILES IDX 33 1 32 2 31 3 30 4 29 5 28 6 27 7 25 8 26 9 24 10 21 11
REMARK SMILES IDX 22 12 106 13 23 14 105 15 20 16 6 17 7 18 8 19 19 20 5 21
REMARK SMILES IDX 3 22 4 23 111 24 108 25 107 26 2 27 1 28 112 29 113 30
REMARK SMILES IDX 109 31 110 32 9 33 10 34 18 35 11 36 17 37 12 38 13 39 14 40
REMARK SMILES IDX 15 41 16 42 34 43 35 44 36 45 37 46 38 47 39 48 40 49 41 50
REMARK SMILES IDX 42 51 43 52 104 53 44 54 103 55 45 56 46 57 47 58 97 59
REMARK SMILES IDX 48 60 102 61 96 62 98 63 49 64 101 65 95 66 94 67 50 69
REMARK SMILES IDX 82 70 62 71 81 72 63 73 66 74 80 75 99 76 64 77 65 78 79 80
REMARK SMILES IDX 100 81 67 82 51 83 52 84 60 85 53 86 59 87 61 88 58 89 54 90
REMARK SMILES IDX 55 91 56 92 57 93 83 94 84 95 92 96 85 97 91 98 93 99 90 100
REMARK SMILES IDX 86 101 87 102 88 103 89 104 68 105 69 106 77 107 70 108
REMARK SMILES IDX 76 109 78 110 75 111 71 112 72 113 73 114 74 115
REMARK H PARENT 98 68 66 79
REMARK Flexibility Score: inf
ROOT
ATOM      1  O   UNL A   1      43.014  28.371  32.734  1.00  0.00    -0.377 OA
ENDROOT
BRANCH   1   2
ATOM      2  C   UNL A   1      44.423  28.208  32.755  1.00  0.00     0.188 C 
BRANCH   2   3
ATOM      3  C   UNL A   1      45.184  28.185  31.414  1.00  0.00     0.188 C 
BRANCH   3   4
ATOM      4  O   UNL A   1      44.869  27.075  30.593  1.00  0.00    -0.376 OA
BRANCH   4   5
ATOM      5  C   UNL A   1      43.655  27.068  29.865  1.00  0.00     0.202 C 
BRANCH   5   6
ATOM      6  C   UNL A   1      43.640  27.534  28.402  1.00  0.00     0.261 C 
BRANCH   6   7
ATOM      7  O   UNL A   1      43.091  28.831  28.155  1.00  0.00    -0.460 OA
BRANCH   7   8
ATOM      8  C   UNL A   1      42.399  29.412  29.157  1.00  0.00     0.338 C 
ATOM      9  O   UNL A   1      42.844  30.130  30.036  1.00  0.00    -0.246 OA
BRANCH   8  10
ATOM     10  C   UNL A   1      40.958  29.195  28.891  1.00  0.00     0.060 A 
ATOM     11  C   UNL A   1      38.215  28.894  28.403  1.00  0.00     0.060 A 
ATOM     12  C   UNL A   1      38.991  29.727  27.586  1.00  0.00     0.029 A 
ATOM     13  C   UNL A   1      38.852  28.132  29.392  1.00  0.00     0.029 A 
ATOM     14  C   UNL A   1      40.351  29.904  27.848  1.00  0.00     0.018 A 
ATOM     15  C   UNL A   1      40.219  28.269  29.632  1.00  0.00     0.018 A 
BRANCH  11  16
ATOM     16  N   UNL A   1      36.823  28.941  28.351  1.00  0.00    -0.257 N 
ATOM     17  C   UNL A   1      36.052  29.463  29.492  1.00  0.00     0.144 C 
ATOM     18  C   UNL A   1      34.647  29.610  28.887  1.00  0.00     0.091 C 
ATOM     19  C   UNL A   1      34.917  29.218  27.456  1.00  0.00     0.071 C 
ATOM     20  N   UNL A   1      36.140  28.890  27.177  1.00  0.00    -0.176 NA
BRANCH  17  21
ATOM     21  C   UNL A   1      36.663  30.748  30.060  1.00  0.00    -0.015 A 
ATOM     22  C   UNL A   1      38.209  31.849  31.623  1.00  0.00     0.164 A 
ATOM     23  C   UNL A   1      37.513  30.706  31.181  1.00  0.00     0.056 A 
ATOM     24  C   UNL A   1      38.069  33.083  30.963  1.00  0.00     0.203 A 
ATOM     25  C   UNL A   1      37.221  33.129  29.834  1.00  0.00     0.164 A 
ATOM     26  C   UNL A   1      36.537  31.977  29.402  1.00  0.00     0.056 A 
BRANCH  22  27
ATOM     27  O   UNL A   1      39.165  31.648  32.588  1.00  0.00    -0.493 OA
ATOM     28  C   UNL A   1      40.108  30.635  32.244  1.00  0.00     0.278 C 
ENDBRANCH  22  27
BRANCH  24  29
ATOM     29  O   UNL A   1      38.683  34.259  31.289  1.00  0.00    -0.490 OA
ATOM     30  C   UNL A   1      39.834  34.720  30.610  1.00  0.00     0.278 C 
ENDBRANCH  24  29
BRANCH  25  31
ATOM     31  O   UNL A   1      36.943  34.210  29.027  1.00  0.00    -0.493 OA
ATOM     32  C   UNL A   1      35.682  34.260  28.376  1.00  0.00     0.278 C 
ENDBRANCH  25  31
ENDBRANCH  17  21
BRANCH  19  33
ATOM     33  C   UNL A   1      33.821  29.144  26.473  1.00  0.00    -0.002 A 
ATOM     34  C   UNL A   1      32.879  30.182  26.436  1.00  0.00     0.011 A 
ATOM     35  C   UNL A   1      33.737  28.082  25.570  1.00  0.00     0.011 A 
ATOM     36  C   UNL A   1      31.863  30.172  25.475  1.00  0.00     0.021 A 
ATOM     37  C   UNL A   1      32.706  28.057  24.624  1.00  0.00     0.021 A 
ATOM     38  C   UNL A   1      31.777  29.103  24.577  1.00  0.00     0.067 A 
BRANCH  38  39
ATOM     39  S   UNL A   1      30.505  29.108  23.330  1.00  0.00     0.175 S 
ATOM     40  C   UNL A   1      29.801  27.482  23.390  1.00  0.00     0.163 C 
ATOM     41  O   UNL A   1      29.498  30.057  23.762  1.00  0.00    -0.224 OA
ATOM     42  O   UNL A   1      31.156  29.250  22.041  1.00  0.00    -0.224 OA
ENDBRANCH  38  39
ENDBRANCH  19  33
ENDBRANCH  11  16
ENDBRANCH   8  10
ENDBRANCH   7   8
ENDBRANCH   6   7
ENDBRANCH   5   6
ENDBRANCH   4   5
ENDBRANCH   3   4
ENDBRANCH   2   3
ENDBRANCH   1   2
BRANCH   1  43
ATOM     43  C   UNL A   1      42.199  27.694  33.689  1.00  0.00     0.188 C 
BRANCH  43  44
ATOM     44  C   UNL A   1      42.791  26.713  34.730  1.00  0.00     0.188 C 
BRANCH  44  45
ATOM     45  O   UNL A   1      42.519  27.042  36.083  1.00  0.00    -0.376 OA
BRANCH  45  46
ATOM     46  C   UNL A   1      43.427  27.911  36.734  1.00  0.00     0.202 C 
BRANCH  46  47
ATOM     47  C   UNL A   1      43.377  29.386  36.316  1.00  0.00     0.261 C 
BRANCH  47  48
ATOM     48  O   UNL A   1      42.481  30.222  37.064  1.00  0.00    -0.460 OA
BRANCH  48  49
ATOM     49  C   UNL A   1      43.026  31.227  37.786  1.00  0.00     0.338 C 
ATOM     50  O   UNL A   1      43.438  31.165  38.933  1.00  0.00    -0.246 OA
BRANCH  49  51
ATOM     51  C   UNL A   1      43.214  32.373  36.872  1.00  0.00     0.060 A 
ATOM     52  C   UNL A   1      44.506  32.703  36.439  1.00  0.00     0.016 A 
ATOM     53  C   UNL A   1      42.109  33.096  36.421  1.00  0.00     0.016 A 
ATOM     54  C   UNL A   1      44.694  33.777  35.565  1.00  0.00     0.010 A 
ATOM     55  C   UNL A   1      42.301  34.183  35.565  1.00  0.00     0.010 A 
ATOM     56  C   UNL A   1      43.596  34.545  35.153  1.00  0.00    -0.014 A 
BRANCH  56  57
ATOM     57  C   UNL A   1      43.810  35.831  34.446  1.00  0.00     0.031 A 
ATOM     58  C   UNL A   1      43.718  35.843  32.945  1.00  0.00     0.074 A 
ATOM     59  C   UNL A   1      44.077  36.966  35.117  1.00  0.00     0.049 A 
ATOM     60  N   UNL A   1      43.927  36.822  32.103  1.00  0.00    -0.248 NA
ATOM     61  C   UNL A   1      43.348  34.569  32.312  1.00  0.00     0.031 C 
ATOM     62  C   UNL A   1      44.140  37.092  36.571  1.00  0.00     0.029 A 
ATOM     63  N   UNL A   1      44.352  38.229  34.656  1.00  0.00    -0.354 N 
ATOM     64  C   UNL A   1      43.724  36.279  30.838  1.00  0.00     0.074 A 
ATOM     65  C   UNL A   1      43.418  34.877  31.027  1.00  0.00     0.031 C 
ATOM     66  C   UNL A   1      44.434  38.366  36.884  1.00  0.00     0.029 A 
ATOM     67  C   UNL A   1      44.628  39.133  35.654  1.00  0.00     0.049 A 
ATOM     68  H   UNL A   1      44.351  38.466  33.699  1.00  0.00     0.167 HD
ATOM     69  C   UNL A   1      43.786  36.896  29.631  1.00  0.00     0.034 A 
ATOM     70  C   UNL A   1      45.016  40.424  35.580  1.00  0.00     0.034 A 
ATOM     71  C   UNL A   1      44.113  38.290  29.462  1.00  0.00     0.049 A 
ATOM     72  C   UNL A   1      45.188  41.062  34.221  1.00  0.00     0.074 A 
ATOM     73  C   UNL A   1      44.175  39.026  28.292  1.00  0.00     0.029 A 
ATOM     74  N   UNL A   1      44.460  39.158  30.493  1.00  0.00    -0.354 N 
ATOM     75  N   UNL A   1      44.981  40.547  33.031  1.00  0.00    -0.248 NA
ATOM     76  C   UNL A   1      45.650  42.456  34.200  1.00  0.00     0.031 C 
ATOM     77  C   UNL A   1      44.649  40.306  28.602  1.00  0.00     0.029 A 
ATOM     78  C   UNL A   1      44.788  40.404  29.978  1.00  0.00     0.049 A 
ATOM     79  H   UNL A   1      44.470  38.922  31.448  1.00  0.00     0.167 HD
ATOM     80  C   UNL A   1      45.254  41.568  32.121  1.00  0.00     0.074 A 
ATOM     81  C   UNL A   1      45.633  42.727  32.903  1.00  0.00     0.031 C 
ATOM     82  C   UNL A   1      45.187  41.550  30.764  1.00  0.00     0.034 A 
BRANCH  69  83
ATOM     83  C   UNL A   1      43.562  36.038  28.407  1.00  0.00     0.023 A 
ATOM     84  C   UNL A   1      44.547  35.155  27.927  1.00  0.00     0.031 A 
ATOM     85  C   UNL A   1      42.370  36.151  27.672  1.00  0.00     0.131 A 
ATOM     86  C   UNL A   1      44.360  34.498  26.701  1.00  0.00     0.055 A 
ATOM     87  C   UNL A   1      42.151  35.421  26.502  1.00  0.00     0.041 A 
ATOM     88  F   UNL A   1      41.401  36.995  28.064  1.00  0.00    -0.206 F 
ATOM     89  C   UNL A   1      43.157  34.603  25.998  1.00  0.00     0.022 A 
BRANCH  86  90
ATOM     90  S   UNL A   1      45.781  33.659  25.944  1.00  0.00     0.124 S 
ATOM     91  O   UNL A   1      46.844  33.959  26.900  1.00  0.00    -0.237 OA
ATOM     92  O   UNL A   1      45.336  32.271  25.895  1.00  0.00    -0.237 OA
ATOM     93  O   UNL A   1      45.917  34.318  24.647  1.00  0.00    -0.744 OA
ENDBRANCH  86  90
ENDBRANCH  69  83
BRANCH  70  94
ATOM     94  C   UNL A   1      45.299  41.197  36.823  1.00  0.00     0.023 A 
ATOM     95  C   UNL A   1      46.445  40.938  37.590  1.00  0.00     0.031 A 
ATOM     96  C   UNL A   1      44.405  42.182  37.284  1.00  0.00     0.131 A 
ATOM     97  C   UNL A   1      46.654  41.632  38.792  1.00  0.00     0.055 A 
ATOM     98  C   UNL A   1      44.644  42.905  38.453  1.00  0.00     0.041 A 
ATOM     99  F   UNL A   1      43.289  42.464  36.594  1.00  0.00    -0.206 F 
ATOM    100  C   UNL A   1      45.770  42.625  39.220  1.00  0.00     0.022 A 
BRANCH  97 101
ATOM    101  S   UNL A   1      48.068  41.169  39.830  1.00  0.00     0.124 S 
ATOM    102  O   UNL A   1      47.490  40.126  40.670  1.00  0.00    -0.237 OA
ATOM    103  O   UNL A   1      49.042  40.727  38.837  1.00  0.00    -0.237 OA
ATOM    104  O   UNL A   1      48.406  42.412  40.519  1.00  0.00    -0.744 OA
ENDBRANCH  97 101
ENDBRANCH  70  94
BRANCH  82 105
ATOM    105  C   UNL A   1      45.493  42.842  30.038  1.00  0.00     0.023 A 
ATOM    106  C   UNL A   1      46.748  43.088  29.453  1.00  0.00     0.031 A 
ATOM    107  C   UNL A   1      44.510  43.842  29.932  1.00  0.00     0.131 A 
ATOM    108  C   UNL A   1      47.004  44.325  28.840  1.00  0.00     0.055 A 
ATOM    109  C   UNL A   1      44.747  45.043  29.260  1.00  0.00     0.041 A 
ATOM    110  F   UNL A   1      43.294  43.667  30.475  1.00  0.00    -0.206 F 
ATOM    111  C   UNL A   1      46.005  45.295  28.721  1.00  0.00     0.022 A 
BRANCH 108 112
ATOM    112  S   UNL A   1      48.693  44.693  28.288  1.00  0.00     0.124 S 
ATOM    113  O   UNL A   1      49.479  44.339  29.465  1.00  0.00    -0.237 OA
ATOM    114  O   UNL A   1      48.842  43.813  27.134  1.00  0.00    -0.237 OA
ATOM    115  O   UNL A   1      48.649  46.120  27.977  1.00  0.00    -0.744 OA
ENDBRANCH 108 112
ENDBRANCH  82 105
ENDBRANCH  56  57
ENDBRANCH  49  51
ENDBRANCH  48  49
ENDBRANCH  47  48
ENDBRANCH  46  47
ENDBRANCH  45  46
ENDBRANCH  44  45
ENDBRANCH  43  44
ENDBRANCH   1  43
TORSDOF 30
ENDMDL
MODEL 3
REMARK VINA RESULT:      -5.5      3.774      9.928
REMARK SMILES COc1cc([C@H]2CC(c3ccc(S(C)(=O)=O)cc3)=NN2c2ccc(C(=O)OCCOCCOCCOCCOC(=O)c3ccc(-c4c5nc(c(-c6cc(S(=O)(=O)[O-])ccc6F)c6ccc([nH]6)c(-c6cc(S(=O)(=O)[O-])ccc6F)c6nc(c(-c7cc(S(=O)(=O)[O-])ccc7F)c7ccc4[nH]7)C=C6)C=C5)cc3)cc2)cc(OC)c1OC
REMARK SMILES IDX 33 1 32 2 31 3 30 4 29 5 28 6 27 7 25 8 26 9 24 10 21 11
REMARK SMILES IDX 22 12 106 13 23 14 105 15 20 16 6 17 7 18 8 19 19 20 5 21
REMARK SMILES IDX 3 22 4 23 111 24 108 25 107 26 2 27 1 28 112 29 113 30
REMARK SMILES IDX 109 31 110 32 9 33 10 34 18 35 11 36 17 37 12 38 13 39 14 40
REMARK SMILES IDX 15 41 16 42 34 43 35 44 36 45 37 46 38 47 39 48 40 49 41 50
REMARK SMILES IDX 42 51 43 52 104 53 44 54 103 55 45 56 46 57 47 58 97 59
REMARK SMILES IDX 48 60 102 61 96 62 98 63 49 64 101 65 95 66 94 67 50 69
REMARK SMILES IDX 82 70 62 71 81 72 63 73 66 74 80 75 99 76 64 77 65 78 79 80
REMARK SMILES IDX 100 81 67 82 51 83 52 84 60 85 53 86 59 87 61 88 58 89 54 90
REMARK SMILES IDX 55 91 56 92 57 93 83 94 84 95 92 96 85 97 91 98 93 99 90 100
REMARK SMILES IDX 86 101 87 102 88 103 89 104 68 105 69 106 77 107 70 108
REMARK SMILES IDX 76 109 78 110 75 111 71 112 72 113 73 114 74 115
REMARK H PARENT 98 68 66 79
REMARK Flexibility Score: inf
ROOT
ATOM      1  O   UNL A   1      43.143  41.875  33.916  1.00  0.00    -0.377 OA
ENDROOT
BRANCH   1   2
ATOM      2  C   UNL A   1      43.500  40.958  32.894  1.00  0.00     0.188 C 
BRANCH   2   3
ATOM      3  C   UNL A   1      44.610  39.926  33.182  1.00  0.00     0.188 C 
BRANCH   3   4
ATOM      4  O   UNL A   1      44.244  38.590  32.888  1.00  0.00    -0.376 OA
BRANCH   4   5
ATOM      5  C   UNL A   1      44.719  37.982  31.701  1.00  0.00     0.202 C 
BRANCH   5   6
ATOM      6  C   UNL A   1      44.224  36.582  31.312  1.00  0.00     0.261 C 
BRANCH   6   7
ATOM      7  O   UNL A   1      43.549  36.473  30.056  1.00  0.00    -0.460 OA
BRANCH   7   8
ATOM      8  C   UNL A   1      44.314  36.352  28.950  1.00  0.00     0.338 C 
ATOM      9  O   UNL A   1      45.059  37.193  28.479  1.00  0.00    -0.246 OA
BRANCH   8  10
ATOM     10  C   UNL A   1      44.252  34.937  28.515  1.00  0.00     0.060 A 
ATOM     11  C   UNL A   1      44.225  32.240  27.754  1.00  0.00     0.060 A 
ATOM     12  C   UNL A   1      44.088  32.596  29.103  1.00  0.00     0.029 A 
ATOM     13  C   UNL A   1      44.262  33.255  26.788  1.00  0.00     0.029 A 
ATOM     14  C   UNL A   1      44.135  33.937  29.487  1.00  0.00     0.018 A 
ATOM     15  C   UNL A   1      44.263  34.599  27.159  1.00  0.00     0.018 A 
BRANCH  11  16
ATOM     16  N   UNL A   1      44.486  30.922  27.388  1.00  0.00    -0.257 N 
ATOM     17  C   UNL A   1      45.816  30.536  26.889  1.00  0.00     0.144 C 
ATOM     18  C   UNL A   1      45.733  29.001  26.911  1.00  0.00     0.091 C 
ATOM     19  C   UNL A   1      44.367  28.805  27.520  1.00  0.00     0.071 C 
ATOM     20  N   UNL A   1      43.713  29.886  27.811  1.00  0.00    -0.176 NA
BRANCH  17  21
ATOM     21  C   UNL A   1      46.944  31.148  27.726  1.00  0.00    -0.015 A 
ATOM     22  C   UNL A   1      48.561  32.962  28.100  1.00  0.00     0.164 A 
ATOM     23  C   UNL A   1      47.632  32.291  27.279  1.00  0.00     0.056 A 
ATOM     24  C   UNL A   1      48.845  32.501  29.399  1.00  0.00     0.203 A 
ATOM     25  C   UNL A   1      48.153  31.356  29.853  1.00  0.00     0.164 A 
ATOM     26  C   UNL A   1      47.224  30.701  29.022  1.00  0.00     0.056 A 
BRANCH  22  27
ATOM     27  O   UNL A   1      49.012  34.177  27.648  1.00  0.00    -0.493 OA
ATOM     28  C   UNL A   1      48.170  35.265  28.021  1.00  0.00     0.278 C 
ENDBRANCH  22  27
BRANCH  24  29
ATOM     29  O   UNL A   1      49.720  33.055  30.289  1.00  0.00    -0.490 OA
ATOM     30  C   UNL A   1      49.300  33.960  31.291  1.00  0.00     0.278 C 
ENDBRANCH  24  29
BRANCH  25  31
ATOM     31  O   UNL A   1      48.253  30.738  31.079  1.00  0.00    -0.493 OA
ATOM     32  C   UNL A   1      47.185  30.892  32.002  1.00  0.00     0.278 C 
ENDBRANCH  25  31
ENDBRANCH  17  21
BRANCH  19  33
ATOM     33  C   UNL A   1      43.803  27.454  27.689  1.00  0.00    -0.002 A 
ATOM     34  C   UNL A   1      44.346  26.398  26.944  1.00  0.00     0.011 A 
ATOM     35  C   UNL A   1      42.769  27.216  28.598  1.00  0.00     0.011 A 
ATOM     36  C   UNL A   1      43.874  25.094  27.126  1.00  0.00     0.021 A 
ATOM     37  C   UNL A   1      42.276  25.917  28.764  1.00  0.00     0.021 A 
ATOM     38  C   UNL A   1      42.834  24.862  28.032  1.00  0.00     0.067 A 
BRANCH  38  39
ATOM     39  S   UNL A   1      42.255  23.197  28.291  1.00  0.00     0.175 S 
ATOM     40  C   UNL A   1      43.038  22.239  27.021  1.00  0.00     0.163 C 
ATOM     41  O   UNL A   1      42.776  22.767  29.574  1.00  0.00    -0.224 OA
ATOM     42  O   UNL A   1      40.828  23.183  28.026  1.00  0.00    -0.224 OA
ENDBRANCH  38  39
ENDBRANCH  19  33
ENDBRANCH  11  16
ENDBRANCH   8  10
ENDBRANCH   7   8
ENDBRANCH   6   7
ENDBRANCH   5   6
ENDBRANCH   4   5
ENDBRANCH   3   4
ENDBRANCH   2   3
ENDBRANCH   1   2
BRANCH   1  43
ATOM     43  C   UNL A   1      43.920  41.958  35.109  1.00  0.00     0.188 C 
BRANCH  43  44
ATOM     44  C   UNL A   1      45.064  42.986  35.279  1.00  0.00     0.188 C 
BRANCH  44  45
ATOM     45  O   UNL A   1      45.370  43.324  36.622  1.00  0.00    -0.376 OA
BRANCH  45  46
ATOM     46  C   UNL A   1      46.147  42.401  37.362  1.00  0.00     0.202 C 
BRANCH  46  47
ATOM     47  C   UNL A   1      45.716  42.157  38.814  1.00  0.00     0.261 C 
BRANCH  47  48
ATOM     48  O   UNL A   1      45.357  40.808  39.146  1.00  0.00    -0.460 OA
BRANCH  48  49
ATOM     49  C   UNL A   1      44.055  40.465  39.031  1.00  0.00     0.338 C 
ATOM     50  O   UNL A   1      43.088  41.150  39.321  1.00  0.00    -0.246 OA
BRANCH  49  51
ATOM     51  C   UNL A   1      44.002  39.178  38.306  1.00  0.00     0.060 A 
ATOM     52  C   UNL A   1      43.262  38.116  38.842  1.00  0.00     0.016 A 
ATOM     53  C   UNL A   1      44.656  39.039  37.080  1.00  0.00     0.016 A 
ATOM     54  C   UNL A   1      43.194  36.899  38.159  1.00  0.00     0.010 A 
ATOM     55  C   UNL A   1      44.605  37.814  36.410  1.00  0.00     0.010 A 
ATOM     56  C   UNL A   1      43.896  36.731  36.957  1.00  0.00    -0.014 A 
BRANCH  56  57
ATOM     57  C   UNL A   1      44.046  35.380  36.364  1.00  0.00     0.031 A 
ATOM     58  C   UNL A   1      43.038  34.936  35.340  1.00  0.00     0.074 A 
ATOM     59  C   UNL A   1      45.052  34.563  36.722  1.00  0.00     0.049 A 
ATOM     60  N   UNL A   1      42.920  33.785  34.730  1.00  0.00    -0.248 NA
ATOM     61  C   UNL A   1      42.022  35.929  34.962  1.00  0.00     0.031 C 
ATOM     62  C   UNL A   1      46.118  34.898  37.664  1.00  0.00     0.029 A 
ATOM     63  N   UNL A   1      45.335  33.276  36.336  1.00  0.00    -0.354 N 
ATOM     64  C   UNL A   1      41.807  33.911  33.902  1.00  0.00     0.074 A 
ATOM     65  C   UNL A   1      41.268  35.236  34.125  1.00  0.00     0.031 C 
ATOM     66  C   UNL A   1      46.941  33.842  37.782  1.00  0.00     0.029 A 
ATOM     67  C   UNL A   1      46.436  32.741  36.963  1.00  0.00     0.049 A 
ATOM     68  H   UNL A   1      44.801  32.782  35.672  1.00  0.00     0.167 HD
ATOM     69  C   UNL A   1      41.288  33.006  33.036  1.00  0.00     0.034 A 
ATOM     70  C   UNL A   1      46.958  31.498  36.900  1.00  0.00     0.034 A 
ATOM     71  C   UNL A   1      41.829  31.682  32.844  1.00  0.00     0.049 A 
ATOM     72  C   UNL A   1      46.297  30.468  36.014  1.00  0.00     0.074 A 
ATOM     73  C   UNL A   1      41.403  30.695  31.974  1.00  0.00     0.029 A 
ATOM     74  N   UNL A   1      42.901  31.150  33.552  1.00  0.00    -0.354 N 
ATOM     75  N   UNL A   1      45.256  30.599  35.224  1.00  0.00    -0.248 NA
ATOM     76  C   UNL A   1      46.884  29.122  36.015  1.00  0.00     0.031 C 
ATOM     77  C   UNL A   1      42.152  29.538  32.221  1.00  0.00     0.029 A 
ATOM     78  C   UNL A   1      43.114  29.831  33.175  1.00  0.00     0.049 A 
ATOM     79  H   UNL A   1      43.432  31.636  34.222  1.00  0.00     0.167 HD
ATOM     80  C   UNL A   1      45.086  29.360  34.608  1.00  0.00     0.074 A 
ATOM     81  C   UNL A   1      46.137  28.500  35.114  1.00  0.00     0.031 C 
ATOM     82  C   UNL A   1      44.152  28.972  33.700  1.00  0.00     0.034 A 
BRANCH  69  83
ATOM     83  C   UNL A   1      40.033  33.404  32.294  1.00  0.00     0.023 A 
ATOM     84  C   UNL A   1      38.760  32.959  32.692  1.00  0.00     0.031 A 
ATOM     85  C   UNL A   1      40.118  34.190  31.131  1.00  0.00     0.131 A 
ATOM     86  C   UNL A   1      37.642  33.221  31.884  1.00  0.00     0.055 A 
ATOM     87  C   UNL A   1      38.988  34.528  30.384  1.00  0.00     0.041 A 
ATOM     88  F   UNL A   1      41.308  34.624  30.684  1.00  0.00    -0.206 F 
ATOM     89  C   UNL A   1      37.743  34.025  30.747  1.00  0.00     0.022 A 
BRANCH  86  90
ATOM     90  S   UNL A   1      36.095  32.338  32.236  1.00  0.00     0.124 S 
ATOM     91  O   UNL A   1      36.431  31.635  33.472  1.00  0.00    -0.237 OA
ATOM     92  O   UNL A   1      35.133  33.427  32.360  1.00  0.00    -0.237 OA
ATOM     93  O   UNL A   1      35.920  31.477  31.068  1.00  0.00    -0.744 OA
ENDBRANCH  86  90
ENDBRANCH  69  83
BRANCH  70  94
ATOM     94  C   UNL A   1      48.152  31.141  37.718  1.00  0.00     0.023 A 
ATOM     95  C   UNL A   1      48.013  30.672  39.033  1.00  0.00     0.031 A 
ATOM     96  C   UNL A   1      49.455  31.300  37.209  1.00  0.00     0.131 A 
ATOM     97  C   UNL A   1      49.155  30.408  39.807  1.00  0.00     0.055 A 
ATOM     98  C   UNL A   1      50.585  30.987  37.964  1.00  0.00     0.041 A 
ATOM     99  F   UNL A   1      49.646  31.753  35.960  1.00  0.00    -0.206 F 
ATOM    100  C   UNL A   1      50.439  30.546  39.276  1.00  0.00     0.022 A 
BRANCH  97 101
ATOM    101  S   UNL A   1      48.939  29.945  41.547  1.00  0.00     0.124 S 
ATOM    102  O   UNL A   1      48.814  31.249  42.188  1.00  0.00    -0.237 OA
ATOM    103  O   UNL A   1      47.727  29.135  41.498  1.00  0.00    -0.237 OA
ATOM    104  O   UNL A   1      50.163  29.211  41.858  1.00  0.00    -0.744 OA
ENDBRANCH  97 101
ENDBRANCH  70  94
BRANCH  82 105
ATOM    105  C   UNL A   1      44.252  27.562  33.162  1.00  0.00     0.023 A 
ATOM    106  C   UNL A   1      43.832  26.448  33.910  1.00  0.00     0.031 A 
ATOM    107  C   UNL A   1      44.780  27.332  31.878  1.00  0.00     0.131 A 
ATOM    108  C   UNL A   1      43.998  25.154  33.392  1.00  0.00     0.055 A 
ATOM    109  C   UNL A   1      44.878  26.048  31.340  1.00  0.00     0.041 A 
ATOM    110  F   UNL A   1      45.203  28.355  31.119  1.00  0.00    -0.206 F 
ATOM    111  C   UNL A   1      44.498  24.948  32.103  1.00  0.00     0.022 A 
BRANCH 108 112
ATOM    112  S   UNL A   1      43.646  23.732  34.463  1.00  0.00     0.124 S 
ATOM    113  O   UNL A   1      44.617  23.916  35.537  1.00  0.00    -0.237 OA
ATOM    114  O   UNL A   1      42.249  23.950  34.823  1.00  0.00    -0.237 OA
ATOM    115  O   UNL A   1      43.890  22.581  33.597  1.00  0.00    -0.744 OA
ENDBRANCH 108 112
ENDBRANCH  82 105
ENDBRANCH  56  57
ENDBRANCH  49  51
ENDBRANCH  48  49
ENDBRANCH  47  48
ENDBRANCH  46  47
ENDBRANCH  45  46
ENDBRANCH  44  45
ENDBRANCH  43  44
ENDBRANCH   1  43
TORSDOF 30
ENDMDL
