MODEL 1
REMARK VINA RESULT:      -9.3      0.000      0.000
REMARK SMILES O=C(OCCOCCOCCOCCOC(=O)c1ccccc1/C=C1/SC(=S)N(C2CCCCC2)C1=O)c1ccc(-c2c3nc(c(-c4cc(S(=O)(=O)[O-])ccc4F)c4ccc([nH]4)c(-c4cc(S(=O)(=O)[O-])ccc4F)c4nc(c(-c5cc(S(=O)(=O)[O-])ccc5F)c5ccc2[nH]5)C=C4)C=C3)cc1
REMARK SMILES IDX 8 1 7 2 6 3 5 4 4 5 3 6 2 7 1 8 38 9 39 10 100 11 40 12
REMARK SMILES IDX 99 13 41 14 42 15 43 16 93 17 44 18 98 19 92 20 94 21 45 22
REMARK SMILES IDX 97 23 91 24 90 25 46 27 78 28 58 29 77 30 59 31 62 32 76 33
REMARK SMILES IDX 95 34 60 35 61 36 75 38 96 39 63 40 47 41 48 42 56 43 49 44
REMARK SMILES IDX 55 45 57 46 54 47 50 48 51 49 52 50 53 51 79 52 80 53 88 54
REMARK SMILES IDX 81 55 87 56 89 57 86 58 82 59 83 60 84 61 85 62 64 63 65 64
REMARK SMILES IDX 73 65 66 66 72 67 74 68 71 69 67 70 68 71 69 72 70 73 9 74
REMARK SMILES IDX 10 75 11 76 12 77 13 78 14 79 15 80 16 81 17 82 18 83 19 84
REMARK SMILES IDX 23 85 20 86 22 87 21 88 24 89 25 90 26 91 36 92 27 93 29 94
REMARK SMILES IDX 37 95 28 96 30 97 31 98 35 99 32 100 34 101 33 102
REMARK H PARENT 94 26 62 37
REMARK Flexibility Score: inf
ROOT
ATOM      1  C   UNL A   1      35.114  30.847  27.627  1.00  0.00     0.188 C 
ENDROOT
BRANCH   1   2
ATOM      2  C   UNL A   1      34.641  32.115  28.338  1.00  0.00     0.188 C 
BRANCH   2   3
ATOM      3  O   UNL A   1      35.047  33.283  27.631  1.00  0.00    -0.376 OA
BRANCH   3   4
ATOM      4  C   UNL A   1      34.476  34.528  28.025  1.00  0.00     0.202 C 
BRANCH   4   5
ATOM      5  C   UNL A   1      32.958  34.510  28.186  1.00  0.00     0.261 C 
BRANCH   5   6
ATOM      6  O   UNL A   1      32.539  34.713  29.542  1.00  0.00    -0.460 OA
BRANCH   6   7
ATOM      7  C   UNL A   1      33.239  35.286  30.554  1.00  0.00     0.338 C 
ATOM      8  O   UNL A   1      32.922  36.426  30.899  1.00  0.00    -0.246 OA
BRANCH   7   9
ATOM      9  C   UNL A   1      34.369  34.631  31.284  1.00  0.00     0.060 A 
ATOM     10  C   UNL A   1      35.547  35.254  31.692  1.00  0.00     0.016 A 
ATOM     11  C   UNL A   1      34.187  33.286  31.644  1.00  0.00     0.016 A 
ATOM     12  C   UNL A   1      36.550  34.571  32.354  1.00  0.00     0.010 A 
ATOM     13  C   UNL A   1      35.184  32.584  32.332  1.00  0.00     0.010 A 
ATOM     14  C   UNL A   1      36.387  33.225  32.645  1.00  0.00    -0.014 A 
BRANCH  14  15
ATOM     15  C   UNL A   1      37.599  32.486  33.031  1.00  0.00     0.031 A 
ATOM     16  C   UNL A   1      38.162  32.773  34.391  1.00  0.00     0.074 A 
ATOM     17  C   UNL A   1      38.029  31.460  32.277  1.00  0.00     0.049 A 
ATOM     18  N   UNL A   1      39.235  32.308  34.963  1.00  0.00    -0.248 NA
ATOM     19  C   UNL A   1      37.390  33.710  35.227  1.00  0.00     0.031 C 
ATOM     20  C   UNL A   1      37.392  30.998  31.039  1.00  0.00     0.029 A 
ATOM     21  N   UNL A   1      39.065  30.589  32.463  1.00  0.00    -0.354 N 
ATOM     22  C   UNL A   1      39.291  32.929  36.207  1.00  0.00     0.074 A 
ATOM     23  C   UNL A   1      38.153  33.812  36.300  1.00  0.00     0.031 C 
ATOM     24  C   UNL A   1      38.043  29.911  30.592  1.00  0.00     0.029 A 
ATOM     25  C   UNL A   1      39.188  29.660  31.456  1.00  0.00     0.049 A 
ATOM     26  H   UNL A   1      39.666  30.623  33.242  1.00  0.00     0.167 HD
ATOM     27  C   UNL A   1      40.226  32.771  37.172  1.00  0.00     0.034 A 
ATOM     28  C   UNL A   1      40.157  28.748  31.248  1.00  0.00     0.034 A 
ATOM     29  C   UNL A   1      41.343  31.877  37.013  1.00  0.00     0.049 A 
ATOM     30  C   UNL A   1      41.273  28.698  32.262  1.00  0.00     0.074 A 
ATOM     31  C   UNL A   1      42.425  31.675  37.848  1.00  0.00     0.029 A 
ATOM     32  N   UNL A   1      41.517  31.029  35.920  1.00  0.00    -0.354 N 
ATOM     33  N   UNL A   1      41.400  29.372  33.386  1.00  0.00    -0.248 NA
ATOM     34  C   UNL A   1      42.379  27.780  31.982  1.00  0.00     0.031 C 
ATOM     35  C   UNL A   1      43.286  30.765  37.223  1.00  0.00     0.029 A 
ATOM     36  C   UNL A   1      42.701  30.326  36.042  1.00  0.00     0.049 A 
ATOM     37  H   UNL A   1      40.887  30.944  35.168  1.00  0.00     0.167 HD
ATOM     38  C   UNL A   1      42.589  28.939  33.961  1.00  0.00     0.074 A 
ATOM     39  C   UNL A   1      43.127  27.930  33.065  1.00  0.00     0.031 C 
ATOM     40  C   UNL A   1      43.191  29.331  35.115  1.00  0.00     0.034 A 
BRANCH  27  41
ATOM     41  C   UNL A   1      40.121  33.677  38.377  1.00  0.00     0.023 A 
ATOM     42  C   UNL A   1      39.336  33.347  39.498  1.00  0.00     0.031 A 
ATOM     43  C   UNL A   1      40.705  34.955  38.338  1.00  0.00     0.131 A 
ATOM     44  C   UNL A   1      39.073  34.319  40.478  1.00  0.00     0.055 A 
ATOM     45  C   UNL A   1      40.517  35.885  39.364  1.00  0.00     0.041 A 
ATOM     46  F   UNL A   1      41.432  35.344  37.278  1.00  0.00    -0.206 F 
ATOM     47  C   UNL A   1      39.679  35.576  40.431  1.00  0.00     0.022 A 
BRANCH  44  48
ATOM     48  S   UNL A   1      37.776  33.988  41.704  1.00  0.00     0.124 S 
ATOM     49  O   UNL A   1      38.460  33.071  42.616  1.00  0.00    -0.237 OA
ATOM     50  O   UNL A   1      37.492  35.316  42.233  1.00  0.00    -0.237 OA
ATOM     51  O   UNL A   1      36.703  33.386  40.917  1.00  0.00    -0.744 OA
ENDBRANCH  44  48
ENDBRANCH  27  41
BRANCH  28  52
ATOM     52  C   UNL A   1      40.165  27.892  30.026  1.00  0.00     0.023 A 
ATOM     53  C   UNL A   1      40.975  28.202  28.921  1.00  0.00     0.031 A 
ATOM     54  C   UNL A   1      39.314  26.774  29.915  1.00  0.00     0.131 A 
ATOM     55  C   UNL A   1      40.884  27.437  27.746  1.00  0.00     0.055 A 
ATOM     56  C   UNL A   1      39.273  25.980  28.767  1.00  0.00     0.041 A 
ATOM     57  F   UNL A   1      38.506  26.430  30.931  1.00  0.00    -0.206 F 
ATOM     58  C   UNL A   1      40.051  26.320  27.667  1.00  0.00     0.022 A 
BRANCH  55  59
ATOM     59  S   UNL A   1      41.799  27.986  26.279  1.00  0.00     0.124 S 
ATOM     60  O   UNL A   1      43.143  28.165  26.816  1.00  0.00    -0.237 OA
ATOM     61  O   UNL A   1      41.615  26.861  25.368  1.00  0.00    -0.237 OA
ATOM     62  O   UNL A   1      41.113  29.217  25.891  1.00  0.00    -0.744 OA
ENDBRANCH  55  59
ENDBRANCH  28  52
BRANCH  40  63
ATOM     63  C   UNL A   1      44.463  28.613  35.483  1.00  0.00     0.023 A 
ATOM     64  C   UNL A   1      44.446  27.395  36.178  1.00  0.00     0.031 A 
ATOM     65  C   UNL A   1      45.707  29.170  35.137  1.00  0.00     0.131 A 
ATOM     66  C   UNL A   1      45.655  26.803  36.568  1.00  0.00     0.055 A 
ATOM     67  C   UNL A   1      46.905  28.537  35.459  1.00  0.00     0.041 A 
ATOM     68  F   UNL A   1      45.774  30.335  34.474  1.00  0.00    -0.206 F 
ATOM     69  C   UNL A   1      46.884  27.354  36.193  1.00  0.00     0.022 A 
BRANCH  66  70
ATOM     70  S   UNL A   1      45.599  25.366  37.670  1.00  0.00     0.124 S 
ATOM     71  O   UNL A   1      47.012  25.156  37.965  1.00  0.00    -0.237 OA
ATOM     72  O   UNL A   1      44.783  25.854  38.778  1.00  0.00    -0.237 OA
ATOM     73  O   UNL A   1      44.974  24.331  36.850  1.00  0.00    -0.744 OA
ENDBRANCH  66  70
ENDBRANCH  40  63
ENDBRANCH  14  15
ENDBRANCH   7   9
ENDBRANCH   6   7
ENDBRANCH   5   6
ENDBRANCH   4   5
ENDBRANCH   3   4
ENDBRANCH   2   3
ENDBRANCH   1   2
BRANCH   1  74
ATOM     74  O   UNL A   1      34.083  30.055  27.041  1.00  0.00    -0.377 OA
BRANCH  74  75
ATOM     75  C   UNL A   1      32.862  30.729  26.748  1.00  0.00     0.188 C 
BRANCH  75  76
ATOM     76  C   UNL A   1      31.807  30.027  25.854  1.00  0.00     0.188 C 
BRANCH  76  77
ATOM     77  O   UNL A   1      31.408  28.751  26.323  1.00  0.00    -0.376 OA
BRANCH  77  78
ATOM     78  C   UNL A   1      31.263  27.733  25.343  1.00  0.00     0.202 C 
BRANCH  78  79
ATOM     79  C   UNL A   1      30.449  28.078  24.089  1.00  0.00     0.261 C 
BRANCH  79  80
ATOM     80  O   UNL A   1      30.766  27.367  22.878  1.00  0.00    -0.460 OA
BRANCH  80  81
ATOM     81  C   UNL A   1      32.050  27.233  22.476  1.00  0.00     0.338 C 
ATOM     82  O   UNL A   1      32.971  27.986  22.737  1.00  0.00    -0.246 OA
BRANCH  81  83
ATOM     83  C   UNL A   1      32.182  25.917  21.782  1.00  0.00     0.067 A 
ATOM     84  C   UNL A   1      32.524  25.957  20.421  1.00  0.00     0.016 A 
ATOM     85  C   UNL A   1      32.118  24.682  22.472  1.00  0.00    -0.010 A 
ATOM     86  C   UNL A   1      32.903  24.787  19.763  1.00  0.00     0.001 A 
ATOM     87  C   UNL A   1      32.503  23.519  21.789  1.00  0.00     0.009 A 
ATOM     88  C   UNL A   1      32.906  23.575  20.450  1.00  0.00     0.001 A 
BRANCH  85  89
ATOM     89  C   UNL A   1      31.726  24.565  23.892  1.00  0.00     0.030 C 
ATOM     90  C   UNL A   1      32.599  24.378  24.893  1.00  0.00     0.081 C 
ATOM     91  S   UNL A   1      32.196  23.801  26.455  1.00  0.00    -0.054 SA
ATOM     92  C   UNL A   1      34.075  24.355  24.750  1.00  0.00     0.266 C 
ATOM     93  C   UNL A   1      33.809  23.078  26.664  1.00  0.00     0.148 C 
ATOM     94  N   UNL A   1      34.609  23.389  25.583  1.00  0.00    -0.290 N 
ATOM     95  O   UNL A   1      34.689  25.109  24.008  1.00  0.00    -0.268 OA
ATOM     96  S   UNL A   1      34.154  22.196  28.036  1.00  0.00    -0.052 S 
BRANCH  94  97
ATOM     97  C   UNL A   1      36.001  22.965  25.293  1.00  0.00     0.092 C 
ATOM     98  C   UNL A   1      36.999  23.698  26.193  1.00  0.00     0.025 C 
ATOM     99  C   UNL A   1      36.232  21.441  25.217  1.00  0.00     0.025 C 
ATOM    100  C   UNL A   1      38.437  23.295  25.889  1.00  0.00     0.002 C 
ATOM    101  C   UNL A   1      37.698  21.079  24.979  1.00  0.00     0.002 C 
ATOM    102  C   UNL A   1      38.612  21.786  25.973  1.00  0.00     0.000 C 
ENDBRANCH  94  97
ENDBRANCH  85  89
ENDBRANCH  81  83
ENDBRANCH  80  81
ENDBRANCH  79  80
ENDBRANCH  78  79
ENDBRANCH  77  78
ENDBRANCH  76  77
ENDBRANCH  75  76
ENDBRANCH  74  75
ENDBRANCH   1  74
TORSDOF 25
ENDMDL
MODEL 2
REMARK VINA RESULT:      -8.7      1.641      2.015
REMARK SMILES O=C(OCCOCCOCCOCCOC(=O)c1ccccc1/C=C1/SC(=S)N(C2CCCCC2)C1=O)c1ccc(-c2c3nc(c(-c4cc(S(=O)(=O)[O-])ccc4F)c4ccc([nH]4)c(-c4cc(S(=O)(=O)[O-])ccc4F)c4nc(c(-c5cc(S(=O)(=O)[O-])ccc5F)c5ccc2[nH]5)C=C4)C=C3)cc1
REMARK SMILES IDX 8 1 7 2 6 3 5 4 4 5 3 6 2 7 1 8 38 9 39 10 100 11 40 12
REMARK SMILES IDX 99 13 41 14 42 15 43 16 93 17 44 18 98 19 92 20 94 21 45 22
REMARK SMILES IDX 97 23 91 24 90 25 46 27 78 28 58 29 77 30 59 31 62 32 76 33
REMARK SMILES IDX 95 34 60 35 61 36 75 38 96 39 63 40 47 41 48 42 56 43 49 44
REMARK SMILES IDX 55 45 57 46 54 47 50 48 51 49 52 50 53 51 79 52 80 53 88 54
REMARK SMILES IDX 81 55 87 56 89 57 86 58 82 59 83 60 84 61 85 62 64 63 65 64
REMARK SMILES IDX 73 65 66 66 72 67 74 68 71 69 67 70 68 71 69 72 70 73 9 74
REMARK SMILES IDX 10 75 11 76 12 77 13 78 14 79 15 80 16 81 17 82 18 83 19 84
REMARK SMILES IDX 23 85 20 86 22 87 21 88 24 89 25 90 26 91 36 92 27 93 29 94
REMARK SMILES IDX 37 95 28 96 30 97 31 98 35 99 32 100 34 101 33 102
REMARK H PARENT 94 26 62 37
REMARK Flexibility Score: inf
ROOT
ATOM      1  C   UNL A   1      35.208  30.839  27.640  1.00  0.00     0.188 C 
ENDROOT
BRANCH   1   2
ATOM      2  C   UNL A   1      34.768  32.113  28.363  1.00  0.00     0.188 C 
BRANCH   2   3
ATOM      3  O   UNL A   1      35.138  33.275  27.627  1.00  0.00    -0.376 OA
BRANCH   3   4
ATOM      4  C   UNL A   1      34.485  34.500  27.953  1.00  0.00     0.202 C 
BRANCH   4   5
ATOM      5  C   UNL A   1      32.962  34.419  27.997  1.00  0.00     0.261 C 
BRANCH   5   6
ATOM      6  O   UNL A   1      32.434  34.577  29.321  1.00  0.00    -0.460 OA
BRANCH   6   7
ATOM      7  C   UNL A   1      32.985  35.249  30.364  1.00  0.00     0.338 C 
ATOM      8  O   UNL A   1      32.518  36.353  30.648  1.00  0.00    -0.246 OA
BRANCH   7   9
ATOM      9  C   UNL A   1      34.121  34.742  31.195  1.00  0.00     0.060 A 
ATOM     10  C   UNL A   1      35.126  35.521  31.767  1.00  0.00     0.016 A 
ATOM     11  C   UNL A   1      34.129  33.366  31.475  1.00  0.00     0.016 A 
ATOM     12  C   UNL A   1      36.149  34.970  32.514  1.00  0.00     0.010 A 
ATOM     13  C   UNL A   1      35.146  32.794  32.247  1.00  0.00     0.010 A 
ATOM     14  C   UNL A   1      36.183  33.601  32.728  1.00  0.00    -0.014 A 
BRANCH  14  15
ATOM     15  C   UNL A   1      37.452  33.045  33.224  1.00  0.00     0.031 A 
ATOM     16  C   UNL A   1      37.724  33.190  34.692  1.00  0.00     0.074 A 
ATOM     17  C   UNL A   1      38.202  32.266  32.427  1.00  0.00     0.049 A 
ATOM     18  N   UNL A   1      38.771  32.840  35.382  1.00  0.00    -0.248 NA
ATOM     19  C   UNL A   1      36.651  33.804  35.493  1.00  0.00     0.031 C 
ATOM     20  C   UNL A   1      37.876  31.918  31.040  1.00  0.00     0.029 A 
ATOM     21  N   UNL A   1      39.360  31.585  32.678  1.00  0.00    -0.354 N 
ATOM     22  C   UNL A   1      38.502  33.233  36.690  1.00  0.00     0.074 A 
ATOM     23  C   UNL A   1      37.200  33.857  36.693  1.00  0.00     0.031 C 
ATOM     24  C   UNL A   1      38.805  31.067  30.573  1.00  0.00     0.029 A 
ATOM     25  C   UNL A   1      39.832  30.887  31.591  1.00  0.00     0.049 A 
ATOM     26  H   UNL A   1      39.812  31.593  33.552  1.00  0.00     0.167 HD
ATOM     27  C   UNL A   1      39.290  33.085  37.780  1.00  0.00     0.034 A 
ATOM     28  C   UNL A   1      40.993  30.223  31.441  1.00  0.00     0.034 A 
ATOM     29  C   UNL A   1      40.583  32.458  37.707  1.00  0.00     0.049 A 
ATOM     30  C   UNL A   1      41.926  30.205  32.627  1.00  0.00     0.074 A 
ATOM     31  C   UNL A   1      41.542  32.318  38.691  1.00  0.00     0.029 A 
ATOM     32  N   UNL A   1      41.100  31.862  36.557  1.00  0.00    -0.354 N 
ATOM     33  N   UNL A   1      41.731  30.684  33.838  1.00  0.00    -0.248 NA
ATOM     34  C   UNL A   1      43.232  29.573  32.431  1.00  0.00     0.031 C 
ATOM     35  C   UNL A   1      42.663  31.709  38.116  1.00  0.00     0.029 A 
ATOM     36  C   UNL A   1      42.374  31.383  36.797  1.00  0.00     0.049 A 
ATOM     37  H   UNL A   1      40.626  31.794  35.697  1.00  0.00     0.167 HD
ATOM     38  C   UNL A   1      42.883  30.386  34.557  1.00  0.00     0.074 A 
ATOM     39  C   UNL A   1      43.755  29.668  33.644  1.00  0.00     0.031 C 
ATOM     40  C   UNL A   1      43.203  30.675  35.846  1.00  0.00     0.034 A 
BRANCH  27  41
ATOM     41  C   UNL A   1      38.810  33.730  39.059  1.00  0.00     0.023 A 
ATOM     42  C   UNL A   1      39.257  34.997  39.476  1.00  0.00     0.031 A 
ATOM     43  C   UNL A   1      37.997  32.998  39.943  1.00  0.00     0.131 A 
ATOM     44  C   UNL A   1      38.977  35.445  40.778  1.00  0.00     0.055 A 
ATOM     45  C   UNL A   1      37.643  33.491  41.201  1.00  0.00     0.041 A 
ATOM     46  F   UNL A   1      37.570  31.767  39.620  1.00  0.00    -0.206 F 
ATOM     47  C   UNL A   1      38.152  34.712  41.633  1.00  0.00     0.022 A 
BRANCH  44  48
ATOM     48  S   UNL A   1      39.867  36.898  41.407  1.00  0.00     0.124 S 
ATOM     49  O   UNL A   1      38.972  37.985  41.012  1.00  0.00    -0.237 OA
ATOM     50  O   UNL A   1      39.945  36.627  42.838  1.00  0.00    -0.237 OA
ATOM     51  O   UNL A   1      41.140  36.859  40.693  1.00  0.00    -0.744 OA
ENDBRANCH  44  48
ENDBRANCH  27  41
BRANCH  28  52
ATOM     52  C   UNL A   1      41.372  29.611  30.133  1.00  0.00     0.023 A 
ATOM     53  C   UNL A   1      40.888  28.350  29.748  1.00  0.00     0.031 A 
ATOM     54  C   UNL A   1      42.276  30.254  29.264  1.00  0.00     0.131 A 
ATOM     55  C   UNL A   1      41.343  27.755  28.559  1.00  0.00     0.055 A 
ATOM     56  C   UNL A   1      42.677  29.685  28.053  1.00  0.00     0.041 A 
ATOM     57  F   UNL A   1      42.783  31.457  29.578  1.00  0.00    -0.206 F 
ATOM     58  C   UNL A   1      42.222  28.420  27.702  1.00  0.00     0.022 A 
BRANCH  55  59
ATOM     59  S   UNL A   1      40.849  26.047  28.197  1.00  0.00     0.124 S 
ATOM     60  O   UNL A   1      39.584  25.946  28.915  1.00  0.00    -0.237 OA
ATOM     61  O   UNL A   1      40.762  26.060  26.740  1.00  0.00    -0.237 OA
ATOM     62  O   UNL A   1      41.945  25.252  28.747  1.00  0.00    -0.744 OA
ENDBRANCH  55  59
ENDBRANCH  28  52
BRANCH  40  63
ATOM     63  C   UNL A   1      44.527  30.155  36.340  1.00  0.00     0.023 A 
ATOM     64  C   UNL A   1      44.645  28.892  36.939  1.00  0.00     0.031 A 
ATOM     65  C   UNL A   1      45.682  30.946  36.213  1.00  0.00     0.131 A 
ATOM     66  C   UNL A   1      45.882  28.482  37.454  1.00  0.00     0.055 A 
ATOM     67  C   UNL A   1      46.925  30.500  36.656  1.00  0.00     0.041 A 
ATOM     68  F   UNL A   1      45.620  32.162  35.649  1.00  0.00    -0.206 F 
ATOM     69  C   UNL A   1      47.027  29.267  37.295  1.00  0.00     0.022 A 
BRANCH  66  70
ATOM     70  S   UNL A   1      45.949  26.960  38.435  1.00  0.00     0.124 S 
ATOM     71  O   UNL A   1      47.353  26.582  38.311  1.00  0.00    -0.237 OA
ATOM     72  O   UNL A   1      45.527  27.420  39.754  1.00  0.00    -0.237 OA
ATOM     73  O   UNL A   1      45.006  26.074  37.756  1.00  0.00    -0.744 OA
ENDBRANCH  66  70
ENDBRANCH  40  63
ENDBRANCH  14  15
ENDBRANCH   7   9
ENDBRANCH   6   7
ENDBRANCH   5   6
ENDBRANCH   4   5
ENDBRANCH   3   4
ENDBRANCH   2   3
ENDBRANCH   1   2
BRANCH   1  74
ATOM     74  O   UNL A   1      34.154  30.070  27.064  1.00  0.00    -0.377 OA
BRANCH  74  75
ATOM     75  C   UNL A   1      32.939  30.765  26.801  1.00  0.00     0.188 C 
BRANCH  75  76
ATOM     76  C   UNL A   1      31.843  30.075  25.948  1.00  0.00     0.188 C 
BRANCH  76  77
ATOM     77  O   UNL A   1      31.461  28.795  26.423  1.00  0.00    -0.376 OA
BRANCH  77  78
ATOM     78  C   UNL A   1      31.293  27.781  25.443  1.00  0.00     0.202 C 
BRANCH  78  79
ATOM     79  C   UNL A   1      30.486  28.143  24.190  1.00  0.00     0.261 C 
BRANCH  79  80
ATOM     80  O   UNL A   1      30.792  27.430  22.977  1.00  0.00    -0.460 OA
BRANCH  80  81
ATOM     81  C   UNL A   1      32.073  27.295  22.565  1.00  0.00     0.338 C 
ATOM     82  O   UNL A   1      33.003  28.030  22.843  1.00  0.00    -0.246 OA
BRANCH  81  83
ATOM     83  C   UNL A   1      32.187  25.998  21.833  1.00  0.00     0.067 A 
ATOM     84  C   UNL A   1      32.539  26.073  20.475  1.00  0.00     0.016 A 
ATOM     85  C   UNL A   1      32.099  24.744  22.485  1.00  0.00    -0.010 A 
ATOM     86  C   UNL A   1      32.903  24.918  19.785  1.00  0.00     0.001 A 
ATOM     87  C   UNL A   1      32.469  23.595  21.769  1.00  0.00     0.009 A 
ATOM     88  C   UNL A   1      32.881  23.685  20.435  1.00  0.00     0.001 A 
BRANCH  85  89
ATOM     89  C   UNL A   1      31.695  24.591  23.898  1.00  0.00     0.030 C 
ATOM     90  C   UNL A   1      32.561  24.383  24.901  1.00  0.00     0.081 C 
ATOM     91  S   UNL A   1      32.148  23.767  26.446  1.00  0.00    -0.054 SA
ATOM     92  C   UNL A   1      34.038  24.369  24.769  1.00  0.00     0.266 C 
ATOM     93  C   UNL A   1      33.761  23.044  26.649  1.00  0.00     0.148 C 
ATOM     94  N   UNL A   1      34.569  23.384  25.584  1.00  0.00    -0.290 N 
ATOM     95  O   UNL A   1      34.655  25.142  24.051  1.00  0.00    -0.268 OA
ATOM     96  S   UNL A   1      34.099  22.131  28.002  1.00  0.00    -0.052 S 
BRANCH  94  97
ATOM     97  C   UNL A   1      35.965  22.973  25.294  1.00  0.00     0.092 C 
ATOM     98  C   UNL A   1      36.956  23.725  26.185  1.00  0.00     0.025 C 
ATOM     99  C   UNL A   1      36.212  21.451  25.232  1.00  0.00     0.025 C 
ATOM    100  C   UNL A   1      38.398  23.335  25.882  1.00  0.00     0.002 C 
ATOM    101  C   UNL A   1      37.682  21.103  24.994  1.00  0.00     0.002 C 
ATOM    102  C   UNL A   1      38.590  21.828  25.980  1.00  0.00     0.000 C 
ENDBRANCH  94  97
ENDBRANCH  85  89
ENDBRANCH  81  83
ENDBRANCH  80  81
ENDBRANCH  79  80
ENDBRANCH  78  79
ENDBRANCH  77  78
ENDBRANCH  76  77
ENDBRANCH  75  76
ENDBRANCH  74  75
ENDBRANCH   1  74
TORSDOF 25
ENDMDL
MODEL 3
REMARK VINA RESULT:      -8.7      4.599     10.529
REMARK SMILES O=C(OCCOCCOCCOCCOC(=O)c1ccccc1/C=C1/SC(=S)N(C2CCCCC2)C1=O)c1ccc(-c2c3nc(c(-c4cc(S(=O)(=O)[O-])ccc4F)c4ccc([nH]4)c(-c4cc(S(=O)(=O)[O-])ccc4F)c4nc(c(-c5cc(S(=O)(=O)[O-])ccc5F)c5ccc2[nH]5)C=C4)C=C3)cc1
REMARK SMILES IDX 8 1 7 2 6 3 5 4 4 5 3 6 2 7 1 8 38 9 39 10 100 11 40 12
REMARK SMILES IDX 99 13 41 14 42 15 43 16 93 17 44 18 98 19 92 20 94 21 45 22
REMARK SMILES IDX 97 23 91 24 90 25 46 27 78 28 58 29 77 30 59 31 62 32 76 33
REMARK SMILES IDX 95 34 60 35 61 36 75 38 96 39 63 40 47 41 48 42 56 43 49 44
REMARK SMILES IDX 55 45 57 46 54 47 50 48 51 49 52 50 53 51 79 52 80 53 88 54
REMARK SMILES IDX 81 55 87 56 89 57 86 58 82 59 83 60 84 61 85 62 64 63 65 64
REMARK SMILES IDX 73 65 66 66 72 67 74 68 71 69 67 70 68 71 69 72 70 73 9 74
REMARK SMILES IDX 10 75 11 76 12 77 13 78 14 79 15 80 16 81 17 82 18 83 19 84
REMARK SMILES IDX 23 85 20 86 22 87 21 88 24 89 25 90 26 91 36 92 27 93 29 94
REMARK SMILES IDX 37 95 28 96 30 97 31 98 35 99 32 100 34 101 33 102
REMARK H PARENT 94 26 62 37
REMARK Flexibility Score: inf
ROOT
ATOM      1  C   UNL A   1      35.114  23.367  25.300  1.00  0.00     0.188 C 
ENDROOT
BRANCH   1   2
ATOM      2  C   UNL A   1      35.327  22.143  24.409  1.00  0.00     0.188 C 
BRANCH   2   3
ATOM      3  O   UNL A   1      36.713  21.892  24.203  1.00  0.00    -0.376 OA
BRANCH   3   4
ATOM      4  C   UNL A   1      37.458  21.355  25.295  1.00  0.00     0.202 C 
BRANCH   4   5
ATOM      5  C   UNL A   1      38.563  22.267  25.821  1.00  0.00     0.261 C 
BRANCH   5   6
ATOM      6  O   UNL A   1      39.728  21.544  26.243  1.00  0.00    -0.460 OA
BRANCH   6   7
ATOM      7  C   UNL A   1      41.025  21.933  26.158  1.00  0.00     0.338 C 
ATOM      8  O   UNL A   1      41.770  21.294  25.413  1.00  0.00    -0.246 OA
BRANCH   7   9
ATOM      9  C   UNL A   1      41.618  23.085  26.906  1.00  0.00     0.060 A 
ATOM     10  C   UNL A   1      42.933  23.536  26.803  1.00  0.00     0.016 A 
ATOM     11  C   UNL A   1      40.744  23.813  27.731  1.00  0.00     0.016 A 
ATOM     12  C   UNL A   1      43.404  24.606  27.542  1.00  0.00     0.010 A 
ATOM     13  C   UNL A   1      41.200  24.911  28.470  1.00  0.00     0.010 A 
ATOM     14  C   UNL A   1      42.549  25.275  28.404  1.00  0.00    -0.014 A 
BRANCH  14  15
ATOM     15  C   UNL A   1      43.179  26.160  29.395  1.00  0.00     0.031 A 
ATOM     16  C   UNL A   1      43.852  25.498  30.561  1.00  0.00     0.074 A 
ATOM     17  C   UNL A   1      43.320  27.471  29.134  1.00  0.00     0.049 A 
ATOM     18  N   UNL A   1      44.438  26.029  31.596  1.00  0.00    -0.248 NA
ATOM     19  C   UNL A   1      43.877  24.025  30.544  1.00  0.00     0.031 C 
ATOM     20  C   UNL A   1      42.864  28.139  27.910  1.00  0.00     0.029 A 
ATOM     21  N   UNL A   1      43.926  28.463  29.850  1.00  0.00    -0.354 N 
ATOM     22  C   UNL A   1      44.861  24.956  32.374  1.00  0.00     0.074 A 
ATOM     23  C   UNL A   1      44.454  23.747  31.699  1.00  0.00     0.031 C 
ATOM     24  C   UNL A   1      43.232  29.430  27.955  1.00  0.00     0.029 A 
ATOM     25  C   UNL A   1      43.862  29.696  29.242  1.00  0.00     0.049 A 
ATOM     26  H   UNL A   1      44.367  28.312  30.716  1.00  0.00     0.167 HD
ATOM     27  C   UNL A   1      45.523  24.996  33.554  1.00  0.00     0.034 A 
ATOM     28  C   UNL A   1      44.231  30.901  29.713  1.00  0.00     0.034 A 
ATOM     29  C   UNL A   1      45.895  26.239  34.178  1.00  0.00     0.049 A 
ATOM     30  C   UNL A   1      44.828  30.937  31.099  1.00  0.00     0.074 A 
ATOM     31  C   UNL A   1      46.477  26.456  35.411  1.00  0.00     0.029 A 
ATOM     32  N   UNL A   1      45.706  27.493  33.597  1.00  0.00    -0.354 N 
ATOM     33  N   UNL A   1      45.120  29.933  31.899  1.00  0.00    -0.248 NA
ATOM     34  C   UNL A   1      45.133  32.258  31.653  1.00  0.00     0.031 C 
ATOM     35  C   UNL A   1      46.569  27.839  35.605  1.00  0.00     0.029 A 
ATOM     36  C   UNL A   1      46.131  28.488  34.458  1.00  0.00     0.049 A 
ATOM     37  H   UNL A   1      45.324  27.647  32.703  1.00  0.00     0.167 HD
ATOM     38  C   UNL A   1      45.670  30.501  33.042  1.00  0.00     0.074 A 
ATOM     39  C   UNL A   1      45.685  31.935  32.813  1.00  0.00     0.031 C 
ATOM     40  C   UNL A   1      46.120  29.907  34.178  1.00  0.00     0.034 A 
BRANCH  27  41
ATOM     41  C   UNL A   1      45.739  23.678  34.258  1.00  0.00     0.023 A 
ATOM     42  C   UNL A   1      46.997  23.047  34.301  1.00  0.00     0.031 A 
ATOM     43  C   UNL A   1      44.635  22.975  34.772  1.00  0.00     0.131 A 
ATOM     44  C   UNL A   1      47.098  21.719  34.748  1.00  0.00     0.055 A 
ATOM     45  C   UNL A   1      44.760  21.689  35.302  1.00  0.00     0.041 A 
ATOM     46  F   UNL A   1      43.403  23.506  34.723  1.00  0.00    -0.206 F 
ATOM     47  C   UNL A   1      45.993  21.045  35.272  1.00  0.00     0.022 A 
BRANCH  44  48
ATOM     48  S   UNL A   1      48.646  20.817  34.450  1.00  0.00     0.124 S 
ATOM     49  O   UNL A   1      48.260  19.920  33.362  1.00  0.00    -0.237 OA
ATOM     50  O   UNL A   1      49.573  21.885  34.095  1.00  0.00    -0.237 OA
ATOM     51  O   UNL A   1      48.912  20.158  35.726  1.00  0.00    -0.744 OA
ENDBRANCH  44  48
ENDBRANCH  27  41
BRANCH  28  52
ATOM     52  C   UNL A   1      43.980  32.148  28.932  1.00  0.00     0.023 A 
ATOM     53  C   UNL A   1      44.755  32.475  27.807  1.00  0.00     0.031 A 
ATOM     54  C   UNL A   1      42.993  33.070  29.332  1.00  0.00     0.131 A 
ATOM     55  C   UNL A   1      44.563  33.704  27.154  1.00  0.00     0.055 A 
ATOM     56  C   UNL A   1      42.765  34.263  28.643  1.00  0.00     0.041 A 
ATOM     57  F   UNL A   1      42.225  32.823  30.406  1.00  0.00    -0.206 F 
ATOM     58  C   UNL A   1      43.564  34.593  27.555  1.00  0.00     0.022 A 
BRANCH  55  59
ATOM     59  S   UNL A   1      45.712  34.175  25.831  1.00  0.00     0.124 S 
ATOM     60  O   UNL A   1      46.898  33.401  26.179  1.00  0.00    -0.237 OA
ATOM     61  O   UNL A   1      44.991  33.746  24.637  1.00  0.00    -0.237 OA
ATOM     62  O   UNL A   1      45.842  35.622  25.992  1.00  0.00    -0.744 OA
ENDBRANCH  55  59
ENDBRANCH  28  52
BRANCH  40  63
ATOM     63  C   UNL A   1      46.715  30.818  35.219  1.00  0.00     0.023 A 
ATOM     64  C   UNL A   1      48.087  31.113  35.243  1.00  0.00     0.031 A 
ATOM     65  C   UNL A   1      45.891  31.388  36.205  1.00  0.00     0.131 A 
ATOM     66  C   UNL A   1      48.608  31.904  36.276  1.00  0.00     0.055 A 
ATOM     67  C   UNL A   1      46.403  32.237  37.184  1.00  0.00     0.041 A 
ATOM     68  F   UNL A   1      44.573  31.134  36.226  1.00  0.00    -0.206 F 
ATOM     69  C   UNL A   1      47.772  32.486  37.233  1.00  0.00     0.022 A 
BRANCH  66  70
ATOM     70  S   UNL A   1      50.407  32.064  36.418  1.00  0.00     0.124 S 
ATOM     71  O   UNL A   1      50.580  33.513  36.440  1.00  0.00    -0.237 OA
ATOM     72  O   UNL A   1      50.685  31.370  37.672  1.00  0.00    -0.237 OA
ATOM     73  O   UNL A   1      50.905  31.398  35.217  1.00  0.00    -0.744 OA
ENDBRANCH  66  70
ENDBRANCH  40  63
ENDBRANCH  14  15
ENDBRANCH   7   9
ENDBRANCH   6   7
ENDBRANCH   5   6
ENDBRANCH   4   5
ENDBRANCH   3   4
ENDBRANCH   2   3
ENDBRANCH   1   2
BRANCH   1  74
ATOM     74  O   UNL A   1      34.071  24.248  24.888  1.00  0.00    -0.377 OA
BRANCH  74  75
ATOM     75  C   UNL A   1      34.373  25.640  24.921  1.00  0.00     0.188 C 
BRANCH  75  76
ATOM     76  C   UNL A   1      33.242  26.651  25.241  1.00  0.00     0.188 C 
BRANCH  76  77
ATOM     77  O   UNL A   1      33.235  27.105  26.584  1.00  0.00    -0.376 OA
BRANCH  77  78
ATOM     78  C   UNL A   1      33.397  28.503  26.780  1.00  0.00     0.202 C 
BRANCH  78  79
ATOM     79  C   UNL A   1      34.830  29.028  26.933  1.00  0.00     0.261 C 
BRANCH  79  80
ATOM     80  O   UNL A   1      35.137  29.775  28.124  1.00  0.00    -0.460 OA
BRANCH  80  81
ATOM     81  C   UNL A   1      36.350  30.352  28.279  1.00  0.00     0.338 C 
ATOM     82  O   UNL A   1      36.652  31.492  27.975  1.00  0.00    -0.246 OA
BRANCH  81  83
ATOM     83  C   UNL A   1      37.220  29.401  29.033  1.00  0.00     0.067 A 
ATOM     84  C   UNL A   1      38.045  28.562  28.266  1.00  0.00     0.016 A 
ATOM     85  C   UNL A   1      37.336  29.428  30.444  1.00  0.00    -0.010 A 
ATOM     86  C   UNL A   1      39.055  27.825  28.882  1.00  0.00     0.001 A 
ATOM     87  C   UNL A   1      38.358  28.676  31.042  1.00  0.00     0.009 A 
ATOM     88  C   UNL A   1      39.219  27.893  30.265  1.00  0.00     0.001 A 
BRANCH  85  89
ATOM     89  C   UNL A   1      36.472  30.255  31.313  1.00  0.00     0.030 C 
ATOM     90  C   UNL A   1      36.870  31.403  31.882  1.00  0.00     0.081 C 
ATOM     91  S   UNL A   1      36.105  32.157  33.216  1.00  0.00    -0.054 SA
ATOM     92  C   UNL A   1      38.180  32.062  31.656  1.00  0.00     0.266 C 
ATOM     93  C   UNL A   1      37.638  32.888  33.752  1.00  0.00     0.148 C 
ATOM     94  N   UNL A   1      38.637  32.607  32.843  1.00  0.00    -0.290 N 
ATOM     95  O   UNL A   1      38.728  32.110  30.565  1.00  0.00    -0.268 OA
ATOM     96  S   UNL A   1      37.688  33.774  35.163  1.00  0.00    -0.052 S 
BRANCH  94  97
ATOM     97  C   UNL A   1      40.078  32.957  32.894  1.00  0.00     0.092 C 
ATOM     98  C   UNL A   1      40.281  34.471  32.791  1.00  0.00     0.025 C 
ATOM     99  C   UNL A   1      40.885  32.296  34.031  1.00  0.00     0.025 C 
ATOM    100  C   UNL A   1      41.758  34.846  32.814  1.00  0.00     0.002 C 
ATOM    101  C   UNL A   1      42.344  32.752  34.060  1.00  0.00     0.002 C 
ATOM    102  C   UNL A   1      42.450  34.273  34.042  1.00  0.00     0.000 C 
ENDBRANCH  94  97
ENDBRANCH  85  89
ENDBRANCH  81  83
ENDBRANCH  80  81
ENDBRANCH  79  80
ENDBRANCH  78  79
ENDBRANCH  77  78
ENDBRANCH  76  77
ENDBRANCH  75  76
ENDBRANCH  74  75
ENDBRANCH   1  74
TORSDOF 25
ENDMDL
