MODEL 1
REMARK VINA RESULT:      -7.5      0.000      0.000
REMARK SMILES COc1cccc(/C=C2/C(=O)N(c3cccc(C(=O)OCCOCCOCCOCCOC(=O)c4ccc(-c5c6nc(c(-c7cc(S(=O)(=O)[O-])ccc7F)c7ccc([nH]7)c(-c7cc(S(=O)(=O)[O-])ccc7F)c7nc(c(-c8cc(S(=O)(=O)[O-])ccc8F)c8ccc5[nH]8)C=C7)C=C6)cc4)c3)N=C2C)c1
REMARK SMILES IDX 26 1 25 2 24 3 23 4 22 5 21 6 20 7 18 8 19 9 17 10 13 11
REMARK SMILES IDX 14 12 98 13 15 14 16 15 12 16 8 17 9 18 10 19 100 20 11 21
REMARK SMILES IDX 99 22 101 23 7 24 3 25 4 26 102 27 5 28 6 29 2 30 1 31 27 32
REMARK SMILES IDX 28 33 29 34 30 35 31 36 32 37 33 38 34 39 35 40 36 41 97 42
REMARK SMILES IDX 37 43 96 44 38 45 39 46 40 47 90 48 41 49 95 50 89 51 91 52
REMARK SMILES IDX 42 53 94 54 88 55 87 56 43 58 75 59 55 60 74 61 56 62 59 63
REMARK SMILES IDX 73 64 92 65 57 66 58 67 72 69 93 70 60 71 44 72 45 73 53 74
REMARK SMILES IDX 46 75 52 76 54 77 51 78 47 79 48 80 49 81 50 82 76 83 77 84
REMARK SMILES IDX 85 85 78 86 84 87 86 88 83 89 79 90 80 91 81 92 82 93 61 94
REMARK SMILES IDX 62 95 70 96 63 97 69 98 71 99 68 100 64 101 65 102 66 103
REMARK SMILES IDX 67 104
REMARK H PARENT 91 57 59 68
REMARK Flexibility Score: inf
ROOT
ATOM      1  O   UNL A   1      33.154  32.487  27.521  1.00  0.00    -0.377 OA
ENDROOT
BRANCH   1   2
ATOM      2  C   UNL A   1      31.979  32.005  26.892  1.00  0.00     0.188 C 
BRANCH   2   3
ATOM      3  C   UNL A   1      31.805  30.474  26.912  1.00  0.00     0.188 C 
BRANCH   3   4
ATOM      4  O   UNL A   1      32.004  29.872  25.644  1.00  0.00    -0.376 OA
BRANCH   4   5
ATOM      5  C   UNL A   1      33.270  29.338  25.305  1.00  0.00     0.202 C 
BRANCH   5   6
ATOM      6  C   UNL A   1      34.196  28.694  26.351  1.00  0.00     0.261 C 
BRANCH   6   7
ATOM      7  O   UNL A   1      35.378  29.416  26.710  1.00  0.00    -0.460 OA
BRANCH   7   8
ATOM      8  C   UNL A   1      35.539  29.822  27.987  1.00  0.00     0.338 C 
ATOM      9  O   UNL A   1      34.702  29.821  28.875  1.00  0.00    -0.246 OA
BRANCH   8  10
ATOM     10  C   UNL A   1      36.996  30.022  28.178  1.00  0.00     0.062 A 
ATOM     11  C   UNL A   1      39.237  29.088  28.298  1.00  0.00     0.070 A 
ATOM     12  C   UNL A   1      39.658  30.243  28.971  1.00  0.00     0.028 A 
ATOM     13  C   UNL A   1      37.894  28.980  27.916  1.00  0.00     0.044 A 
ATOM     14  C   UNL A   1      38.774  31.304  29.191  1.00  0.00     0.003 A 
ATOM     15  C   UNL A   1      37.445  31.201  28.782  1.00  0.00     0.016 A 
BRANCH  11  16
ATOM     16  N   UNL A   1      40.147  28.047  28.019  1.00  0.00    -0.196 N 
ATOM     17  C   UNL A   1      43.123  26.528  26.895  1.00  0.00     0.024 C 
ATOM     18  C   UNL A   1      41.897  26.796  27.363  1.00  0.00     0.065 C 
ATOM     19  C   UNL A   1      41.403  28.190  27.417  1.00  0.00     0.280 C 
ATOM     20  C   UNL A   1      40.801  25.993  27.938  1.00  0.00     0.071 C 
ATOM     21  O   UNL A   1      42.017  29.178  27.059  1.00  0.00    -0.267 OA
ATOM     22  N   UNL A   1      39.807  26.740  28.347  1.00  0.00    -0.169 NA
ATOM     23  C   UNL A   1      40.783  24.504  28.037  1.00  0.00     0.069 C 
BRANCH  17  24
ATOM     24  C   UNL A   1      43.717  25.200  26.797  1.00  0.00    -0.021 A 
ATOM     25  C   UNL A   1      43.579  22.906  26.030  1.00  0.00     0.119 A 
ATOM     26  C   UNL A   1      44.769  22.627  26.708  1.00  0.00     0.046 A 
ATOM     27  C   UNL A   1      43.071  24.204  26.054  1.00  0.00     0.054 A 
ATOM     28  C   UNL A   1      45.447  23.631  27.402  1.00  0.00     0.004 A 
ATOM     29  C   UNL A   1      44.917  24.919  27.452  1.00  0.00     0.008 A 
BRANCH  25  30
ATOM     30  O   UNL A   1      42.995  21.833  25.417  1.00  0.00    -0.497 OA
ATOM     31  C   UNL A   1      41.881  21.243  26.079  1.00  0.00     0.278 C 
ENDBRANCH  25  30
ENDBRANCH  17  24
ENDBRANCH  11  16
ENDBRANCH   8  10
ENDBRANCH   7   8
ENDBRANCH   6   7
ENDBRANCH   5   6
ENDBRANCH   4   5
ENDBRANCH   3   4
ENDBRANCH   2   3
ENDBRANCH   1   2
BRANCH   1  32
ATOM     32  C   UNL A   1      33.192  33.836  27.989  1.00  0.00     0.188 C 
BRANCH  32  33
ATOM     33  C   UNL A   1      33.865  34.257  29.321  1.00  0.00     0.188 C 
BRANCH  33  34
ATOM     34  O   UNL A   1      34.529  33.211  30.018  1.00  0.00    -0.376 OA
BRANCH  34  35
ATOM     35  C   UNL A   1      35.699  33.540  30.745  1.00  0.00     0.202 C 
BRANCH  35  36
ATOM     36  C   UNL A   1      35.469  33.946  32.206  1.00  0.00     0.261 C 
BRANCH  36  37
ATOM     37  O   UNL A   1      35.682  32.912  33.177  1.00  0.00    -0.460 OA
BRANCH  37  38
ATOM     38  C   UNL A   1      36.614  33.162  34.125  1.00  0.00     0.338 C 
ATOM     39  O   UNL A   1      36.443  33.750  35.178  1.00  0.00    -0.246 OA
BRANCH  38  40
ATOM     40  C   UNL A   1      37.845  32.437  33.756  1.00  0.00     0.060 A 
ATOM     41  C   UNL A   1      39.080  32.947  34.174  1.00  0.00     0.016 A 
ATOM     42  C   UNL A   1      37.779  31.273  32.986  1.00  0.00     0.016 A 
ATOM     43  C   UNL A   1      40.261  32.329  33.764  1.00  0.00     0.010 A 
ATOM     44  C   UNL A   1      38.962  30.665  32.561  1.00  0.00     0.010 A 
ATOM     45  C   UNL A   1      40.207  31.224  32.905  1.00  0.00    -0.014 A 
BRANCH  45  46
ATOM     46  C   UNL A   1      41.428  30.834  32.155  1.00  0.00     0.031 A 
ATOM     47  C   UNL A   1      42.029  31.852  31.221  1.00  0.00     0.074 A 
ATOM     48  C   UNL A   1      42.019  29.640  32.335  1.00  0.00     0.049 A 
ATOM     49  N   UNL A   1      43.075  31.757  30.441  1.00  0.00    -0.248 NA
ATOM     50  C   UNL A   1      41.347  33.155  31.155  1.00  0.00     0.031 C 
ATOM     51  C   UNL A   1      41.559  28.598  33.249  1.00  0.00     0.029 A 
ATOM     52  N   UNL A   1      43.141  29.107  31.751  1.00  0.00    -0.354 N 
ATOM     53  C   UNL A   1      43.173  32.983  29.793  1.00  0.00     0.074 A 
ATOM     54  C   UNL A   1      42.053  33.785  30.231  1.00  0.00     0.031 C 
ATOM     55  C   UNL A   1      42.394  27.546  33.164  1.00  0.00     0.029 A 
ATOM     56  C   UNL A   1      43.424  27.826  32.165  1.00  0.00     0.049 A 
ATOM     57  H   UNL A   1      43.692  29.597  31.098  1.00  0.00     0.167 HD
ATOM     58  C   UNL A   1      44.121  33.409  28.922  1.00  0.00     0.034 A 
ATOM     59  C   UNL A   1      44.394  26.977  31.766  1.00  0.00     0.034 A 
ATOM     60  C   UNL A   1      45.227  32.592  28.485  1.00  0.00     0.049 A 
ATOM     61  C   UNL A   1      45.393  27.443  30.730  1.00  0.00     0.074 A 
ATOM     62  C   UNL A   1      46.241  32.913  27.601  1.00  0.00     0.029 A 
ATOM     63  N   UNL A   1      45.457  31.284  28.893  1.00  0.00    -0.354 N 
ATOM     64  N   UNL A   1      45.475  28.604  30.117  1.00  0.00    -0.248 NA
ATOM     65  C   UNL A   1      46.440  26.489  30.346  1.00  0.00     0.031 C 
ATOM     66  C   UNL A   1      47.037  31.778  27.415  1.00  0.00     0.029 A 
ATOM     67  C   UNL A   1      46.582  30.778  28.259  1.00  0.00     0.049 A 
ATOM     68  H   UNL A   1      44.904  30.788  29.540  1.00  0.00     0.167 HD
ATOM     69  C   UNL A   1      46.613  28.531  29.315  1.00  0.00     0.074 A 
ATOM     70  C   UNL A   1      47.186  27.217  29.531  1.00  0.00     0.031 C 
ATOM     71  C   UNL A   1      47.144  29.466  28.482  1.00  0.00     0.034 A 
BRANCH  58  72
ATOM     72  C   UNL A   1      43.959  34.797  28.347  1.00  0.00     0.023 A 
ATOM     73  C   UNL A   1      44.421  35.941  29.024  1.00  0.00     0.031 A 
ATOM     74  C   UNL A   1      43.290  34.984  27.125  1.00  0.00     0.131 A 
ATOM     75  C   UNL A   1      44.137  37.218  28.516  1.00  0.00     0.055 A 
ATOM     76  C   UNL A   1      43.091  36.253  26.579  1.00  0.00     0.041 A 
ATOM     77  F   UNL A   1      42.799  33.934  26.447  1.00  0.00    -0.206 F 
ATOM     78  C   UNL A   1      43.501  37.381  27.284  1.00  0.00     0.022 A 
BRANCH  75  79
ATOM     79  S   UNL A   1      44.466  38.662  29.564  1.00  0.00     0.124 S 
ATOM     80  O   UNL A   1      44.040  39.758  28.696  1.00  0.00    -0.237 OA
ATOM     81  O   UNL A   1      43.626  38.406  30.728  1.00  0.00    -0.237 OA
ATOM     82  O   UNL A   1      45.906  38.591  29.803  1.00  0.00    -0.744 OA
ENDBRANCH  75  79
ENDBRANCH  58  72
BRANCH  59  83
ATOM     83  C   UNL A   1      44.464  25.591  32.316  1.00  0.00     0.023 A 
ATOM     84  C   UNL A   1      45.011  25.336  33.585  1.00  0.00     0.031 A 
ATOM     85  C   UNL A   1      44.048  24.490  31.547  1.00  0.00     0.131 A 
ATOM     86  C   UNL A   1      45.179  24.012  34.021  1.00  0.00     0.055 A 
ATOM     87  C   UNL A   1      44.161  23.178  32.011  1.00  0.00     0.041 A 
ATOM     88  F   UNL A   1      43.523  24.674  30.325  1.00  0.00    -0.206 F 
ATOM     89  C   UNL A   1      44.745  22.932  33.250  1.00  0.00     0.022 A 
BRANCH  86  90
ATOM     90  S   UNL A   1      46.072  23.715  35.573  1.00  0.00     0.124 S 
ATOM     91  O   UNL A   1      46.102  25.051  36.157  1.00  0.00    -0.237 OA
ATOM     92  O   UNL A   1      45.208  22.744  36.237  1.00  0.00    -0.237 OA
ATOM     93  O   UNL A   1      47.364  23.197  35.130  1.00  0.00    -0.744 OA
ENDBRANCH  86  90
ENDBRANCH  59  83
BRANCH  71  94
ATOM     94  C   UNL A   1      48.453  29.125  27.804  1.00  0.00     0.023 A 
ATOM     95  C   UNL A   1      48.506  28.542  26.525  1.00  0.00     0.031 A 
ATOM     96  C   UNL A   1      49.670  29.365  28.469  1.00  0.00     0.131 A 
ATOM     97  C   UNL A   1      49.741  28.145  25.988  1.00  0.00     0.055 A 
ATOM     98  C   UNL A   1      50.900  29.041  27.895  1.00  0.00     0.041 A 
ATOM     99  F   UNL A   1      49.685  29.918  29.692  1.00  0.00    -0.206 F 
ATOM    100  C   UNL A   1      50.939  28.409  26.656  1.00  0.00     0.022 A 
BRANCH  97 101
ATOM    101  S   UNL A   1      49.750  27.156  24.468  1.00  0.00     0.124 S 
ATOM    102  O   UNL A   1      50.480  25.964  24.885  1.00  0.00    -0.237 OA
ATOM    103  O   UNL A   1      48.326  26.973  24.208  1.00  0.00    -0.237 OA
ATOM    104  O   UNL A   1      50.451  28.008  23.509  1.00  0.00    -0.744 OA
ENDBRANCH  97 101
ENDBRANCH  71  94
ENDBRANCH  45  46
ENDBRANCH  38  40
ENDBRANCH  37  38
ENDBRANCH  36  37
ENDBRANCH  35  36
ENDBRANCH  34  35
ENDBRANCH  33  34
ENDBRANCH  32  33
ENDBRANCH   1  32
TORSDOF 26
ENDMDL
MODEL 2
REMARK VINA RESULT:      -7.3      4.186      8.069
REMARK SMILES COc1cccc(/C=C2/C(=O)N(c3cccc(C(=O)OCCOCCOCCOCCOC(=O)c4ccc(-c5c6nc(c(-c7cc(S(=O)(=O)[O-])ccc7F)c7ccc([nH]7)c(-c7cc(S(=O)(=O)[O-])ccc7F)c7nc(c(-c8cc(S(=O)(=O)[O-])ccc8F)c8ccc5[nH]8)C=C7)C=C6)cc4)c3)N=C2C)c1
REMARK SMILES IDX 26 1 25 2 24 3 23 4 22 5 21 6 20 7 18 8 19 9 17 10 13 11
REMARK SMILES IDX 14 12 98 13 15 14 16 15 12 16 8 17 9 18 10 19 100 20 11 21
REMARK SMILES IDX 99 22 101 23 7 24 3 25 4 26 102 27 5 28 6 29 2 30 1 31 27 32
REMARK SMILES IDX 28 33 29 34 30 35 31 36 32 37 33 38 34 39 35 40 36 41 97 42
REMARK SMILES IDX 37 43 96 44 38 45 39 46 40 47 90 48 41 49 95 50 89 51 91 52
REMARK SMILES IDX 42 53 94 54 88 55 87 56 43 58 75 59 55 60 74 61 56 62 59 63
REMARK SMILES IDX 73 64 92 65 57 66 58 67 72 69 93 70 60 71 44 72 45 73 53 74
REMARK SMILES IDX 46 75 52 76 54 77 51 78 47 79 48 80 49 81 50 82 76 83 77 84
REMARK SMILES IDX 85 85 78 86 84 87 86 88 83 89 79 90 80 91 81 92 82 93 61 94
REMARK SMILES IDX 62 95 70 96 63 97 69 98 71 99 68 100 64 101 65 102 66 103
REMARK SMILES IDX 67 104
REMARK H PARENT 91 57 59 68
REMARK Flexibility Score: inf
ROOT
ATOM      1  O   UNL A   1      37.846  34.275  36.369  1.00  0.00    -0.377 OA
ENDROOT
BRANCH   1   2
ATOM      2  C   UNL A   1      37.149  33.206  36.985  1.00  0.00     0.188 C 
BRANCH   2   3
ATOM      3  C   UNL A   1      38.039  32.154  37.675  1.00  0.00     0.188 C 
BRANCH   3   4
ATOM      4  O   UNL A   1      37.884  30.852  37.138  1.00  0.00    -0.376 OA
BRANCH   4   5
ATOM      5  C   UNL A   1      38.437  30.536  35.874  1.00  0.00     0.202 C 
BRANCH   5   6
ATOM      6  C   UNL A   1      39.950  30.351  35.663  1.00  0.00     0.261 C 
BRANCH   6   7
ATOM      7  O   UNL A   1      40.501  29.068  35.976  1.00  0.00    -0.460 OA
BRANCH   7   8
ATOM      8  C   UNL A   1      41.826  28.959  36.204  1.00  0.00     0.338 C 
ATOM      9  O   UNL A   1      42.466  29.470  37.107  1.00  0.00    -0.246 OA
BRANCH   8  10
ATOM     10  C   UNL A   1      42.315  27.887  35.302  1.00  0.00     0.062 A 
ATOM     11  C   UNL A   1      43.728  25.944  34.940  1.00  0.00     0.070 A 
ATOM     12  C   UNL A   1      43.609  26.143  33.557  1.00  0.00     0.028 A 
ATOM     13  C   UNL A   1      43.085  26.834  35.809  1.00  0.00     0.044 A 
ATOM     14  C   UNL A   1      42.801  27.166  33.050  1.00  0.00     0.003 A 
ATOM     15  C   UNL A   1      42.141  28.031  33.922  1.00  0.00     0.016 A 
BRANCH  11  16
ATOM     16  N   UNL A   1      44.490  24.871  35.448  1.00  0.00    -0.196 N 
ATOM     17  C   UNL A   1      45.552  21.536  35.874  1.00  0.00     0.024 C 
ATOM     18  C   UNL A   1      45.362  22.860  35.952  1.00  0.00     0.065 C 
ATOM     19  C   UNL A   1      44.316  23.517  35.137  1.00  0.00     0.280 C 
ATOM     20  C   UNL A   1      46.010  23.966  36.682  1.00  0.00     0.071 C 
ATOM     21  O   UNL A   1      43.562  22.958  34.362  1.00  0.00    -0.267 OA
ATOM     22  N   UNL A   1      45.515  25.131  36.350  1.00  0.00    -0.169 NA
ATOM     23  C   UNL A   1      47.089  23.812  37.701  1.00  0.00     0.069 C 
BRANCH  17  24
ATOM     24  C   UNL A   1      46.550  20.782  36.625  1.00  0.00    -0.021 A 
ATOM     25  C   UNL A   1      47.099  19.313  38.471  1.00  0.00     0.119 A 
ATOM     26  C   UNL A   1      48.452  19.441  38.148  1.00  0.00     0.046 A 
ATOM     27  C   UNL A   1      46.147  19.965  37.689  1.00  0.00     0.054 A 
ATOM     28  C   UNL A   1      48.854  20.209  37.053  1.00  0.00     0.004 A 
ATOM     29  C   UNL A   1      47.902  20.885  36.293  1.00  0.00     0.008 A 
BRANCH  25  30
ATOM     30  O   UNL A   1      46.837  18.563  39.584  1.00  0.00    -0.497 OA
ATOM     31  C   UNL A   1      47.960  18.064  40.303  1.00  0.00     0.278 C 
ENDBRANCH  25  30
ENDBRANCH  17  24
ENDBRANCH  11  16
ENDBRANCH   8  10
ENDBRANCH   7   8
ENDBRANCH   6   7
ENDBRANCH   5   6
ENDBRANCH   4   5
ENDBRANCH   3   4
ENDBRANCH   2   3
ENDBRANCH   1   2
BRANCH   1  32
ATOM     32  C   UNL A   1      38.444  34.073  35.087  1.00  0.00     0.188 C 
BRANCH  32  33
ATOM     33  C   UNL A   1      37.816  34.583  33.764  1.00  0.00     0.188 C 
BRANCH  33  34
ATOM     34  O   UNL A   1      36.454  34.977  33.856  1.00  0.00    -0.376 OA
BRANCH  34  35
ATOM     35  C   UNL A   1      35.463  33.986  33.646  1.00  0.00     0.202 C 
BRANCH  35  36
ATOM     36  C   UNL A   1      34.720  34.077  32.308  1.00  0.00     0.261 C 
BRANCH  36  37
ATOM     37  O   UNL A   1      35.552  34.166  31.143  1.00  0.00    -0.460 OA
BRANCH  37  38
ATOM     38  C   UNL A   1      35.810  33.005  30.500  1.00  0.00     0.338 C 
ATOM     39  O   UNL A   1      35.135  32.487  29.629  1.00  0.00    -0.246 OA
BRANCH  38  40
ATOM     40  C   UNL A   1      37.157  32.553  30.900  1.00  0.00     0.060 A 
ATOM     41  C   UNL A   1      38.275  33.194  30.353  1.00  0.00     0.016 A 
ATOM     42  C   UNL A   1      37.312  31.490  31.794  1.00  0.00     0.016 A 
ATOM     43  C   UNL A   1      39.556  32.727  30.647  1.00  0.00     0.010 A 
ATOM     44  C   UNL A   1      38.594  31.013  32.075  1.00  0.00     0.010 A 
ATOM     45  C   UNL A   1      39.716  31.597  31.458  1.00  0.00    -0.014 A 
BRANCH  45  46
ATOM     46  C   UNL A   1      41.011  30.870  31.435  1.00  0.00     0.031 A 
ATOM     47  C   UNL A   1      42.034  31.231  32.481  1.00  0.00     0.074 A 
ATOM     48  C   UNL A   1      41.256  29.886  30.553  1.00  0.00     0.049 A 
ATOM     49  N   UNL A   1      43.241  30.764  32.666  1.00  0.00    -0.248 NA
ATOM     50  C   UNL A   1      41.636  32.270  33.445  1.00  0.00     0.031 C 
ATOM     51  C   UNL A   1      40.324  29.414  29.531  1.00  0.00     0.029 A 
ATOM     52  N   UNL A   1      42.370  29.103  30.382  1.00  0.00    -0.354 N 
ATOM     53  C   UNL A   1      43.746  31.453  33.764  1.00  0.00     0.074 A 
ATOM     54  C   UNL A   1      42.735  32.404  34.168  1.00  0.00     0.031 C 
ATOM     55  C   UNL A   1      40.907  28.421  28.837  1.00  0.00     0.029 A 
ATOM     56  C   UNL A   1      42.264  28.211  29.339  1.00  0.00     0.049 A 
ATOM     57  H   UNL A   1      43.169  29.172  30.952  1.00  0.00     0.167 HD
ATOM     58  C   UNL A   1      44.939  31.296  34.389  1.00  0.00     0.034 A 
ATOM     59  C   UNL A   1      43.169  27.342  28.842  1.00  0.00     0.034 A 
ATOM     60  C   UNL A   1      45.942  30.350  33.965  1.00  0.00     0.049 A 
ATOM     61  C   UNL A   1      44.526  27.242  29.503  1.00  0.00     0.074 A 
ATOM     62  C   UNL A   1      47.189  30.110  34.514  1.00  0.00     0.029 A 
ATOM     63  N   UNL A   1      45.818  29.494  32.878  1.00  0.00    -0.354 N 
ATOM     64  N   UNL A   1      44.998  27.902  30.538  1.00  0.00    -0.248 NA
ATOM     65  C   UNL A   1      45.465  26.266  28.937  1.00  0.00     0.031 C 
ATOM     66  C   UNL A   1      47.847  29.168  33.716  1.00  0.00     0.029 A 
ATOM     67  C   UNL A   1      46.974  28.744  32.726  1.00  0.00     0.049 A 
ATOM     68  H   UNL A   1      45.023  29.427  32.300  1.00  0.00     0.167 HD
ATOM     69  C   UNL A   1      46.270  27.382  30.774  1.00  0.00     0.074 A 
ATOM     70  C   UNL A   1      46.483  26.350  29.779  1.00  0.00     0.031 C 
ATOM     71  C   UNL A   1      47.176  27.717  31.730  1.00  0.00     0.034 A 
BRANCH  58  72
ATOM     72  C   UNL A   1      45.236  32.211  35.554  1.00  0.00     0.023 A 
ATOM     73  C   UNL A   1      44.791  31.922  36.858  1.00  0.00     0.031 A 
ATOM     74  C   UNL A   1      45.932  33.415  35.351  1.00  0.00     0.131 A 
ATOM     75  C   UNL A   1      44.978  32.861  37.885  1.00  0.00     0.055 A 
ATOM     76  C   UNL A   1      46.195  34.302  36.396  1.00  0.00     0.041 A 
ATOM     77  F   UNL A   1      46.355  33.760  34.124  1.00  0.00    -0.206 F 
ATOM     78  C   UNL A   1      45.702  34.035  37.670  1.00  0.00     0.022 A 
BRANCH  75  79
ATOM     79  S   UNL A   1      44.122  32.600  39.464  1.00  0.00     0.124 S 
ATOM     80  O   UNL A   1      45.168  31.966  40.264  1.00  0.00    -0.237 OA
ATOM     81  O   UNL A   1      43.756  33.957  39.853  1.00  0.00    -0.237 OA
ATOM     82  O   UNL A   1      43.005  31.728  39.109  1.00  0.00    -0.744 OA
ENDBRANCH  75  79
ENDBRANCH  58  72
BRANCH  59  83
ATOM     83  C   UNL A   1      42.847  26.513  27.644  1.00  0.00     0.023 A 
ATOM     84  C   UNL A   1      42.326  25.214  27.773  1.00  0.00     0.031 A 
ATOM     85  C   UNL A   1      43.125  26.982  26.348  1.00  0.00     0.131 A 
ATOM     86  C   UNL A   1      42.153  24.413  26.633  1.00  0.00     0.055 A 
ATOM     87  C   UNL A   1      42.893  26.203  25.213  1.00  0.00     0.041 A 
ATOM     88  F   UNL A   1      43.630  28.213  26.165  1.00  0.00    -0.206 F 
ATOM     89  C   UNL A   1      42.419  24.903  25.353  1.00  0.00     0.022 A 
BRANCH  86  90
ATOM     90  S   UNL A   1      41.670  22.677  26.856  1.00  0.00     0.124 S 
ATOM     91  O   UNL A   1      42.599  22.243  27.894  1.00  0.00    -0.237 OA
ATOM     92  O   UNL A   1      40.273  22.801  27.256  1.00  0.00    -0.237 OA
ATOM     93  O   UNL A   1      41.889  22.091  25.535  1.00  0.00    -0.744 OA
ENDBRANCH  86  90
ENDBRANCH  59  83
BRANCH  71  94
ATOM     94  C   UNL A   1      48.450  26.904  31.792  1.00  0.00     0.023 A 
ATOM     95  C   UNL A   1      49.598  27.249  31.055  1.00  0.00     0.031 A 
ATOM     96  C   UNL A   1      48.503  25.742  32.584  1.00  0.00     0.131 A 
ATOM     97  C   UNL A   1      50.716  26.401  31.063  1.00  0.00     0.055 A 
ATOM     98  C   UNL A   1      49.647  24.945  32.650  1.00  0.00     0.041 A 
ATOM     99  F   UNL A   1      47.440  25.359  33.309  1.00  0.00    -0.206 F 
ATOM    100  C   UNL A   1      50.755  25.261  31.870  1.00  0.00     0.022 A 
BRANCH  97 101
ATOM    101  S   UNL A   1      52.066  26.732  29.898  1.00  0.00     0.124 S 
ATOM    102  O   UNL A   1      51.944  28.171  29.692  1.00  0.00    -0.237 OA
ATOM    103  O   UNL A   1      53.238  26.292  30.647  1.00  0.00    -0.237 OA
ATOM    104  O   UNL A   1      51.727  25.909  28.738  1.00  0.00    -0.744 OA
ENDBRANCH  97 101
ENDBRANCH  71  94
ENDBRANCH  45  46
ENDBRANCH  38  40
ENDBRANCH  37  38
ENDBRANCH  36  37
ENDBRANCH  35  36
ENDBRANCH  34  35
ENDBRANCH  33  34
ENDBRANCH  32  33
ENDBRANCH   1  32
TORSDOF 26
ENDMDL
MODEL 3
REMARK VINA RESULT:      -7.3      3.883     10.414
REMARK SMILES COc1cccc(/C=C2/C(=O)N(c3cccc(C(=O)OCCOCCOCCOCCOC(=O)c4ccc(-c5c6nc(c(-c7cc(S(=O)(=O)[O-])ccc7F)c7ccc([nH]7)c(-c7cc(S(=O)(=O)[O-])ccc7F)c7nc(c(-c8cc(S(=O)(=O)[O-])ccc8F)c8ccc5[nH]8)C=C7)C=C6)cc4)c3)N=C2C)c1
REMARK SMILES IDX 26 1 25 2 24 3 23 4 22 5 21 6 20 7 18 8 19 9 17 10 13 11
REMARK SMILES IDX 14 12 98 13 15 14 16 15 12 16 8 17 9 18 10 19 100 20 11 21
REMARK SMILES IDX 99 22 101 23 7 24 3 25 4 26 102 27 5 28 6 29 2 30 1 31 27 32
REMARK SMILES IDX 28 33 29 34 30 35 31 36 32 37 33 38 34 39 35 40 36 41 97 42
REMARK SMILES IDX 37 43 96 44 38 45 39 46 40 47 90 48 41 49 95 50 89 51 91 52
REMARK SMILES IDX 42 53 94 54 88 55 87 56 43 58 75 59 55 60 74 61 56 62 59 63
REMARK SMILES IDX 73 64 92 65 57 66 58 67 72 69 93 70 60 71 44 72 45 73 53 74
REMARK SMILES IDX 46 75 52 76 54 77 51 78 47 79 48 80 49 81 50 82 76 83 77 84
REMARK SMILES IDX 85 85 78 86 84 87 86 88 83 89 79 90 80 91 81 92 82 93 61 94
REMARK SMILES IDX 62 95 70 96 63 97 69 98 71 99 68 100 64 101 65 102 66 103
REMARK SMILES IDX 67 104
REMARK H PARENT 91 57 59 68
REMARK Flexibility Score: inf
ROOT
ATOM      1  O   UNL A   1      46.588  44.002  22.980  1.00  0.00    -0.377 OA
ENDROOT
BRANCH   1   2
ATOM      2  C   UNL A   1      46.924  42.680  23.367  1.00  0.00     0.188 C 
BRANCH   2   3
ATOM      3  C   UNL A   1      46.985  42.436  24.887  1.00  0.00     0.188 C 
BRANCH   3   4
ATOM      4  O   UNL A   1      45.781  41.910  25.418  1.00  0.00    -0.376 OA
BRANCH   4   5
ATOM      5  C   UNL A   1      45.675  40.526  25.696  1.00  0.00     0.202 C 
BRANCH   5   6
ATOM      6  C   UNL A   1      46.787  39.528  25.331  1.00  0.00     0.261 C 
BRANCH   6   7
ATOM      7  O   UNL A   1      47.259  38.667  26.372  1.00  0.00    -0.460 OA
BRANCH   7   8
ATOM      8  C   UNL A   1      48.581  38.420  26.473  1.00  0.00     0.338 C 
ATOM      9  O   UNL A   1      49.413  39.078  27.076  1.00  0.00    -0.246 OA
BRANCH   8  10
ATOM     10  C   UNL A   1      48.792  37.054  25.934  1.00  0.00     0.062 A 
ATOM     11  C   UNL A   1      48.217  34.693  25.939  1.00  0.00     0.070 A 
ATOM     12  C   UNL A   1      49.438  34.418  25.306  1.00  0.00     0.028 A 
ATOM     13  C   UNL A   1      47.908  36.020  26.262  1.00  0.00     0.044 A 
ATOM     14  C   UNL A   1      50.299  35.454  24.934  1.00  0.00     0.003 A 
ATOM     15  C   UNL A   1      49.971  36.776  25.235  1.00  0.00     0.016 A 
BRANCH  11  16
ATOM     16  N   UNL A   1      47.320  33.651  26.253  1.00  0.00    -0.196 N 
ATOM     17  C   UNL A   1      44.224  32.099  26.914  1.00  0.00     0.024 C 
ATOM     18  C   UNL A   1      45.519  32.396  26.743  1.00  0.00     0.065 C 
ATOM     19  C   UNL A   1      45.935  33.778  26.418  1.00  0.00     0.280 C 
ATOM     20  C   UNL A   1      46.777  31.625  26.754  1.00  0.00     0.071 C 
ATOM     21  O   UNL A   1      45.192  34.733  26.285  1.00  0.00    -0.267 OA
ATOM     22  N   UNL A   1      47.808  32.362  26.432  1.00  0.00    -0.169 NA
ATOM     23  C   UNL A   1      46.900  30.180  27.108  1.00  0.00     0.069 C 
BRANCH  17  24
ATOM     24  C   UNL A   1      43.697  30.777  27.235  1.00  0.00    -0.021 A 
ATOM     25  C   UNL A   1      42.586  28.746  26.522  1.00  0.00     0.119 A 
ATOM     26  C   UNL A   1      42.570  28.310  27.849  1.00  0.00     0.046 A 
ATOM     27  C   UNL A   1      43.177  29.971  26.215  1.00  0.00     0.054 A 
ATOM     28  C   UNL A   1      43.139  29.085  28.862  1.00  0.00     0.004 A 
ATOM     29  C   UNL A   1      43.699  30.323  28.555  1.00  0.00     0.008 A 
BRANCH  25  30
ATOM     30  O   UNL A   1      41.969  27.914  25.630  1.00  0.00    -0.497 OA
ATOM     31  C   UNL A   1      41.872  26.540  25.993  1.00  0.00     0.278 C 
ENDBRANCH  25  30
ENDBRANCH  17  24
ENDBRANCH  11  16
ENDBRANCH   8  10
ENDBRANCH   7   8
ENDBRANCH   6   7
ENDBRANCH   5   6
ENDBRANCH   4   5
ENDBRANCH   3   4
ENDBRANCH   2   3
ENDBRANCH   1   2
BRANCH   1  32
ATOM     32  C   UNL A   1      45.431  44.622  23.544  1.00  0.00     0.188 C 
BRANCH  32  33
ATOM     33  C   UNL A   1      44.024  44.550  22.896  1.00  0.00     0.188 C 
BRANCH  33  34
ATOM     34  O   UNL A   1      43.035  43.890  23.675  1.00  0.00    -0.376 OA
BRANCH  34  35
ATOM     35  C   UNL A   1      42.886  42.491  23.507  1.00  0.00     0.202 C 
BRANCH  35  36
ATOM     36  C   UNL A   1      41.844  41.830  24.417  1.00  0.00     0.261 C 
BRANCH  36  37
ATOM     37  O   UNL A   1      42.350  40.836  25.318  1.00  0.00    -0.460 OA
BRANCH  37  38
ATOM     38  C   UNL A   1      41.628  40.623  26.442  1.00  0.00     0.338 C 
ATOM     39  O   UNL A   1      40.619  41.213  26.783  1.00  0.00    -0.246 OA
BRANCH  38  40
ATOM     40  C   UNL A   1      42.162  39.418  27.105  1.00  0.00     0.060 A 
ATOM     41  C   UNL A   1      42.252  38.227  26.373  1.00  0.00     0.016 A 
ATOM     42  C   UNL A   1      42.553  39.461  28.446  1.00  0.00     0.016 A 
ATOM     43  C   UNL A   1      42.670  37.056  27.003  1.00  0.00     0.010 A 
ATOM     44  C   UNL A   1      42.956  38.283  29.079  1.00  0.00     0.010 A 
ATOM     45  C   UNL A   1      42.963  37.067  28.372  1.00  0.00    -0.014 A 
BRANCH  45  46
ATOM     46  C   UNL A   1      43.002  35.780  29.111  1.00  0.00     0.031 A 
ATOM     47  C   UNL A   1      44.350  35.262  29.541  1.00  0.00     0.074 A 
ATOM     48  C   UNL A   1      41.880  35.116  29.441  1.00  0.00     0.049 A 
ATOM     49  N   UNL A   1      44.660  34.162  30.177  1.00  0.00    -0.248 NA
ATOM     50  C   UNL A   1      45.508  36.103  29.196  1.00  0.00     0.031 C 
ATOM     51  C   UNL A   1      40.520  35.546  29.126  1.00  0.00     0.029 A 
ATOM     52  N   UNL A   1      41.713  33.935  30.119  1.00  0.00    -0.354 N 
ATOM     53  C   UNL A   1      46.045  34.178  30.305  1.00  0.00     0.074 A 
ATOM     54  C   UNL A   1      46.517  35.369  29.635  1.00  0.00     0.031 C 
ATOM     55  C   UNL A   1      39.654  34.638  29.611  1.00  0.00     0.029 A 
ATOM     56  C   UNL A   1      40.399  33.547  30.237  1.00  0.00     0.049 A 
ATOM     57  H   UNL A   1      42.464  33.415  30.487  1.00  0.00     0.167 HD
ATOM     58  C   UNL A   1      46.850  33.289  30.937  1.00  0.00     0.034 A 
ATOM     59  C   UNL A   1      39.866  32.429  30.774  1.00  0.00     0.034 A 
ATOM     60  C   UNL A   1      46.363  32.098  31.590  1.00  0.00     0.049 A 
ATOM     61  C   UNL A   1      40.790  31.408  31.401  1.00  0.00     0.074 A 
ATOM     62  C   UNL A   1      47.084  31.122  32.254  1.00  0.00     0.029 A 
ATOM     63  N   UNL A   1      45.029  31.716  31.652  1.00  0.00    -0.354 N 
ATOM     64  N   UNL A   1      42.100  31.428  31.512  1.00  0.00    -0.248 NA
ATOM     65  C   UNL A   1      40.158  30.220  31.990  1.00  0.00     0.031 C 
ATOM     66  C   UNL A   1      46.199  30.113  32.647  1.00  0.00     0.029 A 
ATOM     67  C   UNL A   1      44.910  30.506  32.320  1.00  0.00     0.049 A 
ATOM     68  H   UNL A   1      44.276  32.229  31.278  1.00  0.00     0.167 HD
ATOM     69  C   UNL A   1      42.439  30.282  32.228  1.00  0.00     0.074 A 
ATOM     70  C   UNL A   1      41.196  29.600  32.528  1.00  0.00     0.031 C 
ATOM     71  C   UNL A   1      43.665  29.836  32.613  1.00  0.00     0.034 A 
BRANCH  58  72
ATOM     72  C   UNL A   1      48.338  33.549  30.893  1.00  0.00     0.023 A 
ATOM     73  C   UNL A   1      48.919  34.650  31.549  1.00  0.00     0.031 A 
ATOM     74  C   UNL A   1      49.182  32.711  30.145  1.00  0.00     0.131 A 
ATOM     75  C   UNL A   1      50.285  34.926  31.377  1.00  0.00     0.055 A 
ATOM     76  C   UNL A   1      50.555  32.939  30.053  1.00  0.00     0.041 A 
ATOM     77  F   UNL A   1      48.681  31.662  29.472  1.00  0.00    -0.206 F 
ATOM     78  C   UNL A   1      51.112  34.062  30.657  1.00  0.00     0.022 A 
BRANCH  75  79
ATOM     79  S   UNL A   1      50.931  36.514  31.971  1.00  0.00     0.124 S 
ATOM     80  O   UNL A   1      51.506  37.072  30.749  1.00  0.00    -0.237 OA
ATOM     81  O   UNL A   1      49.732  37.175  32.473  1.00  0.00    -0.237 OA
ATOM     82  O   UNL A   1      51.905  36.128  32.990  1.00  0.00    -0.744 OA
ENDBRANCH  75  79
ENDBRANCH  58  72
BRANCH  59  83
ATOM     83  C   UNL A   1      38.394  32.190  30.726  1.00  0.00     0.023 A 
ATOM     84  C   UNL A   1      37.515  32.872  31.584  1.00  0.00     0.031 A 
ATOM     85  C   UNL A   1      37.850  31.219  29.867  1.00  0.00     0.131 A 
ATOM     86  C   UNL A   1      36.152  32.534  31.604  1.00  0.00     0.055 A 
ATOM     87  C   UNL A   1      36.484  30.930  29.847  1.00  0.00     0.041 A 
ATOM     88  F   UNL A   1      38.643  30.532  29.029  1.00  0.00    -0.206 F 
ATOM     89  C   UNL A   1      35.628  31.579  30.731  1.00  0.00     0.022 A 
BRANCH  86  90
ATOM     90  S   UNL A   1      35.087  33.291  32.863  1.00  0.00     0.124 S 
ATOM     91  O   UNL A   1      33.815  32.622  32.614  1.00  0.00    -0.237 OA
ATOM     92  O   UNL A   1      35.772  32.926  34.099  1.00  0.00    -0.237 OA
ATOM     93  O   UNL A   1      35.122  34.713  32.530  1.00  0.00    -0.744 OA
ENDBRANCH  86  90
ENDBRANCH  59  83
BRANCH  71  94
ATOM     94  C   UNL A   1      43.710  28.588  33.469  1.00  0.00     0.023 A 
ATOM     95  C   UNL A   1      43.769  28.642  34.873  1.00  0.00     0.031 A 
ATOM     96  C   UNL A   1      43.724  27.320  32.859  1.00  0.00     0.131 A 
ATOM     97  C   UNL A   1      43.920  27.460  35.613  1.00  0.00     0.055 A 
ATOM     98  C   UNL A   1      43.795  26.143  33.605  1.00  0.00     0.041 A 
ATOM     99  F   UNL A   1      43.672  27.202  31.522  1.00  0.00    -0.206 F 
ATOM    100  C   UNL A   1      43.914  26.209  34.990  1.00  0.00     0.022 A 
BRANCH  97 101
ATOM    101  S   UNL A   1      44.265  27.585  37.389  1.00  0.00     0.124 S 
ATOM    102  O   UNL A   1      45.674  27.212  37.453  1.00  0.00    -0.237 OA
ATOM    103  O   UNL A   1      43.962  28.985  37.668  1.00  0.00    -0.237 OA
ATOM    104  O   UNL A   1      43.341  26.621  37.986  1.00  0.00    -0.744 OA
ENDBRANCH  97 101
ENDBRANCH  71  94
ENDBRANCH  45  46
ENDBRANCH  38  40
ENDBRANCH  37  38
ENDBRANCH  36  37
ENDBRANCH  35  36
ENDBRANCH  34  35
ENDBRANCH  33  34
ENDBRANCH  32  33
ENDBRANCH   1  32
TORSDOF 26
ENDMDL
