MODEL 1
REMARK VINA RESULT:      -9.1      0.000      0.000
REMARK SMILES Cc1[nH]ncc1S(=O)(=O)NC[C@@H]1CC[C@@H](C(=O)OCCOCCOCCOCCOC(=O)c2ccc(-c3c4nc(c(-c5cc(S(=O)(=O)[O-])ccc5F)c5ccc([nH]5)c(-c5cc(S(=O)(=O)[O-])ccc5F)c5nc(c(-c6cc(S(=O)(=O)[O-])ccc6F)c6ccc3[nH]6)C=C5)C=C4)cc2)O1
REMARK SMILES IDX 23 1 22 2 21 3 20 4 19 5 18 6 16 7 17 8 15 9 12 10 13 11
REMARK SMILES IDX 96 12 14 13 11 14 10 15 7 17 8 18 9 19 6 20 1 21 2 22 3 23
REMARK SMILES IDX 4 24 5 26 24 27 25 28 26 29 27 30 28 31 29 32 30 33 31 34
REMARK SMILES IDX 32 35 33 36 34 37 95 38 35 39 94 40 36 41 37 42 38 43 88 44
REMARK SMILES IDX 39 45 93 46 87 47 89 48 40 49 92 50 86 51 85 52 41 54 73 55
REMARK SMILES IDX 53 56 72 57 54 58 57 59 71 60 90 61 55 62 56 63 70 65 91 66
REMARK SMILES IDX 58 67 42 68 43 69 51 70 44 71 50 72 52 73 49 74 45 75 46 76
REMARK SMILES IDX 47 77 48 78 74 79 75 80 83 81 76 82 82 83 84 84 81 85 77 86
REMARK SMILES IDX 78 87 79 88 80 89 59 90 60 91 68 92 61 93 67 94 69 95 66 96
REMARK SMILES IDX 62 97 63 98 64 99 65 100
REMARK H PARENT 10 16 3 25 89 53 57 64
REMARK Flexibility Score: inf
ROOT
ATOM      1  C   UNL A   1      41.090  20.680  27.411  1.00  0.00     0.188 C 
ENDROOT
BRANCH   1   2
ATOM      2  C   UNL A   1      40.173  20.792  26.171  1.00  0.00     0.188 C 
BRANCH   2   3
ATOM      3  O   UNL A   1      39.115  21.742  26.093  1.00  0.00    -0.376 OA
BRANCH   3   4
ATOM      4  C   UNL A   1      37.936  21.439  25.371  1.00  0.00     0.202 C 
BRANCH   4   5
ATOM      5  C   UNL A   1      36.636  22.139  25.788  1.00  0.00     0.261 C 
BRANCH   5   6
ATOM      6  O   UNL A   1      35.622  22.228  24.778  1.00  0.00    -0.461 OA
BRANCH   6   7
ATOM      7  C   UNL A   1      34.651  21.271  24.804  1.00  0.00     0.335 C 
ATOM      8  O   UNL A   1      34.839  20.080  25.018  1.00  0.00    -0.249 OA
BRANCH   7   9
ATOM      9  C   UNL A   1      33.279  21.901  24.537  1.00  0.00     0.228 C 
ATOM     10  C   UNL A   1      32.851  23.482  22.877  1.00  0.00     0.134 C 
ATOM     11  C   UNL A   1      31.776  22.429  22.752  1.00  0.00     0.037 C 
ATOM     12  O   UNL A   1      33.490  23.268  24.131  1.00  0.00    -0.362 OA
ATOM     13  C   UNL A   1      32.456  21.260  23.419  1.00  0.00     0.047 C 
BRANCH  10  14
ATOM     14  C   UNL A   1      32.384  24.922  22.754  1.00  0.00     0.131 C 
BRANCH  14  15
ATOM     15  N   UNL A   1      32.329  25.712  24.004  1.00  0.00    -0.208 NA
ATOM     16  H   UNL A   1      32.350  25.037  24.769  1.00  0.00     0.141 HD
BRANCH  15  17
ATOM     17  S   UNL A   1      31.055  26.771  24.344  1.00  0.00     0.244 S 
ATOM     18  O   UNL A   1      31.312  27.351  25.638  1.00  0.00    -0.207 OA
ATOM     19  O   UNL A   1      29.843  26.006  24.119  1.00  0.00    -0.207 OA
BRANCH  17  20
ATOM     20  C   UNL A   1      30.929  28.070  23.238  1.00  0.00     0.122 A 
ATOM     21  C   UNL A   1      33.384  28.931  22.883  1.00  0.00     0.067 C 
ATOM     22  C   UNL A   1      31.918  28.874  22.702  1.00  0.00     0.052 A 
ATOM     23  N   UNL A   1      31.260  29.730  21.860  1.00  0.00    -0.281 N 
ATOM     24  N   UNL A   1      29.937  29.512  21.785  1.00  0.00    -0.183 NA
ATOM     25  H   UNL A   1      31.715  30.442  21.354  1.00  0.00     0.190 HD
ATOM     26  C   UNL A   1      29.734  28.500  22.636  1.00  0.00     0.157 A 
ENDBRANCH  17  20
ENDBRANCH  15  17
ENDBRANCH  14  15
ENDBRANCH  10  14
ENDBRANCH   7   9
ENDBRANCH   6   7
ENDBRANCH   5   6
ENDBRANCH   4   5
ENDBRANCH   3   4
ENDBRANCH   2   3
ENDBRANCH   1   2
BRANCH   1  27
ATOM     27  O   UNL A   1      42.265  19.925  27.193  1.00  0.00    -0.377 OA
BRANCH  27  28
ATOM     28  C   UNL A   1      42.515  19.572  25.843  1.00  0.00     0.188 C 
BRANCH  28  29
ATOM     29  C   UNL A   1      43.820  18.803  25.599  1.00  0.00     0.188 C 
BRANCH  29  30
ATOM     30  O   UNL A   1      44.641  19.433  24.611  1.00  0.00    -0.376 OA
BRANCH  30  31
ATOM     31  C   UNL A   1      45.750  20.191  25.073  1.00  0.00     0.202 C 
BRANCH  31  32
ATOM     32  C   UNL A   1      45.750  21.645  24.583  1.00  0.00     0.261 C 
BRANCH  32  33
ATOM     33  O   UNL A   1      45.170  22.600  25.483  1.00  0.00    -0.460 OA
BRANCH  33  34
ATOM     34  C   UNL A   1      43.948  23.086  25.169  1.00  0.00     0.338 C 
ATOM     35  O   UNL A   1      43.065  22.503  24.564  1.00  0.00    -0.246 OA
BRANCH  34  36
ATOM     36  C   UNL A   1      43.777  24.368  25.883  1.00  0.00     0.060 A 
ATOM     37  C   UNL A   1      43.510  25.520  25.132  1.00  0.00     0.016 A 
ATOM     38  C   UNL A   1      43.833  24.426  27.278  1.00  0.00     0.016 A 
ATOM     39  C   UNL A   1      43.324  26.742  25.776  1.00  0.00     0.010 A 
ATOM     40  C   UNL A   1      43.679  25.655  27.920  1.00  0.00     0.010 A 
ATOM     41  C   UNL A   1      43.456  26.823  27.168  1.00  0.00    -0.014 A 
BRANCH  41  42
ATOM     42  C   UNL A   1      43.625  28.150  27.804  1.00  0.00     0.031 A 
ATOM     43  C   UNL A   1      42.401  28.791  28.402  1.00  0.00     0.074 A 
ATOM     44  C   UNL A   1      44.820  28.760  27.870  1.00  0.00     0.049 A 
ATOM     45  N   UNL A   1      42.268  29.955  28.979  1.00  0.00    -0.248 NA
ATOM     46  C   UNL A   1      41.158  28.004  28.332  1.00  0.00     0.031 C 
ATOM     47  C   UNL A   1      46.079  28.214  27.365  1.00  0.00     0.029 A 
ATOM     48  N   UNL A   1      45.166  29.983  28.385  1.00  0.00    -0.354 N 
ATOM     49  C   UNL A   1      40.930  30.037  29.350  1.00  0.00     0.074 A 
ATOM     50  C   UNL A   1      40.287  28.825  28.894  1.00  0.00     0.031 C 
ATOM     51  C   UNL A   1      47.059  29.109  27.582  1.00  0.00     0.029 A 
ATOM     52  C   UNL A   1      46.493  30.302  28.210  1.00  0.00     0.049 A 
ATOM     53  H   UNL A   1      44.526  30.578  28.838  1.00  0.00     0.167 HD
ATOM     54  C   UNL A   1      40.296  31.030  30.020  1.00  0.00     0.034 A 
ATOM     55  C   UNL A   1      47.159  31.438  28.501  1.00  0.00     0.034 A 
ATOM     56  C   UNL A   1      40.943  32.249  30.434  1.00  0.00     0.049 A 
ATOM     57  C   UNL A   1      46.411  32.578  29.156  1.00  0.00     0.074 A 
ATOM     58  C   UNL A   1      40.398  33.329  31.103  1.00  0.00     0.029 A 
ATOM     59  N   UNL A   1      42.278  32.556  30.200  1.00  0.00    -0.354 N 
ATOM     60  N   UNL A   1      45.147  32.643  29.510  1.00  0.00    -0.248 NA
ATOM     61  C   UNL A   1      47.181  33.791  29.460  1.00  0.00     0.031 C 
ATOM     62  C   UNL A   1      41.384  34.317  31.213  1.00  0.00     0.029 A 
ATOM     63  C   UNL A   1      42.566  33.821  30.685  1.00  0.00     0.049 A 
ATOM     64  H   UNL A   1      42.924  31.961  29.755  1.00  0.00     0.167 HD
ATOM     65  C   UNL A   1      44.982  33.893  30.104  1.00  0.00     0.074 A 
ATOM     66  C   UNL A   1      46.276  34.541  30.072  1.00  0.00     0.031 C 
ATOM     67  C   UNL A   1      43.864  34.454  30.636  1.00  0.00     0.034 A 
BRANCH  54  68
ATOM     68  C   UNL A   1      38.823  30.847  30.282  1.00  0.00     0.023 A 
ATOM     69  C   UNL A   1      37.849  31.515  29.519  1.00  0.00     0.031 A 
ATOM     70  C   UNL A   1      38.386  30.034  31.342  1.00  0.00     0.131 A 
ATOM     71  C   UNL A   1      36.495  31.417  29.871  1.00  0.00     0.055 A 
ATOM     72  C   UNL A   1      37.031  29.878  31.638  1.00  0.00     0.041 A 
ATOM     73  F   UNL A   1      39.272  29.397  32.124  1.00  0.00    -0.206 F 
ATOM     74  C   UNL A   1      36.077  30.583  30.909  1.00  0.00     0.022 A 
BRANCH  71  75
ATOM     75  S   UNL A   1      35.302  32.508  29.047  1.00  0.00     0.124 S 
ATOM     76  O   UNL A   1      35.052  31.785  27.803  1.00  0.00    -0.237 OA
ATOM     77  O   UNL A   1      34.197  32.544  29.998  1.00  0.00    -0.237 OA
ATOM     78  O   UNL A   1      36.035  33.763  28.893  1.00  0.00    -0.744 OA
ENDBRANCH  71  75
ENDBRANCH  54  68
BRANCH  55  79
ATOM     79  C   UNL A   1      48.600  31.589  28.138  1.00  0.00     0.023 A 
ATOM     80  C   UNL A   1      49.619  31.080  28.958  1.00  0.00     0.031 A 
ATOM     81  C   UNL A   1      48.978  32.306  26.988  1.00  0.00     0.131 A 
ATOM     82  C   UNL A   1      50.964  31.335  28.644  1.00  0.00     0.055 A 
ATOM     83  C   UNL A   1      50.316  32.512  26.652  1.00  0.00     0.041 A 
ATOM     84  F   UNL A   1      48.044  32.819  26.170  1.00  0.00    -0.206 F 
ATOM     85  C   UNL A   1      51.320  32.036  27.489  1.00  0.00     0.022 A 
BRANCH  82  86
ATOM     86  S   UNL A   1      52.245  30.812  29.818  1.00  0.00     0.124 S 
ATOM     87  O   UNL A   1      52.505  32.049  30.545  1.00  0.00    -0.237 OA
ATOM     88  O   UNL A   1      51.562  29.761  30.564  1.00  0.00    -0.237 OA
ATOM     89  O   UNL A   1      53.333  30.356  28.954  1.00  0.00    -0.744 OA
ENDBRANCH  82  86
ENDBRANCH  55  79
BRANCH  67  90
ATOM     90  C   UNL A   1      44.009  35.817  31.268  1.00  0.00     0.023 A 
ATOM     91  C   UNL A   1      43.918  37.000  30.515  1.00  0.00     0.031 A 
ATOM     92  C   UNL A   1      44.237  35.929  32.653  1.00  0.00     0.131 A 
ATOM     93  C   UNL A   1      44.105  38.242  31.141  1.00  0.00     0.055 A 
ATOM     94  C   UNL A   1      44.363  37.169  33.279  1.00  0.00     0.041 A 
ATOM     95  F   UNL A   1      44.332  34.832  33.420  1.00  0.00    -0.206 F 
ATOM     96  C   UNL A   1      44.310  38.335  32.520  1.00  0.00     0.022 A 
BRANCH  93  97
ATOM     97  S   UNL A   1      44.162  39.737  30.114  1.00  0.00     0.124 S 
ATOM     98  O   UNL A   1      45.293  39.459  29.235  1.00  0.00    -0.237 OA
ATOM     99  O   UNL A   1      42.846  39.732  29.483  1.00  0.00    -0.237 OA
ATOM    100  O   UNL A   1      44.380  40.810  31.083  1.00  0.00    -0.744 OA
ENDBRANCH  93  97
ENDBRANCH  67  90
ENDBRANCH  41  42
ENDBRANCH  34  36
ENDBRANCH  33  34
ENDBRANCH  32  33
ENDBRANCH  31  32
ENDBRANCH  30  31
ENDBRANCH  29  30
ENDBRANCH  28  29
ENDBRANCH  27  28
ENDBRANCH   1  27
TORSDOF 27
ENDMDL
MODEL 2
REMARK VINA RESULT:      -9.0      2.277      7.714
REMARK SMILES Cc1[nH]ncc1S(=O)(=O)NC[C@@H]1CC[C@@H](C(=O)OCCOCCOCCOCCOC(=O)c2ccc(-c3c4nc(c(-c5cc(S(=O)(=O)[O-])ccc5F)c5ccc([nH]5)c(-c5cc(S(=O)(=O)[O-])ccc5F)c5nc(c(-c6cc(S(=O)(=O)[O-])ccc6F)c6ccc3[nH]6)C=C5)C=C4)cc2)O1
REMARK SMILES IDX 23 1 22 2 21 3 20 4 19 5 18 6 16 7 17 8 15 9 12 10 13 11
REMARK SMILES IDX 96 12 14 13 11 14 10 15 7 17 8 18 9 19 6 20 1 21 2 22 3 23
REMARK SMILES IDX 4 24 5 26 24 27 25 28 26 29 27 30 28 31 29 32 30 33 31 34
REMARK SMILES IDX 32 35 33 36 34 37 95 38 35 39 94 40 36 41 37 42 38 43 88 44
REMARK SMILES IDX 39 45 93 46 87 47 89 48 40 49 92 50 86 51 85 52 41 54 73 55
REMARK SMILES IDX 53 56 72 57 54 58 57 59 71 60 90 61 55 62 56 63 70 65 91 66
REMARK SMILES IDX 58 67 42 68 43 69 51 70 44 71 50 72 52 73 49 74 45 75 46 76
REMARK SMILES IDX 47 77 48 78 74 79 75 80 83 81 76 82 82 83 84 84 81 85 77 86
REMARK SMILES IDX 78 87 79 88 80 89 59 90 60 91 68 92 61 93 67 94 69 95 66 96
REMARK SMILES IDX 62 97 63 98 64 99 65 100
REMARK H PARENT 10 16 3 25 89 53 57 64
REMARK Flexibility Score: inf
ROOT
ATOM      1  C   UNL A   1      41.077  20.860  27.403  1.00  0.00     0.188 C 
ENDROOT
BRANCH   1   2
ATOM      2  C   UNL A   1      40.236  21.266  26.171  1.00  0.00     0.188 C 
BRANCH   2   3
ATOM      3  O   UNL A   1      38.945  21.854  26.293  1.00  0.00    -0.376 OA
BRANCH   3   4
ATOM      4  C   UNL A   1      38.016  21.763  25.229  1.00  0.00     0.202 C 
BRANCH   4   5
ATOM      5  C   UNL A   1      36.560  21.425  25.571  1.00  0.00     0.261 C 
BRANCH   5   6
ATOM      6  O   UNL A   1      35.673  21.277  24.454  1.00  0.00    -0.461 OA
BRANCH   6   7
ATOM      7  C   UNL A   1      34.394  20.898  24.737  1.00  0.00     0.335 C 
ATOM      8  O   UNL A   1      34.037  19.756  24.997  1.00  0.00    -0.249 OA
BRANCH   7   9
ATOM      9  C   UNL A   1      33.459  22.113  24.695  1.00  0.00     0.228 C 
ATOM     10  C   UNL A   1      33.600  23.836  23.129  1.00  0.00     0.134 C 
ATOM     11  C   UNL A   1      32.150  23.417  23.176  1.00  0.00     0.037 C 
ATOM     12  O   UNL A   1      34.231  23.252  24.265  1.00  0.00    -0.362 OA
ATOM     13  C   UNL A   1      32.284  22.018  23.721  1.00  0.00     0.047 C 
BRANCH  10  14
ATOM     14  C   UNL A   1      33.855  25.332  23.087  1.00  0.00     0.131 C 
BRANCH  14  15
ATOM     15  N   UNL A   1      33.249  26.141  24.168  1.00  0.00    -0.208 NA
ATOM     16  H   UNL A   1      32.775  25.482  24.786  1.00  0.00     0.141 HD
BRANCH  15  17
ATOM     17  S   UNL A   1      32.137  27.375  23.853  1.00  0.00     0.244 S 
ATOM     18  O   UNL A   1      32.310  27.769  22.477  1.00  0.00    -0.207 OA
ATOM     19  O   UNL A   1      32.322  28.346  24.914  1.00  0.00    -0.207 OA
BRANCH  17  20
ATOM     20  C   UNL A   1      30.505  26.889  24.025  1.00  0.00     0.122 A 
ATOM     21  C   UNL A   1      30.509  25.077  25.925  1.00  0.00     0.067 C 
ATOM     22  C   UNL A   1      29.945  25.966  24.888  1.00  0.00     0.052 A 
ATOM     23  N   UNL A   1      28.603  25.993  24.612  1.00  0.00    -0.281 N 
ATOM     24  N   UNL A   1      28.259  26.886  23.670  1.00  0.00    -0.183 NA
ATOM     25  H   UNL A   1      27.950  25.410  25.062  1.00  0.00     0.190 HD
ATOM     26  C   UNL A   1      29.425  27.429  23.306  1.00  0.00     0.157 A 
ENDBRANCH  17  20
ENDBRANCH  15  17
ENDBRANCH  14  15
ENDBRANCH  10  14
ENDBRANCH   7   9
ENDBRANCH   6   7
ENDBRANCH   5   6
ENDBRANCH   4   5
ENDBRANCH   3   4
ENDBRANCH   2   3
ENDBRANCH   1   2
BRANCH   1  27
ATOM     27  O   UNL A   1      42.298  20.225  27.084  1.00  0.00    -0.377 OA
BRANCH  27  28
ATOM     28  C   UNL A   1      42.281  19.437  25.906  1.00  0.00     0.188 C 
BRANCH  28  29
ATOM     29  C   UNL A   1      43.224  18.228  25.914  1.00  0.00     0.188 C 
BRANCH  29  30
ATOM     30  O   UNL A   1      44.286  18.365  24.965  1.00  0.00    -0.376 OA
BRANCH  30  31
ATOM     31  C   UNL A   1      45.563  18.732  25.465  1.00  0.00     0.202 C 
BRANCH  31  32
ATOM     32  C   UNL A   1      46.009  20.139  25.044  1.00  0.00     0.261 C 
BRANCH  32  33
ATOM     33  O   UNL A   1      45.254  21.221  25.608  1.00  0.00    -0.460 OA
BRANCH  33  34
ATOM     34  C   UNL A   1      44.661  22.079  24.747  1.00  0.00     0.338 C 
ATOM     35  O   UNL A   1      44.313  21.841  23.604  1.00  0.00    -0.246 OA
BRANCH  34  36
ATOM     36  C   UNL A   1      44.298  23.294  25.504  1.00  0.00     0.060 A 
ATOM     37  C   UNL A   1      43.927  24.441  24.788  1.00  0.00     0.016 A 
ATOM     38  C   UNL A   1      44.278  23.292  26.902  1.00  0.00     0.016 A 
ATOM     39  C   UNL A   1      43.559  25.598  25.471  1.00  0.00     0.010 A 
ATOM     40  C   UNL A   1      43.942  24.461  27.584  1.00  0.00     0.010 A 
ATOM     41  C   UNL A   1      43.612  25.628  26.871  1.00  0.00    -0.014 A 
BRANCH  41  42
ATOM     42  C   UNL A   1      43.583  26.934  27.570  1.00  0.00     0.031 A 
ATOM     43  C   UNL A   1      44.903  27.603  27.841  1.00  0.00     0.074 A 
ATOM     44  C   UNL A   1      42.430  27.518  27.936  1.00  0.00     0.049 A 
ATOM     45  N   UNL A   1      45.158  28.722  28.464  1.00  0.00    -0.248 NA
ATOM     46  C   UNL A   1      46.098  26.904  27.337  1.00  0.00     0.031 C 
ATOM     47  C   UNL A   1      41.092  26.983  27.686  1.00  0.00     0.029 A 
ATOM     48  N   UNL A   1      42.203  28.693  28.606  1.00  0.00    -0.354 N 
ATOM     49  C   UNL A   1      46.541  28.868  28.421  1.00  0.00     0.074 A 
ATOM     50  C   UNL A   1      47.070  27.702  27.748  1.00  0.00     0.031 C 
ATOM     51  C   UNL A   1      40.183  27.822  28.213  1.00  0.00     0.029 A 
ATOM     52  C   UNL A   1      40.873  28.935  28.865  1.00  0.00     0.049 A 
ATOM     53  H   UNL A   1      42.924  29.306  28.878  1.00  0.00     0.167 HD
ATOM     54  C   UNL A   1      47.300  29.886  28.891  1.00  0.00     0.034 A 
ATOM     55  C   UNL A   1      40.292  29.928  29.569  1.00  0.00     0.034 A 
ATOM     56  C   UNL A   1      46.760  31.023  29.593  1.00  0.00     0.049 A 
ATOM     57  C   UNL A   1      41.166  31.004  30.175  1.00  0.00     0.074 A 
ATOM     58  C   UNL A   1      47.434  32.106  30.127  1.00  0.00     0.029 A 
ATOM     59  N   UNL A   1      45.413  31.212  29.874  1.00  0.00    -0.354 N 
ATOM     60  N   UNL A   1      42.472  31.136  30.122  1.00  0.00    -0.248 NA
ATOM     61  C   UNL A   1      40.485  32.066  30.928  1.00  0.00     0.031 C 
ATOM     62  C   UNL A   1      46.503  32.914  30.791  1.00  0.00     0.029 A 
ATOM     63  C   UNL A   1      45.239  32.378  30.601  1.00  0.00     0.049 A 
ATOM     64  H   UNL A   1      44.688  30.606  29.597  1.00  0.00     0.167 HD
ATOM     65  C   UNL A   1      42.763  32.314  30.809  1.00  0.00     0.074 A 
ATOM     66  C   UNL A   1      41.497  32.857  31.254  1.00  0.00     0.031 C 
ATOM     67  C   UNL A   1      43.966  32.900  31.044  1.00  0.00     0.034 A 
BRANCH  54  68
ATOM     68  C   UNL A   1      48.791  29.771  28.704  1.00  0.00     0.023 A 
ATOM     69  C   UNL A   1      49.446  30.366  27.610  1.00  0.00     0.031 A 
ATOM     70  C   UNL A   1      49.564  29.016  29.603  1.00  0.00     0.131 A 
ATOM     71  C   UNL A   1      50.814  30.134  27.403  1.00  0.00     0.055 A 
ATOM     72  C   UNL A   1      50.940  28.855  29.434  1.00  0.00     0.041 A 
ATOM     73  F   UNL A   1      48.988  28.400  30.648  1.00  0.00    -0.206 F 
ATOM     74  C   UNL A   1      51.570  29.404  28.321  1.00  0.00     0.022 A 
BRANCH  71  75
ATOM     75  S   UNL A   1      51.559  30.678  25.841  1.00  0.00     0.124 S 
ATOM     76  O   UNL A   1      50.842  31.924  25.589  1.00  0.00    -0.237 OA
ATOM     77  O   UNL A   1      52.968  30.812  26.193  1.00  0.00    -0.237 OA
ATOM     78  O   UNL A   1      51.248  29.590  24.916  1.00  0.00    -0.744 OA
ENDBRANCH  71  75
ENDBRANCH  54  68
BRANCH  55  79
ATOM     79  C   UNL A   1      38.815  29.938  29.790  1.00  0.00     0.023 A 
ATOM     80  C   UNL A   1      37.967  30.757  29.028  1.00  0.00     0.031 A 
ATOM     81  C   UNL A   1      38.239  29.171  30.819  1.00  0.00     0.131 A 
ATOM     82  C   UNL A   1      36.598  30.825  29.335  1.00  0.00     0.055 A 
ATOM     83  C   UNL A   1      36.869  29.203  31.086  1.00  0.00     0.041 A 
ATOM     84  F   UNL A   1      39.005  28.375  31.582  1.00  0.00    -0.206 F 
ATOM     85  C   UNL A   1      36.041  30.044  30.350  1.00  0.00     0.022 A 
BRANCH  82  86
ATOM     86  S   UNL A   1      35.565  32.022  28.443  1.00  0.00     0.124 S 
ATOM     87  O   UNL A   1      34.923  31.175  27.445  1.00  0.00    -0.237 OA
ATOM     88  O   UNL A   1      34.703  32.529  29.505  1.00  0.00    -0.237 OA
ATOM     89  O   UNL A   1      36.534  32.982  27.917  1.00  0.00    -0.744 OA
ENDBRANCH  82  86
ENDBRANCH  55  79
BRANCH  67  90
ATOM     90  C   UNL A   1      43.961  34.220  31.776  1.00  0.00     0.023 A 
ATOM     91  C   UNL A   1      44.002  34.293  33.179  1.00  0.00     0.031 A 
ATOM     92  C   UNL A   1      43.918  35.426  31.051  1.00  0.00     0.131 A 
ATOM     93  C   UNL A   1      43.949  35.542  33.815  1.00  0.00     0.055 A 
ATOM     94  C   UNL A   1      43.925  36.667  31.688  1.00  0.00     0.041 A 
ATOM     95  F   UNL A   1      43.877  35.415  29.710  1.00  0.00    -0.206 F 
ATOM     96  C   UNL A   1      43.928  36.730  33.079  1.00  0.00     0.022 A 
BRANCH  93  97
ATOM     97  S   UNL A   1      43.822  35.596  35.624  1.00  0.00     0.124 S 
ATOM     98  O   UNL A   1      43.277  34.278  35.930  1.00  0.00    -0.237 OA
ATOM     99  O   UNL A   1      45.207  35.823  36.028  1.00  0.00    -0.237 OA
ATOM    100  O   UNL A   1      42.914  36.716  35.871  1.00  0.00    -0.744 OA
ENDBRANCH  93  97
ENDBRANCH  67  90
ENDBRANCH  41  42
ENDBRANCH  34  36
ENDBRANCH  33  34
ENDBRANCH  32  33
ENDBRANCH  31  32
ENDBRANCH  30  31
ENDBRANCH  29  30
ENDBRANCH  28  29
ENDBRANCH  27  28
ENDBRANCH   1  27
TORSDOF 27
ENDMDL
MODEL 3
REMARK VINA RESULT:      -8.7      1.660      1.996
REMARK SMILES Cc1[nH]ncc1S(=O)(=O)NC[C@@H]1CC[C@@H](C(=O)OCCOCCOCCOCCOC(=O)c2ccc(-c3c4nc(c(-c5cc(S(=O)(=O)[O-])ccc5F)c5ccc([nH]5)c(-c5cc(S(=O)(=O)[O-])ccc5F)c5nc(c(-c6cc(S(=O)(=O)[O-])ccc6F)c6ccc3[nH]6)C=C5)C=C4)cc2)O1
REMARK SMILES IDX 23 1 22 2 21 3 20 4 19 5 18 6 16 7 17 8 15 9 12 10 13 11
REMARK SMILES IDX 96 12 14 13 11 14 10 15 7 17 8 18 9 19 6 20 1 21 2 22 3 23
REMARK SMILES IDX 4 24 5 26 24 27 25 28 26 29 27 30 28 31 29 32 30 33 31 34
REMARK SMILES IDX 32 35 33 36 34 37 95 38 35 39 94 40 36 41 37 42 38 43 88 44
REMARK SMILES IDX 39 45 93 46 87 47 89 48 40 49 92 50 86 51 85 52 41 54 73 55
REMARK SMILES IDX 53 56 72 57 54 58 57 59 71 60 90 61 55 62 56 63 70 65 91 66
REMARK SMILES IDX 58 67 42 68 43 69 51 70 44 71 50 72 52 73 49 74 45 75 46 76
REMARK SMILES IDX 47 77 48 78 74 79 75 80 83 81 76 82 82 83 84 84 81 85 77 86
REMARK SMILES IDX 78 87 79 88 80 89 59 90 60 91 68 92 61 93 67 94 69 95 66 96
REMARK SMILES IDX 62 97 63 98 64 99 65 100
REMARK H PARENT 10 16 3 25 89 53 57 64
REMARK Flexibility Score: inf
ROOT
ATOM      1  C   UNL A   1      40.853  21.339  27.290  1.00  0.00     0.188 C 
ENDROOT
BRANCH   1   2
ATOM      2  C   UNL A   1      39.947  21.568  26.058  1.00  0.00     0.188 C 
BRANCH   2   3
ATOM      3  O   UNL A   1      38.659  22.166  26.163  1.00  0.00    -0.376 OA
BRANCH   3   4
ATOM      4  C   UNL A   1      37.732  22.055  25.100  1.00  0.00     0.202 C 
BRANCH   4   5
ATOM      5  C   UNL A   1      36.247  21.898  25.452  1.00  0.00     0.261 C 
BRANCH   5   6
ATOM      6  O   UNL A   1      35.391  21.479  24.381  1.00  0.00    -0.461 OA
BRANCH   6   7
ATOM      7  C   UNL A   1      34.116  21.136  24.718  1.00  0.00     0.335 C 
ATOM      8  O   UNL A   1      33.745  20.011  25.028  1.00  0.00    -0.249 OA
BRANCH   7   9
ATOM      9  C   UNL A   1      33.204  22.369  24.666  1.00  0.00     0.228 C 
ATOM     10  C   UNL A   1      32.818  23.648  22.755  1.00  0.00     0.134 C 
ATOM     11  C   UNL A   1      31.464  23.357  23.356  1.00  0.00     0.037 C 
ATOM     12  O   UNL A   1      33.785  23.312  23.745  1.00  0.00    -0.362 OA
ATOM     13  C   UNL A   1      31.780  22.125  24.165  1.00  0.00     0.047 C 
BRANCH  10  14
ATOM     14  C   UNL A   1      33.031  25.068  22.260  1.00  0.00     0.131 C 
BRANCH  14  15
ATOM     15  N   UNL A   1      32.138  26.108  22.818  1.00  0.00    -0.208 NA
ATOM     16  H   UNL A   1      32.210  26.910  22.192  1.00  0.00     0.141 HD
BRANCH  15  17
ATOM     17  S   UNL A   1      32.329  26.712  24.385  1.00  0.00     0.244 S 
ATOM     18  O   UNL A   1      33.742  26.729  24.670  1.00  0.00    -0.207 OA
ATOM     19  O   UNL A   1      31.431  25.931  25.215  1.00  0.00    -0.207 OA
BRANCH  17  20
ATOM     20  C   UNL A   1      31.768  28.317  24.575  1.00  0.00     0.122 A 
ATOM     21  C   UNL A   1      29.602  28.483  23.100  1.00  0.00     0.067 C 
ATOM     22  C   UNL A   1      30.660  28.937  24.027  1.00  0.00     0.052 A 
ATOM     23  N   UNL A   1      30.680  30.209  24.533  1.00  0.00    -0.281 N 
ATOM     24  N   UNL A   1      31.688  30.439  25.390  1.00  0.00    -0.183 NA
ATOM     25  H   UNL A   1      30.016  30.895  24.291  1.00  0.00     0.190 HD
ATOM     26  C   UNL A   1      32.358  29.281  25.409  1.00  0.00     0.157 A 
ENDBRANCH  17  20
ENDBRANCH  15  17
ENDBRANCH  14  15
ENDBRANCH  10  14
ENDBRANCH   7   9
ENDBRANCH   6   7
ENDBRANCH   5   6
ENDBRANCH   4   5
ENDBRANCH   3   4
ENDBRANCH   2   3
ENDBRANCH   1   2
BRANCH   1  27
ATOM     27  O   UNL A   1      42.060  20.663  27.001  1.00  0.00    -0.377 OA
BRANCH  27  28
ATOM     28  C   UNL A   1      41.927  19.509  26.188  1.00  0.00     0.188 C 
BRANCH  28  29
ATOM     29  C   UNL A   1      42.964  18.408  26.440  1.00  0.00     0.188 C 
BRANCH  29  30
ATOM     30  O   UNL A   1      43.882  18.271  25.350  1.00  0.00    -0.376 OA
BRANCH  30  31
ATOM     31  C   UNL A   1      45.164  18.862  25.500  1.00  0.00     0.202 C 
BRANCH  31  32
ATOM     32  C   UNL A   1      45.347  20.151  24.688  1.00  0.00     0.261 C 
BRANCH  32  33
ATOM     33  O   UNL A   1      44.831  21.343  25.296  1.00  0.00    -0.460 OA
BRANCH  33  34
ATOM     34  C   UNL A   1      44.458  22.349  24.472  1.00  0.00     0.338 C 
ATOM     35  O   UNL A   1      44.126  22.249  23.303  1.00  0.00    -0.246 OA
BRANCH  34  36
ATOM     36  C   UNL A   1      44.301  23.567  25.292  1.00  0.00     0.060 A 
ATOM     37  C   UNL A   1      43.919  24.755  24.656  1.00  0.00     0.016 A 
ATOM     38  C   UNL A   1      44.483  23.529  26.678  1.00  0.00     0.016 A 
ATOM     39  C   UNL A   1      43.743  25.918  25.404  1.00  0.00     0.010 A 
ATOM     40  C   UNL A   1      44.339  24.701  27.420  1.00  0.00     0.010 A 
ATOM     41  C   UNL A   1      43.999  25.907  26.781  1.00  0.00    -0.014 A 
BRANCH  41  42
ATOM     42  C   UNL A   1      44.171  27.192  27.497  1.00  0.00     0.031 A 
ATOM     43  C   UNL A   1      42.938  27.832  28.075  1.00  0.00     0.074 A 
ATOM     44  C   UNL A   1      45.377  27.766  27.649  1.00  0.00     0.049 A 
ATOM     45  N   UNL A   1      42.807  28.966  28.710  1.00  0.00    -0.248 NA
ATOM     46  C   UNL A   1      41.681  27.084  27.906  1.00  0.00     0.031 C 
ATOM     47  C   UNL A   1      46.644  27.214  27.170  1.00  0.00     0.029 A 
ATOM     48  N   UNL A   1      45.729  28.949  28.247  1.00  0.00    -0.354 N 
ATOM     49  C   UNL A   1      41.455  29.063  29.026  1.00  0.00     0.074 A 
ATOM     50  C   UNL A   1      40.804  27.895  28.475  1.00  0.00     0.031 C 
ATOM     51  C   UNL A   1      47.634  28.069  27.479  1.00  0.00     0.029 A 
ATOM     52  C   UNL A   1      47.070  29.241  28.148  1.00  0.00     0.049 A 
ATOM     53  H   UNL A   1      45.083  29.534  28.704  1.00  0.00     0.167 HD
ATOM     54  C   UNL A   1      40.817  30.035  29.721  1.00  0.00     0.034 A 
ATOM     55  C   UNL A   1      47.749  30.342  28.531  1.00  0.00     0.034 A 
ATOM     56  C   UNL A   1      41.473  31.211  30.231  1.00  0.00     0.049 A 
ATOM     57  C   UNL A   1      47.000  31.463  29.216  1.00  0.00     0.074 A 
ATOM     58  C   UNL A   1      40.925  32.268  30.935  1.00  0.00     0.029 A 
ATOM     59  N   UNL A   1      42.824  31.494  30.074  1.00  0.00    -0.354 N 
ATOM     60  N   UNL A   1      45.723  31.543  29.516  1.00  0.00    -0.248 NA
ATOM     61  C   UNL A   1      47.785  32.637  29.620  1.00  0.00     0.031 C 
ATOM     62  C   UNL A   1      41.929  33.221  31.143  1.00  0.00     0.029 A 
ATOM     63  C   UNL A   1      43.121  32.723  30.640  1.00  0.00     0.049 A 
ATOM     64  H   UNL A   1      43.475  30.908  29.625  1.00  0.00     0.167 HD
ATOM     65  C   UNL A   1      45.561  32.763  30.171  1.00  0.00     0.074 A 
ATOM     66  C   UNL A   1      46.871  33.376  30.232  1.00  0.00     0.031 C 
ATOM     67  C   UNL A   1      44.435  33.323  30.684  1.00  0.00     0.034 A 
BRANCH  54  68
ATOM     68  C   UNL A   1      39.329  29.877  29.908  1.00  0.00     0.023 A 
ATOM     69  C   UNL A   1      38.407  30.525  29.066  1.00  0.00     0.031 A 
ATOM     70  C   UNL A   1      38.824  29.111  30.973  1.00  0.00     0.131 A 
ATOM     71  C   UNL A   1      37.034  30.454  29.346  1.00  0.00     0.055 A 
ATOM     72  C   UNL A   1      37.453  28.980  31.198  1.00  0.00     0.041 A 
ATOM     73  F   UNL A   1      39.657  28.496  31.827  1.00  0.00    -0.206 F 
ATOM     74  C   UNL A   1      36.549  29.665  30.391  1.00  0.00     0.022 A 
BRANCH  71  75
ATOM     75  S   UNL A   1      35.903  31.523  28.415  1.00  0.00     0.124 S 
ATOM     76  O   UNL A   1      35.613  30.699  27.245  1.00  0.00    -0.237 OA
ATOM     77  O   UNL A   1      34.801  31.711  29.352  1.00  0.00    -0.237 OA
ATOM     78  O   UNL A   1      36.702  32.716  28.146  1.00  0.00    -0.744 OA
ENDBRANCH  71  75
ENDBRANCH  54  68
BRANCH  55  79
ATOM     79  C   UNL A   1      49.208  30.473  28.241  1.00  0.00     0.023 A 
ATOM     80  C   UNL A   1      49.674  31.262  27.177  1.00  0.00     0.031 A 
ATOM     81  C   UNL A   1      50.156  29.754  28.991  1.00  0.00     0.131 A 
ATOM     82  C   UNL A   1      51.043  31.277  26.863  1.00  0.00     0.055 A 
ATOM     83  C   UNL A   1      51.522  29.814  28.708  1.00  0.00     0.041 A 
ATOM     84  F   UNL A   1      49.765  28.980  30.016  1.00  0.00    -0.206 F 
ATOM     85  C   UNL A   1      51.971  30.569  27.630  1.00  0.00     0.022 A 
BRANCH  82  86
ATOM     86  S   UNL A   1      51.585  32.168  25.379  1.00  0.00     0.124 S 
ATOM     87  O   UNL A   1      51.649  31.095  24.394  1.00  0.00    -0.237 OA
ATOM     88  O   UNL A   1      50.512  33.140  25.200  1.00  0.00    -0.237 OA
ATOM     89  O   UNL A   1      52.875  32.733  25.772  1.00  0.00    -0.744 OA
ENDBRANCH  82  86
ENDBRANCH  55  79
BRANCH  67  90
ATOM     90  C   UNL A   1      44.584  34.645  31.398  1.00  0.00     0.023 A 
ATOM     91  C   UNL A   1      44.485  35.872  30.719  1.00  0.00     0.031 A 
ATOM     92  C   UNL A   1      44.824  34.672  32.784  1.00  0.00     0.131 A 
ATOM     93  C   UNL A   1      44.676  37.073  31.418  1.00  0.00     0.055 A 
ATOM     94  C   UNL A   1      44.954  35.872  33.484  1.00  0.00     0.041 A 
ATOM     95  F   UNL A   1      44.927  33.531  33.482  1.00  0.00    -0.206 F 
ATOM     96  C   UNL A   1      44.893  37.082  32.799  1.00  0.00     0.022 A 
BRANCH  93  97
ATOM     97  S   UNL A   1      44.723  38.628  30.484  1.00  0.00     0.124 S 
ATOM     98  O   UNL A   1      43.417  38.630  29.833  1.00  0.00    -0.237 OA
ATOM     99  O   UNL A   1      44.911  39.620  31.539  1.00  0.00    -0.237 OA
ATOM    100  O   UNL A   1      45.863  38.455  29.586  1.00  0.00    -0.744 OA
ENDBRANCH  93  97
ENDBRANCH  67  90
ENDBRANCH  41  42
ENDBRANCH  34  36
ENDBRANCH  33  34
ENDBRANCH  32  33
ENDBRANCH  31  32
ENDBRANCH  30  31
ENDBRANCH  29  30
ENDBRANCH  28  29
ENDBRANCH  27  28
ENDBRANCH   1  27
TORSDOF 27
ENDMDL
