MODEL 1
REMARK VINA RESULT:      -9.8      0.000      0.000
REMARK SMILES CCc1cc(C(=O)N[C@@H]2C=C[C@H](C(=O)OCCOCCOCCOCCOC(=O)c3ccc(-c4c5nc(c(-c6cc(S(=O)(=O)[O-])ccc6F)c6ccc([nH]6)c(-c6cc(S(=O)(=O)[O-])ccc6F)c6nc(c(-c7cc(S(=O)(=O)[O-])ccc7F)c7ccc4[nH]7)C=C6)C=C5)cc3)C2)n(C)n1
REMARK SMILES IDX 21 1 20 2 19 3 18 4 17 5 16 6 15 7 13 8 14 9 12 10 9 11
REMARK SMILES IDX 10 12 93 13 11 14 8 15 6 16 7 17 5 19 3 20 4 21 96 22 94 23
REMARK SMILES IDX 95 24 2 25 1 26 22 27 23 28 24 29 25 30 26 31 27 32 28 33
REMARK SMILES IDX 29 34 30 35 31 36 92 37 32 38 91 39 33 40 34 41 35 42 85 43
REMARK SMILES IDX 36 44 90 45 84 46 86 47 37 48 89 49 83 50 82 51 38 53 70 54
REMARK SMILES IDX 50 55 69 56 51 57 54 58 68 59 87 60 52 61 53 62 67 64 88 65
REMARK SMILES IDX 55 66 39 67 40 68 48 69 41 70 47 71 49 72 46 73 42 74 43 75
REMARK SMILES IDX 44 76 45 77 71 78 72 79 80 80 73 81 79 82 81 83 78 84 74 85
REMARK SMILES IDX 75 86 76 87 77 88 56 89 57 90 65 91 58 92 64 93 66 94 63 95
REMARK SMILES IDX 59 96 60 97 61 98 62 99
REMARK H PARENT 8 18 86 52 54 63
REMARK Flexibility Score: inf
ROOT
ATOM      1  O   UNL A   1      36.651  29.391  30.007  1.00  0.00    -0.377 OA
ENDROOT
BRANCH   1   2
ATOM      2  C   UNL A   1      35.991  29.999  28.952  1.00  0.00     0.188 C 
BRANCH   2   3
ATOM      3  C   UNL A   1      35.298  31.387  28.935  1.00  0.00     0.188 C 
BRANCH   3   4
ATOM      4  O   UNL A   1      34.010  31.524  28.391  1.00  0.00    -0.376 OA
BRANCH   4   5
ATOM      5  C   UNL A   1      33.767  30.802  27.208  1.00  0.00     0.202 C 
BRANCH   5   6
ATOM      6  C   UNL A   1      32.526  29.875  27.133  1.00  0.00     0.261 C 
BRANCH   6   7
ATOM      7  O   UNL A   1      31.703  29.899  25.927  1.00  0.00    -0.463 OA
BRANCH   7   8
ATOM      8  C   UNL A   1      32.092  29.268  24.778  1.00  0.00     0.312 C 
ATOM      9  O   UNL A   1      33.152  29.495  24.212  1.00  0.00    -0.252 OA
BRANCH   8  10
ATOM     10  C   UNL A   1      31.006  28.243  24.275  1.00  0.00     0.124 C 
ATOM     11  C   UNL A   1      31.066  25.928  23.183  1.00  0.00     0.106 C 
ATOM     12  C   UNL A   1      30.868  27.066  22.208  1.00  0.00    -0.006 C 
ATOM     13  C   UNL A   1      31.337  26.743  24.438  1.00  0.00     0.048 C 
ATOM     14  C   UNL A   1      30.817  28.278  22.787  1.00  0.00    -0.014 C 
BRANCH  11  15
ATOM     15  N   UNL A   1      32.191  25.072  22.736  1.00  0.00    -0.344 N 
ATOM     16  C   UNL A   1      32.555  23.745  22.547  1.00  0.00     0.270 C 
ATOM     17  O   UNL A   1      33.499  23.652  21.748  1.00  0.00    -0.268 OA
ATOM     18  H   UNL A   1      32.947  25.647  22.483  1.00  0.00     0.164 HD
BRANCH  16  19
ATOM     19  C   UNL A   1      32.154  22.491  23.280  1.00  0.00     0.126 A 
ATOM     20  C   UNL A   1      32.617  19.505  23.415  1.00  0.00     0.063 A 
ATOM     21  C   UNL A   1      31.984  21.004  22.362  1.00  0.00     0.059 A 
ATOM     22  N   UNL A   1      32.977  20.152  25.022  1.00  0.00    -0.178 NA
ATOM     23  N   UNL A   1      32.601  22.002  24.978  1.00  0.00    -0.263 N 
ATOM     24  C   UNL A   1      31.994  22.782  26.064  1.00  0.00     0.174 C 
BRANCH  20  25
ATOM     25  C   UNL A   1      32.438  18.089  22.954  1.00  0.00     0.055 C 
ATOM     26  C   UNL A   1      33.465  17.058  23.345  1.00  0.00     0.011 C 
ENDBRANCH  20  25
ENDBRANCH  16  19
ENDBRANCH  11  15
ENDBRANCH   8  10
ENDBRANCH   7   8
ENDBRANCH   6   7
ENDBRANCH   5   6
ENDBRANCH   4   5
ENDBRANCH   3   4
ENDBRANCH   2   3
ENDBRANCH   1   2
BRANCH   1  27
ATOM     27  C   UNL A   1      38.035  29.286  29.982  1.00  0.00     0.188 C 
BRANCH  27  28
ATOM     28  C   UNL A   1      38.908  29.133  31.235  1.00  0.00     0.188 C 
BRANCH  28  29
ATOM     29  O   UNL A   1      39.000  30.003  32.366  1.00  0.00    -0.376 OA
BRANCH  29  30
ATOM     30  C   UNL A   1      37.812  30.732  33.145  1.00  0.00     0.202 C 
BRANCH  30  31
ATOM     31  C   UNL A   1      36.243  32.209  32.462  1.00  0.00     0.261 C 
BRANCH  31  32
ATOM     32  O   UNL A   1      36.688  33.777  31.803  1.00  0.00    -0.460 OA
BRANCH  32  33
ATOM     33  C   UNL A   1      37.848  34.432  32.194  1.00  0.00     0.338 C 
ATOM     34  O   UNL A   1      37.938  35.156  33.178  1.00  0.00    -0.246 OA
BRANCH  33  35
ATOM     35  C   UNL A   1      39.105  34.172  31.390  1.00  0.00     0.060 A 
ATOM     36  C   UNL A   1      40.375  34.279  31.997  1.00  0.00     0.016 A 
ATOM     37  C   UNL A   1      39.069  34.128  29.999  1.00  0.00     0.016 A 
ATOM     38  C   UNL A   1      41.578  34.278  31.254  1.00  0.00     0.010 A 
ATOM     39  C   UNL A   1      40.267  34.192  29.244  1.00  0.00     0.010 A 
ATOM     40  C   UNL A   1      41.533  34.278  29.861  1.00  0.00    -0.014 A 
BRANCH  40  41
ATOM     41  C   UNL A   1      42.761  34.532  29.042  1.00  0.00     0.031 A 
ATOM     42  C   UNL A   1      43.744  33.405  28.836  1.00  0.00     0.074 A 
ATOM     43  C   UNL A   1      43.015  35.743  28.505  1.00  0.00     0.049 A 
ATOM     44  N   UNL A   1      44.965  33.431  28.368  1.00  0.00    -0.248 NA
ATOM     45  C   UNL A   1      43.278  32.063  29.219  1.00  0.00     0.031 C 
ATOM     46  C   UNL A   1      42.097  36.879  28.534  1.00  0.00     0.029 A 
ATOM     47  N   UNL A   1      44.127  36.232  27.855  1.00  0.00    -0.354 N 
ATOM     48  C   UNL A   1      45.430  32.119  28.439  1.00  0.00     0.074 A 
ATOM     49  C   UNL A   1      44.355  31.323  28.990  1.00  0.00     0.031 C 
ATOM     50  C   UNL A   1      42.697  37.944  27.972  1.00  0.00     0.029 A 
ATOM     51  C   UNL A   1      44.065  37.586  27.605  1.00  0.00     0.049 A 
ATOM     52  H   UNL A   1      44.893  35.669  27.595  1.00  0.00     0.167 HD
ATOM     53  C   UNL A   1      46.651  31.637  28.094  1.00  0.00     0.034 A 
ATOM     54  C   UNL A   1      45.019  38.449  27.190  1.00  0.00     0.034 A 
ATOM     55  C   UNL A   1      47.704  32.461  27.548  1.00  0.00     0.049 A 
ATOM     56  C   UNL A   1      46.405  37.911  26.907  1.00  0.00     0.074 A 
ATOM     57  C   UNL A   1      48.975  32.087  27.148  1.00  0.00     0.029 A 
ATOM     58  N   UNL A   1      47.613  33.833  27.343  1.00  0.00    -0.354 N 
ATOM     59  N   UNL A   1      46.844  36.675  27.003  1.00  0.00    -0.248 NA
ATOM     60  C   UNL A   1      47.420  38.874  26.464  1.00  0.00     0.031 C 
ATOM     61  C   UNL A   1      49.681  33.241  26.800  1.00  0.00     0.029 A 
ATOM     62  C   UNL A   1      48.819  34.325  26.872  1.00  0.00     0.049 A 
ATOM     63  H   UNL A   1      46.808  34.376  27.508  1.00  0.00     0.167 HD
ATOM     64  C   UNL A   1      48.176  36.711  26.599  1.00  0.00     0.074 A 
ATOM     65  C   UNL A   1      48.461  38.085  26.241  1.00  0.00     0.031 C 
ATOM     66  C   UNL A   1      49.083  35.703  26.528  1.00  0.00     0.034 A 
BRANCH  53  67
ATOM     67  C   UNL A   1      46.951  30.180  28.374  1.00  0.00     0.023 A 
ATOM     68  C   UNL A   1      46.834  29.181  27.392  1.00  0.00     0.031 A 
ATOM     69  C   UNL A   1      47.371  29.789  29.660  1.00  0.00     0.131 A 
ATOM     70  C   UNL A   1      47.084  27.839  27.725  1.00  0.00     0.055 A 
ATOM     71  C   UNL A   1      47.693  28.465  29.964  1.00  0.00     0.041 A 
ATOM     72  F   UNL A   1      47.473  30.691  30.649  1.00  0.00    -0.206 F 
ATOM     73  C   UNL A   1      47.540  27.479  28.995  1.00  0.00     0.022 A 
BRANCH  70  74
ATOM     74  S   UNL A   1      46.681  26.549  26.514  1.00  0.00     0.124 S 
ATOM     75  O   UNL A   1      46.837  27.269  25.253  1.00  0.00    -0.237 OA
ATOM     76  O   UNL A   1      47.683  25.527  26.795  1.00  0.00    -0.237 OA
ATOM     77  O   UNL A   1      45.307  26.182  26.847  1.00  0.00    -0.744 OA
ENDBRANCH  70  74
ENDBRANCH  53  67
BRANCH  54  78
ATOM     78  C   UNL A   1      44.740  39.917  27.098  1.00  0.00     0.023 A 
ATOM     79  C   UNL A   1      44.336  40.513  25.891  1.00  0.00     0.031 A 
ATOM     80  C   UNL A   1      44.946  40.765  28.204  1.00  0.00     0.131 A 
ATOM     81  C   UNL A   1      44.204  41.909  25.804  1.00  0.00     0.055 A 
ATOM     82  C   UNL A   1      44.741  42.144  28.132  1.00  0.00     0.041 A 
ATOM     83  F   UNL A   1      45.352  40.262  29.381  1.00  0.00    -0.206 F 
ATOM     84  C   UNL A   1      44.382  42.727  26.922  1.00  0.00     0.022 A 
BRANCH  81  85
ATOM     85  S   UNL A   1      43.922  42.656  24.174  1.00  0.00     0.124 S 
ATOM     86  O   UNL A   1      43.689  44.051  24.526  1.00  0.00    -0.237 OA
ATOM     87  O   UNL A   1      45.177  42.367  23.489  1.00  0.00    -0.237 OA
ATOM     88  O   UNL A   1      42.755  41.935  23.668  1.00  0.00    -0.744 OA
ENDBRANCH  81  85
ENDBRANCH  54  78
BRANCH  66  89
ATOM     89  C   UNL A   1      50.452  36.045  25.990  1.00  0.00     0.023 A 
ATOM     90  C   UNL A   1      51.575  36.144  26.828  1.00  0.00     0.031 A 
ATOM     91  C   UNL A   1      50.631  36.282  24.615  1.00  0.00     0.131 A 
ATOM     92  C   UNL A   1      52.811  36.537  26.295  1.00  0.00     0.055 A 
ATOM     93  C   UNL A   1      51.880  36.591  24.078  1.00  0.00     0.041 A 
ATOM     94  F   UNL A   1      49.592  36.210  23.767  1.00  0.00    -0.206 F 
ATOM     95  C   UNL A   1      52.977  36.736  24.922  1.00  0.00     0.022 A 
BRANCH  92  96
ATOM     96  S   UNL A   1      54.169  36.908  27.437  1.00  0.00     0.124 S 
ATOM     97  O   UNL A   1      55.064  37.696  26.596  1.00  0.00    -0.237 OA
ATOM     98  O   UNL A   1      53.491  37.637  28.504  1.00  0.00    -0.237 OA
ATOM     99  O   UNL A   1      54.672  35.588  27.812  1.00  0.00    -0.744 OA
ENDBRANCH  92  96
ENDBRANCH  66  89
ENDBRANCH  40  41
ENDBRANCH  33  35
ENDBRANCH  32  33
ENDBRANCH  31  32
ENDBRANCH  30  31
ENDBRANCH  29  30
ENDBRANCH  28  29
ENDBRANCH  27  28
ENDBRANCH   1  27
TORSDOF 26
ENDMDL
MODEL 2
REMARK VINA RESULT:      -9.6      2.849      4.914
REMARK SMILES CCc1cc(C(=O)N[C@@H]2C=C[C@H](C(=O)OCCOCCOCCOCCOC(=O)c3ccc(-c4c5nc(c(-c6cc(S(=O)(=O)[O-])ccc6F)c6ccc([nH]6)c(-c6cc(S(=O)(=O)[O-])ccc6F)c6nc(c(-c7cc(S(=O)(=O)[O-])ccc7F)c7ccc4[nH]7)C=C6)C=C5)cc3)C2)n(C)n1
REMARK SMILES IDX 21 1 20 2 19 3 18 4 17 5 16 6 15 7 13 8 14 9 12 10 9 11
REMARK SMILES IDX 10 12 93 13 11 14 8 15 6 16 7 17 5 19 3 20 4 21 96 22 94 23
REMARK SMILES IDX 95 24 2 25 1 26 22 27 23 28 24 29 25 30 26 31 27 32 28 33
REMARK SMILES IDX 29 34 30 35 31 36 92 37 32 38 91 39 33 40 34 41 35 42 85 43
REMARK SMILES IDX 36 44 90 45 84 46 86 47 37 48 89 49 83 50 82 51 38 53 70 54
REMARK SMILES IDX 50 55 69 56 51 57 54 58 68 59 87 60 52 61 53 62 67 64 88 65
REMARK SMILES IDX 55 66 39 67 40 68 48 69 41 70 47 71 49 72 46 73 42 74 43 75
REMARK SMILES IDX 44 76 45 77 71 78 72 79 80 80 73 81 79 82 81 83 78 84 74 85
REMARK SMILES IDX 75 86 76 87 77 88 56 89 57 90 65 91 58 92 64 93 66 94 63 95
REMARK SMILES IDX 59 96 60 97 61 98 62 99
REMARK H PARENT 8 18 86 52 54 63
REMARK Flexibility Score: inf
ROOT
ATOM      1  O   UNL A   1      33.022  28.360  25.296  1.00  0.00    -0.377 OA
ENDROOT
BRANCH   1   2
ATOM      2  C   UNL A   1      32.609  27.737  24.130  1.00  0.00     0.188 C 
BRANCH   2   3
ATOM      3  C   UNL A   1      31.775  26.437  23.990  1.00  0.00     0.188 C 
BRANCH   3   4
ATOM      4  O   UNL A   1      32.314  25.206  24.403  1.00  0.00    -0.376 OA
BRANCH   4   5
ATOM      5  C   UNL A   1      31.459  24.391  25.168  1.00  0.00     0.202 C 
BRANCH   5   6
ATOM      6  C   UNL A   1      31.890  22.935  25.484  1.00  0.00     0.261 C 
BRANCH   6   7
ATOM      7  O   UNL A   1      33.140  22.714  26.205  1.00  0.00    -0.463 OA
BRANCH   7   8
ATOM      8  C   UNL A   1      34.119  21.896  25.713  1.00  0.00     0.312 C 
ATOM      9  O   UNL A   1      34.115  20.681  25.855  1.00  0.00    -0.252 OA
BRANCH   8  10
ATOM     10  C   UNL A   1      35.248  22.709  24.972  1.00  0.00     0.124 C 
ATOM     11  C   UNL A   1      37.807  22.662  24.962  1.00  0.00     0.106 C 
ATOM     12  C   UNL A   1      37.212  23.730  25.850  1.00  0.00    -0.006 C 
ATOM     13  C   UNL A   1      36.526  21.932  24.588  1.00  0.00     0.048 C 
ATOM     14  C   UNL A   1      35.868  23.765  25.837  1.00  0.00    -0.014 C 
BRANCH  11  15
ATOM     15  N   UNL A   1      38.787  21.856  25.729  1.00  0.00    -0.344 N 
ATOM     16  C   UNL A   1      39.909  21.970  26.540  1.00  0.00     0.270 C 
ATOM     17  O   UNL A   1      40.058  20.957  27.239  1.00  0.00    -0.268 OA
ATOM     18  H   UNL A   1      38.563  20.904  25.629  1.00  0.00     0.164 HD
BRANCH  16  19
ATOM     19  C   UNL A   1      41.031  22.976  26.547  1.00  0.00     0.126 A 
ATOM     20  C   UNL A   1      43.503  23.866  25.049  1.00  0.00     0.063 A 
ATOM     21  C   UNL A   1      42.629  22.452  26.043  1.00  0.00     0.059 A 
ATOM     22  N   UNL A   1      42.436  25.274  25.159  1.00  0.00    -0.178 NA
ATOM     23  N   UNL A   1      40.931  24.758  26.175  1.00  0.00    -0.263 N 
ATOM     24  C   UNL A   1      40.230  25.593  27.158  1.00  0.00     0.174 C 
BRANCH  20  25
ATOM     25  C   UNL A   1      44.942  23.765  24.638  1.00  0.00     0.055 C 
ATOM     26  C   UNL A   1      45.907  23.032  25.534  1.00  0.00     0.011 C 
ENDBRANCH  20  25
ENDBRANCH  16  19
ENDBRANCH  11  15
ENDBRANCH   8  10
ENDBRANCH   7   8
ENDBRANCH   6   7
ENDBRANCH   5   6
ENDBRANCH   4   5
ENDBRANCH   3   4
ENDBRANCH   2   3
ENDBRANCH   1   2
BRANCH   1  27
ATOM     27  C   UNL A   1      32.739  29.705  25.491  1.00  0.00     0.188 C 
BRANCH  27  28
ATOM     28  C   UNL A   1      32.999  30.457  26.804  1.00  0.00     0.188 C 
BRANCH  28  29
ATOM     29  O   UNL A   1      34.203  30.511  27.574  1.00  0.00    -0.376 OA
BRANCH  29  30
ATOM     30  C   UNL A   1      34.619  31.592  28.672  1.00  0.00     0.202 C 
BRANCH  30  31
ATOM     31  C   UNL A   1      36.537  31.909  29.826  1.00  0.00     0.261 C 
BRANCH  31  32
ATOM     32  O   UNL A   1      36.777  33.335  30.828  1.00  0.00    -0.460 OA
BRANCH  32  33
ATOM     33  C   UNL A   1      37.924  33.506  31.591  1.00  0.00     0.338 C 
ATOM     34  O   UNL A   1      38.068  33.081  32.731  1.00  0.00    -0.246 OA
BRANCH  33  35
ATOM     35  C   UNL A   1      39.101  34.203  30.942  1.00  0.00     0.060 A 
ATOM     36  C   UNL A   1      39.055  34.559  29.576  1.00  0.00     0.016 A 
ATOM     37  C   UNL A   1      40.347  34.235  31.563  1.00  0.00     0.016 A 
ATOM     38  C   UNL A   1      40.194  34.995  28.863  1.00  0.00     0.010 A 
ATOM     39  C   UNL A   1      41.505  34.608  30.837  1.00  0.00     0.010 A 
ATOM     40  C   UNL A   1      41.445  34.983  29.478  1.00  0.00    -0.014 A 
BRANCH  40  41
ATOM     41  C   UNL A   1      42.703  35.190  28.691  1.00  0.00     0.031 A 
ATOM     42  C   UNL A   1      43.633  34.019  28.486  1.00  0.00     0.074 A 
ATOM     43  C   UNL A   1      43.029  36.396  28.183  1.00  0.00     0.049 A 
ATOM     44  N   UNL A   1      44.864  33.992  28.045  1.00  0.00    -0.248 NA
ATOM     45  C   UNL A   1      43.092  32.696  28.832  1.00  0.00     0.031 C 
ATOM     46  C   UNL A   1      42.168  37.577  28.214  1.00  0.00     0.029 A 
ATOM     47  N   UNL A   1      44.178  36.840  27.568  1.00  0.00    -0.354 N 
ATOM     48  C   UNL A   1      45.262  32.658  28.101  1.00  0.00     0.074 A 
ATOM     49  C   UNL A   1      44.136  31.907  28.613  1.00  0.00     0.031 C 
ATOM     50  C   UNL A   1      42.833  38.619  27.685  1.00  0.00     0.029 A 
ATOM     51  C   UNL A   1      44.190  38.201  27.342  1.00  0.00     0.049 A 
ATOM     52  H   UNL A   1      44.921  36.245  27.314  1.00  0.00     0.167 HD
ATOM     53  C   UNL A   1      46.465  32.121  27.774  1.00  0.00     0.034 A 
ATOM     54  C   UNL A   1      45.194  39.022  26.965  1.00  0.00     0.034 A 
ATOM     55  C   UNL A   1      47.569  32.902  27.268  1.00  0.00     0.049 A 
ATOM     56  C   UNL A   1      46.558  38.420  26.703  1.00  0.00     0.074 A 
ATOM     57  C   UNL A   1      48.829  32.471  26.890  1.00  0.00     0.029 A 
ATOM     58  N   UNL A   1      47.552  34.280  27.087  1.00  0.00    -0.354 N 
ATOM     59  N   UNL A   1      46.933  37.163  26.785  1.00  0.00    -0.248 NA
ATOM     60  C   UNL A   1      47.630  39.339  26.301  1.00  0.00     0.031 C 
ATOM     61  C   UNL A   1      49.600  33.595  26.579  1.00  0.00     0.029 A 
ATOM     62  C   UNL A   1      48.792  34.719  26.652  1.00  0.00     0.049 A 
ATOM     63  H   UNL A   1      46.771  34.860  27.245  1.00  0.00     0.167 HD
ATOM     64  C   UNL A   1      48.274  37.139  26.411  1.00  0.00     0.074 A 
ATOM     65  C   UNL A   1      48.635  38.503  26.086  1.00  0.00     0.031 C 
ATOM     66  C   UNL A   1      49.132  36.088  26.341  1.00  0.00     0.034 A 
BRANCH  53  67
ATOM     67  C   UNL A   1      46.685  30.647  28.033  1.00  0.00     0.023 A 
ATOM     68  C   UNL A   1      46.358  29.656  27.090  1.00  0.00     0.031 A 
ATOM     69  C   UNL A   1      47.244  30.229  29.256  1.00  0.00     0.131 A 
ATOM     70  C   UNL A   1      46.546  28.299  27.407  1.00  0.00     0.055 A 
ATOM     71  C   UNL A   1      47.500  28.885  29.533  1.00  0.00     0.041 A 
ATOM     72  F   UNL A   1      47.550  31.124  30.208  1.00  0.00    -0.206 F 
ATOM     73  C   UNL A   1      47.141  27.909  28.609  1.00  0.00     0.022 A 
BRANCH  70  74
ATOM     74  S   UNL A   1      45.883  27.041  26.281  1.00  0.00     0.124 S 
ATOM     75  O   UNL A   1      45.097  26.213  27.193  1.00  0.00    -0.237 OA
ATOM     76  O   UNL A   1      45.122  27.840  25.327  1.00  0.00    -0.237 OA
ATOM     77  O   UNL A   1      47.078  26.397  25.741  1.00  0.00    -0.744 OA
ENDBRANCH  70  74
ENDBRANCH  53  67
BRANCH  54  78
ATOM     78  C   UNL A   1      44.991  40.504  26.895  1.00  0.00     0.023 A 
ATOM     79  C   UNL A   1      44.679  41.145  25.685  1.00  0.00     0.031 A 
ATOM     80  C   UNL A   1      45.180  41.315  28.030  1.00  0.00     0.131 A 
ATOM     81  C   UNL A   1      44.619  42.547  25.625  1.00  0.00     0.055 A 
ATOM     82  C   UNL A   1      45.045  42.705  27.982  1.00  0.00     0.041 A 
ATOM     83  F   UNL A   1      45.500  40.767  29.214  1.00  0.00    -0.206 F 
ATOM     84  C   UNL A   1      44.777  43.331  26.770  1.00  0.00     0.022 A 
BRANCH  81  85
ATOM     85  S   UNL A   1      44.457  43.343  24.002  1.00  0.00     0.124 S 
ATOM     86  O   UNL A   1      44.851  42.263  23.104  1.00  0.00    -0.237 OA
ATOM     87  O   UNL A   1      43.046  43.709  23.984  1.00  0.00    -0.237 OA
ATOM     88  O   UNL A   1      45.391  44.464  24.078  1.00  0.00    -0.744 OA
ENDBRANCH  81  85
ENDBRANCH  54  78
BRANCH  66  89
ATOM     89  C   UNL A   1      50.528  36.371  25.840  1.00  0.00     0.023 A 
ATOM     90  C   UNL A   1      51.623  36.472  26.714  1.00  0.00     0.031 A 
ATOM     91  C   UNL A   1      50.762  36.547  24.465  1.00  0.00     0.131 A 
ATOM     92  C   UNL A   1      52.888  36.809  26.212  1.00  0.00     0.055 A 
ATOM     93  C   UNL A   1      52.038  36.800  23.961  1.00  0.00     0.041 A 
ATOM     94  F   UNL A   1      49.752  36.471  23.583  1.00  0.00    -0.206 F 
ATOM     95  C   UNL A   1      53.108  36.949  24.838  1.00  0.00     0.022 A 
BRANCH  92  96
ATOM     96  S   UNL A   1      54.215  37.188  27.387  1.00  0.00     0.124 S 
ATOM     97  O   UNL A   1      54.356  35.923  28.100  1.00  0.00    -0.237 OA
ATOM     98  O   UNL A   1      55.320  37.550  26.506  1.00  0.00    -0.237 OA
ATOM     99  O   UNL A   1      53.668  38.289  28.178  1.00  0.00    -0.744 OA
ENDBRANCH  92  96
ENDBRANCH  66  89
ENDBRANCH  40  41
ENDBRANCH  33  35
ENDBRANCH  32  33
ENDBRANCH  31  32
ENDBRANCH  30  31
ENDBRANCH  29  30
ENDBRANCH  28  29
ENDBRANCH  27  28
ENDBRANCH   1  27
TORSDOF 26
ENDMDL
MODEL 3
REMARK VINA RESULT:      -9.5      3.613      5.979
REMARK SMILES CCc1cc(C(=O)N[C@@H]2C=C[C@H](C(=O)OCCOCCOCCOCCOC(=O)c3ccc(-c4c5nc(c(-c6cc(S(=O)(=O)[O-])ccc6F)c6ccc([nH]6)c(-c6cc(S(=O)(=O)[O-])ccc6F)c6nc(c(-c7cc(S(=O)(=O)[O-])ccc7F)c7ccc4[nH]7)C=C6)C=C5)cc3)C2)n(C)n1
REMARK SMILES IDX 21 1 20 2 19 3 18 4 17 5 16 6 15 7 13 8 14 9 12 10 9 11
REMARK SMILES IDX 10 12 93 13 11 14 8 15 6 16 7 17 5 19 3 20 4 21 96 22 94 23
REMARK SMILES IDX 95 24 2 25 1 26 22 27 23 28 24 29 25 30 26 31 27 32 28 33
REMARK SMILES IDX 29 34 30 35 31 36 92 37 32 38 91 39 33 40 34 41 35 42 85 43
REMARK SMILES IDX 36 44 90 45 84 46 86 47 37 48 89 49 83 50 82 51 38 53 70 54
REMARK SMILES IDX 50 55 69 56 51 57 54 58 68 59 87 60 52 61 53 62 67 64 88 65
REMARK SMILES IDX 55 66 39 67 40 68 48 69 41 70 47 71 49 72 46 73 42 74 43 75
REMARK SMILES IDX 44 76 45 77 71 78 72 79 80 80 73 81 79 82 81 83 78 84 74 85
REMARK SMILES IDX 75 86 76 87 77 88 56 89 57 90 65 91 58 92 64 93 66 94 63 95
REMARK SMILES IDX 59 96 60 97 61 98 62 99
REMARK H PARENT 8 18 86 52 54 63
REMARK Flexibility Score: inf
ROOT
ATOM      1  O   UNL A   1      36.570  29.274  29.880  1.00  0.00    -0.377 OA
ENDROOT
BRANCH   1   2
ATOM      2  C   UNL A   1      35.953  30.022  28.890  1.00  0.00     0.188 C 
BRANCH   2   3
ATOM      3  C   UNL A   1      35.443  31.484  28.981  1.00  0.00     0.188 C 
BRANCH   3   4
ATOM      4  O   UNL A   1      34.170  31.818  28.487  1.00  0.00    -0.376 OA
BRANCH   4   5
ATOM      5  C   UNL A   1      33.779  31.154  27.309  1.00  0.00     0.202 C 
BRANCH   5   6
ATOM      6  C   UNL A   1      32.534  30.230  27.344  1.00  0.00     0.261 C 
BRANCH   6   7
ATOM      7  O   UNL A   1      31.718  30.106  26.139  1.00  0.00    -0.463 OA
BRANCH   7   8
ATOM      8  C   UNL A   1      32.127  29.362  25.067  1.00  0.00     0.312 C 
ATOM      9  O   UNL A   1      33.067  29.676  24.350  1.00  0.00    -0.252 OA
BRANCH   8  10
ATOM     10  C   UNL A   1      31.232  28.081  24.865  1.00  0.00     0.124 C 
ATOM     11  C   UNL A   1      31.311  26.039  23.323  1.00  0.00     0.106 C 
ATOM     12  C   UNL A   1      30.372  27.128  22.859  1.00  0.00    -0.006 C 
ATOM     13  C   UNL A   1      31.964  26.775  24.482  1.00  0.00     0.048 C 
ATOM     14  C   UNL A   1      30.317  28.190  23.681  1.00  0.00    -0.014 C 
BRANCH  11  15
ATOM     15  N   UNL A   1      32.229  25.664  22.221  1.00  0.00    -0.344 N 
ATOM     16  C   UNL A   1      32.924  24.586  21.687  1.00  0.00     0.270 C 
ATOM     17  O   UNL A   1      33.210  24.785  20.498  1.00  0.00    -0.268 OA
ATOM     18  H   UNL A   1      32.412  26.460  21.673  1.00  0.00     0.164 HD
BRANCH  16  19
ATOM     19  C   UNL A   1      33.539  23.378  22.345  1.00  0.00     0.126 A 
ATOM     20  C   UNL A   1      35.060  22.458  24.793  1.00  0.00     0.063 A 
ATOM     21  C   UNL A   1      35.053  23.578  23.212  1.00  0.00     0.059 A 
ATOM     22  N   UNL A   1      33.589  21.478  24.706  1.00  0.00    -0.178 NA
ATOM     23  N   UNL A   1      32.677  21.975  23.129  1.00  0.00    -0.263 N 
ATOM     24  C   UNL A   1      31.955  21.067  22.230  1.00  0.00     0.174 C 
BRANCH  20  25
ATOM     25  C   UNL A   1      36.290  22.294  25.635  1.00  0.00     0.055 C 
ATOM     26  C   UNL A   1      37.121  23.509  25.959  1.00  0.00     0.011 C 
ENDBRANCH  20  25
ENDBRANCH  16  19
ENDBRANCH  11  15
ENDBRANCH   8  10
ENDBRANCH   7   8
ENDBRANCH   6   7
ENDBRANCH   5   6
ENDBRANCH   4   5
ENDBRANCH   3   4
ENDBRANCH   2   3
ENDBRANCH   1   2
BRANCH   1  27
ATOM     27  C   UNL A   1      37.930  29.009  29.791  1.00  0.00     0.188 C 
BRANCH  27  28
ATOM     28  C   UNL A   1      38.751  28.350  30.908  1.00  0.00     0.188 C 
BRANCH  28  29
ATOM     29  O   UNL A   1      38.944  28.798  32.253  1.00  0.00    -0.376 OA
BRANCH  29  30
ATOM     30  C   UNL A   1      37.900  29.551  33.196  1.00  0.00     0.202 C 
BRANCH  30  31
ATOM     31  C   UNL A   1      36.717  31.457  32.919  1.00  0.00     0.261 C 
BRANCH  31  32
ATOM     32  O   UNL A   1      37.457  32.904  32.248  1.00  0.00    -0.460 OA
BRANCH  32  33
ATOM     33  C   UNL A   1      38.811  33.172  32.404  1.00  0.00     0.338 C 
ATOM     34  O   UNL A   1      39.264  34.049  33.128  1.00  0.00    -0.246 OA
BRANCH  33  35
ATOM     35  C   UNL A   1      39.791  32.269  31.686  1.00  0.00     0.060 A 
ATOM     36  C   UNL A   1      40.963  31.827  32.339  1.00  0.00     0.016 A 
ATOM     37  C   UNL A   1      39.735  32.104  30.305  1.00  0.00     0.016 A 
ATOM     38  C   UNL A   1      42.019  31.182  31.656  1.00  0.00     0.010 A 
ATOM     39  C   UNL A   1      40.818  31.518  29.604  1.00  0.00     0.010 A 
ATOM     40  C   UNL A   1      41.975  31.059  30.268  1.00  0.00    -0.014 A 
BRANCH  40  41
ATOM     41  C   UNL A   1      43.175  30.618  29.486  1.00  0.00     0.031 A 
ATOM     42  C   UNL A   1      43.328  29.153  29.156  1.00  0.00     0.074 A 
ATOM     43  C   UNL A   1      44.123  31.492  29.092  1.00  0.00     0.049 A 
ATOM     44  N   UNL A   1      44.365  28.501  28.697  1.00  0.00    -0.248 NA
ATOM     45  C   UNL A   1      42.143  28.312  29.381  1.00  0.00     0.031 C 
ATOM     46  C   UNL A   1      44.039  32.943  29.250  1.00  0.00     0.029 A 
ATOM     47  N   UNL A   1      45.353  31.293  28.506  1.00  0.00    -0.354 N 
ATOM     48  C   UNL A   1      43.973  27.165  28.618  1.00  0.00     0.074 A 
ATOM     49  C   UNL A   1      42.600  27.105  29.072  1.00  0.00     0.031 C 
ATOM     50  C   UNL A   1      45.184  33.499  28.814  1.00  0.00     0.029 A 
ATOM     51  C   UNL A   1      46.110  32.442  28.412  1.00  0.00     0.049 A 
ATOM     52  H   UNL A   1      45.663  30.415  28.185  1.00  0.00     0.167 HD
ATOM     53  C   UNL A   1      44.705  26.093  28.223  1.00  0.00     0.034 A 
ATOM     54  C   UNL A   1      47.413  32.615  28.101  1.00  0.00     0.034 A 
ATOM     55  C   UNL A   1      46.075  26.189  27.778  1.00  0.00     0.049 A 
ATOM     56  C   UNL A   1      48.242  31.394  27.763  1.00  0.00     0.074 A 
ATOM     57  C   UNL A   1      46.914  25.178  27.342  1.00  0.00     0.029 A 
ATOM     58  N   UNL A   1      46.815  27.364  27.731  1.00  0.00    -0.354 N 
ATOM     59  N   UNL A   1      47.871  30.134  27.718  1.00  0.00    -0.248 NA
ATOM     60  C   UNL A   1      49.656  31.615  27.435  1.00  0.00     0.031 C 
ATOM     61  C   UNL A   1      48.183  25.725  27.129  1.00  0.00     0.029 A 
ATOM     62  C   UNL A   1      48.111  27.096  27.323  1.00  0.00     0.049 A 
ATOM     63  H   UNL A   1      46.468  28.259  27.956  1.00  0.00     0.167 HD
ATOM     64  C   UNL A   1      48.999  29.418  27.324  1.00  0.00     0.074 A 
ATOM     65  C   UNL A   1      50.055  30.390  27.126  1.00  0.00     0.031 C 
ATOM     66  C   UNL A   1      49.151  28.081  27.140  1.00  0.00     0.034 A 
BRANCH  53  67
ATOM     67  C   UNL A   1      44.079  24.720  28.335  1.00  0.00     0.023 A 
ATOM     68  C   UNL A   1      43.508  24.056  27.236  1.00  0.00     0.031 A 
ATOM     69  C   UNL A   1      44.064  24.059  29.579  1.00  0.00     0.131 A 
ATOM     70  C   UNL A   1      42.903  22.799  27.413  1.00  0.00     0.055 A 
ATOM     71  C   UNL A   1      43.532  22.778  29.732  1.00  0.00     0.041 A 
ATOM     72  F   UNL A   1      44.568  24.652  30.673  1.00  0.00    -0.206 F 
ATOM     73  C   UNL A   1      42.937  22.144  28.646  1.00  0.00     0.022 A 
BRANCH  70  74
ATOM     74  S   UNL A   1      41.955  22.086  26.040  1.00  0.00     0.124 S 
ATOM     75  O   UNL A   1      41.943  20.669  26.394  1.00  0.00    -0.237 OA
ATOM     76  O   UNL A   1      40.677  22.781  26.144  1.00  0.00    -0.237 OA
ATOM     77  O   UNL A   1      42.752  22.419  24.861  1.00  0.00    -0.744 OA
ENDBRANCH  70  74
ENDBRANCH  53  67
BRANCH  54  78
ATOM     78  C   UNL A   1      48.049  33.968  28.177  1.00  0.00     0.023 A 
ATOM     79  C   UNL A   1      48.168  34.787  27.042  1.00  0.00     0.031 A 
ATOM     80  C   UNL A   1      48.617  34.436  29.378  1.00  0.00     0.131 A 
ATOM     81  C   UNL A   1      48.881  35.996  27.117  1.00  0.00     0.055 A 
ATOM     82  C   UNL A   1      49.259  35.673  29.466  1.00  0.00     0.041 A 
ATOM     83  F   UNL A   1      48.555  33.693  30.495  1.00  0.00    -0.206 F 
ATOM     84  C   UNL A   1      49.408  36.456  28.326  1.00  0.00     0.022 A 
BRANCH  81  85
ATOM     85  S   UNL A   1      49.221  36.901  25.581  1.00  0.00     0.124 S 
ATOM     86  O   UNL A   1      50.494  37.540  25.892  1.00  0.00    -0.237 OA
ATOM     87  O   UNL A   1      49.266  35.823  24.600  1.00  0.00    -0.237 OA
ATOM     88  O   UNL A   1      48.080  37.806  25.460  1.00  0.00    -0.744 OA
ENDBRANCH  81  85
ENDBRANCH  54  78
BRANCH  66  89
ATOM     89  C   UNL A   1      50.496  27.603  26.648  1.00  0.00     0.023 A 
ATOM     90  C   UNL A   1      50.893  27.755  25.308  1.00  0.00     0.031 A 
ATOM     91  C   UNL A   1      51.392  26.981  27.535  1.00  0.00     0.131 A 
ATOM     92  C   UNL A   1      52.121  27.230  24.881  1.00  0.00     0.055 A 
ATOM     93  C   UNL A   1      52.648  26.535  27.122  1.00  0.00     0.041 A 
ATOM     94  F   UNL A   1      51.064  26.801  28.825  1.00  0.00    -0.206 F 
ATOM     95  C   UNL A   1      53.012  26.644  25.784  1.00  0.00     0.022 A 
BRANCH  92  96
ATOM     96  S   UNL A   1      52.483  27.210  23.105  1.00  0.00     0.124 S 
ATOM     97  O   UNL A   1      52.736  28.621  22.832  1.00  0.00    -0.237 OA
ATOM     98  O   UNL A   1      53.644  26.329  23.032  1.00  0.00    -0.237 OA
ATOM     99  O   UNL A   1      51.260  26.673  22.512  1.00  0.00    -0.744 OA
ENDBRANCH  92  96
ENDBRANCH  66  89
ENDBRANCH  40  41
ENDBRANCH  33  35
ENDBRANCH  32  33
ENDBRANCH  31  32
ENDBRANCH  30  31
ENDBRANCH  29  30
ENDBRANCH  28  29
ENDBRANCH  27  28
ENDBRANCH   1  27
TORSDOF 26
ENDMDL
