MODEL 1
REMARK VINA RESULT:      -9.0      0.000      0.000
REMARK SMILES CCOc1cnc(C(=O)c2[nH]c3cc(Cl)ccc3c2CC(=O)OCCOCCOCCOCCOC(=O)c2ccc(-c3c4nc(c(-c5cc(S(=O)(=O)[O-])ccc5F)c5ccc([nH]5)c(-c5cc(S(=O)(=O)[O-])ccc5F)c5nc(c(-c6cc(S(=O)(=O)[O-])ccc6F)c6ccc3[nH]6)C=C5)C=C4)cc2)cc1CC
REMARK SMILES IDX 28 1 27 2 26 3 25 4 24 5 23 6 21 7 22 8 20 9 19 10 10 11
REMARK SMILES IDX 11 12 12 13 18 15 13 16 17 17 14 18 16 19 15 20 8 21 9 22
REMARK SMILES IDX 7 23 4 24 5 25 102 26 6 27 101 28 3 29 2 30 1 31 103 32
REMARK SMILES IDX 104 33 29 34 30 35 31 36 32 37 33 38 34 39 35 40 36 41 37 42
REMARK SMILES IDX 38 43 39 44 100 45 40 46 99 47 41 48 42 49 43 50 93 51 44 52
REMARK SMILES IDX 98 53 92 54 94 55 45 56 97 57 91 58 90 59 46 61 78 62 58 63
REMARK SMILES IDX 77 64 59 65 62 66 76 67 95 68 60 69 61 70 75 72 96 73 63 74
REMARK SMILES IDX 47 75 48 76 56 77 49 78 55 79 57 80 54 81 50 82 51 83 52 84
REMARK SMILES IDX 53 85 79 86 80 87 88 88 81 89 87 90 89 91 86 92 82 93 83 94
REMARK SMILES IDX 84 95 85 96 64 97 65 98 73 99 66 100 72 101 74 102 71 103
REMARK SMILES IDX 67 104 68 105 69 106 70 107
REMARK H PARENT 11 14 94 60 62 71
REMARK Flexibility Score: inf
ROOT
ATOM      1  C   UNL A   1      32.987  30.093  27.278  1.00  0.00     0.188 C 
ENDROOT
BRANCH   1   2
ATOM      2  C   UNL A   1      33.471  28.691  26.918  1.00  0.00     0.188 C 
BRANCH   2   3
ATOM      3  O   UNL A   1      34.185  28.527  25.711  1.00  0.00    -0.376 OA
BRANCH   3   4
ATOM      4  C   UNL A   1      33.890  27.372  24.929  1.00  0.00     0.202 C 
BRANCH   4   5
ATOM      5  C   UNL A   1      34.006  25.963  25.553  1.00  0.00     0.261 C 
BRANCH   5   6
ATOM      6  O   UNL A   1      34.560  24.927  24.691  1.00  0.00    -0.463 OA
BRANCH   6   7
ATOM      7  C   UNL A   1      35.358  24.006  25.284  1.00  0.00     0.310 C 
ATOM      8  O   UNL A   1      36.572  24.169  25.425  1.00  0.00    -0.252 OA
BRANCH   7   9
ATOM      9  C   UNL A   1      34.721  22.721  25.792  1.00  0.00     0.161 C 
BRANCH   9  10
ATOM     10  C   UNL A   1      33.813  21.860  24.941  1.00  0.00     0.000 A 
ATOM     11  C   UNL A   1      32.461  22.078  24.616  1.00  0.00     0.093 A 
ATOM     12  N   UNL A   1      32.133  21.083  23.717  1.00  0.00    -0.351 N 
ATOM     13  C   UNL A   1      32.963  20.005  23.900  1.00  0.00     0.048 A 
ATOM     14  H   UNL A   1      31.413  21.138  23.047  1.00  0.00     0.167 HD
ATOM     15  C   UNL A   1      34.055  20.473  24.627  1.00  0.00     0.004 A 
ATOM     16  C   UNL A   1      32.821  18.672  23.493  1.00  0.00     0.047 A 
ATOM     17  C   UNL A   1      35.064  19.549  24.976  1.00  0.00     0.012 A 
ATOM     18  C   UNL A   1      33.807  17.773  23.906  1.00  0.00     0.043 A 
ATOM     19  C   UNL A   1      34.914  18.198  24.634  1.00  0.00     0.021 A 
ATOM     20  Cl  UNL A   1      33.625  16.099  23.539  1.00  0.00    -0.084 Cl
BRANCH  11  21
ATOM     21  C   UNL A   1      31.558  23.129  25.093  1.00  0.00     0.227 C 
ATOM     22  O   UNL A   1      31.071  23.118  26.225  1.00  0.00    -0.285 OA
BRANCH  21  23
ATOM     23  C   UNL A   1      31.102  24.235  24.187  1.00  0.00     0.113 A 
ATOM     24  C   UNL A   1      30.699  26.502  22.705  1.00  0.00     0.140 A 
ATOM     25  C   UNL A   1      31.570  25.494  22.308  1.00  0.00     0.158 A 
ATOM     26  C   UNL A   1      29.904  26.301  23.836  1.00  0.00    -0.002 A 
ATOM     27  N   UNL A   1      31.783  24.364  23.019  1.00  0.00    -0.249 NA
ATOM     28  C   UNL A   1      30.154  25.161  24.614  1.00  0.00     0.040 A 
BRANCH  24  29
ATOM     29  O   UNL A   1      30.624  27.666  21.994  1.00  0.00    -0.492 OA
BRANCH  29  30
ATOM     30  C   UNL A   1      31.696  28.563  22.341  1.00  0.00     0.226 C 
ATOM     31  C   UNL A   1      31.335  29.384  23.572  1.00  0.00     0.049 C 
ENDBRANCH  29  30
ENDBRANCH  24  29
BRANCH  26  32
ATOM     32  C   UNL A   1      28.878  27.312  24.288  1.00  0.00     0.036 C 
ATOM     33  C   UNL A   1      27.515  27.132  23.635  1.00  0.00     0.009 C 
ENDBRANCH  26  32
ENDBRANCH  21  23
ENDBRANCH  11  21
ENDBRANCH   9  10
ENDBRANCH   7   9
ENDBRANCH   6   7
ENDBRANCH   5   6
ENDBRANCH   4   5
ENDBRANCH   3   4
ENDBRANCH   2   3
ENDBRANCH   1   2
BRANCH   1  34
ATOM     34  O   UNL A   1      31.807  30.598  26.678  1.00  0.00    -0.377 OA
BRANCH  34  35
ATOM     35  C   UNL A   1      31.485  31.978  26.783  1.00  0.00     0.188 C 
BRANCH  35  36
ATOM     36  C   UNL A   1      32.579  32.935  27.251  1.00  0.00     0.188 C 
BRANCH  36  37
ATOM     37  O   UNL A   1      32.179  34.170  27.851  1.00  0.00    -0.376 OA
BRANCH  37  38
ATOM     38  C   UNL A   1      32.924  34.689  28.949  1.00  0.00     0.202 C 
BRANCH  38  39
ATOM     39  C   UNL A   1      34.287  35.266  28.583  1.00  0.00     0.261 C 
BRANCH  39  40
ATOM     40  O   UNL A   1      35.336  34.532  29.228  1.00  0.00    -0.460 OA
BRANCH  40  41
ATOM     41  C   UNL A   1      35.875  33.542  28.474  1.00  0.00     0.338 C 
ATOM     42  O   UNL A   1      35.683  33.331  27.293  1.00  0.00    -0.246 OA
BRANCH  41  43
ATOM     43  C   UNL A   1      36.903  32.848  29.271  1.00  0.00     0.060 A 
ATOM     44  C   UNL A   1      38.209  33.351  29.230  1.00  0.00     0.016 A 
ATOM     45  C   UNL A   1      36.599  31.701  30.009  1.00  0.00     0.016 A 
ATOM     46  C   UNL A   1      39.231  32.678  29.886  1.00  0.00     0.010 A 
ATOM     47  C   UNL A   1      37.629  31.016  30.653  1.00  0.00     0.010 A 
ATOM     48  C   UNL A   1      38.953  31.481  30.553  1.00  0.00    -0.014 A 
BRANCH  48  49
ATOM     49  C   UNL A   1      40.074  30.599  30.939  1.00  0.00     0.031 A 
ATOM     50  C   UNL A   1      40.809  30.916  32.211  1.00  0.00     0.074 A 
ATOM     51  C   UNL A   1      40.394  29.527  30.196  1.00  0.00     0.049 A 
ATOM     52  N   UNL A   1      41.856  30.335  32.733  1.00  0.00    -0.248 NA
ATOM     53  C   UNL A   1      40.291  32.049  32.997  1.00  0.00     0.031 C 
ATOM     54  C   UNL A   1      39.696  29.104  28.983  1.00  0.00     0.029 A 
ATOM     55  N   UNL A   1      41.393  28.603  30.354  1.00  0.00    -0.354 N 
ATOM     56  C   UNL A   1      42.128  31.036  33.904  1.00  0.00     0.074 A 
ATOM     57  C   UNL A   1      41.162  32.107  33.991  1.00  0.00     0.031 C 
ATOM     58  C   UNL A   1      40.298  28.003  28.500  1.00  0.00     0.029 A 
ATOM     59  C   UNL A   1      41.448  27.677  29.340  1.00  0.00     0.049 A 
ATOM     60  H   UNL A   1      42.012  28.602  31.120  1.00  0.00     0.167 HD
ATOM     61  C   UNL A   1      43.095  30.796  34.822  1.00  0.00     0.034 A 
ATOM     62  C   UNL A   1      42.347  26.701  29.108  1.00  0.00     0.034 A 
ATOM     63  C   UNL A   1      44.055  29.728  34.696  1.00  0.00     0.049 A 
ATOM     64  C   UNL A   1      43.479  26.516  30.092  1.00  0.00     0.074 A 
ATOM     65  C   UNL A   1      45.079  29.382  35.559  1.00  0.00     0.029 A 
ATOM     66  N   UNL A   1      44.116  28.839  33.628  1.00  0.00    -0.354 N 
ATOM     67  N   UNL A   1      43.735  27.184  31.196  1.00  0.00    -0.248 NA
ATOM     68  C   UNL A   1      44.438  25.444  29.804  1.00  0.00     0.031 C 
ATOM     69  C   UNL A   1      45.810  28.344  34.972  1.00  0.00     0.029 A 
ATOM     70  C   UNL A   1      45.185  27.972  33.791  1.00  0.00     0.049 A 
ATOM     71  H   UNL A   1      43.491  28.826  32.868  1.00  0.00     0.167 HD
ATOM     72  C   UNL A   1      44.864  26.585  31.750  1.00  0.00     0.074 A 
ATOM     73  C   UNL A   1      45.228  25.497  30.865  1.00  0.00     0.031 C 
ATOM     74  C   UNL A   1      45.536  26.899  32.889  1.00  0.00     0.034 A 
BRANCH  61  75
ATOM     75  C   UNL A   1      43.194  31.746  35.992  1.00  0.00     0.023 A 
ATOM     76  C   UNL A   1      42.283  31.708  37.062  1.00  0.00     0.031 A 
ATOM     77  C   UNL A   1      44.192  32.736  36.016  1.00  0.00     0.131 A 
ATOM     78  C   UNL A   1      42.341  32.686  38.067  1.00  0.00     0.055 A 
ATOM     79  C   UNL A   1      44.299  33.651  37.064  1.00  0.00     0.041 A 
ATOM     80  F   UNL A   1      45.072  32.844  35.007  1.00  0.00    -0.206 F 
ATOM     81  C   UNL A   1      43.362  33.639  38.091  1.00  0.00     0.022 A 
BRANCH  78  82
ATOM     82  S   UNL A   1      40.974  32.791  39.255  1.00  0.00     0.124 S 
ATOM     83  O   UNL A   1      41.438  31.903  40.318  1.00  0.00    -0.237 OA
ATOM     84  O   UNL A   1      40.943  34.212  39.577  1.00  0.00    -0.237 OA
ATOM     85  O   UNL A   1      39.825  32.296  38.500  1.00  0.00    -0.744 OA
ENDBRANCH  78  82
ENDBRANCH  61  75
BRANCH  62  86
ATOM     86  C   UNL A   1      42.248  25.855  27.885  1.00  0.00     0.023 A 
ATOM     87  C   UNL A   1      41.488  24.676  27.877  1.00  0.00     0.031 A 
ATOM     88  C   UNL A   1      42.955  26.190  26.715  1.00  0.00     0.131 A 
ATOM     89  C   UNL A   1      41.491  23.848  26.741  1.00  0.00     0.055 A 
ATOM     90  C   UNL A   1      42.906  25.396  25.569  1.00  0.00     0.041 A 
ATOM     91  F   UNL A   1      43.702  27.305  26.668  1.00  0.00    -0.206 F 
ATOM     92  C   UNL A   1      42.182  24.209  25.581  1.00  0.00     0.022 A 
BRANCH  89  93
ATOM     93  S   UNL A   1      40.657  22.241  26.837  1.00  0.00     0.124 S 
ATOM     94  O   UNL A   1      39.273  22.609  26.562  1.00  0.00    -0.237 OA
ATOM     95  O   UNL A   1      41.340  21.483  25.795  1.00  0.00    -0.237 OA
ATOM     96  O   UNL A   1      40.926  21.799  28.205  1.00  0.00    -0.744 OA
ENDBRANCH  89  93
ENDBRANCH  62  86
BRANCH  74  97
ATOM     97  C   UNL A   1      46.702  26.016  33.264  1.00  0.00     0.023 A 
ATOM     98  C   UNL A   1      46.533  24.835  34.007  1.00  0.00     0.031 A 
ATOM     99  C   UNL A   1      48.006  26.368  32.870  1.00  0.00     0.131 A 
ATOM    100  C   UNL A   1      47.654  24.082  34.386  1.00  0.00     0.055 A 
ATOM    101  C   UNL A   1      49.110  25.575  33.187  1.00  0.00     0.041 A 
ATOM    102  F   UNL A   1      48.229  27.487  32.162  1.00  0.00    -0.206 F 
ATOM    103  C   UNL A   1      48.939  24.432  33.963  1.00  0.00     0.022 A 
BRANCH 100 104
ATOM    104  S   UNL A   1      47.424  22.697  35.533  1.00  0.00     0.124 S 
ATOM    105  O   UNL A   1      48.791  22.217  35.706  1.00  0.00    -0.237 OA
ATOM    106  O   UNL A   1      46.825  23.348  36.693  1.00  0.00    -0.237 OA
ATOM    107  O   UNL A   1      46.536  21.791  34.805  1.00  0.00    -0.744 OA
ENDBRANCH 100 104
ENDBRANCH  74  97
ENDBRANCH  48  49
ENDBRANCH  41  43
ENDBRANCH  40  41
ENDBRANCH  39  40
ENDBRANCH  38  39
ENDBRANCH  37  38
ENDBRANCH  36  37
ENDBRANCH  35  36
ENDBRANCH  34  35
ENDBRANCH   1  34
TORSDOF 29
ENDMDL
MODEL 2
REMARK VINA RESULT:      -8.9      5.146     10.073
REMARK SMILES CCOc1cnc(C(=O)c2[nH]c3cc(Cl)ccc3c2CC(=O)OCCOCCOCCOCCOC(=O)c2ccc(-c3c4nc(c(-c5cc(S(=O)(=O)[O-])ccc5F)c5ccc([nH]5)c(-c5cc(S(=O)(=O)[O-])ccc5F)c5nc(c(-c6cc(S(=O)(=O)[O-])ccc6F)c6ccc3[nH]6)C=C5)C=C4)cc2)cc1CC
REMARK SMILES IDX 28 1 27 2 26 3 25 4 24 5 23 6 21 7 22 8 20 9 19 10 10 11
REMARK SMILES IDX 11 12 12 13 18 15 13 16 17 17 14 18 16 19 15 20 8 21 9 22
REMARK SMILES IDX 7 23 4 24 5 25 102 26 6 27 101 28 3 29 2 30 1 31 103 32
REMARK SMILES IDX 104 33 29 34 30 35 31 36 32 37 33 38 34 39 35 40 36 41 37 42
REMARK SMILES IDX 38 43 39 44 100 45 40 46 99 47 41 48 42 49 43 50 93 51 44 52
REMARK SMILES IDX 98 53 92 54 94 55 45 56 97 57 91 58 90 59 46 61 78 62 58 63
REMARK SMILES IDX 77 64 59 65 62 66 76 67 95 68 60 69 61 70 75 72 96 73 63 74
REMARK SMILES IDX 47 75 48 76 56 77 49 78 55 79 57 80 54 81 50 82 51 83 52 84
REMARK SMILES IDX 53 85 79 86 80 87 88 88 81 89 87 90 89 91 86 92 82 93 83 94
REMARK SMILES IDX 84 95 85 96 64 97 65 98 73 99 66 100 72 101 74 102 71 103
REMARK SMILES IDX 67 104 68 105 69 106 70 107
REMARK H PARENT 11 14 94 60 62 71
REMARK Flexibility Score: inf
ROOT
ATOM      1  C   UNL A   1      32.987  27.294  26.034  1.00  0.00     0.188 C 
ENDROOT
BRANCH   1   2
ATOM      2  C   UNL A   1      32.602  25.826  26.202  1.00  0.00     0.188 C 
BRANCH   2   3
ATOM      3  O   UNL A   1      31.234  25.487  26.122  1.00  0.00    -0.376 OA
BRANCH   3   4
ATOM      4  C   UNL A   1      30.602  25.620  24.851  1.00  0.00     0.202 C 
BRANCH   4   5
ATOM      5  C   UNL A   1      31.214  24.937  23.607  1.00  0.00     0.261 C 
BRANCH   5   6
ATOM      6  O   UNL A   1      31.886  23.665  23.843  1.00  0.00    -0.463 OA
BRANCH   6   7
ATOM      7  C   UNL A   1      32.759  23.255  22.890  1.00  0.00     0.310 C 
ATOM      8  O   UNL A   1      32.899  23.845  21.817  1.00  0.00    -0.252 OA
BRANCH   7   9
ATOM      9  C   UNL A   1      33.592  22.011  23.165  1.00  0.00     0.161 C 
BRANCH   9  10
ATOM     10  C   UNL A   1      33.378  21.127  24.374  1.00  0.00     0.000 A 
ATOM     11  C   UNL A   1      33.821  21.336  25.694  1.00  0.00     0.093 A 
ATOM     12  N   UNL A   1      33.260  20.316  26.437  1.00  0.00    -0.351 N 
ATOM     13  C   UNL A   1      32.998  19.244  25.621  1.00  0.00     0.048 A 
ATOM     14  H   UNL A   1      33.077  20.353  27.404  1.00  0.00     0.167 HD
ATOM     15  C   UNL A   1      33.018  19.732  24.317  1.00  0.00     0.004 A 
ATOM     16  C   UNL A   1      32.763  17.900  25.938  1.00  0.00     0.047 A 
ATOM     17  C   UNL A   1      32.796  18.818  23.263  1.00  0.00     0.012 A 
ATOM     18  C   UNL A   1      32.607  17.012  24.871  1.00  0.00     0.043 A 
ATOM     19  C   UNL A   1      32.621  17.458  23.552  1.00  0.00     0.021 A 
ATOM     20  Cl  UNL A   1      32.434  15.328  25.196  1.00  0.00    -0.084 Cl
BRANCH  11  21
ATOM     21  C   UNL A   1      34.680  22.402  26.219  1.00  0.00     0.227 C 
ATOM     22  O   UNL A   1      34.231  23.366  26.840  1.00  0.00    -0.285 OA
BRANCH  21  23
ATOM     23  C   UNL A   1      36.155  22.420  25.945  1.00  0.00     0.113 A 
ATOM     24  C   UNL A   1      38.885  22.207  25.909  1.00  0.00     0.140 A 
ATOM     25  C   UNL A   1      38.048  21.160  25.540  1.00  0.00     0.158 A 
ATOM     26  C   UNL A   1      38.322  23.456  26.188  1.00  0.00    -0.002 A 
ATOM     27  N   UNL A   1      36.699  21.241  25.546  1.00  0.00    -0.249 NA
ATOM     28  C   UNL A   1      36.923  23.540  26.253  1.00  0.00     0.040 A 
BRANCH  24  29
ATOM     29  O   UNL A   1      40.235  22.014  25.990  1.00  0.00    -0.492 OA
BRANCH  29  30
ATOM     30  C   UNL A   1      40.597  21.352  27.216  1.00  0.00     0.226 C 
ATOM     31  C   UNL A   1      41.769  22.056  27.885  1.00  0.00     0.049 C 
ENDBRANCH  29  30
ENDBRANCH  24  29
BRANCH  26  32
ATOM     32  C   UNL A   1      39.166  24.663  26.518  1.00  0.00     0.036 C 
ATOM     33  C   UNL A   1      39.255  24.957  28.008  1.00  0.00     0.009 C 
ENDBRANCH  26  32
ENDBRANCH  21  23
ENDBRANCH  11  21
ENDBRANCH   9  10
ENDBRANCH   7   9
ENDBRANCH   6   7
ENDBRANCH   5   6
ENDBRANCH   4   5
ENDBRANCH   3   4
ENDBRANCH   2   3
ENDBRANCH   1   2
BRANCH   1  34
ATOM     34  O   UNL A   1      32.957  28.155  27.158  1.00  0.00    -0.377 OA
BRANCH  34  35
ATOM     35  C   UNL A   1      31.936  29.134  27.283  1.00  0.00     0.188 C 
BRANCH  35  36
ATOM     36  C   UNL A   1      32.291  30.584  26.960  1.00  0.00     0.188 C 
BRANCH  36  37
ATOM     37  O   UNL A   1      33.674  30.921  26.819  1.00  0.00    -0.376 OA
BRANCH  37  38
ATOM     38  C   UNL A   1      34.288  31.773  27.781  1.00  0.00     0.202 C 
BRANCH  38  39
ATOM     39  C   UNL A   1      35.639  31.289  28.296  1.00  0.00     0.261 C 
BRANCH  39  40
ATOM     40  O   UNL A   1      35.569  30.990  29.696  1.00  0.00    -0.460 OA
BRANCH  40  41
ATOM     41  C   UNL A   1      35.460  32.079  30.498  1.00  0.00     0.338 C 
ATOM     42  O   UNL A   1      34.470  32.460  31.089  1.00  0.00    -0.246 OA
BRANCH  41  43
ATOM     43  C   UNL A   1      36.805  32.648  30.705  1.00  0.00     0.060 A 
ATOM     44  C   UNL A   1      37.792  31.809  31.238  1.00  0.00     0.016 A 
ATOM     45  C   UNL A   1      37.079  33.989  30.425  1.00  0.00     0.016 A 
ATOM     46  C   UNL A   1      39.046  32.322  31.542  1.00  0.00     0.010 A 
ATOM     47  C   UNL A   1      38.333  34.507  30.746  1.00  0.00     0.010 A 
ATOM     48  C   UNL A   1      39.301  33.683  31.347  1.00  0.00    -0.014 A 
BRANCH  48  49
ATOM     49  C   UNL A   1      40.488  34.287  31.987  1.00  0.00     0.031 A 
ATOM     50  C   UNL A   1      41.686  34.563  31.124  1.00  0.00     0.074 A 
ATOM     51  C   UNL A   1      40.475  34.616  33.288  1.00  0.00     0.049 A 
ATOM     52  N   UNL A   1      42.860  35.030  31.455  1.00  0.00    -0.248 NA
ATOM     53  C   UNL A   1      41.538  34.264  29.689  1.00  0.00     0.031 C 
ATOM     54  C   UNL A   1      39.335  34.447  34.190  1.00  0.00     0.029 A 
ATOM     55  N   UNL A   1      41.455  35.157  34.078  1.00  0.00    -0.354 N 
ATOM     56  C   UNL A   1      43.594  35.073  30.273  1.00  0.00     0.074 A 
ATOM     57  C   UNL A   1      42.745  34.547  29.228  1.00  0.00     0.031 C 
ATOM     58  C   UNL A   1      39.688  34.870  35.416  1.00  0.00     0.029 A 
ATOM     59  C   UNL A   1      41.086  35.291  35.396  1.00  0.00     0.049 A 
ATOM     60  H   UNL A   1      42.338  35.426  33.735  1.00  0.00     0.167 HD
ATOM     61  C   UNL A   1      44.858  35.520  30.083  1.00  0.00     0.034 A 
ATOM     62  C   UNL A   1      41.814  35.679  36.461  1.00  0.00     0.034 A 
ATOM     63  C   UNL A   1      45.685  36.024  31.152  1.00  0.00     0.049 A 
ATOM     64  C   UNL A   1      43.255  36.076  36.244  1.00  0.00     0.074 A 
ATOM     65  C   UNL A   1      46.979  36.507  31.087  1.00  0.00     0.029 A 
ATOM     66  N   UNL A   1      45.299  36.096  32.486  1.00  0.00    -0.354 N 
ATOM     67  N   UNL A   1      43.945  36.111  35.125  1.00  0.00    -0.248 NA
ATOM     68  C   UNL A   1      44.013  36.491  37.430  1.00  0.00     0.031 C 
ATOM     69  C   UNL A   1      47.405  36.787  32.389  1.00  0.00     0.029 A 
ATOM     70  C   UNL A   1      46.345  36.577  33.258  1.00  0.00     0.049 A 
ATOM     71  H   UNL A   1      44.413  35.843  32.831  1.00  0.00     0.167 HD
ATOM     72  C   UNL A   1      45.208  36.589  35.471  1.00  0.00     0.074 A 
ATOM     73  C   UNL A   1      45.175  36.838  36.899  1.00  0.00     0.031 C 
ATOM     74  C   UNL A   1      46.293  36.808  34.684  1.00  0.00     0.034 A 
BRANCH  61  75
ATOM     75  C   UNL A   1      45.432  35.415  28.690  1.00  0.00     0.023 A 
ATOM     76  C   UNL A   1      46.187  34.303  28.277  1.00  0.00     0.031 A 
ATOM     77  C   UNL A   1      45.258  36.466  27.773  1.00  0.00     0.131 A 
ATOM     78  C   UNL A   1      46.801  34.302  27.015  1.00  0.00     0.055 A 
ATOM     79  C   UNL A   1      45.797  36.420  26.487  1.00  0.00     0.041 A 
ATOM     80  F   UNL A   1      44.574  37.569  28.119  1.00  0.00    -0.206 F 
ATOM     81  C   UNL A   1      46.586  35.340  26.105  1.00  0.00     0.022 A 
BRANCH  78  82
ATOM     82  S   UNL A   1      48.010  33.003  26.638  1.00  0.00     0.124 S 
ATOM     83  O   UNL A   1      47.138  31.884  26.287  1.00  0.00    -0.237 OA
ATOM     84  O   UNL A   1      48.773  33.588  25.543  1.00  0.00    -0.237 OA
ATOM     85  O   UNL A   1      48.741  32.841  27.894  1.00  0.00    -0.744 OA
ENDBRANCH  78  82
ENDBRANCH  61  75
BRANCH  62  86
ATOM     86  C   UNL A   1      41.216  35.673  37.828  1.00  0.00     0.023 A 
ATOM     87  C   UNL A   1      40.590  36.814  38.352  1.00  0.00     0.031 A 
ATOM     88  C   UNL A   1      41.307  34.535  38.650  1.00  0.00     0.131 A 
ATOM     89  C   UNL A   1      40.124  36.809  39.677  1.00  0.00     0.055 A 
ATOM     90  C   UNL A   1      40.787  34.515  39.945  1.00  0.00     0.041 A 
ATOM     91  F   UNL A   1      41.900  33.417  38.202  1.00  0.00    -0.206 F 
ATOM     92  C   UNL A   1      40.203  35.662  40.472  1.00  0.00     0.022 A 
BRANCH  89  93
ATOM     93  S   UNL A   1      39.499  38.359  40.382  1.00  0.00     0.124 S 
ATOM     94  O   UNL A   1      38.261  38.545  39.634  1.00  0.00    -0.237 OA
ATOM     95  O   UNL A   1      39.353  38.014  41.791  1.00  0.00    -0.237 OA
ATOM     96  O   UNL A   1      40.560  39.320  40.083  1.00  0.00    -0.744 OA
ENDBRANCH  89  93
ENDBRANCH  62  86
BRANCH  74  97
ATOM     97  C   UNL A   1      47.516  37.396  35.347  1.00  0.00     0.023 A 
ATOM     98  C   UNL A   1      48.462  36.594  36.008  1.00  0.00     0.031 A 
ATOM     99  C   UNL A   1      47.733  38.786  35.317  1.00  0.00     0.131 A 
ATOM    100  C   UNL A   1      49.548  37.192  36.664  1.00  0.00     0.055 A 
ATOM    101  C   UNL A   1      48.855  39.368  35.909  1.00  0.00     0.041 A 
ATOM    102  F   UNL A   1      46.861  39.602  34.704  1.00  0.00    -0.206 F 
ATOM    103  C   UNL A   1      49.762  38.571  36.600  1.00  0.00     0.022 A 
BRANCH 100 104
ATOM    104  S   UNL A   1      50.618  36.155  37.696  1.00  0.00     0.124 S 
ATOM    105  O   UNL A   1      50.601  36.873  38.967  1.00  0.00    -0.237 OA
ATOM    106  O   UNL A   1      49.922  34.873  37.680  1.00  0.00    -0.237 OA
ATOM    107  O   UNL A   1      51.899  36.173  36.990  1.00  0.00    -0.744 OA
ENDBRANCH 100 104
ENDBRANCH  74  97
ENDBRANCH  48  49
ENDBRANCH  41  43
ENDBRANCH  40  41
ENDBRANCH  39  40
ENDBRANCH  38  39
ENDBRANCH  37  38
ENDBRANCH  36  37
ENDBRANCH  35  36
ENDBRANCH  34  35
ENDBRANCH   1  34
TORSDOF 29
ENDMDL
MODEL 3
REMARK VINA RESULT:      -8.8      1.805      2.230
REMARK SMILES CCOc1cnc(C(=O)c2[nH]c3cc(Cl)ccc3c2CC(=O)OCCOCCOCCOCCOC(=O)c2ccc(-c3c4nc(c(-c5cc(S(=O)(=O)[O-])ccc5F)c5ccc([nH]5)c(-c5cc(S(=O)(=O)[O-])ccc5F)c5nc(c(-c6cc(S(=O)(=O)[O-])ccc6F)c6ccc3[nH]6)C=C5)C=C4)cc2)cc1CC
REMARK SMILES IDX 28 1 27 2 26 3 25 4 24 5 23 6 21 7 22 8 20 9 19 10 10 11
REMARK SMILES IDX 11 12 12 13 18 15 13 16 17 17 14 18 16 19 15 20 8 21 9 22
REMARK SMILES IDX 7 23 4 24 5 25 102 26 6 27 101 28 3 29 2 30 1 31 103 32
REMARK SMILES IDX 104 33 29 34 30 35 31 36 32 37 33 38 34 39 35 40 36 41 37 42
REMARK SMILES IDX 38 43 39 44 100 45 40 46 99 47 41 48 42 49 43 50 93 51 44 52
REMARK SMILES IDX 98 53 92 54 94 55 45 56 97 57 91 58 90 59 46 61 78 62 58 63
REMARK SMILES IDX 77 64 59 65 62 66 76 67 95 68 60 69 61 70 75 72 96 73 63 74
REMARK SMILES IDX 47 75 48 76 56 77 49 78 55 79 57 80 54 81 50 82 51 83 52 84
REMARK SMILES IDX 53 85 79 86 80 87 88 88 81 89 87 90 89 91 86 92 82 93 83 94
REMARK SMILES IDX 84 95 85 96 64 97 65 98 73 99 66 100 72 101 74 102 71 103
REMARK SMILES IDX 67 104 68 105 69 106 70 107
REMARK H PARENT 11 14 94 60 62 71
REMARK Flexibility Score: inf
ROOT
ATOM      1  C   UNL A   1      33.244  30.214  27.096  1.00  0.00     0.188 C 
ENDROOT
BRANCH   1   2
ATOM      2  C   UNL A   1      33.989  29.010  26.524  1.00  0.00     0.188 C 
BRANCH   2   3
ATOM      3  O   UNL A   1      33.928  28.796  25.130  1.00  0.00    -0.376 OA
BRANCH   3   4
ATOM      4  C   UNL A   1      33.708  27.459  24.684  1.00  0.00     0.202 C 
BRANCH   4   5
ATOM      5  C   UNL A   1      34.328  26.273  25.456  1.00  0.00     0.261 C 
BRANCH   5   6
ATOM      6  O   UNL A   1      34.630  25.086  24.666  1.00  0.00    -0.463 OA
BRANCH   6   7
ATOM      7  C   UNL A   1      35.230  24.060  25.319  1.00  0.00     0.310 C 
ATOM      8  O   UNL A   1      36.447  24.018  25.516  1.00  0.00    -0.252 OA
BRANCH   7   9
ATOM      9  C   UNL A   1      34.360  22.918  25.821  1.00  0.00     0.161 C 
BRANCH   9  10
ATOM     10  C   UNL A   1      33.538  22.042  24.901  1.00  0.00     0.000 A 
ATOM     11  C   UNL A   1      32.208  22.229  24.481  1.00  0.00     0.093 A 
ATOM     12  N   UNL A   1      31.971  21.233  23.553  1.00  0.00    -0.351 N 
ATOM     13  C   UNL A   1      32.813  20.176  23.788  1.00  0.00     0.048 A 
ATOM     14  H   UNL A   1      31.301  21.276  22.833  1.00  0.00     0.167 HD
ATOM     15  C   UNL A   1      33.837  20.664  24.596  1.00  0.00     0.004 A 
ATOM     16  C   UNL A   1      32.736  18.843  23.363  1.00  0.00     0.047 A 
ATOM     17  C   UNL A   1      34.843  19.763  25.010  1.00  0.00     0.012 A 
ATOM     18  C   UNL A   1      33.712  17.965  23.840  1.00  0.00     0.043 A 
ATOM     19  C   UNL A   1      34.752  18.412  24.650  1.00  0.00     0.021 A 
ATOM     20  Cl  UNL A   1      33.600  16.290  23.449  1.00  0.00    -0.084 Cl
BRANCH  11  21
ATOM     21  C   UNL A   1      31.246  23.253  24.897  1.00  0.00     0.227 C 
ATOM     22  O   UNL A   1      30.414  23.054  25.785  1.00  0.00    -0.285 OA
BRANCH  21  23
ATOM     23  C   UNL A   1      31.162  24.576  24.196  1.00  0.00     0.113 A 
ATOM     24  C   UNL A   1      30.604  26.776  22.664  1.00  0.00     0.140 A 
ATOM     25  C   UNL A   1      29.904  26.478  23.828  1.00  0.00     0.158 A 
ATOM     26  C   UNL A   1      31.715  25.999  22.326  1.00  0.00    -0.002 A 
ATOM     27  N   UNL A   1      30.163  25.401  24.603  1.00  0.00    -0.249 NA
ATOM     28  C   UNL A   1      31.961  24.848  23.088  1.00  0.00     0.040 A 
BRANCH  24  29
ATOM     29  O   UNL A   1      30.208  27.816  21.870  1.00  0.00    -0.492 OA
BRANCH  29  30
ATOM     30  C   UNL A   1      29.638  28.883  22.650  1.00  0.00     0.226 C 
ATOM     31  C   UNL A   1      29.612  30.179  21.853  1.00  0.00     0.049 C 
ENDBRANCH  29  30
ENDBRANCH  24  29
BRANCH  26  32
ATOM     32  C   UNL A   1      32.574  26.305  21.124  1.00  0.00     0.036 C 
ATOM     33  C   UNL A   1      32.431  25.292  19.997  1.00  0.00     0.009 C 
ENDBRANCH  26  32
ENDBRANCH  21  23
ENDBRANCH  11  21
ENDBRANCH   9  10
ENDBRANCH   7   9
ENDBRANCH   6   7
ENDBRANCH   5   6
ENDBRANCH   4   5
ENDBRANCH   3   4
ENDBRANCH   2   3
ENDBRANCH   1   2
BRANCH   1  34
ATOM     34  O   UNL A   1      31.865  30.378  26.813  1.00  0.00    -0.377 OA
BRANCH  34  35
ATOM     35  C   UNL A   1      31.271  31.667  26.876  1.00  0.00     0.188 C 
BRANCH  35  36
ATOM     36  C   UNL A   1      32.174  32.883  26.676  1.00  0.00     0.188 C 
BRANCH  36  37
ATOM     37  O   UNL A   1      32.166  33.899  27.683  1.00  0.00    -0.376 OA
BRANCH  37  38
ATOM     38  C   UNL A   1      33.113  33.838  28.747  1.00  0.00     0.202 C 
BRANCH  38  39
ATOM     39  C   UNL A   1      34.168  34.938  28.728  1.00  0.00     0.261 C 
BRANCH  39  40
ATOM     40  O   UNL A   1      35.437  34.427  29.159  1.00  0.00    -0.460 OA
BRANCH  40  41
ATOM     41  C   UNL A   1      35.871  33.345  28.465  1.00  0.00     0.338 C 
ATOM     42  O   UNL A   1      35.577  33.034  27.328  1.00  0.00    -0.246 OA
BRANCH  41  43
ATOM     43  C   UNL A   1      36.930  32.679  29.246  1.00  0.00     0.060 A 
ATOM     44  C   UNL A   1      38.246  33.125  29.072  1.00  0.00     0.016 A 
ATOM     45  C   UNL A   1      36.642  31.610  30.098  1.00  0.00     0.016 A 
ATOM     46  C   UNL A   1      39.290  32.468  29.710  1.00  0.00     0.010 A 
ATOM     47  C   UNL A   1      37.692  30.940  30.726  1.00  0.00     0.010 A 
ATOM     48  C   UNL A   1      39.020  31.342  30.495  1.00  0.00    -0.014 A 
BRANCH  48  49
ATOM     49  C   UNL A   1      40.135  30.451  30.876  1.00  0.00     0.031 A 
ATOM     50  C   UNL A   1      40.889  30.771  32.136  1.00  0.00     0.074 A 
ATOM     51  C   UNL A   1      40.435  29.369  30.140  1.00  0.00     0.049 A 
ATOM     52  N   UNL A   1      41.935  30.183  32.652  1.00  0.00    -0.248 NA
ATOM     53  C   UNL A   1      40.393  31.916  32.918  1.00  0.00     0.031 C 
ATOM     54  C   UNL A   1      39.718  28.943  28.938  1.00  0.00     0.029 A 
ATOM     55  N   UNL A   1      41.425  28.435  30.294  1.00  0.00    -0.354 N 
ATOM     56  C   UNL A   1      42.228  30.891  33.813  1.00  0.00     0.074 A 
ATOM     57  C   UNL A   1      41.275  31.974  33.902  1.00  0.00     0.031 C 
ATOM     58  C   UNL A   1      40.302  27.831  28.458  1.00  0.00     0.029 A 
ATOM     59  C   UNL A   1      41.458  27.499  29.288  1.00  0.00     0.049 A 
ATOM     60  H   UNL A   1      42.053  28.434  31.053  1.00  0.00     0.167 HD
ATOM     61  C   UNL A   1      43.203  30.649  34.722  1.00  0.00     0.034 A 
ATOM     62  C   UNL A   1      42.344  26.511  29.055  1.00  0.00     0.034 A 
ATOM     63  C   UNL A   1      44.149  29.568  34.596  1.00  0.00     0.049 A 
ATOM     64  C   UNL A   1      43.485  26.323  30.028  1.00  0.00     0.074 A 
ATOM     65  C   UNL A   1      45.179  29.219  35.449  1.00  0.00     0.029 A 
ATOM     66  N   UNL A   1      44.188  28.669  33.535  1.00  0.00    -0.354 N 
ATOM     67  N   UNL A   1      43.760  26.997  31.122  1.00  0.00    -0.248 NA
ATOM     68  C   UNL A   1      44.428  25.237  29.738  1.00  0.00     0.031 C 
ATOM     69  C   UNL A   1      45.892  28.167  34.864  1.00  0.00     0.029 A 
ATOM     70  C   UNL A   1      45.249  27.792  33.694  1.00  0.00     0.049 A 
ATOM     71  H   UNL A   1      43.554  28.657  32.782  1.00  0.00     0.167 HD
ATOM     72  C   UNL A   1      44.889  26.391  31.670  1.00  0.00     0.074 A 
ATOM     73  C   UNL A   1      45.231  25.291  30.790  1.00  0.00     0.031 C 
ATOM     74  C   UNL A   1      45.577  26.707  32.798  1.00  0.00     0.034 A 
BRANCH  61  75
ATOM     75  C   UNL A   1      43.326  31.608  35.882  1.00  0.00     0.023 A 
ATOM     76  C   UNL A   1      44.163  32.737  35.830  1.00  0.00     0.031 A 
ATOM     77  C   UNL A   1      42.629  31.364  37.079  1.00  0.00     0.131 A 
ATOM     78  C   UNL A   1      44.338  33.534  36.972  1.00  0.00     0.055 A 
ATOM     79  C   UNL A   1      42.739  32.210  38.183  1.00  0.00     0.041 A 
ATOM     80  F   UNL A   1      41.840  30.284  37.201  1.00  0.00    -0.206 F 
ATOM     81  C   UNL A   1      43.609  33.295  38.139  1.00  0.00     0.022 A 
BRANCH  78  82
ATOM     82  S   UNL A   1      45.648  34.789  36.963  1.00  0.00     0.124 S 
ATOM     83  O   UNL A   1      46.836  33.972  36.725  1.00  0.00    -0.237 OA
ATOM     84  O   UNL A   1      45.242  35.661  35.868  1.00  0.00    -0.237 OA
ATOM     85  O   UNL A   1      45.566  35.379  38.297  1.00  0.00    -0.744 OA
ENDBRANCH  78  82
ENDBRANCH  61  75
BRANCH  62  86
ATOM     86  C   UNL A   1      42.221  25.655  27.841  1.00  0.00     0.023 A 
ATOM     87  C   UNL A   1      41.589  24.404  27.895  1.00  0.00     0.031 A 
ATOM     88  C   UNL A   1      42.780  26.058  26.614  1.00  0.00     0.131 A 
ATOM     89  C   UNL A   1      41.574  23.577  26.758  1.00  0.00     0.055 A 
ATOM     90  C   UNL A   1      42.709  25.259  25.471  1.00  0.00     0.041 A 
ATOM     91  F   UNL A   1      43.400  27.243  26.506  1.00  0.00    -0.206 F 
ATOM     92  C   UNL A   1      42.115  24.004  25.543  1.00  0.00     0.022 A 
BRANCH  89  93
ATOM     93  S   UNL A   1      40.922  21.893  26.920  1.00  0.00     0.124 S 
ATOM     94  O   UNL A   1      40.803  21.761  28.367  1.00  0.00    -0.237 OA
ATOM     95  O   UNL A   1      39.670  21.979  26.177  1.00  0.00    -0.237 OA
ATOM     96  O   UNL A   1      41.957  21.067  26.301  1.00  0.00    -0.744 OA
ENDBRANCH  89  93
ENDBRANCH  62  86
BRANCH  74  97
ATOM     97  C   UNL A   1      46.738  25.814  33.168  1.00  0.00     0.023 A 
ATOM     98  C   UNL A   1      48.037  26.044  32.686  1.00  0.00     0.031 A 
ATOM     99  C   UNL A   1      46.534  24.711  34.017  1.00  0.00     0.131 A 
ATOM    100  C   UNL A   1      49.070  25.150  33.005  1.00  0.00     0.055 A 
ATOM    101  C   UNL A   1      47.580  23.867  34.391  1.00  0.00     0.041 A 
ATOM    102  F   UNL A   1      45.313  24.439  34.505  1.00  0.00    -0.206 F 
ATOM    103  C   UNL A   1      48.854  24.076  33.872  1.00  0.00     0.022 A 
BRANCH 100 104
ATOM    104  S   UNL A   1      50.675  25.346  32.185  1.00  0.00     0.124 S 
ATOM    105  O   UNL A   1      50.852  24.042  31.552  1.00  0.00    -0.237 OA
ATOM    106  O   UNL A   1      50.431  26.465  31.282  1.00  0.00    -0.237 OA
ATOM    107  O   UNL A   1      51.592  25.629  33.288  1.00  0.00    -0.744 OA
ENDBRANCH 100 104
ENDBRANCH  74  97
ENDBRANCH  48  49
ENDBRANCH  41  43
ENDBRANCH  40  41
ENDBRANCH  39  40
ENDBRANCH  38  39
ENDBRANCH  37  38
ENDBRANCH  36  37
ENDBRANCH  35  36
ENDBRANCH  34  35
ENDBRANCH   1  34
TORSDOF 29
ENDMDL
