MODEL 1
REMARK VINA RESULT:      -9.0      0.000      0.000
REMARK SMILES C[C@H](CNC(=O)N1C[C@H]2CCCC[N@@H+]2C[C@@H]1C)C(=O)OCCOCCOCCOCCOC(=O)c1ccc(-c2c3nc(c(-c4cc(S(=O)(=O)[O-])ccc4F)c4ccc([nH]4)c(-c4cc(S(=O)(=O)[O-])ccc4F)c4nc(c(-c5cc(S(=O)(=O)[O-])ccc5F)c5ccc2[nH]5)C=C4)C=C3)cc1
REMARK SMILES IDX 26 1 25 2 24 3 23 4 22 5 21 6 20 7 18 8 19 9 2 10 1 11 3 12
REMARK SMILES IDX 4 13 5 14 6 16 7 17 8 18 16 19 9 20 15 21 17 22 10 23 14 24
REMARK SMILES IDX 11 25 13 26 12 28 27 29 28 30 29 31 30 32 31 33 32 34 33 35
REMARK SMILES IDX 34 36 35 37 36 38 97 39 37 40 96 41 38 42 39 43 40 44 90 45
REMARK SMILES IDX 41 46 95 47 89 48 91 49 42 50 94 51 88 52 87 53 43 55 75 56
REMARK SMILES IDX 55 57 74 58 56 59 59 60 73 61 92 62 57 63 58 64 72 66 93 67
REMARK SMILES IDX 60 68 44 69 45 70 53 71 46 72 52 73 54 74 51 75 47 76 48 77
REMARK SMILES IDX 49 78 50 79 76 80 77 81 85 82 78 83 84 84 86 85 83 86 79 87
REMARK SMILES IDX 80 88 81 89 82 90 61 91 62 92 70 93 63 94 69 95 71 96 68 97
REMARK SMILES IDX 64 98 65 99 66 100 67 101
REMARK H PARENT 4 15 14 27 91 54 59 65
REMARK Flexibility Score: inf
ROOT
ATOM      1  O   UNL A   1      39.788  20.988  26.907  1.00  0.00    -0.377 OA
ENDROOT
BRANCH   1   2
ATOM      2  C   UNL A   1      39.109  21.830  26.003  1.00  0.00     0.188 C 
BRANCH   2   3
ATOM      3  C   UNL A   1      38.055  21.151  25.122  1.00  0.00     0.188 C 
BRANCH   3   4
ATOM      4  O   UNL A   1      36.890  21.836  24.702  1.00  0.00    -0.376 OA
BRANCH   4   5
ATOM      5  C   UNL A   1      36.011  22.458  25.629  1.00  0.00     0.202 C 
BRANCH   5   6
ATOM      6  C   UNL A   1      34.483  22.289  25.594  1.00  0.00     0.261 C 
BRANCH   6   7
ATOM      7  O   UNL A   1      33.689  23.437  25.933  1.00  0.00    -0.463 OA
BRANCH   7   8
ATOM      8  C   UNL A   1      32.945  23.948  24.932  1.00  0.00     0.310 C 
ATOM      9  O   UNL A   1      33.144  23.723  23.739  1.00  0.00    -0.252 OA
BRANCH   8  10
ATOM     10  C   UNL A   1      31.826  24.868  25.370  1.00  0.00     0.115 C 
ATOM     11  C   UNL A   1      31.322  24.393  26.729  1.00  0.00     0.022 C 
BRANCH  10  12
ATOM     12  C   UNL A   1      30.664  25.254  24.452  1.00  0.00     0.132 C 
BRANCH  12  13
ATOM     13  N   UNL A   1      30.888  25.417  23.032  1.00  0.00    -0.337 N 
ATOM     14  C   UNL A   1      31.341  26.512  22.351  1.00  0.00     0.318 C 
ATOM     15  H   UNL A   1      30.686  24.628  22.480  1.00  0.00     0.165 HD
ATOM     16  O   UNL A   1      31.397  26.493  21.126  1.00  0.00    -0.249 OA
BRANCH  14  17
ATOM     17  N   UNL A   1      31.604  27.629  23.104  1.00  0.00    -0.311 N 
ATOM     18  C   UNL A   1      32.948  27.873  23.622  1.00  0.00     0.186 C 
ATOM     19  C   UNL A   1      30.778  28.837  22.996  1.00  0.00     0.139 C 
ATOM     20  C   UNL A   1      32.829  28.435  25.045  1.00  0.00     0.203 C 
ATOM     21  C   UNL A   1      30.842  29.669  24.326  1.00  0.00     0.287 C 
ATOM     22  C   UNL A   1      29.300  28.513  22.728  1.00  0.00     0.037 C 
ATOM     23  C   UNL A   1      34.194  28.533  25.734  1.00  0.00     0.067 C 
ATOM     24  N   UNL A   1      32.133  29.740  25.065  1.00  0.00    -0.329 N 
ATOM     25  C   UNL A   1      34.000  28.941  27.192  1.00  0.00     0.012 C 
ATOM     26  C   UNL A   1      31.870  30.123  26.467  1.00  0.00     0.262 C 
ATOM     27  H   UNL A   1      32.726  30.434  24.610  1.00  0.00     0.348 HD
ATOM     28  C   UNL A   1      33.157  30.210  27.292  1.00  0.00     0.062 C 
ENDBRANCH  14  17
ENDBRANCH  12  13
ENDBRANCH  10  12
ENDBRANCH   8  10
ENDBRANCH   7   8
ENDBRANCH   6   7
ENDBRANCH   5   6
ENDBRANCH   4   5
ENDBRANCH   3   4
ENDBRANCH   2   3
ENDBRANCH   1   2
BRANCH   1  29
ATOM     29  C   UNL A   1      40.601  19.958  26.352  1.00  0.00     0.188 C 
BRANCH  29  30
ATOM     30  C   UNL A   1      42.127  20.184  26.256  1.00  0.00     0.188 C 
BRANCH  30  31
ATOM     31  O   UNL A   1      42.532  21.548  26.274  1.00  0.00    -0.376 OA
BRANCH  31  32
ATOM     32  C   UNL A   1      42.698  22.192  27.531  1.00  0.00     0.202 C 
BRANCH  32  33
ATOM     33  C   UNL A   1      42.110  23.607  27.699  1.00  0.00     0.261 C 
BRANCH  33  34
ATOM     34  O   UNL A   1      42.251  24.494  26.581  1.00  0.00    -0.460 OA
BRANCH  34  35
ATOM     35  C   UNL A   1      41.287  25.423  26.407  1.00  0.00     0.338 C 
ATOM     36  O   UNL A   1      40.110  25.209  26.164  1.00  0.00    -0.246 OA
BRANCH  35  37
ATOM     37  C   UNL A   1      41.834  26.746  26.768  1.00  0.00     0.060 A 
ATOM     38  C   UNL A   1      42.953  26.796  27.608  1.00  0.00     0.016 A 
ATOM     39  C   UNL A   1      41.224  27.923  26.328  1.00  0.00     0.016 A 
ATOM     40  C   UNL A   1      43.415  28.020  28.082  1.00  0.00     0.010 A 
ATOM     41  C   UNL A   1      41.675  29.153  26.821  1.00  0.00     0.010 A 
ATOM     42  C   UNL A   1      42.732  29.197  27.751  1.00  0.00    -0.014 A 
BRANCH  42  43
ATOM     43  C   UNL A   1      42.942  30.396  28.601  1.00  0.00     0.031 A 
ATOM     44  C   UNL A   1      44.031  31.358  28.199  1.00  0.00     0.074 A 
ATOM     45  C   UNL A   1      42.138  30.675  29.642  1.00  0.00     0.049 A 
ATOM     46  N   UNL A   1      44.395  32.488  28.749  1.00  0.00    -0.248 NA
ATOM     47  C   UNL A   1      44.818  30.989  27.011  1.00  0.00     0.031 C 
ATOM     48  C   UNL A   1      41.014  29.853  30.087  1.00  0.00     0.029 A 
ATOM     49  N   UNL A   1      42.141  31.741  30.508  1.00  0.00    -0.354 N 
ATOM     50  C   UNL A   1      45.457  32.956  27.982  1.00  0.00     0.074 A 
ATOM     51  C   UNL A   1      45.706  31.969  26.956  1.00  0.00     0.031 C 
ATOM     52  C   UNL A   1      40.429  30.451  31.139  1.00  0.00     0.029 A 
ATOM     53  C   UNL A   1      41.158  31.676  31.467  1.00  0.00     0.049 A 
ATOM     54  H   UNL A   1      42.787  32.481  30.448  1.00  0.00     0.167 HD
ATOM     55  C   UNL A   1      46.156  34.111  28.114  1.00  0.00     0.034 A 
ATOM     56  C   UNL A   1      40.890  32.505  32.496  1.00  0.00     0.034 A 
ATOM     57  C   UNL A   1      45.900  35.082  29.149  1.00  0.00     0.049 A 
ATOM     58  C   UNL A   1      41.740  33.743  32.678  1.00  0.00     0.074 A 
ATOM     59  C   UNL A   1      46.538  36.290  29.375  1.00  0.00     0.029 A 
ATOM     60  N   UNL A   1      44.938  34.951  30.143  1.00  0.00    -0.354 N 
ATOM     61  N   UNL A   1      42.740  34.180  31.946  1.00  0.00    -0.248 NA
ATOM     62  C   UNL A   1      41.412  34.607  33.820  1.00  0.00     0.031 C 
ATOM     63  C   UNL A   1      46.023  36.843  30.551  1.00  0.00     0.029 A 
ATOM     64  C   UNL A   1      44.989  36.037  31.003  1.00  0.00     0.049 A 
ATOM     65  H   UNL A   1      44.310  34.197  30.224  1.00  0.00     0.167 HD
ATOM     66  C   UNL A   1      43.124  35.396  32.511  1.00  0.00     0.074 A 
ATOM     67  C   UNL A   1      42.242  35.622  33.638  1.00  0.00     0.031 C 
ATOM     68  C   UNL A   1      44.106  36.254  32.126  1.00  0.00     0.034 A 
BRANCH  55  69
ATOM     69  C   UNL A   1      47.305  34.340  27.158  1.00  0.00     0.023 A 
ATOM     70  C   UNL A   1      48.624  33.959  27.467  1.00  0.00     0.031 A 
ATOM     71  C   UNL A   1      47.083  34.997  25.935  1.00  0.00     0.131 A 
ATOM     72  C   UNL A   1      49.675  34.310  26.605  1.00  0.00     0.055 A 
ATOM     73  C   UNL A   1      48.121  35.260  25.039  1.00  0.00     0.041 A 
ATOM     74  F   UNL A   1      45.852  35.413  25.595  1.00  0.00    -0.206 F 
ATOM     75  C   UNL A   1      49.429  34.932  25.379  1.00  0.00     0.022 A 
BRANCH  72  76
ATOM     76  S   UNL A   1      51.382  34.094  27.183  1.00  0.00     0.124 S 
ATOM     77  O   UNL A   1      52.146  34.548  26.023  1.00  0.00    -0.237 OA
ATOM     78  O   UNL A   1      51.428  34.956  28.357  1.00  0.00    -0.237 OA
ATOM     79  O   UNL A   1      51.472  32.661  27.457  1.00  0.00    -0.744 OA
ENDBRANCH  72  76
ENDBRANCH  55  69
BRANCH  56  80
ATOM     80  C   UNL A   1      39.787  32.199  33.455  1.00  0.00     0.023 A 
ATOM     81  C   UNL A   1      38.566  32.891  33.406  1.00  0.00     0.031 A 
ATOM     82  C   UNL A   1      39.966  31.254  34.483  1.00  0.00     0.131 A 
ATOM     83  C   UNL A   1      37.594  32.668  34.395  1.00  0.00     0.055 A 
ATOM     84  C   UNL A   1      38.971  30.992  35.426  1.00  0.00     0.041 A 
ATOM     85  F   UNL A   1      41.116  30.569  34.583  1.00  0.00    -0.206 F 
ATOM     86  C   UNL A   1      37.782  31.713  35.394  1.00  0.00     0.022 A 
BRANCH  83  87
ATOM     87  S   UNL A   1      36.116  33.721  34.414  1.00  0.00     0.124 S 
ATOM     88  O   UNL A   1      36.629  34.962  33.845  1.00  0.00    -0.237 OA
ATOM     89  O   UNL A   1      35.193  32.964  33.576  1.00  0.00    -0.237 OA
ATOM     90  O   UNL A   1      35.761  33.782  35.830  1.00  0.00    -0.744 OA
ENDBRANCH  83  87
ENDBRANCH  56  80
BRANCH  68  91
ATOM     91  C   UNL A   1      44.223  37.558  32.885  1.00  0.00     0.023 A 
ATOM     92  C   UNL A   1      43.497  38.706  32.525  1.00  0.00     0.031 A 
ATOM     93  C   UNL A   1      45.104  37.654  33.980  1.00  0.00     0.131 A 
ATOM     94  C   UNL A   1      43.723  39.916  33.199  1.00  0.00     0.055 A 
ATOM     95  C   UNL A   1      45.264  38.840  34.697  1.00  0.00     0.041 A 
ATOM     96  F   UNL A   1      45.828  36.593  34.371  1.00  0.00    -0.206 F 
ATOM     97  C   UNL A   1      44.585  39.985  34.296  1.00  0.00     0.022 A 
BRANCH  94  98
ATOM     98  S   UNL A   1      42.978  41.433  32.538  1.00  0.00     0.124 S 
ATOM     99  O   UNL A   1      41.930  40.905  31.672  1.00  0.00    -0.237 OA
ATOM    100  O   UNL A   1      42.522  42.109  33.749  1.00  0.00    -0.237 OA
ATOM    101  O   UNL A   1      44.086  42.086  31.844  1.00  0.00    -0.744 OA
ENDBRANCH  94  98
ENDBRANCH  68  91
ENDBRANCH  42  43
ENDBRANCH  35  37
ENDBRANCH  34  35
ENDBRANCH  33  34
ENDBRANCH  32  33
ENDBRANCH  31  32
ENDBRANCH  30  31
ENDBRANCH  29  30
ENDBRANCH   1  29
TORSDOF 26
ENDMDL
MODEL 2
REMARK VINA RESULT:      -8.9      4.762      9.694
REMARK SMILES C[C@H](CNC(=O)N1C[C@H]2CCCC[N@@H+]2C[C@@H]1C)C(=O)OCCOCCOCCOCCOC(=O)c1ccc(-c2c3nc(c(-c4cc(S(=O)(=O)[O-])ccc4F)c4ccc([nH]4)c(-c4cc(S(=O)(=O)[O-])ccc4F)c4nc(c(-c5cc(S(=O)(=O)[O-])ccc5F)c5ccc2[nH]5)C=C4)C=C3)cc1
REMARK SMILES IDX 26 1 25 2 24 3 23 4 22 5 21 6 20 7 18 8 19 9 2 10 1 11 3 12
REMARK SMILES IDX 4 13 5 14 6 16 7 17 8 18 16 19 9 20 15 21 17 22 10 23 14 24
REMARK SMILES IDX 11 25 13 26 12 28 27 29 28 30 29 31 30 32 31 33 32 34 33 35
REMARK SMILES IDX 34 36 35 37 36 38 97 39 37 40 96 41 38 42 39 43 40 44 90 45
REMARK SMILES IDX 41 46 95 47 89 48 91 49 42 50 94 51 88 52 87 53 43 55 75 56
REMARK SMILES IDX 55 57 74 58 56 59 59 60 73 61 92 62 57 63 58 64 72 66 93 67
REMARK SMILES IDX 60 68 44 69 45 70 53 71 46 72 52 73 54 74 51 75 47 76 48 77
REMARK SMILES IDX 49 78 50 79 76 80 77 81 85 82 78 83 84 84 86 85 83 86 79 87
REMARK SMILES IDX 80 88 81 89 82 90 61 91 62 92 70 93 63 94 69 95 71 96 68 97
REMARK SMILES IDX 64 98 65 99 66 100 67 101
REMARK H PARENT 4 15 14 27 91 54 59 65
REMARK Flexibility Score: inf
ROOT
ATOM      1  O   UNL A   1      41.982  19.735  25.868  1.00  0.00    -0.377 OA
ENDROOT
BRANCH   1   2
ATOM      2  C   UNL A   1      42.218  20.745  26.822  1.00  0.00     0.188 C 
BRANCH   2   3
ATOM      3  C   UNL A   1      40.970  21.365  27.459  1.00  0.00     0.188 C 
BRANCH   3   4
ATOM      4  O   UNL A   1      39.681  21.158  26.913  1.00  0.00    -0.376 OA
BRANCH   4   5
ATOM      5  C   UNL A   1      39.204  21.917  25.811  1.00  0.00     0.202 C 
BRANCH   5   6
ATOM      6  C   UNL A   1      37.877  22.696  25.828  1.00  0.00     0.261 C 
BRANCH   6   7
ATOM      7  O   UNL A   1      36.852  22.265  24.919  1.00  0.00    -0.463 OA
BRANCH   7   8
ATOM      8  C   UNL A   1      35.630  22.091  25.458  1.00  0.00     0.310 C 
ATOM      9  O   UNL A   1      35.298  21.106  26.114  1.00  0.00    -0.252 OA
BRANCH   8  10
ATOM     10  C   UNL A   1      34.643  23.206  25.182  1.00  0.00     0.115 C 
ATOM     11  C   UNL A   1      34.241  23.829  26.515  1.00  0.00     0.022 C 
BRANCH  10  12
ATOM     12  C   UNL A   1      33.431  23.031  24.264  1.00  0.00     0.132 C 
BRANCH  12  13
ATOM     13  N   UNL A   1      33.509  23.438  22.878  1.00  0.00    -0.337 N 
ATOM     14  C   UNL A   1      33.107  24.610  22.301  1.00  0.00     0.318 C 
ATOM     15  H   UNL A   1      33.909  22.779  22.266  1.00  0.00     0.165 HD
ATOM     16  O   UNL A   1      33.183  24.752  21.084  1.00  0.00    -0.249 OA
BRANCH  14  17
ATOM     17  N   UNL A   1      32.525  25.530  23.136  1.00  0.00    -0.311 N 
ATOM     18  C   UNL A   1      33.240  26.749  23.507  1.00  0.00     0.186 C 
ATOM     19  C   UNL A   1      31.068  25.630  23.268  1.00  0.00     0.139 C 
ATOM     20  C   UNL A   1      32.968  27.044  24.988  1.00  0.00     0.203 C 
ATOM     21  C   UNL A   1      30.681  26.233  24.665  1.00  0.00     0.287 C 
ATOM     22  C   UNL A   1      30.374  24.263  23.152  1.00  0.00     0.037 C 
ATOM     23  C   UNL A   1      33.836  28.194  25.508  1.00  0.00     0.067 C 
ATOM     24  N   UNL A   1      31.535  27.310  25.242  1.00  0.00    -0.329 N 
ATOM     25  C   UNL A   1      33.644  28.335  27.016  1.00  0.00     0.012 C 
ATOM     26  C   UNL A   1      31.310  27.380  26.700  1.00  0.00     0.262 C 
ATOM     27  H   UNL A   1      31.282  28.192  24.798  1.00  0.00     0.348 HD
ATOM     28  C   UNL A   1      32.163  28.466  27.363  1.00  0.00     0.062 C 
ENDBRANCH  14  17
ENDBRANCH  12  13
ENDBRANCH  10  12
ENDBRANCH   8  10
ENDBRANCH   7   8
ENDBRANCH   6   7
ENDBRANCH   5   6
ENDBRANCH   4   5
ENDBRANCH   3   4
ENDBRANCH   2   3
ENDBRANCH   1   2
BRANCH   1  29
ATOM     29  C   UNL A   1      42.919  18.663  25.809  1.00  0.00     0.188 C 
BRANCH  29  30
ATOM     30  C   UNL A   1      44.288  18.907  25.136  1.00  0.00     0.188 C 
BRANCH  30  31
ATOM     31  O   UNL A   1      44.287  19.903  24.119  1.00  0.00    -0.376 OA
BRANCH  31  32
ATOM     32  C   UNL A   1      45.068  21.075  24.315  1.00  0.00     0.202 C 
BRANCH  32  33
ATOM     33  C   UNL A   1      45.676  21.311  25.711  1.00  0.00     0.261 C 
BRANCH  33  34
ATOM     34  O   UNL A   1      46.092  22.651  26.010  1.00  0.00    -0.460 OA
BRANCH  34  35
ATOM     35  C   UNL A   1      45.465  23.277  27.027  1.00  0.00     0.338 C 
ATOM     36  O   UNL A   1      44.869  22.744  27.950  1.00  0.00    -0.246 OA
BRANCH  35  37
ATOM     37  C   UNL A   1      45.789  24.716  26.970  1.00  0.00     0.060 A 
ATOM     38  C   UNL A   1      45.630  25.385  25.750  1.00  0.00     0.016 A 
ATOM     39  C   UNL A   1      46.291  25.388  28.087  1.00  0.00     0.016 A 
ATOM     40  C   UNL A   1      46.054  26.704  25.617  1.00  0.00     0.010 A 
ATOM     41  C   UNL A   1      46.735  26.708  27.949  1.00  0.00     0.010 A 
ATOM     42  C   UNL A   1      46.677  27.346  26.695  1.00  0.00    -0.014 A 
BRANCH  42  43
ATOM     43  C   UNL A   1      47.511  28.542  26.415  1.00  0.00     0.031 A 
ATOM     44  C   UNL A   1      46.846  29.893  26.495  1.00  0.00     0.074 A 
ATOM     45  C   UNL A   1      48.832  28.446  26.187  1.00  0.00     0.049 A 
ATOM     46  N   UNL A   1      47.355  31.087  26.329  1.00  0.00    -0.248 NA
ATOM     47  C   UNL A   1      45.408  29.894  26.808  1.00  0.00     0.031 C 
ATOM     48  C   UNL A   1      49.595  27.200  26.148  1.00  0.00     0.029 A 
ATOM     49  N   UNL A   1      49.769  29.424  25.956  1.00  0.00    -0.354 N 
ATOM     50  C   UNL A   1      46.299  31.976  26.503  1.00  0.00     0.074 A 
ATOM     51  C   UNL A   1      45.115  31.182  26.747  1.00  0.00     0.031 C 
ATOM     52  C   UNL A   1      50.888  27.490  25.917  1.00  0.00     0.029 A 
ATOM     53  C   UNL A   1      51.038  28.936  25.753  1.00  0.00     0.049 A 
ATOM     54  H   UNL A   1      49.552  30.383  25.937  1.00  0.00     0.167 HD
ATOM     55  C   UNL A   1      46.315  33.332  26.475  1.00  0.00     0.034 A 
ATOM     56  C   UNL A   1      52.183  29.584  25.455  1.00  0.00     0.034 A 
ATOM     57  C   UNL A   1      47.504  34.108  26.222  1.00  0.00     0.049 A 
ATOM     58  C   UNL A   1      52.160  31.091  25.340  1.00  0.00     0.074 A 
ATOM     59  C   UNL A   1      47.642  35.484  26.177  1.00  0.00     0.029 A 
ATOM     60  N   UNL A   1      48.760  33.576  25.955  1.00  0.00    -0.354 N 
ATOM     61  N   UNL A   1      51.157  31.923  25.510  1.00  0.00    -0.248 NA
ATOM     62  C   UNL A   1      53.431  31.746  25.006  1.00  0.00     0.031 C 
ATOM     63  C   UNL A   1      48.954  35.780  25.798  1.00  0.00     0.029 A 
ATOM     64  C   UNL A   1      49.667  34.595  25.710  1.00  0.00     0.049 A 
ATOM     65  H   UNL A   1      48.975  32.615  25.943  1.00  0.00     0.167 HD
ATOM     66  C   UNL A   1      51.692  33.202  25.355  1.00  0.00     0.074 A 
ATOM     67  C   UNL A   1      53.104  33.027  25.084  1.00  0.00     0.031 C 
ATOM     68  C   UNL A   1      51.075  34.411  25.441  1.00  0.00     0.034 A 
BRANCH  55  69
ATOM     69  C   UNL A   1      44.994  34.046  26.649  1.00  0.00     0.023 A 
ATOM     70  C   UNL A   1      44.455  34.326  27.918  1.00  0.00     0.031 A 
ATOM     71  C   UNL A   1      44.237  34.410  25.521  1.00  0.00     0.131 A 
ATOM     72  C   UNL A   1      43.166  34.873  28.027  1.00  0.00     0.055 A 
ATOM     73  C   UNL A   1      42.996  35.039  25.636  1.00  0.00     0.041 A 
ATOM     74  F   UNL A   1      44.683  34.143  24.283  1.00  0.00    -0.206 F 
ATOM     75  C   UNL A   1      42.445  35.258  26.895  1.00  0.00     0.022 A 
BRANCH  72  76
ATOM     76  S   UNL A   1      42.377  34.918  29.660  1.00  0.00     0.124 S 
ATOM     77  O   UNL A   1      42.698  33.590  30.180  1.00  0.00    -0.237 OA
ATOM     78  O   UNL A   1      43.050  36.037  30.306  1.00  0.00    -0.237 OA
ATOM     79  O   UNL A   1      40.963  35.132  29.352  1.00  0.00    -0.744 OA
ENDBRANCH  72  76
ENDBRANCH  55  69
BRANCH  56  80
ATOM     80  C   UNL A   1      53.448  28.827  25.224  1.00  0.00     0.023 A 
ATOM     81  C   UNL A   1      54.324  28.530  26.281  1.00  0.00     0.031 A 
ATOM     82  C   UNL A   1      53.837  28.450  23.924  1.00  0.00     0.131 A 
ATOM     83  C   UNL A   1      55.564  27.927  26.016  1.00  0.00     0.055 A 
ATOM     84  C   UNL A   1      55.043  27.794  23.675  1.00  0.00     0.041 A 
ATOM     85  F   UNL A   1      53.043  28.715  22.875  1.00  0.00    -0.206 F 
ATOM     86  C   UNL A   1      55.922  27.542  24.723  1.00  0.00     0.022 A 
BRANCH  83  87
ATOM     87  S   UNL A   1      56.750  27.741  27.377  1.00  0.00     0.124 S 
ATOM     88  O   UNL A   1      56.427  28.893  28.210  1.00  0.00    -0.237 OA
ATOM     89  O   UNL A   1      56.388  26.436  27.918  1.00  0.00    -0.237 OA
ATOM     90  O   UNL A   1      58.048  27.797  26.707  1.00  0.00    -0.744 OA
ENDBRANCH  83  87
ENDBRANCH  56  80
BRANCH  68  91
ATOM     91  C   UNL A   1      51.946  35.643  25.319  1.00  0.00     0.023 A 
ATOM     92  C   UNL A   1      52.325  36.409  26.435  1.00  0.00     0.031 A 
ATOM     93  C   UNL A   1      52.383  36.070  24.051  1.00  0.00     0.131 A 
ATOM     94  C   UNL A   1      53.046  37.599  26.255  1.00  0.00     0.055 A 
ATOM     95  C   UNL A   1      53.168  37.211  23.886  1.00  0.00     0.041 A 
ATOM     96  F   UNL A   1      52.051  35.383  22.946  1.00  0.00    -0.206 F 
ATOM     97  C   UNL A   1      53.488  37.994  24.989  1.00  0.00     0.022 A 
BRANCH  94  98
ATOM     98  S   UNL A   1      53.283  38.699  27.678  1.00  0.00     0.124 S 
ATOM     99  O   UNL A   1      54.521  39.386  27.327  1.00  0.00    -0.237 OA
ATOM    100  O   UNL A   1      52.072  39.513  27.648  1.00  0.00    -0.237 OA
ATOM    101  O   UNL A   1      53.382  37.780  28.810  1.00  0.00    -0.744 OA
ENDBRANCH  94  98
ENDBRANCH  68  91
ENDBRANCH  42  43
ENDBRANCH  35  37
ENDBRANCH  34  35
ENDBRANCH  33  34
ENDBRANCH  32  33
ENDBRANCH  31  32
ENDBRANCH  30  31
ENDBRANCH  29  30
ENDBRANCH   1  29
TORSDOF 26
ENDMDL
MODEL 3
REMARK VINA RESULT:      -8.8      3.968      7.089
REMARK SMILES C[C@H](CNC(=O)N1C[C@H]2CCCC[N@@H+]2C[C@@H]1C)C(=O)OCCOCCOCCOCCOC(=O)c1ccc(-c2c3nc(c(-c4cc(S(=O)(=O)[O-])ccc4F)c4ccc([nH]4)c(-c4cc(S(=O)(=O)[O-])ccc4F)c4nc(c(-c5cc(S(=O)(=O)[O-])ccc5F)c5ccc2[nH]5)C=C4)C=C3)cc1
REMARK SMILES IDX 26 1 25 2 24 3 23 4 22 5 21 6 20 7 18 8 19 9 2 10 1 11 3 12
REMARK SMILES IDX 4 13 5 14 6 16 7 17 8 18 16 19 9 20 15 21 17 22 10 23 14 24
REMARK SMILES IDX 11 25 13 26 12 28 27 29 28 30 29 31 30 32 31 33 32 34 33 35
REMARK SMILES IDX 34 36 35 37 36 38 97 39 37 40 96 41 38 42 39 43 40 44 90 45
REMARK SMILES IDX 41 46 95 47 89 48 91 49 42 50 94 51 88 52 87 53 43 55 75 56
REMARK SMILES IDX 55 57 74 58 56 59 59 60 73 61 92 62 57 63 58 64 72 66 93 67
REMARK SMILES IDX 60 68 44 69 45 70 53 71 46 72 52 73 54 74 51 75 47 76 48 77
REMARK SMILES IDX 49 78 50 79 76 80 77 81 85 82 78 83 84 84 86 85 83 86 79 87
REMARK SMILES IDX 80 88 81 89 82 90 61 91 62 92 70 93 63 94 69 95 71 96 68 97
REMARK SMILES IDX 64 98 65 99 66 100 67 101
REMARK H PARENT 4 15 14 27 91 54 59 65
REMARK Flexibility Score: inf
ROOT
ATOM      1  O   UNL A   1      40.398  21.516  27.734  1.00  0.00    -0.377 OA
ENDROOT
BRANCH   1   2
ATOM      2  C   UNL A   1      39.666  22.182  26.730  1.00  0.00     0.188 C 
BRANCH   2   3
ATOM      3  C   UNL A   1      38.834  21.287  25.807  1.00  0.00     0.188 C 
BRANCH   3   4
ATOM      4  O   UNL A   1      38.079  21.828  24.738  1.00  0.00    -0.376 OA
BRANCH   4   5
ATOM      5  C   UNL A   1      36.853  22.510  24.958  1.00  0.00     0.202 C 
BRANCH   5   6
ATOM      6  C   UNL A   1      35.864  22.139  26.076  1.00  0.00     0.261 C 
BRANCH   6   7
ATOM      7  O   UNL A   1      34.885  21.131  25.778  1.00  0.00    -0.463 OA
BRANCH   7   8
ATOM      8  C   UNL A   1      33.731  21.215  26.468  1.00  0.00     0.310 C 
ATOM      9  O   UNL A   1      33.657  21.186  27.695  1.00  0.00    -0.252 OA
BRANCH   8  10
ATOM     10  C   UNL A   1      32.483  21.327  25.619  1.00  0.00     0.115 C 
ATOM     11  C   UNL A   1      32.889  21.198  24.154  1.00  0.00     0.022 C 
BRANCH  10  12
ATOM     12  C   UNL A   1      31.448  22.438  25.811  1.00  0.00     0.132 C 
BRANCH  12  13
ATOM     13  N   UNL A   1      30.859  23.084  24.659  1.00  0.00    -0.337 N 
ATOM     14  C   UNL A   1      31.063  24.350  24.184  1.00  0.00     0.318 C 
ATOM     15  H   UNL A   1      30.224  22.536  24.145  1.00  0.00     0.165 HD
ATOM     16  O   UNL A   1      30.412  24.758  23.227  1.00  0.00    -0.249 OA
BRANCH  14  17
ATOM     17  N   UNL A   1      31.927  25.137  24.902  1.00  0.00    -0.311 N 
ATOM     18  C   UNL A   1      31.491  25.771  26.144  1.00  0.00     0.186 C 
ATOM     19  C   UNL A   1      33.381  24.976  24.794  1.00  0.00     0.139 C 
ATOM     20  C   UNL A   1      32.081  27.187  26.205  1.00  0.00     0.203 C 
ATOM     21  C   UNL A   1      34.113  26.317  25.152  1.00  0.00     0.287 C 
ATOM     22  C   UNL A   1      33.821  24.579  23.375  1.00  0.00     0.037 C 
ATOM     23  C   UNL A   1      31.514  27.990  27.379  1.00  0.00     0.067 C 
ATOM     24  N   UNL A   1      33.560  27.165  26.246  1.00  0.00    -0.329 N 
ATOM     25  C   UNL A   1      32.008  29.432  27.295  1.00  0.00     0.012 C 
ATOM     26  C   UNL A   1      34.065  28.544  26.094  1.00  0.00     0.262 C 
ATOM     27  H   UNL A   1      33.856  26.772  27.138  1.00  0.00     0.348 HD
ATOM     28  C   UNL A   1      33.530  29.477  27.185  1.00  0.00     0.062 C 
ENDBRANCH  14  17
ENDBRANCH  12  13
ENDBRANCH  10  12
ENDBRANCH   8  10
ENDBRANCH   7   8
ENDBRANCH   6   7
ENDBRANCH   5   6
ENDBRANCH   4   5
ENDBRANCH   3   4
ENDBRANCH   2   3
ENDBRANCH   1   2
BRANCH   1  29
ATOM     29  C   UNL A   1      41.794  21.792  27.814  1.00  0.00     0.188 C 
BRANCH  29  30
ATOM     30  C   UNL A   1      42.459  22.601  26.679  1.00  0.00     0.188 C 
BRANCH  30  31
ATOM     31  O   UNL A   1      43.796  22.218  26.374  1.00  0.00    -0.376 OA
BRANCH  31  32
ATOM     32  C   UNL A   1      44.079  21.716  25.073  1.00  0.00     0.202 C 
BRANCH  32  33
ATOM     33  C   UNL A   1      44.581  22.713  24.011  1.00  0.00     0.261 C 
BRANCH  33  34
ATOM     34  O   UNL A   1      44.536  24.103  24.365  1.00  0.00    -0.460 OA
BRANCH  34  35
ATOM     35  C   UNL A   1      45.557  24.582  25.105  1.00  0.00     0.338 C 
ATOM     36  O   UNL A   1      46.705  24.164  25.115  1.00  0.00    -0.246 OA
BRANCH  35  37
ATOM     37  C   UNL A   1      45.125  25.836  25.754  1.00  0.00     0.060 A 
ATOM     38  C   UNL A   1      46.108  26.752  26.150  1.00  0.00     0.016 A 
ATOM     39  C   UNL A   1      43.775  26.087  26.014  1.00  0.00     0.016 A 
ATOM     40  C   UNL A   1      45.754  27.879  26.886  1.00  0.00     0.010 A 
ATOM     41  C   UNL A   1      43.422  27.209  26.772  1.00  0.00     0.010 A 
ATOM     42  C   UNL A   1      44.419  28.072  27.264  1.00  0.00    -0.014 A 
BRANCH  42  43
ATOM     43  C   UNL A   1      44.135  28.990  28.396  1.00  0.00     0.031 A 
ATOM     44  C   UNL A   1      44.062  28.395  29.779  1.00  0.00     0.074 A 
ATOM     45  C   UNL A   1      44.034  30.320  28.221  1.00  0.00     0.049 A 
ATOM     46  N   UNL A   1      43.861  28.979  30.932  1.00  0.00    -0.248 NA
ATOM     47  C   UNL A   1      44.242  26.936  29.870  1.00  0.00     0.031 C 
ATOM     48  C   UNL A   1      44.150  31.015  26.941  1.00  0.00     0.029 A 
ATOM     49  N   UNL A   1      43.823  31.323  29.134  1.00  0.00    -0.354 N 
ATOM     50  C   UNL A   1      43.878  27.960  31.880  1.00  0.00     0.074 A 
ATOM     51  C   UNL A   1      44.066  26.719  31.163  1.00  0.00     0.031 C 
ATOM     52  C   UNL A   1      44.018  32.337  27.152  1.00  0.00     0.029 A 
ATOM     53  C   UNL A   1      43.770  32.578  28.574  1.00  0.00     0.049 A 
ATOM     54  H   UNL A   1      43.719  31.160  30.099  1.00  0.00     0.167 HD
ATOM     55  C   UNL A   1      43.758  28.051  33.228  1.00  0.00     0.034 A 
ATOM     56  C   UNL A   1      43.534  33.777  29.144  1.00  0.00     0.034 A 
ATOM     57  C   UNL A   1      43.561  29.298  33.927  1.00  0.00     0.049 A 
ATOM     58  C   UNL A   1      43.314  33.845  30.638  1.00  0.00     0.074 A 
ATOM     59  C   UNL A   1      43.436  29.512  35.288  1.00  0.00     0.029 A 
ATOM     60  N   UNL A   1      43.447  30.542  33.318  1.00  0.00    -0.354 N 
ATOM     61  N   UNL A   1      43.336  32.876  31.527  1.00  0.00    -0.248 NA
ATOM     62  C   UNL A   1      43.053  35.174  31.207  1.00  0.00     0.031 C 
ATOM     63  C   UNL A   1      43.157  30.866  35.494  1.00  0.00     0.029 A 
ATOM     64  C   UNL A   1      43.217  31.520  34.273  1.00  0.00     0.049 A 
ATOM     65  H   UNL A   1      43.521  30.705  32.350  1.00  0.00     0.167 HD
ATOM     66  C   UNL A   1      43.142  33.490  32.764  1.00  0.00     0.074 A 
ATOM     67  C   UNL A   1      43.013  34.909  32.504  1.00  0.00     0.031 C 
ATOM     68  C   UNL A   1      43.089  32.934  34.004  1.00  0.00     0.034 A 
BRANCH  55  69
ATOM     69  C   UNL A   1      43.763  26.759  34.014  1.00  0.00     0.023 A 
ATOM     70  C   UNL A   1      44.943  26.033  34.255  1.00  0.00     0.031 A 
ATOM     71  C   UNL A   1      42.554  26.222  34.489  1.00  0.00     0.131 A 
ATOM     72  C   UNL A   1      44.877  24.776  34.877  1.00  0.00     0.055 A 
ATOM     73  C   UNL A   1      42.507  25.014  35.189  1.00  0.00     0.041 A 
ATOM     74  F   UNL A   1      41.389  26.852  34.266  1.00  0.00    -0.206 F 
ATOM     75  C   UNL A   1      43.671  24.275  35.371  1.00  0.00     0.022 A 
BRANCH  72  76
ATOM     76  S   UNL A   1      46.360  23.729  34.880  1.00  0.00     0.124 S 
ATOM     77  O   UNL A   1      46.730  23.746  36.293  1.00  0.00    -0.237 OA
ATOM     78  O   UNL A   1      45.853  22.463  34.366  1.00  0.00    -0.237 OA
ATOM     79  O   UNL A   1      47.282  24.439  33.994  1.00  0.00    -0.744 OA
ENDBRANCH  72  76
ENDBRANCH  55  69
BRANCH  56  80
ATOM     80  C   UNL A   1      43.470  35.016  28.314  1.00  0.00     0.023 A 
ATOM     81  C   UNL A   1      44.637  35.703  27.938  1.00  0.00     0.031 A 
ATOM     82  C   UNL A   1      42.232  35.573  27.942  1.00  0.00     0.131 A 
ATOM     83  C   UNL A   1      44.541  36.930  27.263  1.00  0.00     0.055 A 
ATOM     84  C   UNL A   1      42.145  36.762  27.216  1.00  0.00     0.041 A 
ATOM     85  F   UNL A   1      41.085  34.964  28.281  1.00  0.00    -0.206 F 
ATOM     86  C   UNL A   1      43.305  37.456  26.886  1.00  0.00     0.022 A 
BRANCH  83  87
ATOM     87  S   UNL A   1      46.058  37.883  26.972  1.00  0.00     0.124 S 
ATOM     88  O   UNL A   1      46.734  37.067  25.971  1.00  0.00    -0.237 OA
ATOM     89  O   UNL A   1      45.529  39.161  26.508  1.00  0.00    -0.237 OA
ATOM     90  O   UNL A   1      46.695  37.917  28.287  1.00  0.00    -0.744 OA
ENDBRANCH  83  87
ENDBRANCH  56  80
BRANCH  68  91
ATOM     91  C   UNL A   1      42.963  33.876  35.181  1.00  0.00     0.023 A 
ATOM     92  C   UNL A   1      41.718  34.308  35.670  1.00  0.00     0.031 A 
ATOM     93  C   UNL A   1      44.122  34.371  35.810  1.00  0.00     0.131 A 
ATOM     94  C   UNL A   1      41.662  35.263  36.696  1.00  0.00     0.055 A 
ATOM     95  C   UNL A   1      44.058  35.259  36.883  1.00  0.00     0.041 A 
ATOM     96  F   UNL A   1      45.341  33.998  35.387  1.00  0.00    -0.206 F 
ATOM     97  C   UNL A   1      42.824  35.725  37.321  1.00  0.00     0.022 A 
BRANCH  94  98
ATOM     98  S   UNL A   1      40.058  35.999  37.115  1.00  0.00     0.124 S 
ATOM     99  O   UNL A   1      39.324  34.851  37.638  1.00  0.00    -0.237 OA
ATOM    100  O   UNL A   1      40.428  37.017  38.094  1.00  0.00    -0.237 OA
ATOM    101  O   UNL A   1      39.572  36.516  35.838  1.00  0.00    -0.744 OA
ENDBRANCH  94  98
ENDBRANCH  68  91
ENDBRANCH  42  43
ENDBRANCH  35  37
ENDBRANCH  34  35
ENDBRANCH  33  34
ENDBRANCH  32  33
ENDBRANCH  31  32
ENDBRANCH  30  31
ENDBRANCH  29  30
ENDBRANCH   1  29
TORSDOF 26
ENDMDL
