MODEL 1
REMARK VINA RESULT:      -9.3      0.000      0.000
REMARK SMILES Cc1ccc(C[C@H](C(=O)OCCOCCOCCOCCOC(=O)c2ccc(-c3c4nc(c(-c5cc(S(=O)(=O)[O-])ccc5F)c5ccc([nH]5)c(-c5cc(S(=O)(=O)[O-])ccc5F)c5nc(c(-c6cc(S(=O)(=O)[O-])ccc6F)c6ccc3[nH]6)C=C5)C=C4)cc2)[C@@H]2CCCC[C@@H]2O)cc1
REMARK SMILES IDX 17 1 16 2 15 3 14 4 13 5 12 6 11 7 10 8 8 9 9 10 7 11 6 12
REMARK SMILES IDX 5 13 1 14 2 15 3 16 96 17 4 18 95 19 88 20 89 21 93 22 90 23
REMARK SMILES IDX 92 24 91 25 94 26 18 28 19 29 20 30 21 31 22 32 23 33 24 34
REMARK SMILES IDX 25 35 26 36 87 37 27 38 86 39 28 40 29 41 30 42 80 43 31 44
REMARK SMILES IDX 85 45 79 46 81 47 32 48 84 49 78 50 77 51 33 53 65 54 45 55
REMARK SMILES IDX 64 56 46 57 49 58 63 59 82 60 47 61 48 62 62 64 83 65 50 66
REMARK SMILES IDX 34 67 35 68 43 69 36 70 42 71 44 72 41 73 37 74 38 75 39 76
REMARK SMILES IDX 40 77 66 78 67 79 75 80 68 81 74 82 76 83 73 84 69 85 70 86
REMARK SMILES IDX 71 87 72 88 51 89 52 90 60 91 53 92 59 93 61 94 58 95 54 96
REMARK SMILES IDX 55 97 56 98 57 99
REMARK H PARENT 94 27 81 52 49 63
REMARK Flexibility Score: inf
ROOT
ATOM      1  C   UNL A   1      43.692  22.708  25.548  1.00  0.00     0.188 C 
ENDROOT
BRANCH   1   2
ATOM      2  O   UNL A   1      42.276  22.748  25.590  1.00  0.00    -0.377 OA
BRANCH   2   3
ATOM      3  C   UNL A   1      41.592  21.672  26.187  1.00  0.00     0.188 C 
BRANCH   3   4
ATOM      4  C   UNL A   1      40.087  21.836  26.415  1.00  0.00     0.188 C 
BRANCH   4   5
ATOM      5  O   UNL A   1      39.441  23.064  26.100  1.00  0.00    -0.376 OA
BRANCH   5   6
ATOM      6  C   UNL A   1      38.023  23.087  26.278  1.00  0.00     0.202 C 
BRANCH   6   7
ATOM      7  C   UNL A   1      37.172  22.968  25.018  1.00  0.00     0.261 C 
BRANCH   7   8
ATOM      8  O   UNL A   1      35.900  23.605  25.264  1.00  0.00    -0.463 OA
BRANCH   8   9
ATOM      9  C   UNL A   1      35.091  23.687  24.191  1.00  0.00     0.309 C 
ATOM     10  O   UNL A   1      35.496  23.714  23.029  1.00  0.00    -0.252 OA
BRANCH   9  11
ATOM     11  C   UNL A   1      33.633  23.412  24.552  1.00  0.00     0.109 C 
BRANCH  11  12
ATOM     12  C   UNL A   1      33.444  22.097  25.363  1.00  0.00     0.051 C 
BRANCH  12  13
ATOM     13  C   UNL A   1      33.528  20.674  24.809  1.00  0.00    -0.047 A 
ATOM     14  C   UNL A   1      34.027  16.461  23.718  1.00  0.00     0.044 C 
ATOM     15  C   UNL A   1      33.838  17.890  24.151  1.00  0.00    -0.051 A 
ATOM     16  C   UNL A   1      32.577  18.504  24.174  1.00  0.00     0.004 A 
ATOM     17  C   UNL A   1      34.940  18.676  24.478  1.00  0.00     0.004 A 
ATOM     18  C   UNL A   1      32.421  19.877  24.488  1.00  0.00     0.004 A 
ATOM     19  C   UNL A   1      34.784  20.031  24.814  1.00  0.00     0.004 A 
ENDBRANCH  12  13
ENDBRANCH  11  12
BRANCH  11  20
ATOM     20  C   UNL A   1      33.224  24.730  25.374  1.00  0.00     0.032 C 
ATOM     21  C   UNL A   1      32.118  24.573  26.421  1.00  0.00     0.007 C 
ATOM     22  C   UNL A   1      32.858  25.964  24.496  1.00  0.00     0.118 C 
ATOM     23  C   UNL A   1      30.748  24.388  25.787  1.00  0.00     0.001 C 
ATOM     24  C   UNL A   1      31.495  25.787  23.824  1.00  0.00     0.032 C 
ATOM     25  C   UNL A   1      30.406  25.554  24.862  1.00  0.00     0.003 C 
BRANCH  22  26
ATOM     26  O   UNL A   1      33.822  26.293  23.515  1.00  0.00    -0.393 OA
ATOM     27  H   UNL A   1      34.710  26.221  23.898  1.00  0.00     0.210 HD
ENDBRANCH  22  26
ENDBRANCH  11  20
ENDBRANCH   9  11
ENDBRANCH   8   9
ENDBRANCH   7   8
ENDBRANCH   6   7
ENDBRANCH   5   6
ENDBRANCH   4   5
ENDBRANCH   3   4
ENDBRANCH   2   3
ENDBRANCH   1   2
BRANCH   1  28
ATOM     28  C   UNL A   1      44.558  22.886  26.793  1.00  0.00     0.188 C 
BRANCH  28  29
ATOM     29  O   UNL A   1      43.846  23.005  28.026  1.00  0.00    -0.376 OA
BRANCH  29  30
ATOM     30  C   UNL A   1      43.600  24.356  28.433  1.00  0.00     0.202 C 
BRANCH  30  31
ATOM     31  C   UNL A   1      42.114  24.746  28.491  1.00  0.00     0.261 C 
BRANCH  31  32
ATOM     32  O   UNL A   1      41.993  26.073  29.033  1.00  0.00    -0.460 OA
BRANCH  32  33
ATOM     33  C   UNL A   1      41.790  27.061  28.120  1.00  0.00     0.338 C 
ATOM     34  O   UNL A   1      42.337  27.147  27.034  1.00  0.00    -0.246 OA
BRANCH  33  35
ATOM     35  C   UNL A   1      40.949  28.129  28.735  1.00  0.00     0.060 A 
ATOM     36  C   UNL A   1      41.222  29.480  28.455  1.00  0.00     0.016 A 
ATOM     37  C   UNL A   1      40.135  27.802  29.816  1.00  0.00     0.016 A 
ATOM     38  C   UNL A   1      40.807  30.480  29.350  1.00  0.00     0.010 A 
ATOM     39  C   UNL A   1      39.818  28.779  30.739  1.00  0.00     0.010 A 
ATOM     40  C   UNL A   1      40.193  30.120  30.556  1.00  0.00    -0.014 A 
BRANCH  40  41
ATOM     41  C   UNL A   1      40.194  30.953  31.784  1.00  0.00     0.031 A 
ATOM     42  C   UNL A   1      41.377  31.036  32.697  1.00  0.00     0.074 A 
ATOM     43  C   UNL A   1      39.298  31.965  31.818  1.00  0.00     0.049 A 
ATOM     44  N   UNL A   1      41.529  31.875  33.666  1.00  0.00    -0.248 NA
ATOM     45  C   UNL A   1      42.541  30.180  32.549  1.00  0.00     0.031 C 
ATOM     46  C   UNL A   1      39.452  33.254  32.482  1.00  0.00     0.029 A 
ATOM     47  N   UNL A   1      38.087  32.111  31.179  1.00  0.00    -0.354 N 
ATOM     48  C   UNL A   1      42.858  31.918  34.042  1.00  0.00     0.074 A 
ATOM     49  C   UNL A   1      43.434  30.805  33.322  1.00  0.00     0.031 C 
ATOM     50  C   UNL A   1      38.387  34.030  32.268  1.00  0.00     0.029 A 
ATOM     51  C   UNL A   1      37.381  33.180  31.720  1.00  0.00     0.049 A 
ATOM     52  H   UNL A   1      37.767  31.538  30.445  1.00  0.00     0.167 HD
ATOM     53  C   UNL A   1      43.318  32.953  34.824  1.00  0.00     0.034 A 
ATOM     54  C   UNL A   1      36.207  32.945  32.361  1.00  0.00     0.034 A 
ATOM     55  C   UNL A   1      42.215  33.869  35.235  1.00  0.00     0.049 A 
ATOM     56  C   UNL A   1      36.422  33.140  33.887  1.00  0.00     0.074 A 
ATOM     57  C   UNL A   1      42.020  35.240  35.223  1.00  0.00     0.029 A 
ATOM     58  N   UNL A   1      40.972  33.342  35.631  1.00  0.00    -0.354 N 
ATOM     59  N   UNL A   1      37.597  33.004  34.493  1.00  0.00    -0.248 NA
ATOM     60  C   UNL A   1      35.455  33.779  34.779  1.00  0.00     0.031 C 
ATOM     61  C   UNL A   1      40.644  35.513  35.504  1.00  0.00     0.029 A 
ATOM     62  C   UNL A   1      40.000  34.312  35.771  1.00  0.00     0.049 A 
ATOM     63  H   UNL A   1      40.813  32.383  35.791  1.00  0.00     0.167 HD
ATOM     64  C   UNL A   1      37.611  33.688  35.696  1.00  0.00     0.074 A 
ATOM     65  C   UNL A   1      36.221  34.104  35.842  1.00  0.00     0.031 C 
ATOM     66  C   UNL A   1      38.726  34.033  36.438  1.00  0.00     0.034 A 
BRANCH  53  67
ATOM     67  C   UNL A   1      44.818  33.277  35.073  1.00  0.00     0.023 A 
ATOM     68  C   UNL A   1      45.463  32.928  36.288  1.00  0.00     0.031 A 
ATOM     69  C   UNL A   1      45.676  33.930  34.160  1.00  0.00     0.131 A 
ATOM     70  C   UNL A   1      46.803  33.300  36.578  1.00  0.00     0.055 A 
ATOM     71  C   UNL A   1      46.989  34.338  34.456  1.00  0.00     0.041 A 
ATOM     72  F   UNL A   1      45.338  34.133  32.885  1.00  0.00    -0.206 F 
ATOM     73  C   UNL A   1      47.561  34.032  35.673  1.00  0.00     0.022 A 
BRANCH  70  74
ATOM     74  S   UNL A   1      47.589  32.780  38.137  1.00  0.00     0.124 S 
ATOM     75  O   UNL A   1      48.905  32.339  37.686  1.00  0.00    -0.237 OA
ATOM     76  O   UNL A   1      47.552  34.001  38.934  1.00  0.00    -0.237 OA
ATOM     77  O   UNL A   1      46.716  31.710  38.620  1.00  0.00    -0.744 OA
ENDBRANCH  70  74
ENDBRANCH  53  67
BRANCH  54  78
ATOM     78  C   UNL A   1      35.314  32.220  31.373  1.00  0.00     0.023 A 
ATOM     79  C   UNL A   1      34.521  33.114  30.577  1.00  0.00     0.031 A 
ATOM     80  C   UNL A   1      35.708  31.037  30.722  1.00  0.00     0.131 A 
ATOM     81  C   UNL A   1      34.341  32.949  29.191  1.00  0.00     0.055 A 
ATOM     82  C   UNL A   1      35.497  30.856  29.332  1.00  0.00     0.041 A 
ATOM     83  F   UNL A   1      36.474  30.134  31.350  1.00  0.00    -0.206 F 
ATOM     84  C   UNL A   1      34.870  31.834  28.554  1.00  0.00     0.022 A 
BRANCH  81  85
ATOM     85  S   UNL A   1      33.679  34.326  28.175  1.00  0.00     0.124 S 
ATOM     86  O   UNL A   1      32.484  33.726  27.594  1.00  0.00    -0.237 OA
ATOM     87  O   UNL A   1      33.438  35.387  29.143  1.00  0.00    -0.237 OA
ATOM     88  O   UNL A   1      34.774  34.599  27.245  1.00  0.00    -0.744 OA
ENDBRANCH  81  85
ENDBRANCH  54  78
BRANCH  66  89
ATOM     89  C   UNL A   1      38.761  34.217  37.962  1.00  0.00     0.023 A 
ATOM     90  C   UNL A   1      39.226  35.366  38.599  1.00  0.00     0.031 A 
ATOM     91  C   UNL A   1      38.172  33.249  38.836  1.00  0.00     0.131 A 
ATOM     92  C   UNL A   1      39.077  35.548  39.987  1.00  0.00     0.055 A 
ATOM     93  C   UNL A   1      38.017  33.434  40.212  1.00  0.00     0.041 A 
ATOM     94  F   UNL A   1      37.656  32.092  38.398  1.00  0.00    -0.206 F 
ATOM     95  C   UNL A   1      38.457  34.602  40.797  1.00  0.00     0.022 A 
BRANCH  92  96
ATOM     96  S   UNL A   1      39.663  37.106  40.691  1.00  0.00     0.124 S 
ATOM     97  O   UNL A   1      38.511  37.978  40.487  1.00  0.00    -0.237 OA
ATOM     98  O   UNL A   1      39.939  36.736  42.077  1.00  0.00    -0.237 OA
ATOM     99  O   UNL A   1      40.841  37.425  39.889  1.00  0.00    -0.744 OA
ENDBRANCH  92  96
ENDBRANCH  66  89
ENDBRANCH  40  41
ENDBRANCH  33  35
ENDBRANCH  32  33
ENDBRANCH  31  32
ENDBRANCH  30  31
ENDBRANCH  29  30
ENDBRANCH  28  29
ENDBRANCH   1  28
TORSDOF 27
ENDMDL
MODEL 2
REMARK VINA RESULT:      -9.2      4.529      6.934
REMARK SMILES Cc1ccc(C[C@H](C(=O)OCCOCCOCCOCCOC(=O)c2ccc(-c3c4nc(c(-c5cc(S(=O)(=O)[O-])ccc5F)c5ccc([nH]5)c(-c5cc(S(=O)(=O)[O-])ccc5F)c5nc(c(-c6cc(S(=O)(=O)[O-])ccc6F)c6ccc3[nH]6)C=C5)C=C4)cc2)[C@@H]2CCCC[C@@H]2O)cc1
REMARK SMILES IDX 17 1 16 2 15 3 14 4 13 5 12 6 11 7 10 8 8 9 9 10 7 11 6 12
REMARK SMILES IDX 5 13 1 14 2 15 3 16 96 17 4 18 95 19 88 20 89 21 93 22 90 23
REMARK SMILES IDX 92 24 91 25 94 26 18 28 19 29 20 30 21 31 22 32 23 33 24 34
REMARK SMILES IDX 25 35 26 36 87 37 27 38 86 39 28 40 29 41 30 42 80 43 31 44
REMARK SMILES IDX 85 45 79 46 81 47 32 48 84 49 78 50 77 51 33 53 65 54 45 55
REMARK SMILES IDX 64 56 46 57 49 58 63 59 82 60 47 61 48 62 62 64 83 65 50 66
REMARK SMILES IDX 34 67 35 68 43 69 36 70 42 71 44 72 41 73 37 74 38 75 39 76
REMARK SMILES IDX 40 77 66 78 67 79 75 80 68 81 74 82 76 83 73 84 69 85 70 86
REMARK SMILES IDX 71 87 72 88 51 89 52 90 60 91 53 92 59 93 61 94 58 95 54 96
REMARK SMILES IDX 55 97 56 98 57 99
REMARK H PARENT 94 27 81 52 49 63
REMARK Flexibility Score: inf
ROOT
ATOM      1  C   UNL A   1      42.832  22.253  25.376  1.00  0.00     0.188 C 
ENDROOT
BRANCH   1   2
ATOM      2  O   UNL A   1      42.233  21.869  26.602  1.00  0.00    -0.377 OA
BRANCH   2   3
ATOM      3  C   UNL A   1      41.439  20.708  26.627  1.00  0.00     0.188 C 
BRANCH   3   4
ATOM      4  C   UNL A   1      39.939  20.876  26.366  1.00  0.00     0.188 C 
BRANCH   4   5
ATOM      5  O   UNL A   1      39.436  22.088  25.818  1.00  0.00    -0.376 OA
BRANCH   5   6
ATOM      6  C   UNL A   1      38.013  22.189  25.728  1.00  0.00     0.202 C 
BRANCH   6   7
ATOM      7  C   UNL A   1      37.284  21.027  25.059  1.00  0.00     0.261 C 
BRANCH   7   8
ATOM      8  O   UNL A   1      36.138  21.552  24.355  1.00  0.00    -0.463 OA
BRANCH   8   9
ATOM      9  C   UNL A   1      34.953  21.316  24.949  1.00  0.00     0.309 C 
ATOM     10  O   UNL A   1      34.825  21.072  26.148  1.00  0.00    -0.252 OA
BRANCH   9  11
ATOM     11  C   UNL A   1      33.778  21.707  24.055  1.00  0.00     0.109 C 
BRANCH  11  12
ATOM     12  C   UNL A   1      32.828  20.514  23.741  1.00  0.00     0.051 C 
BRANCH  12  13
ATOM     13  C   UNL A   1      33.049  19.055  24.142  1.00  0.00    -0.047 A 
ATOM     14  C   UNL A   1      33.112  14.851  25.373  1.00  0.00     0.044 C 
ATOM     15  C   UNL A   1      33.038  16.284  24.915  1.00  0.00    -0.051 A 
ATOM     16  C   UNL A   1      33.534  16.698  23.670  1.00  0.00     0.004 A 
ATOM     17  C   UNL A   1      32.532  17.266  25.762  1.00  0.00     0.004 A 
ATOM     18  C   UNL A   1      33.550  18.062  23.289  1.00  0.00     0.004 A 
ATOM     19  C   UNL A   1      32.524  18.617  25.375  1.00  0.00     0.004 A 
ENDBRANCH  12  13
ENDBRANCH  11  12
BRANCH  11  20
ATOM     20  C   UNL A   1      33.073  22.876  24.902  1.00  0.00     0.032 C 
ATOM     21  C   UNL A   1      31.543  22.942  24.843  1.00  0.00     0.007 C 
ATOM     22  C   UNL A   1      33.609  24.310  24.614  1.00  0.00     0.118 C 
ATOM     23  C   UNL A   1      31.042  23.439  23.495  1.00  0.00     0.001 C 
ATOM     24  C   UNL A   1      33.140  24.819  23.250  1.00  0.00     0.032 C 
ATOM     25  C   UNL A   1      31.620  24.813  23.163  1.00  0.00     0.003 C 
BRANCH  22  26
ATOM     26  O   UNL A   1      35.014  24.439  24.703  1.00  0.00    -0.393 OA
ATOM     27  H   UNL A   1      35.330  23.993  25.504  1.00  0.00     0.210 HD
ENDBRANCH  22  26
ENDBRANCH  11  20
ENDBRANCH   9  11
ENDBRANCH   8   9
ENDBRANCH   7   8
ENDBRANCH   6   7
ENDBRANCH   5   6
ENDBRANCH   4   5
ENDBRANCH   3   4
ENDBRANCH   2   3
ENDBRANCH   1   2
BRANCH   1  28
ATOM     28  C   UNL A   1      44.282  21.919  25.030  1.00  0.00     0.188 C 
BRANCH  28  29
ATOM     29  O   UNL A   1      45.205  21.980  26.118  1.00  0.00    -0.376 OA
BRANCH  29  30
ATOM     30  C   UNL A   1      45.921  23.217  26.212  1.00  0.00     0.202 C 
BRANCH  30  31
ATOM     31  C   UNL A   1      46.187  23.905  24.863  1.00  0.00     0.261 C 
BRANCH  31  32
ATOM     32  O   UNL A   1      45.914  25.312  24.988  1.00  0.00    -0.460 OA
BRANCH  32  33
ATOM     33  C   UNL A   1      47.009  26.121  25.002  1.00  0.00     0.338 C 
ATOM     34  O   UNL A   1      48.107  25.836  24.557  1.00  0.00    -0.246 OA
BRANCH  33  35
ATOM     35  C   UNL A   1      46.711  27.330  25.825  1.00  0.00     0.060 A 
ATOM     36  C   UNL A   1      47.427  27.557  27.013  1.00  0.00     0.016 A 
ATOM     37  C   UNL A   1      45.530  28.027  25.589  1.00  0.00     0.016 A 
ATOM     38  C   UNL A   1      46.872  28.361  28.023  1.00  0.00     0.010 A 
ATOM     39  C   UNL A   1      44.949  28.734  26.623  1.00  0.00     0.010 A 
ATOM     40  C   UNL A   1      45.576  28.869  27.872  1.00  0.00    -0.014 A 
BRANCH  40  41
ATOM     41  C   UNL A   1      44.682  29.245  28.995  1.00  0.00     0.031 A 
ATOM     42  C   UNL A   1      44.074  28.230  29.912  1.00  0.00     0.074 A 
ATOM     43  C   UNL A   1      44.791  30.515  29.444  1.00  0.00     0.049 A 
ATOM     44  N   UNL A   1      43.452  28.481  31.015  1.00  0.00    -0.248 NA
ATOM     45  C   UNL A   1      44.169  26.801  29.670  1.00  0.00     0.031 C 
ATOM     46  C   UNL A   1      44.591  30.986  30.809  1.00  0.00     0.029 A 
ATOM     47  N   UNL A   1      45.207  31.660  28.800  1.00  0.00    -0.354 N 
ATOM     48  C   UNL A   1      43.361  27.329  31.772  1.00  0.00     0.074 A 
ATOM     49  C   UNL A   1      43.803  26.303  30.855  1.00  0.00     0.031 C 
ATOM     50  C   UNL A   1      44.829  32.297  30.900  1.00  0.00     0.029 A 
ATOM     51  C   UNL A   1      44.896  32.782  29.560  1.00  0.00     0.049 A 
ATOM     52  H   UNL A   1      45.660  31.679  27.926  1.00  0.00     0.167 HD
ATOM     53  C   UNL A   1      43.030  27.408  33.106  1.00  0.00     0.034 A 
ATOM     54  C   UNL A   1      44.008  33.687  29.075  1.00  0.00     0.034 A 
ATOM     55  C   UNL A   1      42.719  28.808  33.518  1.00  0.00     0.049 A 
ATOM     56  C   UNL A   1      42.680  33.565  29.874  1.00  0.00     0.074 A 
ATOM     57  C   UNL A   1      43.111  29.637  34.555  1.00  0.00     0.029 A 
ATOM     58  N   UNL A   1      41.958  29.637  32.675  1.00  0.00    -0.354 N 
ATOM     59  N   UNL A   1      42.292  32.458  30.497  1.00  0.00    -0.248 NA
ATOM     60  C   UNL A   1      41.862  34.702  30.289  1.00  0.00     0.031 C 
ATOM     61  C   UNL A   1      42.675  30.969  34.271  1.00  0.00     0.029 A 
ATOM     62  C   UNL A   1      41.941  30.953  33.093  1.00  0.00     0.049 A 
ATOM     63  H   UNL A   1      41.487  29.314  31.872  1.00  0.00     0.167 HD
ATOM     64  C   UNL A   1      41.378  32.751  31.494  1.00  0.00     0.074 A 
ATOM     65  C   UNL A   1      41.109  34.167  31.274  1.00  0.00     0.031 C 
ATOM     66  C   UNL A   1      40.996  31.924  32.536  1.00  0.00     0.034 A 
BRANCH  53  67
ATOM     67  C   UNL A   1      43.175  26.243  34.125  1.00  0.00     0.023 A 
ATOM     68  C   UNL A   1      44.428  25.628  34.380  1.00  0.00     0.031 A 
ATOM     69  C   UNL A   1      42.120  25.684  34.881  1.00  0.00     0.131 A 
ATOM     70  C   UNL A   1      44.568  24.499  35.231  1.00  0.00     0.055 A 
ATOM     71  C   UNL A   1      42.244  24.542  35.693  1.00  0.00     0.041 A 
ATOM     72  F   UNL A   1      40.920  26.259  34.965  1.00  0.00    -0.206 F 
ATOM     73  C   UNL A   1      43.470  23.935  35.868  1.00  0.00     0.022 A 
BRANCH  70  74
ATOM     74  S   UNL A   1      46.212  23.785  35.555  1.00  0.00     0.124 S 
ATOM     75  O   UNL A   1      47.089  24.938  35.381  1.00  0.00    -0.237 OA
ATOM     76  O   UNL A   1      46.073  23.273  36.914  1.00  0.00    -0.237 OA
ATOM     77  O   UNL A   1      46.345  22.752  34.526  1.00  0.00    -0.744 OA
ENDBRANCH  70  74
ENDBRANCH  53  67
BRANCH  54  78
ATOM     78  C   UNL A   1      44.544  34.141  27.732  1.00  0.00     0.023 A 
ATOM     79  C   UNL A   1      45.694  34.992  27.849  1.00  0.00     0.031 A 
ATOM     80  C   UNL A   1      44.530  33.316  26.592  1.00  0.00     0.131 A 
ATOM     81  C   UNL A   1      46.831  34.860  27.029  1.00  0.00     0.055 A 
ATOM     82  C   UNL A   1      45.663  33.206  25.748  1.00  0.00     0.041 A 
ATOM     83  F   UNL A   1      43.524  32.455  26.383  1.00  0.00    -0.206 F 
ATOM     84  C   UNL A   1      46.834  33.930  25.999  1.00  0.00     0.022 A 
BRANCH  81  85
ATOM     85  S   UNL A   1      48.403  35.684  27.492  1.00  0.00     0.124 S 
ATOM     86  O   UNL A   1      49.085  35.779  26.207  1.00  0.00    -0.237 OA
ATOM     87  O   UNL A   1      47.975  36.952  28.067  1.00  0.00    -0.237 OA
ATOM     88  O   UNL A   1      48.985  34.753  28.458  1.00  0.00    -0.744 OA
ENDBRANCH  81  85
ENDBRANCH  54  78
BRANCH  66  89
ATOM     89  C   UNL A   1      39.634  31.954  33.245  1.00  0.00     0.023 A 
ATOM     90  C   UNL A   1      39.457  32.319  34.578  1.00  0.00     0.031 A 
ATOM     91  C   UNL A   1      38.421  31.738  32.520  1.00  0.00     0.131 A 
ATOM     92  C   UNL A   1      38.172  32.493  35.128  1.00  0.00     0.055 A 
ATOM     93  C   UNL A   1      37.146  31.918  33.063  1.00  0.00     0.041 A 
ATOM     94  F   UNL A   1      38.397  31.398  31.224  1.00  0.00    -0.206 F 
ATOM     95  C   UNL A   1      37.014  32.317  34.377  1.00  0.00     0.022 A 
BRANCH  92  96
ATOM     96  S   UNL A   1      38.068  33.028  36.850  1.00  0.00     0.124 S 
ATOM     97  O   UNL A   1      38.956  34.186  36.857  1.00  0.00    -0.237 OA
ATOM     98  O   UNL A   1      36.645  33.322  36.999  1.00  0.00    -0.237 OA
ATOM     99  O   UNL A   1      38.542  31.869  37.601  1.00  0.00    -0.744 OA
ENDBRANCH  92  96
ENDBRANCH  66  89
ENDBRANCH  40  41
ENDBRANCH  33  35
ENDBRANCH  32  33
ENDBRANCH  31  32
ENDBRANCH  30  31
ENDBRANCH  29  30
ENDBRANCH  28  29
ENDBRANCH   1  28
TORSDOF 27
ENDMDL
MODEL 3
REMARK VINA RESULT:      -9.0      3.666      5.669
REMARK SMILES Cc1ccc(C[C@H](C(=O)OCCOCCOCCOCCOC(=O)c2ccc(-c3c4nc(c(-c5cc(S(=O)(=O)[O-])ccc5F)c5ccc([nH]5)c(-c5cc(S(=O)(=O)[O-])ccc5F)c5nc(c(-c6cc(S(=O)(=O)[O-])ccc6F)c6ccc3[nH]6)C=C5)C=C4)cc2)[C@@H]2CCCC[C@@H]2O)cc1
REMARK SMILES IDX 17 1 16 2 15 3 14 4 13 5 12 6 11 7 10 8 8 9 9 10 7 11 6 12
REMARK SMILES IDX 5 13 1 14 2 15 3 16 96 17 4 18 95 19 88 20 89 21 93 22 90 23
REMARK SMILES IDX 92 24 91 25 94 26 18 28 19 29 20 30 21 31 22 32 23 33 24 34
REMARK SMILES IDX 25 35 26 36 87 37 27 38 86 39 28 40 29 41 30 42 80 43 31 44
REMARK SMILES IDX 85 45 79 46 81 47 32 48 84 49 78 50 77 51 33 53 65 54 45 55
REMARK SMILES IDX 64 56 46 57 49 58 63 59 82 60 47 61 48 62 62 64 83 65 50 66
REMARK SMILES IDX 34 67 35 68 43 69 36 70 42 71 44 72 41 73 37 74 38 75 39 76
REMARK SMILES IDX 40 77 66 78 67 79 75 80 68 81 74 82 76 83 73 84 69 85 70 86
REMARK SMILES IDX 71 87 72 88 51 89 52 90 60 91 53 92 59 93 61 94 58 95 54 96
REMARK SMILES IDX 55 97 56 98 57 99
REMARK H PARENT 94 27 81 52 49 63
REMARK Flexibility Score: inf
ROOT
ATOM      1  C   UNL A   1      43.780  22.993  24.409  1.00  0.00     0.188 C 
ENDROOT
BRANCH   1   2
ATOM      2  O   UNL A   1      43.291  22.631  25.689  1.00  0.00    -0.377 OA
BRANCH   2   3
ATOM      3  C   UNL A   1      42.225  23.370  26.234  1.00  0.00     0.188 C 
BRANCH   3   4
ATOM      4  C   UNL A   1      40.972  22.594  26.650  1.00  0.00     0.188 C 
BRANCH   4   5
ATOM      5  O   UNL A   1      40.209  21.886  25.681  1.00  0.00    -0.376 OA
BRANCH   5   6
ATOM      6  C   UNL A   1      38.893  21.499  26.082  1.00  0.00     0.202 C 
BRANCH   6   7
ATOM      7  C   UNL A   1      37.791  21.626  25.034  1.00  0.00     0.261 C 
BRANCH   7   8
ATOM      8  O   UNL A   1      37.106  22.880  25.242  1.00  0.00    -0.463 OA
BRANCH   8   9
ATOM      9  C   UNL A   1      36.330  23.277  24.216  1.00  0.00     0.309 C 
ATOM     10  O   UNL A   1      36.621  23.106  23.033  1.00  0.00    -0.252 OA
BRANCH   9  11
ATOM     11  C   UNL A   1      34.924  23.656  24.676  1.00  0.00     0.109 C 
BRANCH  11  12
ATOM     12  C   UNL A   1      34.362  24.911  23.944  1.00  0.00     0.051 C 
BRANCH  12  13
ATOM     13  C   UNL A   1      33.817  26.176  24.610  1.00  0.00    -0.047 A 
ATOM     14  C   UNL A   1      31.882  29.820  26.082  1.00  0.00     0.044 C 
ATOM     15  C   UNL A   1      32.490  28.543  25.563  1.00  0.00    -0.051 A 
ATOM     16  C   UNL A   1      32.570  27.381  26.344  1.00  0.00     0.004 A 
ATOM     17  C   UNL A   1      33.063  28.504  24.294  1.00  0.00     0.004 A 
ATOM     18  C   UNL A   1      33.232  26.216  25.883  1.00  0.00     0.004 A 
ATOM     19  C   UNL A   1      33.697  27.341  23.826  1.00  0.00     0.004 A 
ENDBRANCH  12  13
ENDBRANCH  11  12
BRANCH  11  20
ATOM     20  C   UNL A   1      34.088  22.318  24.376  1.00  0.00     0.032 C 
ATOM     21  C   UNL A   1      32.826  22.471  23.522  1.00  0.00     0.007 C 
ATOM     22  C   UNL A   1      33.696  21.493  25.637  1.00  0.00     0.118 C 
ATOM     23  C   UNL A   1      31.700  23.158  24.281  1.00  0.00     0.001 C 
ATOM     24  C   UNL A   1      32.585  22.180  26.432  1.00  0.00     0.032 C 
ATOM     25  C   UNL A   1      31.355  22.402  25.562  1.00  0.00     0.003 C 
BRANCH  22  26
ATOM     26  O   UNL A   1      34.775  21.197  26.504  1.00  0.00    -0.393 OA
ATOM     27  H   UNL A   1      34.632  21.634  27.357  1.00  0.00     0.210 HD
ENDBRANCH  22  26
ENDBRANCH  11  20
ENDBRANCH   9  11
ENDBRANCH   8   9
ENDBRANCH   7   8
ENDBRANCH   6   7
ENDBRANCH   5   6
ENDBRANCH   4   5
ENDBRANCH   3   4
ENDBRANCH   2   3
ENDBRANCH   1   2
BRANCH   1  28
ATOM     28  C   UNL A   1      45.260  23.248  24.135  1.00  0.00     0.188 C 
BRANCH  28  29
ATOM     29  O   UNL A   1      46.162  22.784  25.142  1.00  0.00    -0.376 OA
BRANCH  29  30
ATOM     30  C   UNL A   1      46.375  23.713  26.211  1.00  0.00     0.202 C 
BRANCH  30  31
ATOM     31  C   UNL A   1      45.964  23.196  27.599  1.00  0.00     0.261 C 
BRANCH  31  32
ATOM     32  O   UNL A   1      45.026  24.114  28.187  1.00  0.00    -0.460 OA
BRANCH  32  33
ATOM     33  C   UNL A   1      44.390  23.665  29.303  1.00  0.00     0.338 C 
ATOM     34  O   UNL A   1      43.582  22.753  29.341  1.00  0.00    -0.246 OA
BRANCH  33  35
ATOM     35  C   UNL A   1      44.680  24.591  30.437  1.00  0.00     0.060 A 
ATOM     36  C   UNL A   1      44.343  24.214  31.749  1.00  0.00     0.016 A 
ATOM     37  C   UNL A   1      44.969  25.924  30.157  1.00  0.00     0.016 A 
ATOM     38  C   UNL A   1      44.145  25.198  32.733  1.00  0.00     0.010 A 
ATOM     39  C   UNL A   1      44.676  26.888  31.101  1.00  0.00     0.010 A 
ATOM     40  C   UNL A   1      44.207  26.552  32.381  1.00  0.00    -0.014 A 
BRANCH  40  41
ATOM     41  C   UNL A   1      43.522  27.645  33.115  1.00  0.00     0.031 A 
ATOM     42  C   UNL A   1      43.779  27.925  34.562  1.00  0.00     0.074 A 
ATOM     43  C   UNL A   1      43.018  28.645  32.358  1.00  0.00     0.049 A 
ATOM     44  N   UNL A   1      43.378  28.963  35.216  1.00  0.00    -0.248 NA
ATOM     45  C   UNL A   1      44.580  27.048  35.398  1.00  0.00     0.031 C 
ATOM     46  C   UNL A   1      42.897  30.051  32.727  1.00  0.00     0.029 A 
ATOM     47  N   UNL A   1      42.594  28.651  31.048  1.00  0.00    -0.354 N 
ATOM     48  C   UNL A   1      44.095  29.079  36.392  1.00  0.00     0.074 A 
ATOM     49  C   UNL A   1      44.811  27.826  36.460  1.00  0.00     0.031 C 
ATOM     50  C   UNL A   1      42.397  30.767  31.716  1.00  0.00     0.029 A 
ATOM     51  C   UNL A   1      41.897  29.822  30.771  1.00  0.00     0.049 A 
ATOM     52  H   UNL A   1      42.761  27.928  30.400  1.00  0.00     0.167 HD
ATOM     53  C   UNL A   1      44.074  30.262  37.095  1.00  0.00     0.034 A 
ATOM     54  C   UNL A   1      40.579  29.751  30.450  1.00  0.00     0.034 A 
ATOM     55  C   UNL A   1      43.151  31.258  36.477  1.00  0.00     0.049 A 
ATOM     56  C   UNL A   1      39.743  30.290  31.644  1.00  0.00     0.074 A 
ATOM     57  C   UNL A   1      43.243  32.591  36.114  1.00  0.00     0.029 A 
ATOM     58  N   UNL A   1      41.900  30.847  35.983  1.00  0.00    -0.354 N 
ATOM     59  N   UNL A   1      40.165  30.286  32.904  1.00  0.00    -0.248 NA
ATOM     60  C   UNL A   1      38.552  31.125  31.504  1.00  0.00     0.031 C 
ATOM     61  C   UNL A   1      42.105  32.933  35.320  1.00  0.00     0.029 A 
ATOM     62  C   UNL A   1      41.262  31.832  35.256  1.00  0.00     0.049 A 
ATOM     63  H   UNL A   1      41.519  29.952  36.140  1.00  0.00     0.167 HD
ATOM     64  C   UNL A   1      39.481  31.228  33.653  1.00  0.00     0.074 A 
ATOM     65  C   UNL A   1      38.446  31.679  32.730  1.00  0.00     0.031 C 
ATOM     66  C   UNL A   1      39.847  31.724  34.892  1.00  0.00     0.034 A 
BRANCH  53  67
ATOM     67  C   UNL A   1      45.045  30.621  38.254  1.00  0.00     0.023 A 
ATOM     68  C   UNL A   1      46.440  30.372  38.162  1.00  0.00     0.031 A 
ATOM     69  C   UNL A   1      44.669  31.210  39.483  1.00  0.00     0.131 A 
ATOM     70  C   UNL A   1      47.331  30.600  39.244  1.00  0.00     0.055 A 
ATOM     71  C   UNL A   1      45.539  31.399  40.572  1.00  0.00     0.041 A 
ATOM     72  F   UNL A   1      43.458  31.732  39.682  1.00  0.00    -0.206 F 
ATOM     73  C   UNL A   1      46.878  31.087  40.463  1.00  0.00     0.022 A 
BRANCH  70  74
ATOM     74  S   UNL A   1      49.118  30.305  39.046  1.00  0.00     0.124 S 
ATOM     75  O   UNL A   1      49.326  30.606  37.634  1.00  0.00    -0.237 OA
ATOM     76  O   UNL A   1      49.702  31.238  40.002  1.00  0.00    -0.237 OA
ATOM     77  O   UNL A   1      49.273  28.893  39.402  1.00  0.00    -0.744 OA
ENDBRANCH  70  74
ENDBRANCH  53  67
BRANCH  54  78
ATOM     78  C   UNL A   1      40.476  28.827  29.253  1.00  0.00     0.023 A 
ATOM     79  C   UNL A   1      41.427  29.138  28.223  1.00  0.00     0.031 A 
ATOM     80  C   UNL A   1      40.159  27.462  29.375  1.00  0.00     0.131 A 
ATOM     81  C   UNL A   1      42.166  28.154  27.541  1.00  0.00     0.055 A 
ATOM     82  C   UNL A   1      40.882  26.472  28.664  1.00  0.00     0.041 A 
ATOM     83  F   UNL A   1      39.304  27.039  30.317  1.00  0.00    -0.206 F 
ATOM     84  C   UNL A   1      41.925  26.811  27.794  1.00  0.00     0.022 A 
BRANCH  81  85
ATOM     85  S   UNL A   1      43.639  28.624  26.553  1.00  0.00     0.124 S 
ATOM     86  O   UNL A   1      44.725  28.050  27.337  1.00  0.00    -0.237 OA
ATOM     87  O   UNL A   1      43.403  27.999  25.259  1.00  0.00    -0.237 OA
ATOM     88  O   UNL A   1      43.565  30.085  26.537  1.00  0.00    -0.744 OA
ENDBRANCH  81  85
ENDBRANCH  54  78
BRANCH  66  89
ATOM     89  C   UNL A   1      38.881  32.253  35.961  1.00  0.00     0.023 A 
ATOM     90  C   UNL A   1      38.276  31.454  36.930  1.00  0.00     0.031 A 
ATOM     91  C   UNL A   1      38.647  33.655  36.115  1.00  0.00     0.131 A 
ATOM     92  C   UNL A   1      37.535  32.016  37.988  1.00  0.00     0.055 A 
ATOM     93  C   UNL A   1      37.919  34.214  37.169  1.00  0.00     0.041 A 
ATOM     94  F   UNL A   1      39.163  34.574  35.287  1.00  0.00    -0.206 F 
ATOM     95  C   UNL A   1      37.369  33.390  38.129  1.00  0.00     0.022 A 
BRANCH  92  96
ATOM     96  S   UNL A   1      36.851  30.885  39.219  1.00  0.00     0.124 S 
ATOM     97  O   UNL A   1      37.007  29.593  38.557  1.00  0.00    -0.237 OA
ATOM     98  O   UNL A   1      37.723  31.113  40.369  1.00  0.00    -0.237 OA
ATOM     99  O   UNL A   1      35.475  31.344  39.384  1.00  0.00    -0.744 OA
ENDBRANCH  92  96
ENDBRANCH  66  89
ENDBRANCH  40  41
ENDBRANCH  33  35
ENDBRANCH  32  33
ENDBRANCH  31  32
ENDBRANCH  30  31
ENDBRANCH  29  30
ENDBRANCH  28  29
ENDBRANCH   1  28
TORSDOF 27
ENDMDL
