MODEL 1
REMARK VINA RESULT:      -9.6      0.000      0.000
REMARK SMILES O=C(Cc1ccccc1Nc1c(Cl)cccc1Cl)OCCOCCOCCOCCOC(=O)c1ccc(-c2c3nc(c(-c4cc(S(=O)(=O)[O-])ccc4F)c4ccc([nH]4)c(-c4cc(S(=O)(=O)[O-])ccc4F)c4nc(c(-c5cc(S(=O)(=O)[O-])ccc5F)c5ccc2[nH]5)C=C4)C=C3)cc1
REMARK SMILES IDX 25 1 24 2 23 3 22 4 21 5 20 6 19 7 2 8 1 9 3 10 4 11 5 12
REMARK SMILES IDX 9 13 6 14 8 15 7 16 10 17 11 19 12 20 17 21 13 22 14 23
REMARK SMILES IDX 16 24 18 25 15 26 26 27 27 28 28 29 29 30 30 31 31 32 32 33
REMARK SMILES IDX 33 34 34 35 35 36 96 37 36 38 95 39 37 40 38 41 39 42 89 43
REMARK SMILES IDX 40 44 94 45 88 46 90 47 41 48 93 49 87 50 86 51 42 53 74 54
REMARK SMILES IDX 54 55 73 56 55 57 58 58 72 59 91 60 56 61 57 62 71 64 92 65
REMARK SMILES IDX 59 66 43 67 44 68 52 69 45 70 51 71 53 72 50 73 46 74 47 75
REMARK SMILES IDX 48 76 49 77 75 78 76 79 84 80 77 81 83 82 85 83 82 84 78 85
REMARK SMILES IDX 79 86 80 87 81 88 60 89 61 90 69 91 62 92 68 93 70 94 67 95
REMARK SMILES IDX 63 96 64 97 65 98 66 99
REMARK H PARENT 10 18 90 52 58 63
REMARK Flexibility Score: inf
ROOT
ATOM      1  O   UNL A   1      35.015  22.485  24.289  1.00  0.00    -0.377 OA
ENDROOT
BRANCH   1   2
ATOM      2  C   UNL A   1      33.994  22.224  25.240  1.00  0.00     0.188 C 
BRANCH   2   3
ATOM      3  C   UNL A   1      32.704  23.020  25.038  1.00  0.00     0.188 C 
BRANCH   3   4
ATOM      4  O   UNL A   1      32.109  22.950  23.751  1.00  0.00    -0.376 OA
BRANCH   4   5
ATOM      5  C   UNL A   1      32.178  23.972  22.772  1.00  0.00     0.202 C 
BRANCH   5   6
ATOM      6  C   UNL A   1      33.481  24.710  22.515  1.00  0.00     0.261 C 
BRANCH   6   7
ATOM      7  O   UNL A   1      33.710  25.975  23.174  1.00  0.00    -0.463 OA
BRANCH   7   8
ATOM      8  C   UNL A   1      33.279  27.220  22.904  1.00  0.00     0.310 C 
ATOM      9  O   UNL A   1      32.415  27.375  22.040  1.00  0.00    -0.252 OA
BRANCH   8  10
ATOM     10  C   UNL A   1      33.925  28.417  23.541  1.00  0.00     0.160 C 
BRANCH  10  11
ATOM     11  C   UNL A   1      33.423  28.903  24.876  1.00  0.00    -0.013 A 
ATOM     12  C   UNL A   1      34.262  28.914  26.005  1.00  0.00     0.006 A 
ATOM     13  C   UNL A   1      32.091  29.382  24.986  1.00  0.00     0.042 A 
ATOM     14  C   UNL A   1      33.786  29.335  27.243  1.00  0.00     0.000 A 
ATOM     15  C   UNL A   1      31.619  29.717  26.262  1.00  0.00     0.026 A 
ATOM     16  C   UNL A   1      32.456  29.704  27.378  1.00  0.00     0.002 A 
BRANCH  13  17
ATOM     17  N   UNL A   1      31.294  29.555  23.829  1.00  0.00    -0.353 N 
ATOM     18  H   UNL A   1      31.799  29.776  23.012  1.00  0.00     0.167 HD
BRANCH  17  19
ATOM     19  C   UNL A   1      29.893  29.461  23.648  1.00  0.00     0.076 A 
ATOM     20  C   UNL A   1      29.141  30.656  23.598  1.00  0.00     0.066 A 
ATOM     21  C   UNL A   1      29.203  28.255  23.432  1.00  0.00     0.066 A 
ATOM     22  Cl  UNL A   1      29.881  32.183  23.960  1.00  0.00    -0.082 Cl
ATOM     23  C   UNL A   1      27.787  30.657  23.259  1.00  0.00     0.023 A 
ATOM     24  C   UNL A   1      27.847  28.257  23.079  1.00  0.00     0.023 A 
ATOM     25  Cl  UNL A   1      29.936  26.708  23.700  1.00  0.00    -0.082 Cl
ATOM     26  C   UNL A   1      27.146  29.456  22.972  1.00  0.00     0.003 A 
ENDBRANCH  17  19
ENDBRANCH  13  17
ENDBRANCH  10  11
ENDBRANCH   8  10
ENDBRANCH   7   8
ENDBRANCH   6   7
ENDBRANCH   5   6
ENDBRANCH   4   5
ENDBRANCH   3   4
ENDBRANCH   2   3
ENDBRANCH   1   2
BRANCH   1  27
ATOM     27  C   UNL A   1      36.313  22.648  24.846  1.00  0.00     0.188 C 
BRANCH  27  28
ATOM     28  C   UNL A   1      37.334  21.589  24.387  1.00  0.00     0.188 C 
BRANCH  28  29
ATOM     29  O   UNL A   1      37.339  20.311  24.991  1.00  0.00    -0.376 OA
BRANCH  29  30
ATOM     30  C   UNL A   1      38.545  19.660  25.350  1.00  0.00     0.202 C 
BRANCH  30  31
ATOM     31  C   UNL A   1      39.814  20.337  25.913  1.00  0.00     0.261 C 
BRANCH  31  32
ATOM     32  O   UNL A   1      40.731  19.552  26.673  1.00  0.00    -0.460 OA
BRANCH  32  33
ATOM     33  C   UNL A   1      42.008  19.527  26.227  1.00  0.00     0.338 C 
ATOM     34  O   UNL A   1      42.529  18.656  25.553  1.00  0.00    -0.246 OA
BRANCH  33  35
ATOM     35  C   UNL A   1      42.606  20.857  26.491  1.00  0.00     0.060 A 
ATOM     36  C   UNL A   1      42.667  21.300  27.819  1.00  0.00     0.016 A 
ATOM     37  C   UNL A   1      43.158  21.629  25.463  1.00  0.00     0.016 A 
ATOM     38  C   UNL A   1      43.252  22.527  28.122  1.00  0.00     0.010 A 
ATOM     39  C   UNL A   1      43.715  22.878  25.764  1.00  0.00     0.010 A 
ATOM     40  C   UNL A   1      43.732  23.345  27.090  1.00  0.00    -0.014 A 
BRANCH  40  41
ATOM     41  C   UNL A   1      44.004  24.774  27.387  1.00  0.00     0.031 A 
ATOM     42  C   UNL A   1      45.420  25.261  27.221  1.00  0.00     0.074 A 
ATOM     43  C   UNL A   1      43.022  25.631  27.720  1.00  0.00     0.049 A 
ATOM     44  N   UNL A   1      45.915  26.456  27.397  1.00  0.00    -0.248 NA
ATOM     45  C   UNL A   1      46.407  24.256  26.790  1.00  0.00     0.031 C 
ATOM     46  C   UNL A   1      41.608  25.287  27.859  1.00  0.00     0.029 A 
ATOM     47  N   UNL A   1      43.069  26.974  28.000  1.00  0.00    -0.354 N 
ATOM     48  C   UNL A   1      47.267  26.353  27.086  1.00  0.00     0.074 A 
ATOM     49  C   UNL A   1      47.521  24.967  26.755  1.00  0.00     0.031 C 
ATOM     50  C   UNL A   1      40.924  26.392  28.208  1.00  0.00     0.029 A 
ATOM     51  C   UNL A   1      41.853  27.514  28.347  1.00  0.00     0.049 A 
ATOM     52  H   UNL A   1      43.899  27.504  27.956  1.00  0.00     0.167 HD
ATOM     53  C   UNL A   1      48.210  27.325  27.065  1.00  0.00     0.034 A 
ATOM     54  C   UNL A   1      41.535  28.762  28.751  1.00  0.00     0.034 A 
ATOM     55  C   UNL A   1      47.952  28.696  27.423  1.00  0.00     0.049 A 
ATOM     56  C   UNL A   1      42.628  29.807  28.819  1.00  0.00     0.074 A 
ATOM     57  C   UNL A   1      48.837  29.759  27.456  1.00  0.00     0.029 A 
ATOM     58  N   UNL A   1      46.720  29.194  27.826  1.00  0.00    -0.354 N 
ATOM     59  N   UNL A   1      43.903  29.697  28.515  1.00  0.00    -0.248 NA
ATOM     60  C   UNL A   1      42.236  31.149  29.272  1.00  0.00     0.031 C 
ATOM     61  C   UNL A   1      48.157  30.880  27.943  1.00  0.00     0.029 A 
ATOM     62  C   UNL A   1      46.828  30.540  28.136  1.00  0.00     0.049 A 
ATOM     63  H   UNL A   1      45.890  28.667  27.883  1.00  0.00     0.167 HD
ATOM     64  C   UNL A   1      44.452  30.963  28.711  1.00  0.00     0.074 A 
ATOM     65  C   UNL A   1      43.366  31.824  29.131  1.00  0.00     0.031 C 
ATOM     66  C   UNL A   1      45.736  31.382  28.562  1.00  0.00     0.034 A 
BRANCH  53  67
ATOM     67  C   UNL A   1      49.611  26.920  26.685  1.00  0.00     0.023 A 
ATOM     68  C   UNL A   1      50.628  26.790  27.648  1.00  0.00     0.031 A 
ATOM     69  C   UNL A   1      49.940  26.679  25.340  1.00  0.00     0.131 A 
ATOM     70  C   UNL A   1      51.936  26.479  27.246  1.00  0.00     0.055 A 
ATOM     71  C   UNL A   1      51.227  26.298  24.954  1.00  0.00     0.041 A 
ATOM     72  F   UNL A   1      49.017  26.818  24.376  1.00  0.00    -0.206 F 
ATOM     73  C   UNL A   1      52.236  26.207  25.909  1.00  0.00     0.022 A 
BRANCH  70  74
ATOM     74  S   UNL A   1      53.264  26.549  28.478  1.00  0.00     0.124 S 
ATOM     75  O   UNL A   1      52.563  26.136  29.691  1.00  0.00    -0.237 OA
ATOM     76  O   UNL A   1      54.239  25.602  27.947  1.00  0.00    -0.237 OA
ATOM     77  O   UNL A   1      53.680  27.950  28.454  1.00  0.00    -0.744 OA
ENDBRANCH  70  74
ENDBRANCH  53  67
BRANCH  54  78
ATOM     78  C   UNL A   1      40.144  29.104  29.176  1.00  0.00     0.023 A 
ATOM     79  C   UNL A   1      39.764  29.083  30.529  1.00  0.00     0.031 A 
ATOM     80  C   UNL A   1      39.142  29.353  28.220  1.00  0.00     0.131 A 
ATOM     81  C   UNL A   1      38.413  29.240  30.882  1.00  0.00     0.055 A 
ATOM     82  C   UNL A   1      37.811  29.573  28.581  1.00  0.00     0.041 A 
ATOM     83  F   UNL A   1      39.443  29.379  26.912  1.00  0.00    -0.206 F 
ATOM     84  C   UNL A   1      37.437  29.497  29.918  1.00  0.00     0.022 A 
BRANCH  81  85
ATOM     85  S   UNL A   1      37.931  28.978  32.612  1.00  0.00     0.124 S 
ATOM     86  O   UNL A   1      38.048  27.530  32.737  1.00  0.00    -0.237 OA
ATOM     87  O   UNL A   1      38.929  29.768  33.325  1.00  0.00    -0.237 OA
ATOM     88  O   UNL A   1      36.568  29.502  32.668  1.00  0.00    -0.744 OA
ENDBRANCH  81  85
ENDBRANCH  54  78
BRANCH  66  89
ATOM     89  C   UNL A   1      46.015  32.846  28.815  1.00  0.00     0.023 A 
ATOM     90  C   UNL A   1      46.019  33.789  27.773  1.00  0.00     0.031 A 
ATOM     91  C   UNL A   1      46.308  33.298  30.114  1.00  0.00     0.131 A 
ATOM     92  C   UNL A   1      46.385  35.118  28.033  1.00  0.00     0.055 A 
ATOM     93  C   UNL A   1      46.601  34.637  30.379  1.00  0.00     0.041 A 
ATOM     94  F   UNL A   1      46.319  32.443  31.151  1.00  0.00    -0.206 F 
ATOM     95  C   UNL A   1      46.659  35.552  29.333  1.00  0.00     0.022 A 
BRANCH  92  96
ATOM     96  S   UNL A   1      46.619  36.246  26.632  1.00  0.00     0.124 S 
ATOM     97  O   UNL A   1      46.000  35.503  25.539  1.00  0.00    -0.237 OA
ATOM     98  O   UNL A   1      45.909  37.442  27.072  1.00  0.00    -0.237 OA
ATOM     99  O   UNL A   1      48.072  36.385  26.542  1.00  0.00    -0.744 OA
ENDBRANCH  92  96
ENDBRANCH  66  89
ENDBRANCH  40  41
ENDBRANCH  33  35
ENDBRANCH  32  33
ENDBRANCH  31  32
ENDBRANCH  30  31
ENDBRANCH  29  30
ENDBRANCH  28  29
ENDBRANCH  27  28
ENDBRANCH   1  27
TORSDOF 26
ENDMDL
MODEL 2
REMARK VINA RESULT:      -9.2      1.991      2.998
REMARK SMILES O=C(Cc1ccccc1Nc1c(Cl)cccc1Cl)OCCOCCOCCOCCOC(=O)c1ccc(-c2c3nc(c(-c4cc(S(=O)(=O)[O-])ccc4F)c4ccc([nH]4)c(-c4cc(S(=O)(=O)[O-])ccc4F)c4nc(c(-c5cc(S(=O)(=O)[O-])ccc5F)c5ccc2[nH]5)C=C4)C=C3)cc1
REMARK SMILES IDX 25 1 24 2 23 3 22 4 21 5 20 6 19 7 2 8 1 9 3 10 4 11 5 12
REMARK SMILES IDX 9 13 6 14 8 15 7 16 10 17 11 19 12 20 17 21 13 22 14 23
REMARK SMILES IDX 16 24 18 25 15 26 26 27 27 28 28 29 29 30 30 31 31 32 32 33
REMARK SMILES IDX 33 34 34 35 35 36 96 37 36 38 95 39 37 40 38 41 39 42 89 43
REMARK SMILES IDX 40 44 94 45 88 46 90 47 41 48 93 49 87 50 86 51 42 53 74 54
REMARK SMILES IDX 54 55 73 56 55 57 58 58 72 59 91 60 56 61 57 62 71 64 92 65
REMARK SMILES IDX 59 66 43 67 44 68 52 69 45 70 51 71 53 72 50 73 46 74 47 75
REMARK SMILES IDX 48 76 49 77 75 78 76 79 84 80 77 81 83 82 85 83 82 84 78 85
REMARK SMILES IDX 79 86 80 87 81 88 60 89 61 90 69 91 62 92 68 93 70 94 67 95
REMARK SMILES IDX 63 96 64 97 65 98 66 99
REMARK H PARENT 10 18 90 52 58 63
REMARK Flexibility Score: inf
ROOT
ATOM      1  O   UNL A   1      35.307  23.861  24.112  1.00  0.00    -0.377 OA
ENDROOT
BRANCH   1   2
ATOM      2  C   UNL A   1      34.255  24.515  24.806  1.00  0.00     0.188 C 
BRANCH   2   3
ATOM      3  C   UNL A   1      34.338  26.042  24.815  1.00  0.00     0.188 C 
BRANCH   3   4
ATOM      4  O   UNL A   1      34.243  26.691  23.557  1.00  0.00    -0.376 OA
BRANCH   4   5
ATOM      5  C   UNL A   1      33.772  28.014  23.364  1.00  0.00     0.202 C 
BRANCH   5   6
ATOM      6  C   UNL A   1      33.593  28.952  24.546  1.00  0.00     0.261 C 
BRANCH   6   7
ATOM      7  O   UNL A   1      32.370  28.884  25.313  1.00  0.00    -0.463 OA
BRANCH   7   8
ATOM      8  C   UNL A   1      31.968  28.053  26.290  1.00  0.00     0.310 C 
ATOM      9  O   UNL A   1      32.713  27.861  27.251  1.00  0.00    -0.252 OA
BRANCH   8  10
ATOM     10  C   UNL A   1      30.696  27.265  26.159  1.00  0.00     0.160 C 
BRANCH  10  11
ATOM     11  C   UNL A   1      30.711  25.958  25.410  1.00  0.00    -0.013 A 
ATOM     12  C   UNL A   1      30.708  24.730  26.095  1.00  0.00     0.006 A 
ATOM     13  C   UNL A   1      30.701  25.970  23.991  1.00  0.00     0.042 A 
ATOM     14  C   UNL A   1      30.753  23.525  25.401  1.00  0.00     0.000 A 
ATOM     15  C   UNL A   1      30.833  24.744  23.325  1.00  0.00     0.026 A 
ATOM     16  C   UNL A   1      30.850  23.534  24.017  1.00  0.00     0.002 A 
BRANCH  13  17
ATOM     17  N   UNL A   1      30.514  27.183  23.285  1.00  0.00    -0.353 N 
ATOM     18  H   UNL A   1      31.305  27.491  22.784  1.00  0.00     0.167 HD
BRANCH  17  19
ATOM     19  C   UNL A   1      29.382  28.027  23.178  1.00  0.00     0.076 A 
ATOM     20  C   UNL A   1      29.550  29.305  22.600  1.00  0.00     0.066 A 
ATOM     21  C   UNL A   1      28.077  27.646  23.535  1.00  0.00     0.066 A 
ATOM     22  Cl  UNL A   1      31.133  29.907  22.229  1.00  0.00    -0.082 Cl
ATOM     23  C   UNL A   1      28.459  30.126  22.308  1.00  0.00     0.023 A 
ATOM     24  C   UNL A   1      26.981  28.465  23.230  1.00  0.00     0.023 A 
ATOM     25  Cl  UNL A   1      27.748  26.221  24.466  1.00  0.00    -0.082 Cl
ATOM     26  C   UNL A   1      27.169  29.692  22.599  1.00  0.00     0.003 A 
ENDBRANCH  17  19
ENDBRANCH  13  17
ENDBRANCH  10  11
ENDBRANCH   8  10
ENDBRANCH   7   8
ENDBRANCH   6   7
ENDBRANCH   5   6
ENDBRANCH   4   5
ENDBRANCH   3   4
ENDBRANCH   2   3
ENDBRANCH   1   2
BRANCH   1  27
ATOM     27  C   UNL A   1      36.224  23.167  24.946  1.00  0.00     0.188 C 
BRANCH  27  28
ATOM     28  C   UNL A   1      36.724  21.832  24.363  1.00  0.00     0.188 C 
BRANCH  28  29
ATOM     29  O   UNL A   1      36.703  20.665  25.162  1.00  0.00    -0.376 OA
BRANCH  29  30
ATOM     30  C   UNL A   1      37.752  19.713  25.119  1.00  0.00     0.202 C 
BRANCH  30  31
ATOM     31  C   UNL A   1      39.264  20.021  25.163  1.00  0.00     0.261 C 
BRANCH  31  32
ATOM     32  O   UNL A   1      40.056  19.428  26.192  1.00  0.00    -0.460 OA
BRANCH  32  33
ATOM     33  C   UNL A   1      41.365  19.769  26.209  1.00  0.00     0.338 C 
ATOM     34  O   UNL A   1      42.289  19.137  25.727  1.00  0.00    -0.246 OA
BRANCH  33  35
ATOM     35  C   UNL A   1      41.464  21.162  26.703  1.00  0.00     0.060 A 
ATOM     36  C   UNL A   1      41.093  22.197  25.835  1.00  0.00     0.016 A 
ATOM     37  C   UNL A   1      41.852  21.447  28.016  1.00  0.00     0.016 A 
ATOM     38  C   UNL A   1      41.136  23.521  26.265  1.00  0.00     0.010 A 
ATOM     39  C   UNL A   1      41.929  22.780  28.437  1.00  0.00     0.010 A 
ATOM     40  C   UNL A   1      41.602  23.822  27.552  1.00  0.00    -0.014 A 
BRANCH  40  41
ATOM     41  C   UNL A   1      41.987  25.223  27.856  1.00  0.00     0.031 A 
ATOM     42  C   UNL A   1      43.355  25.679  27.419  1.00  0.00     0.074 A 
ATOM     43  C   UNL A   1      41.132  26.087  28.433  1.00  0.00     0.049 A 
ATOM     44  N   UNL A   1      43.924  26.847  27.546  1.00  0.00    -0.248 NA
ATOM     45  C   UNL A   1      44.188  24.673  26.738  1.00  0.00     0.031 C 
ATOM     46  C   UNL A   1      39.767  25.776  28.851  1.00  0.00     0.029 A 
ATOM     47  N   UNL A   1      41.292  27.410  28.764  1.00  0.00    -0.354 N 
ATOM     48  C   UNL A   1      45.175  26.724  26.950  1.00  0.00     0.074 A 
ATOM     49  C   UNL A   1      45.298  25.353  26.503  1.00  0.00     0.031 C 
ATOM     50  C   UNL A   1      39.216  26.878  29.394  1.00  0.00     0.029 A 
ATOM     51  C   UNL A   1      40.198  27.963  29.389  1.00  0.00     0.049 A 
ATOM     52  H   UNL A   1      42.114  27.917  28.573  1.00  0.00     0.167 HD
ATOM     53  C   UNL A   1      46.130  27.669  26.778  1.00  0.00     0.034 A 
ATOM     54  C   UNL A   1      40.022  29.194  29.914  1.00  0.00     0.034 A 
ATOM     55  C   UNL A   1      46.009  29.023  27.253  1.00  0.00     0.049 A 
ATOM     56  C   UNL A   1      41.147  30.202  29.802  1.00  0.00     0.074 A 
ATOM     57  C   UNL A   1      46.923  30.057  27.151  1.00  0.00     0.029 A 
ATOM     58  N   UNL A   1      44.910  29.531  27.932  1.00  0.00    -0.354 N 
ATOM     59  N   UNL A   1      42.323  30.074  29.229  1.00  0.00    -0.248 NA
ATOM     60  C   UNL A   1      40.913  31.526  30.395  1.00  0.00     0.031 C 
ATOM     61  C   UNL A   1      46.406  31.167  27.827  1.00  0.00     0.029 A 
ATOM     62  C   UNL A   1      45.135  30.854  28.281  1.00  0.00     0.049 A 
ATOM     63  H   UNL A   1      44.090  29.026  28.137  1.00  0.00     0.167 HD
ATOM     64  C   UNL A   1      42.952  31.310  29.368  1.00  0.00     0.074 A 
ATOM     65  C   UNL A   1      42.014  32.175  30.051  1.00  0.00     0.031 C 
ATOM     66  C   UNL A   1      44.191  31.700  28.971  1.00  0.00     0.034 A 
BRANCH  53  67
ATOM     67  C   UNL A   1      47.403  27.247  26.090  1.00  0.00     0.023 A 
ATOM     68  C   UNL A   1      48.507  26.761  26.813  1.00  0.00     0.031 A 
ATOM     69  C   UNL A   1      47.521  27.349  24.693  1.00  0.00     0.131 A 
ATOM     70  C   UNL A   1      49.698  26.444  26.141  1.00  0.00     0.055 A 
ATOM     71  C   UNL A   1      48.684  26.963  24.023  1.00  0.00     0.041 A 
ATOM     72  F   UNL A   1      46.511  27.834  23.956  1.00  0.00    -0.206 F 
ATOM     73  C   UNL A   1      49.785  26.517  24.749  1.00  0.00     0.022 A 
BRANCH  70  74
ATOM     74  S   UNL A   1      51.170  26.046  27.123  1.00  0.00     0.124 S 
ATOM     75  O   UNL A   1      52.055  27.159  26.792  1.00  0.00    -0.237 OA
ATOM     76  O   UNL A   1      50.646  26.027  28.484  1.00  0.00    -0.237 OA
ATOM     77  O   UNL A   1      51.590  24.748  26.598  1.00  0.00    -0.744 OA
ENDBRANCH  70  74
ENDBRANCH  53  67
BRANCH  54  78
ATOM     78  C   UNL A   1      38.767  29.550  30.642  1.00  0.00     0.023 A 
ATOM     79  C   UNL A   1      37.827  30.438  30.093  1.00  0.00     0.031 A 
ATOM     80  C   UNL A   1      38.541  29.086  31.951  1.00  0.00     0.131 A 
ATOM     81  C   UNL A   1      36.745  30.885  30.870  1.00  0.00     0.055 A 
ATOM     82  C   UNL A   1      37.429  29.484  32.696  1.00  0.00     0.041 A 
ATOM     83  F   UNL A   1      39.407  28.241  32.532  1.00  0.00    -0.206 F 
ATOM     84  C   UNL A   1      36.533  30.405  32.163  1.00  0.00     0.022 A 
BRANCH  81  85
ATOM     85  S   UNL A   1      35.687  32.203  30.209  1.00  0.00     0.124 S 
ATOM     86  O   UNL A   1      36.586  33.350  30.239  1.00  0.00    -0.237 OA
ATOM     87  O   UNL A   1      35.350  31.683  28.887  1.00  0.00    -0.237 OA
ATOM     88  O   UNL A   1      34.576  32.253  31.156  1.00  0.00    -0.744 OA
ENDBRANCH  81  85
ENDBRANCH  54  78
BRANCH  66  89
ATOM     89  C   UNL A   1      44.576  33.138  29.233  1.00  0.00     0.023 A 
ATOM     90  C   UNL A   1      44.426  34.135  28.253  1.00  0.00     0.031 A 
ATOM     91  C   UNL A   1      45.126  33.511  30.473  1.00  0.00     0.131 A 
ATOM     92  C   UNL A   1      44.892  35.435  28.500  1.00  0.00     0.055 A 
ATOM     93  C   UNL A   1      45.521  34.823  30.739  1.00  0.00     0.041 A 
ATOM     94  F   UNL A   1      45.293  32.603  31.449  1.00  0.00    -0.206 F 
ATOM     95  C   UNL A   1      45.422  35.790  29.743  1.00  0.00     0.022 A 
BRANCH  92  96
ATOM     96  S   UNL A   1      44.909  36.626  27.132  1.00  0.00     0.124 S 
ATOM     97  O   UNL A   1      45.400  37.834  27.788  1.00  0.00    -0.237 OA
ATOM     98  O   UNL A   1      45.823  35.999  26.184  1.00  0.00    -0.237 OA
ATOM     99  O   UNL A   1      43.511  36.678  26.705  1.00  0.00    -0.744 OA
ENDBRANCH  92  96
ENDBRANCH  66  89
ENDBRANCH  40  41
ENDBRANCH  33  35
ENDBRANCH  32  33
ENDBRANCH  31  32
ENDBRANCH  30  31
ENDBRANCH  29  30
ENDBRANCH  28  29
ENDBRANCH  27  28
ENDBRANCH   1  27
TORSDOF 26
ENDMDL
MODEL 3
REMARK VINA RESULT:      -9.2      2.086      2.599
REMARK SMILES O=C(Cc1ccccc1Nc1c(Cl)cccc1Cl)OCCOCCOCCOCCOC(=O)c1ccc(-c2c3nc(c(-c4cc(S(=O)(=O)[O-])ccc4F)c4ccc([nH]4)c(-c4cc(S(=O)(=O)[O-])ccc4F)c4nc(c(-c5cc(S(=O)(=O)[O-])ccc5F)c5ccc2[nH]5)C=C4)C=C3)cc1
REMARK SMILES IDX 25 1 24 2 23 3 22 4 21 5 20 6 19 7 2 8 1 9 3 10 4 11 5 12
REMARK SMILES IDX 9 13 6 14 8 15 7 16 10 17 11 19 12 20 17 21 13 22 14 23
REMARK SMILES IDX 16 24 18 25 15 26 26 27 27 28 28 29 29 30 30 31 31 32 32 33
REMARK SMILES IDX 33 34 34 35 35 36 96 37 36 38 95 39 37 40 38 41 39 42 89 43
REMARK SMILES IDX 40 44 94 45 88 46 90 47 41 48 93 49 87 50 86 51 42 53 74 54
REMARK SMILES IDX 54 55 73 56 55 57 58 58 72 59 91 60 56 61 57 62 71 64 92 65
REMARK SMILES IDX 59 66 43 67 44 68 52 69 45 70 51 71 53 72 50 73 46 74 47 75
REMARK SMILES IDX 48 76 49 77 75 78 76 79 84 80 77 81 83 82 85 83 82 84 78 85
REMARK SMILES IDX 79 86 80 87 81 88 60 89 61 90 69 91 62 92 68 93 70 94 67 95
REMARK SMILES IDX 63 96 64 97 65 98 66 99
REMARK H PARENT 10 18 90 52 58 63
REMARK Flexibility Score: inf
ROOT
ATOM      1  O   UNL A   1      35.022  23.006  23.066  1.00  0.00    -0.377 OA
ENDROOT
BRANCH   1   2
ATOM      2  C   UNL A   1      33.667  22.586  23.122  1.00  0.00     0.188 C 
BRANCH   2   3
ATOM      3  C   UNL A   1      32.725  23.314  22.163  1.00  0.00     0.188 C 
BRANCH   3   4
ATOM      4  O   UNL A   1      33.279  23.741  20.928  1.00  0.00    -0.376 OA
BRANCH   4   5
ATOM      5  C   UNL A   1      32.898  24.917  20.235  1.00  0.00     0.202 C 
BRANCH   5   6
ATOM      6  C   UNL A   1      31.929  25.905  20.862  1.00  0.00     0.261 C 
BRANCH   6   7
ATOM      7  O   UNL A   1      32.457  27.019  21.616  1.00  0.00    -0.463 OA
BRANCH   7   8
ATOM      8  C   UNL A   1      33.629  27.200  22.249  1.00  0.00     0.310 C 
ATOM      9  O   UNL A   1      34.434  26.269  22.285  1.00  0.00    -0.252 OA
BRANCH   8  10
ATOM     10  C   UNL A   1      33.908  28.463  23.013  1.00  0.00     0.160 C 
BRANCH  10  11
ATOM     11  C   UNL A   1      33.343  28.625  24.400  1.00  0.00    -0.013 A 
ATOM     12  C   UNL A   1      34.177  28.583  25.532  1.00  0.00     0.006 A 
ATOM     13  C   UNL A   1      31.951  28.852  24.561  1.00  0.00     0.042 A 
ATOM     14  C   UNL A   1      33.647  28.704  26.813  1.00  0.00     0.000 A 
ATOM     15  C   UNL A   1      31.440  28.884  25.866  1.00  0.00     0.026 A 
ATOM     16  C   UNL A   1      32.275  28.820  26.980  1.00  0.00     0.002 A 
BRANCH  13  17
ATOM     17  N   UNL A   1      31.127  29.085  23.434  1.00  0.00    -0.353 N 
ATOM     18  H   UNL A   1      31.611  29.376  22.626  1.00  0.00     0.167 HD
BRANCH  17  19
ATOM     19  C   UNL A   1      29.725  28.968  23.272  1.00  0.00     0.076 A 
ATOM     20  C   UNL A   1      29.130  27.702  23.466  1.00  0.00     0.066 A 
ATOM     21  C   UNL A   1      28.868  30.051  23.008  1.00  0.00     0.066 A 
ATOM     22  Cl  UNL A   1      30.111  26.288  23.687  1.00  0.00    -0.082 Cl
ATOM     23  C   UNL A   1      27.744  27.539  23.489  1.00  0.00     0.023 A 
ATOM     24  C   UNL A   1      27.476  29.890  23.044  1.00  0.00     0.023 A 
ATOM     25  Cl  UNL A   1      29.459  31.603  22.513  1.00  0.00    -0.082 Cl
ATOM     26  C   UNL A   1      26.915  28.642  23.304  1.00  0.00     0.003 A 
ENDBRANCH  17  19
ENDBRANCH  13  17
ENDBRANCH  10  11
ENDBRANCH   8  10
ENDBRANCH   7   8
ENDBRANCH   6   7
ENDBRANCH   5   6
ENDBRANCH   4   5
ENDBRANCH   3   4
ENDBRANCH   2   3
ENDBRANCH   1   2
BRANCH   1  27
ATOM     27  C   UNL A   1      35.706  22.963  24.310  1.00  0.00     0.188 C 
BRANCH  27  28
ATOM     28  C   UNL A   1      36.988  22.108  24.297  1.00  0.00     0.188 C 
BRANCH  28  29
ATOM     29  O   UNL A   1      36.945  20.771  24.755  1.00  0.00    -0.376 OA
BRANCH  29  30
ATOM     30  C   UNL A   1      38.115  20.084  25.163  1.00  0.00     0.202 C 
BRANCH  30  31
ATOM     31  C   UNL A   1      39.375  20.721  25.788  1.00  0.00     0.261 C 
BRANCH  31  32
ATOM     32  O   UNL A   1      40.252  19.898  26.556  1.00  0.00    -0.460 OA
BRANCH  32  33
ATOM     33  C   UNL A   1      41.557  19.923  26.201  1.00  0.00     0.338 C 
ATOM     34  O   UNL A   1      42.158  19.074  25.567  1.00  0.00    -0.246 OA
BRANCH  33  35
ATOM     35  C   UNL A   1      42.083  21.274  26.507  1.00  0.00     0.060 A 
ATOM     36  C   UNL A   1      42.256  21.625  27.852  1.00  0.00     0.016 A 
ATOM     37  C   UNL A   1      42.463  22.158  25.492  1.00  0.00     0.016 A 
ATOM     38  C   UNL A   1      42.781  22.870  28.189  1.00  0.00     0.010 A 
ATOM     39  C   UNL A   1      42.958  23.424  25.832  1.00  0.00     0.010 A 
ATOM     40  C   UNL A   1      43.086  23.795  27.182  1.00  0.00    -0.014 A 
BRANCH  40  41
ATOM     41  C   UNL A   1      43.285  25.216  27.561  1.00  0.00     0.031 A 
ATOM     42  C   UNL A   1      44.651  25.811  27.336  1.00  0.00     0.074 A 
ATOM     43  C   UNL A   1      42.276  25.978  28.020  1.00  0.00     0.049 A 
ATOM     44  N   UNL A   1      45.079  27.023  27.564  1.00  0.00    -0.248 NA
ATOM     45  C   UNL A   1      45.668  24.908  26.770  1.00  0.00     0.031 C 
ATOM     46  C   UNL A   1      40.901  25.529  28.228  1.00  0.00     0.029 A 
ATOM     47  N   UNL A   1      42.257  27.300  28.391  1.00  0.00    -0.354 N 
ATOM     48  C   UNL A   1      46.409  27.035  27.157  1.00  0.00     0.074 A 
ATOM     49  C   UNL A   1      46.729  25.696  26.711  1.00  0.00     0.031 C 
ATOM     50  C   UNL A   1      40.173  26.557  28.701  1.00  0.00     0.029 A 
ATOM     51  C   UNL A   1      41.035  27.729  28.857  1.00  0.00     0.049 A 
ATOM     52  H   UNL A   1      43.044  27.888  28.330  1.00  0.00     0.167 HD
ATOM     53  C   UNL A   1      47.283  28.070  27.141  1.00  0.00     0.034 A 
ATOM     54  C   UNL A   1      40.667  28.923  29.370  1.00  0.00     0.034 A 
ATOM     55  C   UNL A   1      46.963  29.392  27.614  1.00  0.00     0.049 A 
ATOM     56  C   UNL A   1      41.693  30.034  29.440  1.00  0.00     0.074 A 
ATOM     57  C   UNL A   1      47.778  30.510  27.663  1.00  0.00     0.029 A 
ATOM     58  N   UNL A   1      45.733  29.775  28.133  1.00  0.00    -0.354 N 
ATOM     59  N   UNL A   1      42.946  30.034  29.044  1.00  0.00    -0.248 NA
ATOM     60  C   UNL A   1      41.248  31.312  30.013  1.00  0.00     0.031 C 
ATOM     61  C   UNL A   1      47.063  31.546  28.274  1.00  0.00     0.029 A 
ATOM     62  C   UNL A   1      45.776  31.102  28.531  1.00  0.00     0.049 A 
ATOM     63  H   UNL A   1      44.946  29.189  28.207  1.00  0.00     0.167 HD
ATOM     64  C   UNL A   1      43.425  31.319  29.293  1.00  0.00     0.074 A 
ATOM     65  C   UNL A   1      42.319  32.072  29.844  1.00  0.00     0.031 C 
ATOM     66  C   UNL A   1      44.665  31.835  29.088  1.00  0.00     0.034 A 
BRANCH  53  67
ATOM     67  C   UNL A   1      48.677  27.790  26.641  1.00  0.00     0.023 A 
ATOM     68  C   UNL A   1      49.012  27.913  25.280  1.00  0.00     0.031 A 
ATOM     69  C   UNL A   1      49.682  27.378  27.534  1.00  0.00     0.131 A 
ATOM     70  C   UNL A   1      50.303  27.576  24.845  1.00  0.00     0.055 A 
ATOM     71  C   UNL A   1      50.984  27.115  27.105  1.00  0.00     0.041 A 
ATOM     72  F   UNL A   1      49.411  27.215  28.838  1.00  0.00    -0.206 F 
ATOM     73  C   UNL A   1      51.297  27.203  25.752  1.00  0.00     0.022 A 
BRANCH  70  74
ATOM     74  S   UNL A   1      50.631  27.520  23.062  1.00  0.00     0.124 S 
ATOM     75  O   UNL A   1      51.894  26.788  23.019  1.00  0.00    -0.237 OA
ATOM     76  O   UNL A   1      49.463  26.814  22.548  1.00  0.00    -0.237 OA
ATOM     77  O   UNL A   1      50.723  28.929  22.687  1.00  0.00    -0.744 OA
ENDBRANCH  70  74
ENDBRANCH  53  67
BRANCH  54  78
ATOM     78  C   UNL A   1      39.291  29.137  29.911  1.00  0.00     0.023 A 
ATOM     79  C   UNL A   1      38.383  30.005  29.283  1.00  0.00     0.031 A 
ATOM     80  C   UNL A   1      38.901  28.555  31.131  1.00  0.00     0.131 A 
ATOM     81  C   UNL A   1      37.163  30.318  29.906  1.00  0.00     0.055 A 
ATOM     82  C   UNL A   1      37.661  28.819  31.716  1.00  0.00     0.041 A 
ATOM     83  F   UNL A   1      39.729  27.722  31.782  1.00  0.00    -0.206 F 
ATOM     84  C   UNL A   1      36.791  29.721  31.112  1.00  0.00     0.022 A 
BRANCH  81  85
ATOM     85  S   UNL A   1      36.123  31.615  29.179  1.00  0.00     0.124 S 
ATOM     86  O   UNL A   1      36.963  32.094  28.089  1.00  0.00    -0.237 OA
ATOM     87  O   UNL A   1      34.932  30.865  28.792  1.00  0.00    -0.237 OA
ATOM     88  O   UNL A   1      35.932  32.555  30.282  1.00  0.00    -0.744 OA
ENDBRANCH  81  85
ENDBRANCH  54  78
BRANCH  66  89
ATOM     89  C   UNL A   1      44.866  33.295  29.426  1.00  0.00     0.023 A 
ATOM     90  C   UNL A   1      44.361  34.320  28.607  1.00  0.00     0.031 A 
ATOM     91  C   UNL A   1      45.596  33.664  30.570  1.00  0.00     0.131 A 
ATOM     92  C   UNL A   1      44.660  35.660  28.900  1.00  0.00     0.055 A 
ATOM     93  C   UNL A   1      45.828  35.002  30.896  1.00  0.00     0.041 A 
ATOM     94  F   UNL A   1      46.103  32.729  31.391  1.00  0.00    -0.206 F 
ATOM     95  C   UNL A   1      45.375  36.008  30.049  1.00  0.00     0.022 A 
BRANCH  92  96
ATOM     96  S   UNL A   1      44.205  36.934  27.692  1.00  0.00     0.124 S 
ATOM     97  O   UNL A   1      43.248  37.739  28.446  1.00  0.00    -0.237 OA
ATOM     98  O   UNL A   1      45.488  37.569  27.411  1.00  0.00    -0.237 OA
ATOM     99  O   UNL A   1      43.635  36.170  26.584  1.00  0.00    -0.744 OA
ENDBRANCH  92  96
ENDBRANCH  66  89
ENDBRANCH  40  41
ENDBRANCH  33  35
ENDBRANCH  32  33
ENDBRANCH  31  32
ENDBRANCH  30  31
ENDBRANCH  29  30
ENDBRANCH  28  29
ENDBRANCH  27  28
ENDBRANCH   1  27
TORSDOF 26
ENDMDL
