MODEL 1
REMARK VINA RESULT:      -8.6      0.000      0.000
REMARK SMILES C[C@H]1CN(C(=O)Nc2ccc(C(=O)OCCOCCOCCOCCOC(=O)c3ccc(-c4c5nc(c(-c6cc(S(=O)(=O)[O-])ccc6F)c6ccc([nH]6)c(-c6cc(S(=O)(=O)[O-])ccc6F)c6nc(c(-c7cc(S(=O)(=O)[O-])ccc7F)c7ccc4[nH]7)C=C6)C=C5)cc3)cc2Br)C[C@@H]1C
REMARK SMILES IDX 21 1 20 2 19 3 18 4 17 5 16 6 15 7 14 8 12 9 13 10 11 11
REMARK SMILES IDX 8 12 9 13 93 14 10 15 92 16 94 17 7 18 1 19 2 20 3 21 96 22
REMARK SMILES IDX 4 23 95 24 97 25 5 26 6 27 22 29 23 30 24 31 25 32 26 33
REMARK SMILES IDX 27 34 28 35 29 36 30 37 91 38 31 39 90 40 32 41 33 42 34 43
REMARK SMILES IDX 84 44 35 45 89 46 83 47 85 48 36 49 88 50 82 51 81 52 37 54
REMARK SMILES IDX 69 55 49 56 68 57 50 58 53 59 67 60 86 61 51 62 52 63 66 65
REMARK SMILES IDX 87 66 54 67 38 68 39 69 47 70 40 71 46 72 48 73 45 74 41 75
REMARK SMILES IDX 42 76 43 77 44 78 70 79 71 80 79 81 72 82 78 83 80 84 77 85
REMARK SMILES IDX 73 86 74 87 75 88 76 89 55 90 56 91 64 92 57 93 63 94 65 95
REMARK SMILES IDX 62 96 58 97 59 98 60 99 61 100
REMARK H PARENT 7 28 85 53 53 64
REMARK Flexibility Score: inf
ROOT
ATOM      1  C   UNL A   1      43.121  23.191  27.528  1.00  0.00     0.188 C 
ENDROOT
BRANCH   1   2
ATOM      2  O   UNL A   1      42.862  23.027  26.135  1.00  0.00    -0.377 OA
BRANCH   2   3
ATOM      3  C   UNL A   1      42.928  21.724  25.600  1.00  0.00     0.188 C 
BRANCH   3   4
ATOM      4  C   UNL A   1      42.502  20.611  26.573  1.00  0.00     0.188 C 
BRANCH   4   5
ATOM      5  O   UNL A   1      41.374  19.818  26.262  1.00  0.00    -0.376 OA
BRANCH   5   6
ATOM      6  C   UNL A   1      40.030  20.277  26.301  1.00  0.00     0.202 C 
BRANCH   6   7
ATOM      7  C   UNL A   1      39.517  21.716  26.102  1.00  0.00     0.261 C 
BRANCH   7   8
ATOM      8  O   UNL A   1      38.121  21.922  26.233  1.00  0.00    -0.460 OA
BRANCH   8   9
ATOM      9  C   UNL A   1      37.373  21.505  25.197  1.00  0.00     0.338 C 
ATOM     10  O   UNL A   1      37.664  20.660  24.367  1.00  0.00    -0.246 OA
BRANCH   9  11
ATOM     11  C   UNL A   1      36.026  22.105  25.310  1.00  0.00     0.061 A 
ATOM     12  C   UNL A   1      33.460  22.939  25.858  1.00  0.00     0.057 A 
ATOM     13  C   UNL A   1      34.500  23.378  26.678  1.00  0.00     0.028 A 
ATOM     14  C   UNL A   1      33.735  22.354  24.615  1.00  0.00     0.042 A 
ATOM     15  C   UNL A   1      35.788  22.935  26.413  1.00  0.00     0.018 A 
ATOM     16  C   UNL A   1      35.024  21.899  24.351  1.00  0.00     0.033 A 
ATOM     17  Br  UNL A   1      32.367  22.029  23.337  1.00  0.00    -0.049 Br
BRANCH  12  18
ATOM     18  N   UNL A   1      32.194  22.904  26.443  1.00  0.00    -0.307 N 
ATOM     19  C   UNL A   1      32.774  28.048  25.846  1.00  0.00     0.010 C 
ATOM     20  C   UNL A   1      32.133  27.118  24.809  1.00  0.00     0.010 C 
ATOM     21  C   UNL A   1      32.486  25.665  25.105  1.00  0.00     0.125 C 
ATOM     22  C   UNL A   1      30.607  27.094  24.883  1.00  0.00     0.010 C 
ATOM     23  N   UNL A   1      31.425  25.131  25.955  1.00  0.00    -0.324 N 
ATOM     24  C   UNL A   1      30.340  26.104  26.027  1.00  0.00     0.125 C 
ATOM     25  C   UNL A   1      30.011  26.594  23.560  1.00  0.00     0.010 C 
ATOM     26  C   UNL A   1      31.268  23.904  26.554  1.00  0.00     0.321 C 
ATOM     27  O   UNL A   1      30.218  23.608  27.136  1.00  0.00    -0.248 OA
ATOM     28  H   UNL A   1      31.929  22.039  26.831  1.00  0.00     0.171 HD
ENDBRANCH  12  18
ENDBRANCH   9  11
ENDBRANCH   8   9
ENDBRANCH   7   8
ENDBRANCH   6   7
ENDBRANCH   5   6
ENDBRANCH   4   5
ENDBRANCH   3   4
ENDBRANCH   2   3
ENDBRANCH   1   2
BRANCH   1  29
ATOM     29  C   UNL A   1      42.046  23.764  28.483  1.00  0.00     0.188 C 
BRANCH  29  30
ATOM     30  O   UNL A   1      41.680  25.115  28.246  1.00  0.00    -0.376 OA
BRANCH  30  31
ATOM     31  C   UNL A   1      40.543  25.384  27.441  1.00  0.00     0.202 C 
BRANCH  31  32
ATOM     32  C   UNL A   1      40.764  26.178  26.144  1.00  0.00     0.261 C 
BRANCH  32  33
ATOM     33  O   UNL A   1      41.332  27.486  26.293  1.00  0.00    -0.460 OA
BRANCH  33  34
ATOM     34  C   UNL A   1      42.410  27.788  25.529  1.00  0.00     0.338 C 
ATOM     35  O   UNL A   1      42.409  28.345  24.456  1.00  0.00    -0.246 OA
BRANCH  34  36
ATOM     36  C   UNL A   1      43.612  27.488  26.341  1.00  0.00     0.060 A 
ATOM     37  C   UNL A   1      44.274  26.267  26.161  1.00  0.00     0.016 A 
ATOM     38  C   UNL A   1      44.095  28.429  27.252  1.00  0.00     0.016 A 
ATOM     39  C   UNL A   1      45.418  25.976  26.906  1.00  0.00     0.010 A 
ATOM     40  C   UNL A   1      45.226  28.127  28.014  1.00  0.00     0.010 A 
ATOM     41  C   UNL A   1      45.880  26.891  27.863  1.00  0.00    -0.014 A 
BRANCH  41  42
ATOM     42  C   UNL A   1      46.930  26.497  28.834  1.00  0.00     0.031 A 
ATOM     43  C   UNL A   1      46.499  26.034  30.197  1.00  0.00     0.074 A 
ATOM     44  C   UNL A   1      48.238  26.561  28.521  1.00  0.00     0.049 A 
ATOM     45  N   UNL A   1      47.220  25.757  31.251  1.00  0.00    -0.248 NA
ATOM     46  C   UNL A   1      45.050  25.869  30.396  1.00  0.00     0.031 C 
ATOM     47  C   UNL A   1      48.776  26.936  27.216  1.00  0.00     0.029 A 
ATOM     48  N   UNL A   1      49.351  26.324  29.291  1.00  0.00    -0.354 N 
ATOM     49  C   UNL A   1      46.316  25.396  32.243  1.00  0.00     0.074 A 
ATOM     50  C   UNL A   1      44.991  25.523  31.672  1.00  0.00     0.031 C 
ATOM     51  C   UNL A   1      50.120  26.922  27.281  1.00  0.00     0.029 A 
ATOM     52  C   UNL A   1      50.535  26.589  28.643  1.00  0.00     0.049 A 
ATOM     53  H   UNL A   1      49.305  25.998  30.218  1.00  0.00     0.167 HD
ATOM     54  C   UNL A   1      46.567  24.991  33.512  1.00  0.00     0.034 A 
ATOM     55  C   UNL A   1      51.802  26.599  29.109  1.00  0.00     0.034 A 
ATOM     56  C   UNL A   1      47.894  24.889  34.070  1.00  0.00     0.049 A 
ATOM     57  C   UNL A   1      52.053  26.259  30.562  1.00  0.00     0.074 A 
ATOM     58  C   UNL A   1      48.265  24.482  35.340  1.00  0.00     0.029 A 
ATOM     59  N   UNL A   1      49.066  25.216  33.400  1.00  0.00    -0.354 N 
ATOM     60  N   UNL A   1      51.192  25.917  31.493  1.00  0.00    -0.248 NA
ATOM     61  C   UNL A   1      53.446  26.308  31.025  1.00  0.00     0.031 C 
ATOM     62  C   UNL A   1      49.648  24.646  35.465  1.00  0.00     0.029 A 
ATOM     63  C   UNL A   1      50.155  25.061  34.245  1.00  0.00     0.049 A 
ATOM     64  H   UNL A   1      49.117  25.515  32.464  1.00  0.00     0.167 HD
ATOM     65  C   UNL A   1      51.946  25.676  32.641  1.00  0.00     0.074 A 
ATOM     66  C   UNL A   1      53.330  25.901  32.281  1.00  0.00     0.031 C 
ATOM     67  C   UNL A   1      51.532  25.296  33.877  1.00  0.00     0.034 A 
BRANCH  54  68
ATOM     68  C   UNL A   1      45.380  24.692  34.395  1.00  0.00     0.023 A 
ATOM     69  C   UNL A   1      44.916  25.614  35.349  1.00  0.00     0.031 A 
ATOM     70  C   UNL A   1      44.720  23.455  34.300  1.00  0.00     0.131 A 
ATOM     71  C   UNL A   1      43.875  25.255  36.220  1.00  0.00     0.055 A 
ATOM     72  C   UNL A   1      43.629  23.138  35.110  1.00  0.00     0.041 A 
ATOM     73  F   UNL A   1      45.135  22.524  33.428  1.00  0.00    -0.206 F 
ATOM     74  C   UNL A   1      43.210  24.035  36.088  1.00  0.00     0.022 A 
BRANCH  71  75
ATOM     75  S   UNL A   1      43.508  26.344  37.624  1.00  0.00     0.124 S 
ATOM     76  O   UNL A   1      44.193  27.573  37.231  1.00  0.00    -0.237 OA
ATOM     77  O   UNL A   1      42.051  26.393  37.613  1.00  0.00    -0.237 OA
ATOM     78  O   UNL A   1      44.101  25.646  38.762  1.00  0.00    -0.744 OA
ENDBRANCH  71  75
ENDBRANCH  54  68
BRANCH  55  79
ATOM     79  C   UNL A   1      52.935  26.994  28.219  1.00  0.00     0.023 A 
ATOM     80  C   UNL A   1      53.620  26.041  27.449  1.00  0.00     0.031 A 
ATOM     81  C   UNL A   1      53.394  28.324  28.179  1.00  0.00     0.131 A 
ATOM     82  C   UNL A   1      54.752  26.419  26.711  1.00  0.00     0.055 A 
ATOM     83  C   UNL A   1      54.483  28.706  27.395  1.00  0.00     0.041 A 
ATOM     84  F   UNL A   1      52.783  29.275  28.902  1.00  0.00    -0.206 F 
ATOM     85  C   UNL A   1      55.179  27.748  26.665  1.00  0.00     0.022 A 
BRANCH  82  86
ATOM     86  S   UNL A   1      55.725  25.127  25.888  1.00  0.00     0.124 S 
ATOM     87  O   UNL A   1      54.910  24.848  24.711  1.00  0.00    -0.237 OA
ATOM     88  O   UNL A   1      56.991  25.810  25.645  1.00  0.00    -0.237 OA
ATOM     89  O   UNL A   1      55.776  24.057  26.881  1.00  0.00    -0.744 OA
ENDBRANCH  82  86
ENDBRANCH  55  79
BRANCH  67  90
ATOM     90  C   UNL A   1      52.596  25.043  34.920  1.00  0.00     0.023 A 
ATOM     91  C   UNL A   1      53.027  26.047  35.805  1.00  0.00     0.031 A 
ATOM     92  C   UNL A   1      53.178  23.767  35.038  1.00  0.00     0.131 A 
ATOM     93  C   UNL A   1      54.042  25.771  36.735  1.00  0.00     0.055 A 
ATOM     94  C   UNL A   1      54.140  23.481  36.009  1.00  0.00     0.041 A 
ATOM     95  F   UNL A   1      52.810  22.770  34.217  1.00  0.00    -0.206 F 
ATOM     96  C   UNL A   1      54.585  24.490  36.856  1.00  0.00     0.022 A 
BRANCH  93  97
ATOM     97  S   UNL A   1      54.710  27.135  37.728  1.00  0.00     0.124 S 
ATOM     98  O   UNL A   1      53.996  28.285  37.184  1.00  0.00    -0.237 OA
ATOM     99  O   UNL A   1      54.345  26.741  39.085  1.00  0.00    -0.237 OA
ATOM    100  O   UNL A   1      56.143  27.100  37.438  1.00  0.00    -0.744 OA
ENDBRANCH  93  97
ENDBRANCH  67  90
ENDBRANCH  41  42
ENDBRANCH  34  36
ENDBRANCH  33  34
ENDBRANCH  32  33
ENDBRANCH  31  32
ENDBRANCH  30  31
ENDBRANCH  29  30
ENDBRANCH   1  29
TORSDOF 24
ENDMDL
MODEL 2
REMARK VINA RESULT:      -8.6      9.719     13.436
REMARK SMILES C[C@H]1CN(C(=O)Nc2ccc(C(=O)OCCOCCOCCOCCOC(=O)c3ccc(-c4c5nc(c(-c6cc(S(=O)(=O)[O-])ccc6F)c6ccc([nH]6)c(-c6cc(S(=O)(=O)[O-])ccc6F)c6nc(c(-c7cc(S(=O)(=O)[O-])ccc7F)c7ccc4[nH]7)C=C6)C=C5)cc3)cc2Br)C[C@@H]1C
REMARK SMILES IDX 21 1 20 2 19 3 18 4 17 5 16 6 15 7 14 8 12 9 13 10 11 11
REMARK SMILES IDX 8 12 9 13 93 14 10 15 92 16 94 17 7 18 1 19 2 20 3 21 96 22
REMARK SMILES IDX 4 23 95 24 97 25 5 26 6 27 22 29 23 30 24 31 25 32 26 33
REMARK SMILES IDX 27 34 28 35 29 36 30 37 91 38 31 39 90 40 32 41 33 42 34 43
REMARK SMILES IDX 84 44 35 45 89 46 83 47 85 48 36 49 88 50 82 51 81 52 37 54
REMARK SMILES IDX 69 55 49 56 68 57 50 58 53 59 67 60 86 61 51 62 52 63 66 65
REMARK SMILES IDX 87 66 54 67 38 68 39 69 47 70 40 71 46 72 48 73 45 74 41 75
REMARK SMILES IDX 42 76 43 77 44 78 70 79 71 80 79 81 72 82 78 83 80 84 77 85
REMARK SMILES IDX 73 86 74 87 75 88 76 89 55 90 56 91 64 92 57 93 63 94 65 95
REMARK SMILES IDX 62 96 58 97 59 98 60 99 61 100
REMARK H PARENT 7 28 85 53 53 64
REMARK Flexibility Score: inf
ROOT
ATOM      1  C   UNL A   1      37.599  31.708  34.238  1.00  0.00     0.188 C 
ENDROOT
BRANCH   1   2
ATOM      2  O   UNL A   1      36.587  31.449  33.267  1.00  0.00    -0.377 OA
BRANCH   2   3
ATOM      3  C   UNL A   1      35.961  32.555  32.655  1.00  0.00     0.188 C 
BRANCH   3   4
ATOM      4  C   UNL A   1      34.938  32.189  31.567  1.00  0.00     0.188 C 
BRANCH   4   5
ATOM      5  O   UNL A   1      35.076  32.747  30.275  1.00  0.00    -0.376 OA
BRANCH   5   6
ATOM      6  C   UNL A   1      34.951  32.015  29.064  1.00  0.00     0.202 C 
BRANCH   6   7
ATOM      7  C   UNL A   1      33.745  31.970  28.106  1.00  0.00     0.261 C 
BRANCH   7   8
ATOM      8  O   UNL A   1      33.359  30.696  27.621  1.00  0.00    -0.460 OA
BRANCH   8   9
ATOM      9  C   UNL A   1      32.315  30.690  26.775  1.00  0.00     0.338 C 
ATOM     10  O   UNL A   1      31.467  31.556  26.639  1.00  0.00    -0.246 OA
BRANCH   9  11
ATOM     11  C   UNL A   1      32.440  29.525  25.872  1.00  0.00     0.061 A 
ATOM     12  C   UNL A   1      32.747  27.657  23.873  1.00  0.00     0.057 A 
ATOM     13  C   UNL A   1      33.884  28.257  24.414  1.00  0.00     0.028 A 
ATOM     14  C   UNL A   1      31.512  27.756  24.529  1.00  0.00     0.042 A 
ATOM     15  C   UNL A   1      33.723  29.216  25.404  1.00  0.00     0.018 A 
ATOM     16  C   UNL A   1      31.345  28.725  25.514  1.00  0.00     0.033 A 
ATOM     17  Br  UNL A   1      30.015  26.708  24.008  1.00  0.00    -0.049 Br
BRANCH  12  18
ATOM     18  N   UNL A   1      32.870  27.178  22.568  1.00  0.00    -0.307 N 
ATOM     19  C   UNL A   1      35.457  23.460  25.146  1.00  0.00     0.010 C 
ATOM     20  C   UNL A   1      33.956  23.422  24.836  1.00  0.00     0.010 C 
ATOM     21  C   UNL A   1      33.455  24.809  24.451  1.00  0.00     0.125 C 
ATOM     22  C   UNL A   1      33.620  22.605  23.589  1.00  0.00     0.010 C 
ATOM     23  N   UNL A   1      33.555  24.912  22.998  1.00  0.00    -0.324 N 
ATOM     24  C   UNL A   1      33.891  23.601  22.451  1.00  0.00     0.125 C 
ATOM     25  C   UNL A   1      32.148  22.170  23.611  1.00  0.00     0.010 C 
ATOM     26  C   UNL A   1      33.292  25.951  22.137  1.00  0.00     0.321 C 
ATOM     27  O   UNL A   1      33.320  25.788  20.912  1.00  0.00    -0.248 OA
ATOM     28  H   UNL A   1      32.619  27.812  21.858  1.00  0.00     0.171 HD
ENDBRANCH  12  18
ENDBRANCH   9  11
ENDBRANCH   8   9
ENDBRANCH   7   8
ENDBRANCH   6   7
ENDBRANCH   5   6
ENDBRANCH   4   5
ENDBRANCH   3   4
ENDBRANCH   2   3
ENDBRANCH   1   2
BRANCH   1  29
ATOM     29  C   UNL A   1      37.408  32.790  35.328  1.00  0.00     0.188 C 
BRANCH  29  30
ATOM     30  O   UNL A   1      38.003  32.498  36.585  1.00  0.00    -0.376 OA
BRANCH  30  31
ATOM     31  C   UNL A   1      37.216  32.626  37.759  1.00  0.00     0.202 C 
BRANCH  31  32
ATOM     32  C   UNL A   1      37.948  32.587  39.109  1.00  0.00     0.261 C 
BRANCH  32  33
ATOM     33  O   UNL A   1      38.108  33.845  39.777  1.00  0.00    -0.460 OA
BRANCH  33  34
ATOM     34  C   UNL A   1      39.348  34.160  40.224  1.00  0.00     0.338 C 
ATOM     35  O   UNL A   1      39.819  33.905  41.308  1.00  0.00    -0.246 OA
BRANCH  34  36
ATOM     36  C   UNL A   1      40.097  34.703  39.067  1.00  0.00     0.060 A 
ATOM     37  C   UNL A   1      39.577  35.799  38.367  1.00  0.00     0.016 A 
ATOM     38  C   UNL A   1      41.324  34.147  38.702  1.00  0.00     0.016 A 
ATOM     39  C   UNL A   1      40.279  36.334  37.285  1.00  0.00     0.010 A 
ATOM     40  C   UNL A   1      42.013  34.667  37.604  1.00  0.00     0.010 A 
ATOM     41  C   UNL A   1      41.485  35.748  36.876  1.00  0.00    -0.014 A 
BRANCH  41  42
ATOM     42  C   UNL A   1      42.110  36.135  35.587  1.00  0.00     0.031 A 
ATOM     43  C   UNL A   1      41.643  35.445  34.336  1.00  0.00     0.074 A 
ATOM     44  C   UNL A   1      43.079  37.067  35.527  1.00  0.00     0.049 A 
ATOM     45  N   UNL A   1      42.114  35.516  33.120  1.00  0.00    -0.248 NA
ATOM     46  C   UNL A   1      40.489  34.544  34.487  1.00  0.00     0.031 C 
ATOM     47  C   UNL A   1      43.574  37.846  36.660  1.00  0.00     0.029 A 
ATOM     48  N   UNL A   1      43.831  37.502  34.463  1.00  0.00    -0.354 N 
ATOM     49  C   UNL A   1      41.323  34.663  32.358  1.00  0.00     0.074 A 
ATOM     50  C   UNL A   1      40.364  34.060  33.262  1.00  0.00     0.031 C 
ATOM     51  C   UNL A   1      44.561  38.653  36.233  1.00  0.00     0.029 A 
ATOM     52  C   UNL A   1      44.805  38.410  34.811  1.00  0.00     0.049 A 
ATOM     53  H   UNL A   1      43.689  37.194  33.540  1.00  0.00     0.167 HD
ATOM     54  C   UNL A   1      41.387  34.410  31.028  1.00  0.00     0.034 A 
ATOM     55  C   UNL A   1      45.799  38.950  34.076  1.00  0.00     0.034 A 
ATOM     56  C   UNL A   1      42.362  35.006  30.147  1.00  0.00     0.049 A 
ATOM     57  C   UNL A   1      45.928  38.563  32.619  1.00  0.00     0.074 A 
ATOM     58  C   UNL A   1      42.512  34.827  28.783  1.00  0.00     0.029 A 
ATOM     59  N   UNL A   1      43.365  35.880  30.546  1.00  0.00    -0.354 N 
ATOM     60  N   UNL A   1      45.175  37.756  31.907  1.00  0.00    -0.248 NA
ATOM     61  C   UNL A   1      47.041  39.159  31.868  1.00  0.00     0.031 C 
ATOM     62  C   UNL A   1      43.654  35.522  28.375  1.00  0.00     0.029 A 
ATOM     63  C   UNL A   1      44.162  36.214  29.462  1.00  0.00     0.049 A 
ATOM     64  H   UNL A   1      43.492  36.214  31.463  1.00  0.00     0.167 HD
ATOM     65  C   UNL A   1      45.703  37.778  30.617  1.00  0.00     0.074 A 
ATOM     66  C   UNL A   1      46.831  38.686  30.648  1.00  0.00     0.031 C 
ATOM     67  C   UNL A   1      45.290  37.115  29.506  1.00  0.00     0.034 A 
BRANCH  54  68
ATOM     68  C   UNL A   1      40.416  33.400  30.466  1.00  0.00     0.023 A 
ATOM     69  C   UNL A   1      40.696  32.022  30.467  1.00  0.00     0.031 A 
ATOM     70  C   UNL A   1      39.204  33.824  29.893  1.00  0.00     0.131 A 
ATOM     71  C   UNL A   1      39.814  31.128  29.840  1.00  0.00     0.055 A 
ATOM     72  C   UNL A   1      38.290  32.921  29.349  1.00  0.00     0.041 A 
ATOM     73  F   UNL A   1      38.894  35.128  29.837  1.00  0.00    -0.206 F 
ATOM     74  C   UNL A   1      38.599  31.565  29.307  1.00  0.00     0.022 A 
BRANCH  71  75
ATOM     75  S   UNL A   1      40.349  29.412  29.597  1.00  0.00     0.124 S 
ATOM     76  O   UNL A   1      41.400  29.570  28.595  1.00  0.00    -0.237 OA
ATOM     77  O   UNL A   1      40.793  29.027  30.932  1.00  0.00    -0.237 OA
ATOM     78  O   UNL A   1      39.142  28.742  29.121  1.00  0.00    -0.744 OA
ENDBRANCH  71  75
ENDBRANCH  54  68
BRANCH  55  79
ATOM     79  C   UNL A   1      46.793  39.872  34.703  1.00  0.00     0.023 A 
ATOM     80  C   UNL A   1      46.557  41.255  34.774  1.00  0.00     0.031 A 
ATOM     81  C   UNL A   1      48.027  39.391  35.180  1.00  0.00     0.131 A 
ATOM     82  C   UNL A   1      47.556  42.111  35.263  1.00  0.00     0.055 A 
ATOM     83  C   UNL A   1      48.992  40.241  35.722  1.00  0.00     0.041 A 
ATOM     84  F   UNL A   1      48.310  38.080  35.128  1.00  0.00    -0.206 F 
ATOM     85  C   UNL A   1      48.765  41.612  35.753  1.00  0.00     0.022 A 
BRANCH  82  86
ATOM     86  S   UNL A   1      47.291  43.903  35.157  1.00  0.00     0.124 S 
ATOM     87  O   UNL A   1      48.220  44.400  36.165  1.00  0.00    -0.237 OA
ATOM     88  O   UNL A   1      47.643  44.178  33.768  1.00  0.00    -0.237 OA
ATOM     89  O   UNL A   1      45.875  44.057  35.481  1.00  0.00    -0.744 OA
ENDBRANCH  82  86
ENDBRANCH  55  79
BRANCH  67  90
ATOM     90  C   UNL A   1      46.028  37.390  28.216  1.00  0.00     0.023 A 
ATOM     91  C   UNL A   1      47.087  36.578  27.775  1.00  0.00     0.031 A 
ATOM     92  C   UNL A   1      45.650  38.477  27.406  1.00  0.00     0.131 A 
ATOM     93  C   UNL A   1      47.763  36.895  26.586  1.00  0.00     0.055 A 
ATOM     94  C   UNL A   1      46.282  38.748  26.192  1.00  0.00     0.041 A 
ATOM     95  F   UNL A   1      44.648  39.290  27.778  1.00  0.00    -0.206 F 
ATOM     96  C   UNL A   1      47.353  37.961  25.781  1.00  0.00     0.022 A 
BRANCH  93  97
ATOM     97  S   UNL A   1      49.245  35.947  26.144  1.00  0.00     0.124 S 
ATOM     98  O   UNL A   1      50.294  36.956  26.253  1.00  0.00    -0.237 OA
ATOM     99  O   UNL A   1      49.261  34.899  27.159  1.00  0.00    -0.237 OA
ATOM    100  O   UNL A   1      48.966  35.487  24.785  1.00  0.00    -0.744 OA
ENDBRANCH  93  97
ENDBRANCH  67  90
ENDBRANCH  41  42
ENDBRANCH  34  36
ENDBRANCH  33  34
ENDBRANCH  32  33
ENDBRANCH  31  32
ENDBRANCH  30  31
ENDBRANCH  29  30
ENDBRANCH   1  29
TORSDOF 24
ENDMDL
MODEL 3
REMARK VINA RESULT:      -8.2      8.133     11.075
REMARK SMILES C[C@H]1CN(C(=O)Nc2ccc(C(=O)OCCOCCOCCOCCOC(=O)c3ccc(-c4c5nc(c(-c6cc(S(=O)(=O)[O-])ccc6F)c6ccc([nH]6)c(-c6cc(S(=O)(=O)[O-])ccc6F)c6nc(c(-c7cc(S(=O)(=O)[O-])ccc7F)c7ccc4[nH]7)C=C6)C=C5)cc3)cc2Br)C[C@@H]1C
REMARK SMILES IDX 21 1 20 2 19 3 18 4 17 5 16 6 15 7 14 8 12 9 13 10 11 11
REMARK SMILES IDX 8 12 9 13 93 14 10 15 92 16 94 17 7 18 1 19 2 20 3 21 96 22
REMARK SMILES IDX 4 23 95 24 97 25 5 26 6 27 22 29 23 30 24 31 25 32 26 33
REMARK SMILES IDX 27 34 28 35 29 36 30 37 91 38 31 39 90 40 32 41 33 42 34 43
REMARK SMILES IDX 84 44 35 45 89 46 83 47 85 48 36 49 88 50 82 51 81 52 37 54
REMARK SMILES IDX 69 55 49 56 68 57 50 58 53 59 67 60 86 61 51 62 52 63 66 65
REMARK SMILES IDX 87 66 54 67 38 68 39 69 47 70 40 71 46 72 48 73 45 74 41 75
REMARK SMILES IDX 42 76 43 77 44 78 70 79 71 80 79 81 72 82 78 83 80 84 77 85
REMARK SMILES IDX 73 86 74 87 75 88 76 89 55 90 56 91 64 92 57 93 63 94 65 95
REMARK SMILES IDX 62 96 58 97 59 98 60 99 61 100
REMARK H PARENT 7 28 85 53 53 64
REMARK Flexibility Score: inf
ROOT
ATOM      1  C   UNL A   1      39.518  27.752  29.187  1.00  0.00     0.188 C 
ENDROOT
BRANCH   1   2
ATOM      2  O   UNL A   1      39.627  26.345  28.981  1.00  0.00    -0.377 OA
BRANCH   2   3
ATOM      3  C   UNL A   1      39.438  25.853  27.673  1.00  0.00     0.188 C 
BRANCH   3   4
ATOM      4  C   UNL A   1      39.289  24.325  27.580  1.00  0.00     0.188 C 
BRANCH   4   5
ATOM      5  O   UNL A   1      38.814  23.751  26.379  1.00  0.00    -0.376 OA
BRANCH   5   6
ATOM      6  C   UNL A   1      38.597  22.361  26.180  1.00  0.00     0.202 C 
BRANCH   6   7
ATOM      7  C   UNL A   1      37.789  21.681  25.059  1.00  0.00     0.261 C 
BRANCH   7   8
ATOM      8  O   UNL A   1      36.655  20.928  25.451  1.00  0.00    -0.460 OA
BRANCH   8   9
ATOM      9  C   UNL A   1      35.588  21.646  25.842  1.00  0.00     0.338 C 
ATOM     10  O   UNL A   1      35.270  21.938  26.983  1.00  0.00    -0.246 OA
BRANCH   9  11
ATOM     11  C   UNL A   1      34.927  22.206  24.644  1.00  0.00     0.061 A 
ATOM     12  C   UNL A   1      33.519  23.546  22.694  1.00  0.00     0.057 A 
ATOM     13  C   UNL A   1      34.701  24.107  23.175  1.00  0.00     0.028 A 
ATOM     14  C   UNL A   1      33.213  22.203  22.953  1.00  0.00     0.042 A 
ATOM     15  C   UNL A   1      35.395  23.441  24.176  1.00  0.00     0.018 A 
ATOM     16  C   UNL A   1      33.899  21.536  23.964  1.00  0.00     0.033 A 
ATOM     17  Br  UNL A   1      31.787  21.312  22.069  1.00  0.00    -0.049 Br
BRANCH  12  18
ATOM     18  N   UNL A   1      32.588  24.441  22.164  1.00  0.00    -0.307 N 
ATOM     19  C   UNL A   1      30.308  23.355  26.722  1.00  0.00     0.010 C 
ATOM     20  C   UNL A   1      31.291  24.509  26.494  1.00  0.00     0.010 C 
ATOM     21  C   UNL A   1      32.067  24.299  25.199  1.00  0.00     0.125 C 
ATOM     22  C   UNL A   1      30.600  25.848  26.236  1.00  0.00     0.010 C 
ATOM     23  N   UNL A   1      31.326  24.979  24.140  1.00  0.00    -0.324 N 
ATOM     24  C   UNL A   1      30.254  25.766  24.742  1.00  0.00     0.125 C 
ATOM     25  C   UNL A   1      31.558  27.012  26.525  1.00  0.00     0.010 C 
ATOM     26  C   UNL A   1      31.542  25.065  22.786  1.00  0.00     0.321 C 
ATOM     27  O   UNL A   1      30.856  25.808  22.075  1.00  0.00    -0.248 OA
ATOM     28  H   UNL A   1      32.700  24.653  21.210  1.00  0.00     0.171 HD
ENDBRANCH  12  18
ENDBRANCH   9  11
ENDBRANCH   8   9
ENDBRANCH   7   8
ENDBRANCH   6   7
ENDBRANCH   5   6
ENDBRANCH   4   5
ENDBRANCH   3   4
ENDBRANCH   2   3
ENDBRANCH   1   2
BRANCH   1  29
ATOM     29  C   UNL A   1      38.513  28.607  28.378  1.00  0.00     0.188 C 
BRANCH  29  30
ATOM     30  O   UNL A   1      37.639  29.414  29.154  1.00  0.00    -0.376 OA
BRANCH  30  31
ATOM     31  C   UNL A   1      38.177  30.159  30.236  1.00  0.00     0.202 C 
BRANCH  31  32
ATOM     32  C   UNL A   1      37.356  31.350  30.753  1.00  0.00     0.261 C 
BRANCH  32  33
ATOM     33  O   UNL A   1      37.536  32.591  30.057  1.00  0.00    -0.460 OA
BRANCH  33  34
ATOM     34  C   UNL A   1      37.837  33.684  30.800  1.00  0.00     0.338 C 
ATOM     35  O   UNL A   1      37.187  34.149  31.708  1.00  0.00    -0.246 OA
BRANCH  34  36
ATOM     36  C   UNL A   1      39.212  34.091  30.430  1.00  0.00     0.060 A 
ATOM     37  C   UNL A   1      39.466  34.540  29.128  1.00  0.00     0.016 A 
ATOM     38  C   UNL A   1      40.234  34.059  31.380  1.00  0.00     0.016 A 
ATOM     39  C   UNL A   1      40.753  34.945  28.767  1.00  0.00     0.010 A 
ATOM     40  C   UNL A   1      41.525  34.441  31.011  1.00  0.00     0.010 A 
ATOM     41  C   UNL A   1      41.798  34.864  29.698  1.00  0.00    -0.014 A 
BRANCH  41  42
ATOM     42  C   UNL A   1      43.206  35.043  29.265  1.00  0.00     0.031 A 
ATOM     43  C   UNL A   1      43.719  36.443  29.082  1.00  0.00     0.074 A 
ATOM     44  C   UNL A   1      44.008  33.989  29.026  1.00  0.00     0.049 A 
ATOM     45  N   UNL A   1      44.860  36.856  28.598  1.00  0.00    -0.248 NA
ATOM     46  C   UNL A   1      42.812  37.525  29.499  1.00  0.00     0.031 C 
ATOM     47  C   UNL A   1      43.644  32.588  29.224  1.00  0.00     0.029 A 
ATOM     48  N   UNL A   1      45.294  33.939  28.547  1.00  0.00    -0.354 N 
ATOM     49  C   UNL A   1      44.807  38.245  28.639  1.00  0.00     0.074 A 
ATOM     50  C   UNL A   1      43.506  38.601  29.165  1.00  0.00     0.031 C 
ATOM     51  C   UNL A   1      44.679  31.814  28.852  1.00  0.00     0.029 A 
ATOM     52  C   UNL A   1      45.757  32.660  28.340  1.00  0.00     0.049 A 
ATOM     53  H   UNL A   1      45.834  34.742  28.368  1.00  0.00     0.167 HD
ATOM     54  C   UNL A   1      45.758  39.140  28.277  1.00  0.00     0.034 A 
ATOM     55  C   UNL A   1      46.900  32.225  27.769  1.00  0.00     0.034 A 
ATOM     56  C   UNL A   1      47.043  38.767  27.736  1.00  0.00     0.049 A 
ATOM     57  C   UNL A   1      47.898  33.242  27.261  1.00  0.00     0.074 A 
ATOM     58  C   UNL A   1      48.083  39.590  27.343  1.00  0.00     0.029 A 
ATOM     59  N   UNL A   1      47.455  37.463  27.492  1.00  0.00    -0.354 N 
ATOM     60  N   UNL A   1      47.841  34.554  27.305  1.00  0.00    -0.248 NA
ATOM     61  C   UNL A   1      49.115  32.719  26.625  1.00  0.00     0.031 C 
ATOM     62  C   UNL A   1      49.085  38.791  26.784  1.00  0.00     0.029 A 
ATOM     63  C   UNL A   1      48.716  37.463  26.915  1.00  0.00     0.049 A 
ATOM     64  H   UNL A   1      46.929  36.656  27.698  1.00  0.00     0.167 HD
ATOM     65  C   UNL A   1      49.030  35.008  26.736  1.00  0.00     0.074 A 
ATOM     66  C   UNL A   1      49.787  33.831  26.367  1.00  0.00     0.031 C 
ATOM     67  C   UNL A   1      49.460  36.282  26.543  1.00  0.00     0.034 A 
BRANCH  54  68
ATOM     68  C   UNL A   1      45.415  40.605  28.395  1.00  0.00     0.023 A 
ATOM     69  C   UNL A   1      45.253  41.230  29.644  1.00  0.00     0.031 A 
ATOM     70  C   UNL A   1      45.217  41.383  27.240  1.00  0.00     0.131 A 
ATOM     71  C   UNL A   1      44.832  42.567  29.708  1.00  0.00     0.055 A 
ATOM     72  C   UNL A   1      44.883  42.736  27.311  1.00  0.00     0.041 A 
ATOM     73  F   UNL A   1      45.330  40.835  26.020  1.00  0.00    -0.206 F 
ATOM     74  C   UNL A   1      44.674  43.333  28.550  1.00  0.00     0.022 A 
BRANCH  71  75
ATOM     75  S   UNL A   1      44.346  43.245  31.319  1.00  0.00     0.124 S 
ATOM     76  O   UNL A   1      45.636  43.654  31.868  1.00  0.00    -0.237 OA
ATOM     77  O   UNL A   1      43.439  44.325  30.947  1.00  0.00    -0.237 OA
ATOM     78  O   UNL A   1      43.722  42.109  31.993  1.00  0.00    -0.744 OA
ENDBRANCH  71  75
ENDBRANCH  54  68
BRANCH  55  79
ATOM     79  C   UNL A   1      47.151  30.765  27.588  1.00  0.00     0.023 A 
ATOM     80  C   UNL A   1      46.761  30.101  26.414  1.00  0.00     0.031 A 
ATOM     81  C   UNL A   1      47.724  29.995  28.618  1.00  0.00     0.131 A 
ATOM     82  C   UNL A   1      46.904  28.708  26.316  1.00  0.00     0.055 A 
ATOM     83  C   UNL A   1      47.921  28.620  28.491  1.00  0.00     0.041 A 
ATOM     84  F   UNL A   1      48.107  30.575  29.766  1.00  0.00    -0.206 F 
ATOM     85  C   UNL A   1      47.496  27.965  27.340  1.00  0.00     0.022 A 
BRANCH  82  86
ATOM     86  S   UNL A   1      46.211  27.863  24.868  1.00  0.00     0.124 S 
ATOM     87  O   UNL A   1      46.766  28.649  23.772  1.00  0.00    -0.237 OA
ATOM     88  O   UNL A   1      46.742  26.512  25.023  1.00  0.00    -0.237 OA
ATOM     89  O   UNL A   1      44.768  27.989  25.060  1.00  0.00    -0.744 OA
ENDBRANCH  82  86
ENDBRANCH  55  79
BRANCH  67  90
ATOM     90  C   UNL A   1      50.839  36.470  25.954  1.00  0.00     0.023 A 
ATOM     91  C   UNL A   1      51.990  36.539  26.758  1.00  0.00     0.031 A 
ATOM     92  C   UNL A   1      51.002  36.567  24.560  1.00  0.00     0.131 A 
ATOM     93  C   UNL A   1      53.245  36.749  26.165  1.00  0.00     0.055 A 
ATOM     94  C   UNL A   1      52.260  36.709  23.972  1.00  0.00     0.041 A 
ATOM     95  F   UNL A   1      49.938  36.512  23.742  1.00  0.00    -0.206 F 
ATOM     96  C   UNL A   1      53.389  36.812  24.777  1.00  0.00     0.022 A 
BRANCH  93  97
ATOM     97  S   UNL A   1      54.682  37.027  27.237  1.00  0.00     0.124 S 
ATOM     98  O   UNL A   1      55.460  35.811  27.024  1.00  0.00    -0.237 OA
ATOM     99  O   UNL A   1      55.251  38.253  26.687  1.00  0.00    -0.237 OA
ATOM    100  O   UNL A   1      54.095  37.162  28.570  1.00  0.00    -0.744 OA
ENDBRANCH  93  97
ENDBRANCH  67  90
ENDBRANCH  41  42
ENDBRANCH  34  36
ENDBRANCH  33  34
ENDBRANCH  32  33
ENDBRANCH  31  32
ENDBRANCH  30  31
ENDBRANCH  29  30
ENDBRANCH   1  29
TORSDOF 24
ENDMDL
