MODEL 1
REMARK VINA RESULT:      -7.4      0.000      0.000
REMARK SMILES CCNC(=O)c1ccc(SC[C@H](C)C(=O)OCCOCCOCCOCCOC(=O)c2ccc(-c3c4nc(c(-c5cc(S(=O)(=O)[O-])ccc5F)c5ccc([nH]5)c(-c5cc(S(=O)(=O)[O-])ccc5F)c5nc(c(-c6cc(S(=O)(=O)[O-])ccc6F)c6ccc3[nH]6)C=C5)C=C4)cc2)nn1
REMARK SMILES IDX 21 1 20 2 19 3 18 4 17 5 16 6 14 7 15 8 12 9 13 10 11 11
REMARK SMILES IDX 10 12 9 13 6 14 7 15 95 16 8 17 94 18 4 19 3 20 5 22 2 23
REMARK SMILES IDX 1 24 22 25 23 26 24 27 25 28 26 29 27 30 28 31 29 32 30 33
REMARK SMILES IDX 31 34 32 35 93 36 33 37 92 38 34 39 35 40 36 41 86 42 37 43
REMARK SMILES IDX 91 44 85 45 87 46 38 47 90 48 84 49 83 50 39 52 71 53 51 54
REMARK SMILES IDX 70 55 52 56 55 57 69 58 88 59 53 60 54 61 68 63 89 64 56 65
REMARK SMILES IDX 40 66 41 67 49 68 42 69 48 70 50 71 47 72 43 73 44 74 45 75
REMARK SMILES IDX 46 76 72 77 73 78 81 79 74 80 80 81 82 82 79 83 75 84 76 85
REMARK SMILES IDX 77 86 78 87 57 88 58 89 66 90 59 91 65 92 67 93 64 94 60 95
REMARK SMILES IDX 61 96 62 97 63 98
REMARK H PARENT 3 21 87 51 55 62
REMARK Flexibility Score: inf
ROOT
ATOM      1  C   UNL A   1      38.796  21.555  25.657  1.00  0.00     0.188 C 
ENDROOT
BRANCH   1   2
ATOM      2  C   UNL A   1      37.567  20.828  25.093  1.00  0.00     0.188 C 
BRANCH   2   3
ATOM      3  O   UNL A   1      36.297  21.035  25.688  1.00  0.00    -0.376 OA
BRANCH   3   4
ATOM      4  C   UNL A   1      35.810  22.360  25.870  1.00  0.00     0.202 C 
BRANCH   4   5
ATOM      5  C   UNL A   1      34.309  22.663  25.913  1.00  0.00     0.261 C 
BRANCH   5   6
ATOM      6  O   UNL A   1      33.906  23.662  26.872  1.00  0.00    -0.463 OA
BRANCH   6   7
ATOM      7  C   UNL A   1      32.771  24.346  26.587  1.00  0.00     0.309 C 
ATOM      8  O   UNL A   1      31.723  24.244  27.217  1.00  0.00    -0.252 OA
BRANCH   7   9
ATOM      9  C   UNL A   1      32.879  25.240  25.362  1.00  0.00     0.106 C 
ATOM     10  C   UNL A   1      31.647  25.323  24.463  1.00  0.00     0.021 C 
BRANCH   9  11
ATOM     11  C   UNL A   1      33.428  26.650  25.623  1.00  0.00     0.091 C 
BRANCH  11  12
ATOM     12  S   UNL A   1      32.317  28.088  25.709  1.00  0.00    -0.104 SA
BRANCH  12  13
ATOM     13  C   UNL A   1      33.229  29.326  26.598  1.00  0.00     0.119 A 
ATOM     14  C   UNL A   1      34.921  31.021  27.937  1.00  0.00     0.150 A 
ATOM     15  C   UNL A   1      33.602  31.407  27.758  1.00  0.00     0.039 A 
ATOM     16  N   UNL A   1      35.377  29.837  27.479  1.00  0.00    -0.144 NA
ATOM     17  C   UNL A   1      32.741  30.540  27.067  1.00  0.00     0.040 A 
ATOM     18  N   UNL A   1      34.520  28.989  26.816  1.00  0.00    -0.143 NA
BRANCH  14  19
ATOM     19  C   UNL A   1      35.945  31.903  28.547  1.00  0.00     0.271 C 
ATOM     20  N   UNL A   1      36.371  31.715  29.841  1.00  0.00    -0.351 N 
ATOM     21  H   UNL A   1      36.974  32.409  30.191  1.00  0.00     0.163 HD
ATOM     22  O   UNL A   1      36.433  32.814  27.885  1.00  0.00    -0.267 OA
BRANCH  20  23
ATOM     23  C   UNL A   1      36.060  30.646  30.762  1.00  0.00     0.113 C 
ATOM     24  C   UNL A   1      36.981  29.453  30.562  1.00  0.00     0.027 C 
ENDBRANCH  20  23
ENDBRANCH  14  19
ENDBRANCH  12  13
ENDBRANCH  11  12
ENDBRANCH   9  11
ENDBRANCH   7   9
ENDBRANCH   6   7
ENDBRANCH   5   6
ENDBRANCH   4   5
ENDBRANCH   3   4
ENDBRANCH   2   3
ENDBRANCH   1   2
BRANCH   1  25
ATOM     25  O   UNL A   1      39.565  20.786  26.563  1.00  0.00    -0.377 OA
BRANCH  25  26
ATOM     26  C   UNL A   1      40.855  20.350  26.140  1.00  0.00     0.188 C 
BRANCH  26  27
ATOM     27  C   UNL A   1      42.090  21.231  26.421  1.00  0.00     0.188 C 
BRANCH  27  28
ATOM     28  O   UNL A   1      42.258  22.302  25.507  1.00  0.00    -0.376 OA
BRANCH  28  29
ATOM     29  C   UNL A   1      42.771  23.531  25.999  1.00  0.00     0.202 C 
BRANCH  29  30
ATOM     30  C   UNL A   1      43.127  24.605  24.959  1.00  0.00     0.261 C 
BRANCH  30  31
ATOM     31  O   UNL A   1      42.274  25.760  24.922  1.00  0.00    -0.460 OA
BRANCH  31  32
ATOM     32  C   UNL A   1      41.259  25.822  25.816  1.00  0.00     0.338 C 
ATOM     33  O   UNL A   1      40.377  25.008  25.980  1.00  0.00    -0.246 OA
BRANCH  32  34
ATOM     34  C   UNL A   1      41.520  26.981  26.694  1.00  0.00     0.060 A 
ATOM     35  C   UNL A   1      41.118  28.260  26.287  1.00  0.00     0.016 A 
ATOM     36  C   UNL A   1      42.182  26.797  27.909  1.00  0.00     0.016 A 
ATOM     37  C   UNL A   1      41.409  29.369  27.085  1.00  0.00     0.010 A 
ATOM     38  C   UNL A   1      42.488  27.908  28.695  1.00  0.00     0.010 A 
ATOM     39  C   UNL A   1      42.130  29.202  28.274  1.00  0.00    -0.014 A 
BRANCH  39  40
ATOM     40  C   UNL A   1      42.711  30.369  28.987  1.00  0.00     0.031 A 
ATOM     41  C   UNL A   1      41.925  30.962  30.125  1.00  0.00     0.074 A 
ATOM     42  C   UNL A   1      43.879  30.919  28.611  1.00  0.00     0.049 A 
ATOM     43  N   UNL A   1      42.125  32.071  30.784  1.00  0.00    -0.248 NA
ATOM     44  C   UNL A   1      40.748  30.198  30.563  1.00  0.00     0.031 C 
ATOM     45  C   UNL A   1      44.766  30.398  27.572  1.00  0.00     0.029 A 
ATOM     46  N   UNL A   1      44.508  32.057  29.052  1.00  0.00    -0.354 N 
ATOM     47  C   UNL A   1      41.092  32.148  31.713  1.00  0.00     0.074 A 
ATOM     48  C   UNL A   1      40.253  30.987  31.504  1.00  0.00     0.031 C 
ATOM     49  C   UNL A   1      45.814  31.231  27.440  1.00  0.00     0.029 A 
ATOM     50  C   UNL A   1      45.644  32.370  28.342  1.00  0.00     0.049 A 
ATOM     51  H   UNL A   1      44.177  32.598  29.805  1.00  0.00     0.167 HD
ATOM     52  C   UNL A   1      40.865  33.098  32.651  1.00  0.00     0.034 A 
ATOM     53  C   UNL A   1      46.426  33.470  28.386  1.00  0.00     0.034 A 
ATOM     54  C   UNL A   1      41.698  34.261  32.831  1.00  0.00     0.049 A 
ATOM     55  C   UNL A   1      46.085  34.582  29.357  1.00  0.00     0.074 A 
ATOM     56  C   UNL A   1      41.561  35.282  33.755  1.00  0.00     0.029 A 
ATOM     57  N   UNL A   1      42.812  34.568  32.062  1.00  0.00    -0.354 N 
ATOM     58  N   UNL A   1      45.100  34.652  30.225  1.00  0.00    -0.248 NA
ATOM     59  C   UNL A   1      46.958  35.764  29.352  1.00  0.00     0.031 C 
ATOM     60  C   UNL A   1      42.538  36.247  33.488  1.00  0.00     0.029 A 
ATOM     61  C   UNL A   1      43.346  35.783  32.463  1.00  0.00     0.049 A 
ATOM     62  H   UNL A   1      43.170  34.007  31.338  1.00  0.00     0.167 HD
ATOM     63  C   UNL A   1      45.267  35.862  30.897  1.00  0.00     0.074 A 
ATOM     64  C   UNL A   1      46.444  36.490  30.335  1.00  0.00     0.031 C 
ATOM     65  C   UNL A   1      44.522  36.401  31.896  1.00  0.00     0.034 A 
BRANCH  52  66
ATOM     66  C   UNL A   1      39.632  32.946  33.507  1.00  0.00     0.023 A 
ATOM     67  C   UNL A   1      38.356  33.301  33.039  1.00  0.00     0.031 A 
ATOM     68  C   UNL A   1      39.740  32.467  34.826  1.00  0.00     0.131 A 
ATOM     69  C   UNL A   1      37.253  33.244  33.902  1.00  0.00     0.055 A 
ATOM     70  C   UNL A   1      38.623  32.328  35.652  1.00  0.00     0.041 A 
ATOM     71  F   UNL A   1      40.935  32.140  35.339  1.00  0.00    -0.206 F 
ATOM     72  C   UNL A   1      37.371  32.733  35.197  1.00  0.00     0.022 A 
BRANCH  69  73
ATOM     73  S   UNL A   1      35.693  33.994  33.362  1.00  0.00     0.124 S 
ATOM     74  O   UNL A   1      34.715  33.218  34.120  1.00  0.00    -0.237 OA
ATOM     75  O   UNL A   1      35.855  35.386  33.766  1.00  0.00    -0.237 OA
ATOM     76  O   UNL A   1      35.681  33.759  31.920  1.00  0.00    -0.744 OA
ENDBRANCH  69  73
ENDBRANCH  52  66
BRANCH  53  77
ATOM     77  C   UNL A   1      47.579  33.620  27.449  1.00  0.00     0.023 A 
ATOM     78  C   UNL A   1      48.823  33.032  27.728  1.00  0.00     0.031 A 
ATOM     79  C   UNL A   1      47.477  34.424  26.298  1.00  0.00     0.131 A 
ATOM     80  C   UNL A   1      49.925  33.299  26.902  1.00  0.00     0.055 A 
ATOM     81  C   UNL A   1      48.561  34.633  25.443  1.00  0.00     0.041 A 
ATOM     82  F   UNL A   1      46.315  35.020  25.986  1.00  0.00    -0.206 F 
ATOM     83  C   UNL A   1      49.799  34.080  25.752  1.00  0.00     0.022 A 
BRANCH  80  84
ATOM     84  S   UNL A   1      51.561  32.708  27.421  1.00  0.00     0.124 S 
ATOM     85  O   UNL A   1      51.900  31.795  26.335  1.00  0.00    -0.237 OA
ATOM     86  O   UNL A   1      52.328  33.948  27.480  1.00  0.00    -0.237 OA
ATOM     87  O   UNL A   1      51.298  32.074  28.711  1.00  0.00    -0.744 OA
ENDBRANCH  80  84
ENDBRANCH  53  77
BRANCH  65  88
ATOM     88  C   UNL A   1      44.992  37.705  32.499  1.00  0.00     0.023 A 
ATOM     89  C   UNL A   1      45.914  37.753  33.559  1.00  0.00     0.031 A 
ATOM     90  C   UNL A   1      44.524  38.926  31.977  1.00  0.00     0.131 A 
ATOM     91  C   UNL A   1      46.309  38.993  34.088  1.00  0.00     0.055 A 
ATOM     92  C   UNL A   1      44.966  40.156  32.466  1.00  0.00     0.041 A 
ATOM     93  F   UNL A   1      43.640  38.943  30.966  1.00  0.00    -0.206 F 
ATOM     94  C   UNL A   1      45.856  40.194  33.535  1.00  0.00     0.022 A 
BRANCH  91  95
ATOM     95  S   UNL A   1      47.369  39.020  35.560  1.00  0.00     0.124 S 
ATOM     96  O   UNL A   1      47.000  40.291  36.175  1.00  0.00    -0.237 OA
ATOM     97  O   UNL A   1      46.944  37.820  36.273  1.00  0.00    -0.237 OA
ATOM     98  O   UNL A   1      48.722  38.966  35.010  1.00  0.00    -0.744 OA
ENDBRANCH  91  95
ENDBRANCH  65  88
ENDBRANCH  39  40
ENDBRANCH  32  34
ENDBRANCH  31  32
ENDBRANCH  30  31
ENDBRANCH  29  30
ENDBRANCH  28  29
ENDBRANCH  27  28
ENDBRANCH  26  27
ENDBRANCH  25  26
ENDBRANCH   1  25
TORSDOF 28
ENDMDL
MODEL 2
REMARK VINA RESULT:      -7.4      5.104     10.728
REMARK SMILES CCNC(=O)c1ccc(SC[C@H](C)C(=O)OCCOCCOCCOCCOC(=O)c2ccc(-c3c4nc(c(-c5cc(S(=O)(=O)[O-])ccc5F)c5ccc([nH]5)c(-c5cc(S(=O)(=O)[O-])ccc5F)c5nc(c(-c6cc(S(=O)(=O)[O-])ccc6F)c6ccc3[nH]6)C=C5)C=C4)cc2)nn1
REMARK SMILES IDX 21 1 20 2 19 3 18 4 17 5 16 6 14 7 15 8 12 9 13 10 11 11
REMARK SMILES IDX 10 12 9 13 6 14 7 15 95 16 8 17 94 18 4 19 3 20 5 22 2 23
REMARK SMILES IDX 1 24 22 25 23 26 24 27 25 28 26 29 27 30 28 31 29 32 30 33
REMARK SMILES IDX 31 34 32 35 93 36 33 37 92 38 34 39 35 40 36 41 86 42 37 43
REMARK SMILES IDX 91 44 85 45 87 46 38 47 90 48 84 49 83 50 39 52 71 53 51 54
REMARK SMILES IDX 70 55 52 56 55 57 69 58 88 59 53 60 54 61 68 63 89 64 56 65
REMARK SMILES IDX 40 66 41 67 49 68 42 69 48 70 50 71 47 72 43 73 44 74 45 75
REMARK SMILES IDX 46 76 72 77 73 78 81 79 74 80 80 81 82 82 79 83 75 84 76 85
REMARK SMILES IDX 77 86 78 87 57 88 58 89 66 90 59 91 65 92 67 93 64 94 60 95
REMARK SMILES IDX 61 96 62 97 63 98
REMARK H PARENT 3 21 87 51 55 62
REMARK Flexibility Score: inf
ROOT
ATOM      1  C   UNL A   1      32.990  36.077  30.348  1.00  0.00     0.188 C 
ENDROOT
BRANCH   1   2
ATOM      2  C   UNL A   1      33.818  35.123  29.477  1.00  0.00     0.188 C 
BRANCH   2   3
ATOM      3  O   UNL A   1      33.454  33.754  29.397  1.00  0.00    -0.376 OA
BRANCH   3   4
ATOM      4  C   UNL A   1      34.461  32.767  29.207  1.00  0.00     0.202 C 
BRANCH   4   5
ATOM      5  C   UNL A   1      34.598  32.008  27.883  1.00  0.00     0.261 C 
BRANCH   5   6
ATOM      6  O   UNL A   1      33.885  30.757  27.811  1.00  0.00    -0.463 OA
BRANCH   6   7
ATOM      7  C   UNL A   1      32.861  30.698  26.924  1.00  0.00     0.309 C 
ATOM      8  O   UNL A   1      31.943  31.509  26.868  1.00  0.00    -0.252 OA
BRANCH   7   9
ATOM      9  C   UNL A   1      32.909  29.487  26.005  1.00  0.00     0.106 C 
ATOM     10  C   UNL A   1      33.400  28.178  26.621  1.00  0.00     0.021 C 
BRANCH   9  11
ATOM     11  C   UNL A   1      31.636  29.230  25.187  1.00  0.00     0.091 C 
BRANCH  11  12
ATOM     12  S   UNL A   1      31.702  29.061  23.377  1.00  0.00    -0.104 SA
BRANCH  12  13
ATOM     13  C   UNL A   1      32.015  27.338  23.084  1.00  0.00     0.119 A 
ATOM     14  C   UNL A   1      32.835  24.773  22.559  1.00  0.00     0.150 A 
ATOM     15  C   UNL A   1      31.518  24.983  22.934  1.00  0.00     0.039 A 
ATOM     16  N   UNL A   1      33.706  25.796  22.438  1.00  0.00    -0.144 NA
ATOM     17  C   UNL A   1      31.103  26.295  23.209  1.00  0.00     0.040 A 
ATOM     18  N   UNL A   1      33.284  27.080  22.696  1.00  0.00    -0.143 NA
BRANCH  14  19
ATOM     19  C   UNL A   1      33.412  23.421  22.358  1.00  0.00     0.271 C 
ATOM     20  N   UNL A   1      34.164  22.812  23.336  1.00  0.00    -0.351 N 
ATOM     21  H   UNL A   1      34.588  21.964  23.073  1.00  0.00     0.163 HD
ATOM     22  O   UNL A   1      33.208  22.826  21.304  1.00  0.00    -0.267 OA
BRANCH  20  23
ATOM     23  C   UNL A   1      34.421  23.237  24.692  1.00  0.00     0.113 C 
ATOM     24  C   UNL A   1      35.790  23.883  24.823  1.00  0.00     0.027 C 
ENDBRANCH  20  23
ENDBRANCH  14  19
ENDBRANCH  12  13
ENDBRANCH  11  12
ENDBRANCH   9  11
ENDBRANCH   7   9
ENDBRANCH   6   7
ENDBRANCH   5   6
ENDBRANCH   4   5
ENDBRANCH   3   4
ENDBRANCH   2   3
ENDBRANCH   1   2
BRANCH   1  25
ATOM     25  O   UNL A   1      33.754  37.034  31.057  1.00  0.00    -0.377 OA
BRANCH  25  26
ATOM     26  C   UNL A   1      33.390  37.310  32.408  1.00  0.00     0.188 C 
BRANCH  26  27
ATOM     27  C   UNL A   1      33.998  36.469  33.551  1.00  0.00     0.188 C 
BRANCH  27  28
ATOM     28  O   UNL A   1      35.181  35.774  33.193  1.00  0.00    -0.376 OA
BRANCH  28  29
ATOM     29  C   UNL A   1      35.276  34.397  33.522  1.00  0.00     0.202 C 
BRANCH  29  30
ATOM     30  C   UNL A   1      36.141  34.028  34.737  1.00  0.00     0.261 C 
BRANCH  30  31
ATOM     31  O   UNL A   1      36.674  32.694  34.756  1.00  0.00    -0.460 OA
BRANCH  31  32
ATOM     32  C   UNL A   1      36.764  32.036  33.576  1.00  0.00     0.338 C 
ATOM     33  O   UNL A   1      35.909  31.942  32.723  1.00  0.00    -0.246 OA
BRANCH  32  34
ATOM     34  C   UNL A   1      38.166  31.597  33.426  1.00  0.00     0.060 A 
ATOM     35  C   UNL A   1      39.192  32.352  34.011  1.00  0.00     0.016 A 
ATOM     36  C   UNL A   1      38.460  30.449  32.689  1.00  0.00     0.016 A 
ATOM     37  C   UNL A   1      40.525  31.975  33.829  1.00  0.00     0.010 A 
ATOM     38  C   UNL A   1      39.792  30.085  32.492  1.00  0.00     0.010 A 
ATOM     39  C   UNL A   1      40.833  30.862  33.035  1.00  0.00    -0.014 A 
BRANCH  39  40
ATOM     40  C   UNL A   1      42.223  30.609  32.578  1.00  0.00     0.031 A 
ATOM     41  C   UNL A   1      42.705  31.338  31.353  1.00  0.00     0.074 A 
ATOM     42  C   UNL A   1      43.024  29.725  33.199  1.00  0.00     0.049 A 
ATOM     43  N   UNL A   1      43.797  31.166  30.659  1.00  0.00    -0.248 NA
ATOM     44  C   UNL A   1      41.821  32.397  30.842  1.00  0.00     0.031 C 
ATOM     45  C   UNL A   1      42.700  29.009  34.431  1.00  0.00     0.029 A 
ATOM     46  N   UNL A   1      44.272  29.266  32.859  1.00  0.00    -0.354 N 
ATOM     47  C   UNL A   1      43.731  32.088  29.619  1.00  0.00     0.074 A 
ATOM     48  C   UNL A   1      42.474  32.791  29.761  1.00  0.00     0.031 C 
ATOM     49  C   UNL A   1      43.717  28.179  34.730  1.00  0.00     0.029 A 
ATOM     50  C   UNL A   1      44.736  28.266  33.683  1.00  0.00     0.049 A 
ATOM     51  H   UNL A   1      44.788  29.619  32.098  1.00  0.00     0.167 HD
ATOM     52  C   UNL A   1      44.636  32.325  28.638  1.00  0.00     0.034 A 
ATOM     53  C   UNL A   1      45.830  27.482  33.575  1.00  0.00     0.034 A 
ATOM     54  C   UNL A   1      45.873  31.599  28.497  1.00  0.00     0.049 A 
ATOM     55  C   UNL A   1      46.767  27.678  32.401  1.00  0.00     0.074 A 
ATOM     56  C   UNL A   1      46.862  31.763  27.543  1.00  0.00     0.029 A 
ATOM     57  N   UNL A   1      46.285  30.561  29.322  1.00  0.00    -0.354 N 
ATOM     58  N   UNL A   1      46.692  28.545  31.416  1.00  0.00    -0.248 NA
ATOM     59  C   UNL A   1      47.934  26.787  32.322  1.00  0.00     0.031 C 
ATOM     60  C   UNL A   1      47.827  30.770  27.739  1.00  0.00     0.029 A 
ATOM     61  C   UNL A   1      47.492  30.048  28.873  1.00  0.00     0.049 A 
ATOM     62  H   UNL A   1      45.792  30.237  30.110  1.00  0.00     0.167 HD
ATOM     63  C   UNL A   1      47.825  28.331  30.632  1.00  0.00     0.074 A 
ATOM     64  C   UNL A   1      48.565  27.255  31.255  1.00  0.00     0.031 C 
ATOM     65  C   UNL A   1      48.224  28.974  29.504  1.00  0.00     0.034 A 
BRANCH  52  66
ATOM     66  C   UNL A   1      44.282  33.368  27.608  1.00  0.00     0.023 A 
ATOM     67  C   UNL A   1      44.309  34.742  27.904  1.00  0.00     0.031 A 
ATOM     68  C   UNL A   1      43.880  32.981  26.316  1.00  0.00     0.131 A 
ATOM     69  C   UNL A   1      43.871  35.671  26.950  1.00  0.00     0.055 A 
ATOM     70  C   UNL A   1      43.530  33.918  25.342  1.00  0.00     0.041 A 
ATOM     71  F   UNL A   1      43.807  31.683  25.983  1.00  0.00    -0.206 F 
ATOM     72  C   UNL A   1      43.509  35.272  25.661  1.00  0.00     0.022 A 
BRANCH  69  73
ATOM     73  S   UNL A   1      43.630  37.392  27.468  1.00  0.00     0.124 S 
ATOM     74  O   UNL A   1      43.275  37.229  28.876  1.00  0.00    -0.237 OA
ATOM     75  O   UNL A   1      44.935  37.987  27.204  1.00  0.00    -0.237 OA
ATOM     76  O   UNL A   1      42.544  37.860  26.610  1.00  0.00    -0.744 OA
ENDBRANCH  69  73
ENDBRANCH  52  66
BRANCH  53  77
ATOM     77  C   UNL A   1      46.086  26.395  34.566  1.00  0.00     0.023 A 
ATOM     78  C   UNL A   1      45.598  25.095  34.359  1.00  0.00     0.031 A 
ATOM     79  C   UNL A   1      46.753  26.660  35.776  1.00  0.00     0.131 A 
ATOM     80  C   UNL A   1      45.735  24.127  35.366  1.00  0.00     0.055 A 
ATOM     81  C   UNL A   1      46.945  25.675  36.747  1.00  0.00     0.041 A 
ATOM     82  F   UNL A   1      47.233  27.888  36.033  1.00  0.00    -0.206 F 
ATOM     83  C   UNL A   1      46.421  24.402  36.550  1.00  0.00     0.022 A 
BRANCH  80  84
ATOM     84  S   UNL A   1      44.895  22.532  35.156  1.00  0.00     0.124 S 
ATOM     85  O   UNL A   1      45.373  22.121  33.840  1.00  0.00    -0.237 OA
ATOM     86  O   UNL A   1      45.402  21.768  36.290  1.00  0.00    -0.237 OA
ATOM     87  O   UNL A   1      43.478  22.884  35.223  1.00  0.00    -0.744 OA
ENDBRANCH  80  84
ENDBRANCH  53  77
BRANCH  65  88
ATOM     88  C   UNL A   1      49.555  28.582  28.904  1.00  0.00     0.023 A 
ATOM     89  C   UNL A   1      49.660  27.655  27.852  1.00  0.00     0.031 A 
ATOM     90  C   UNL A   1      50.739  29.174  29.381  1.00  0.00     0.131 A 
ATOM     91  C   UNL A   1      50.924  27.320  27.339  1.00  0.00     0.055 A 
ATOM     92  C   UNL A   1      51.986  28.884  28.826  1.00  0.00     0.041 A 
ATOM     93  F   UNL A   1      50.700  30.065  30.386  1.00  0.00    -0.206 F 
ATOM     94  C   UNL A   1      52.084  27.943  27.805  1.00  0.00     0.022 A 
BRANCH  91  95
ATOM     95  S   UNL A   1      51.044  26.002  26.098  1.00  0.00     0.124 S 
ATOM     96  O   UNL A   1      51.373  24.841  26.920  1.00  0.00    -0.237 OA
ATOM     97  O   UNL A   1      49.711  26.006  25.507  1.00  0.00    -0.237 OA
ATOM     98  O   UNL A   1      52.114  26.459  25.214  1.00  0.00    -0.744 OA
ENDBRANCH  91  95
ENDBRANCH  65  88
ENDBRANCH  39  40
ENDBRANCH  32  34
ENDBRANCH  31  32
ENDBRANCH  30  31
ENDBRANCH  29  30
ENDBRANCH  28  29
ENDBRANCH  27  28
ENDBRANCH  26  27
ENDBRANCH  25  26
ENDBRANCH   1  25
TORSDOF 28
ENDMDL
MODEL 3
REMARK VINA RESULT:      -7.1      7.726     11.994
REMARK SMILES CCNC(=O)c1ccc(SC[C@H](C)C(=O)OCCOCCOCCOCCOC(=O)c2ccc(-c3c4nc(c(-c5cc(S(=O)(=O)[O-])ccc5F)c5ccc([nH]5)c(-c5cc(S(=O)(=O)[O-])ccc5F)c5nc(c(-c6cc(S(=O)(=O)[O-])ccc6F)c6ccc3[nH]6)C=C5)C=C4)cc2)nn1
REMARK SMILES IDX 21 1 20 2 19 3 18 4 17 5 16 6 14 7 15 8 12 9 13 10 11 11
REMARK SMILES IDX 10 12 9 13 6 14 7 15 95 16 8 17 94 18 4 19 3 20 5 22 2 23
REMARK SMILES IDX 1 24 22 25 23 26 24 27 25 28 26 29 27 30 28 31 29 32 30 33
REMARK SMILES IDX 31 34 32 35 93 36 33 37 92 38 34 39 35 40 36 41 86 42 37 43
REMARK SMILES IDX 91 44 85 45 87 46 38 47 90 48 84 49 83 50 39 52 71 53 51 54
REMARK SMILES IDX 70 55 52 56 55 57 69 58 88 59 53 60 54 61 68 63 89 64 56 65
REMARK SMILES IDX 40 66 41 67 49 68 42 69 48 70 50 71 47 72 43 73 44 74 45 75
REMARK SMILES IDX 46 76 72 77 73 78 81 79 74 80 80 81 82 82 79 83 75 84 76 85
REMARK SMILES IDX 77 86 78 87 57 88 58 89 66 90 59 91 65 92 67 93 64 94 60 95
REMARK SMILES IDX 61 96 62 97 63 98
REMARK H PARENT 3 21 87 51 55 62
REMARK Flexibility Score: inf
ROOT
ATOM      1  C   UNL A   1      36.461  21.640  24.625  1.00  0.00     0.188 C 
ENDROOT
BRANCH   1   2
ATOM      2  C   UNL A   1      35.760  21.018  25.841  1.00  0.00     0.188 C 
BRANCH   2   3
ATOM      3  O   UNL A   1      34.553  21.588  26.320  1.00  0.00    -0.376 OA
BRANCH   3   4
ATOM      4  C   UNL A   1      33.322  20.902  26.122  1.00  0.00     0.202 C 
BRANCH   4   5
ATOM      5  C   UNL A   1      32.928  20.345  24.750  1.00  0.00     0.261 C 
BRANCH   5   6
ATOM      6  O   UNL A   1      33.329  21.144  23.619  1.00  0.00    -0.463 OA
BRANCH   6   7
ATOM      7  C   UNL A   1      32.330  21.682  22.877  1.00  0.00     0.309 C 
ATOM      8  O   UNL A   1      31.658  21.059  22.062  1.00  0.00    -0.252 OA
BRANCH   7   9
ATOM      9  C   UNL A   1      32.129  23.172  23.100  1.00  0.00     0.106 C 
ATOM     10  C   UNL A   1      30.709  23.632  23.426  1.00  0.00     0.021 C 
BRANCH   9  11
ATOM     11  C   UNL A   1      33.124  23.834  24.064  1.00  0.00     0.091 C 
BRANCH  11  12
ATOM     12  S   UNL A   1      34.279  25.115  23.488  1.00  0.00    -0.104 SA
BRANCH  12  13
ATOM     13  C   UNL A   1      33.399  26.648  23.666  1.00  0.00     0.119 A 
ATOM     14  C   UNL A   1      31.889  28.867  24.232  1.00  0.00     0.150 A 
ATOM     15  C   UNL A   1      32.737  28.905  23.137  1.00  0.00     0.039 A 
ATOM     16  N   UNL A   1      31.787  27.768  25.007  1.00  0.00    -0.144 NA
ATOM     17  C   UNL A   1      33.513  27.771  22.854  1.00  0.00     0.040 A 
ATOM     18  N   UNL A   1      32.542  26.656  24.711  1.00  0.00    -0.143 NA
BRANCH  14  19
ATOM     19  C   UNL A   1      31.111  30.043  24.692  1.00  0.00     0.271 C 
ATOM     20  N   UNL A   1      29.956  30.431  24.053  1.00  0.00    -0.351 N 
ATOM     21  H   UNL A   1      29.567  31.279  24.365  1.00  0.00     0.163 HD
ATOM     22  O   UNL A   1      31.495  30.680  25.669  1.00  0.00    -0.267 OA
BRANCH  20  23
ATOM     23  C   UNL A   1      29.232  29.774  22.990  1.00  0.00     0.113 C 
ATOM     24  C   UNL A   1      29.482  30.443  21.648  1.00  0.00     0.027 C 
ENDBRANCH  20  23
ENDBRANCH  14  19
ENDBRANCH  12  13
ENDBRANCH  11  12
ENDBRANCH   9  11
ENDBRANCH   7   9
ENDBRANCH   6   7
ENDBRANCH   5   6
ENDBRANCH   4   5
ENDBRANCH   3   4
ENDBRANCH   2   3
ENDBRANCH   1   2
BRANCH   1  25
ATOM     25  O   UNL A   1      37.665  22.318  24.928  1.00  0.00    -0.377 OA
BRANCH  25  26
ATOM     26  C   UNL A   1      37.577  23.679  25.344  1.00  0.00     0.188 C 
BRANCH  26  27
ATOM     27  C   UNL A   1      38.364  24.153  26.584  1.00  0.00     0.188 C 
BRANCH  27  28
ATOM     28  O   UNL A   1      39.698  23.674  26.641  1.00  0.00    -0.376 OA
BRANCH  28  29
ATOM     29  C   UNL A   1      40.752  24.624  26.670  1.00  0.00     0.202 C 
BRANCH  29  30
ATOM     30  C   UNL A   1      40.546  25.919  25.869  1.00  0.00     0.261 C 
BRANCH  30  31
ATOM     31  O   UNL A   1      41.341  27.047  26.271  1.00  0.00    -0.460 OA
BRANCH  31  32
ATOM     32  C   UNL A   1      42.589  27.153  25.754  1.00  0.00     0.338 C 
ATOM     33  O   UNL A   1      42.892  27.530  24.644  1.00  0.00    -0.246 OA
BRANCH  32  34
ATOM     34  C   UNL A   1      43.541  26.898  26.855  1.00  0.00     0.060 A 
ATOM     35  C   UNL A   1      43.776  27.897  27.809  1.00  0.00     0.016 A 
ATOM     36  C   UNL A   1      44.211  25.676  26.924  1.00  0.00     0.016 A 
ATOM     37  C   UNL A   1      44.716  27.686  28.821  1.00  0.00     0.010 A 
ATOM     38  C   UNL A   1      45.162  25.474  27.924  1.00  0.00     0.010 A 
ATOM     39  C   UNL A   1      45.441  26.488  28.860  1.00  0.00    -0.014 A 
BRANCH  39  40
ATOM     40  C   UNL A   1      46.640  26.348  29.725  1.00  0.00     0.031 A 
ATOM     41  C   UNL A   1      47.983  26.668  29.127  1.00  0.00     0.074 A 
ATOM     42  C   UNL A   1      46.552  25.905  30.992  1.00  0.00     0.049 A 
ATOM     43  N   UNL A   1      49.178  26.463  29.608  1.00  0.00    -0.248 NA
ATOM     44  C   UNL A   1      47.963  27.295  27.796  1.00  0.00     0.031 C 
ATOM     45  C   UNL A   1      45.308  25.627  31.708  1.00  0.00     0.029 A 
ATOM     46  N   UNL A   1      47.538  25.591  31.895  1.00  0.00    -0.354 N 
ATOM     47  C   UNL A   1      50.060  26.926  28.636  1.00  0.00     0.074 A 
ATOM     48  C   UNL A   1      49.255  27.391  27.527  1.00  0.00     0.031 C 
ATOM     49  C   UNL A   1      45.609  25.159  32.933  1.00  0.00     0.029 A 
ATOM     50  C   UNL A   1      47.062  25.052  33.068  1.00  0.00     0.049 A 
ATOM     51  H   UNL A   1      48.496  25.738  31.719  1.00  0.00     0.167 HD
ATOM     52  C   UNL A   1      51.414  26.959  28.668  1.00  0.00     0.034 A 
ATOM     53  C   UNL A   1      47.724  24.496  34.105  1.00  0.00     0.034 A 
ATOM     54  C   UNL A   1      52.202  26.470  29.771  1.00  0.00     0.049 A 
ATOM     55  C   UNL A   1      49.236  24.429  34.067  1.00  0.00     0.074 A 
ATOM     56  C   UNL A   1      53.579  26.461  29.907  1.00  0.00     0.029 A 
ATOM     57  N   UNL A   1      51.686  25.887  30.921  1.00  0.00    -0.354 N 
ATOM     58  N   UNL A   1      50.062  24.859  33.139  1.00  0.00    -0.248 NA
ATOM     59  C   UNL A   1      49.906  23.797  35.213  1.00  0.00     0.031 C 
ATOM     60  C   UNL A   1      53.897  25.797  31.095  1.00  0.00     0.029 A 
ATOM     61  C   UNL A   1      52.719  25.478  31.751  1.00  0.00     0.049 A 
ATOM     62  H   UNL A   1      50.728  25.780  31.118  1.00  0.00     0.167 HD
ATOM     63  C   UNL A   1      51.345  24.591  33.615  1.00  0.00     0.074 A 
ATOM     64  C   UNL A   1      51.185  23.962  34.909  1.00  0.00     0.031 C 
ATOM     65  C   UNL A   1      52.548  24.851  33.041  1.00  0.00     0.034 A 
BRANCH  52  66
ATOM     66  C   UNL A   1      52.122  27.484  27.443  1.00  0.00     0.023 A 
ATOM     67  C   UNL A   1      52.637  26.625  26.458  1.00  0.00     0.031 A 
ATOM     68  C   UNL A   1      52.313  28.868  27.275  1.00  0.00     0.131 A 
ATOM     69  C   UNL A   1      53.380  27.149  25.391  1.00  0.00     0.055 A 
ATOM     70  C   UNL A   1      52.978  29.389  26.163  1.00  0.00     0.041 A 
ATOM     71  F   UNL A   1      51.870  29.736  28.196  1.00  0.00    -0.206 F 
ATOM     72  C   UNL A   1      53.530  28.527  25.220  1.00  0.00     0.022 A 
BRANCH  69  73
ATOM     73  S   UNL A   1      54.281  25.998  24.318  1.00  0.00     0.124 S 
ATOM     74  O   UNL A   1      53.388  24.842  24.311  1.00  0.00    -0.237 OA
ATOM     75  O   UNL A   1      54.374  26.740  23.066  1.00  0.00    -0.237 OA
ATOM     76  O   UNL A   1      55.546  25.794  25.019  1.00  0.00    -0.744 OA
ENDBRANCH  69  73
ENDBRANCH  52  66
BRANCH  53  77
ATOM     77  C   UNL A   1      46.975  23.899  35.250  1.00  0.00     0.023 A 
ATOM     78  C   UNL A   1      46.875  24.568  36.481  1.00  0.00     0.031 A 
ATOM     79  C   UNL A   1      46.416  22.610  35.157  1.00  0.00     0.131 A 
ATOM     80  C   UNL A   1      46.283  23.927  37.580  1.00  0.00     0.055 A 
ATOM     81  C   UNL A   1      45.770  22.004  36.236  1.00  0.00     0.041 A 
ATOM     82  F   UNL A   1      46.490  21.918  34.009  1.00  0.00    -0.206 F 
ATOM     83  C   UNL A   1      45.714  22.659  37.462  1.00  0.00     0.022 A 
BRANCH  80  84
ATOM     84  S   UNL A   1      46.377  24.731  39.205  1.00  0.00     0.124 S 
ATOM     85  O   UNL A   1      47.278  25.844  38.929  1.00  0.00    -0.237 OA
ATOM     86  O   UNL A   1      44.983  25.080  39.453  1.00  0.00    -0.237 OA
ATOM     87  O   UNL A   1      46.922  23.686  40.069  1.00  0.00    -0.744 OA
ENDBRANCH  80  84
ENDBRANCH  53  77
BRANCH  65  88
ATOM     88  C   UNL A   1      53.793  24.522  33.833  1.00  0.00     0.023 A 
ATOM     89  C   UNL A   1      54.407  25.455  34.687  1.00  0.00     0.031 A 
ATOM     90  C   UNL A   1      54.355  23.235  33.749  1.00  0.00     0.131 A 
ATOM     91  C   UNL A   1      55.569  25.098  35.392  1.00  0.00     0.055 A 
ATOM     92  C   UNL A   1      55.473  22.867  34.499  1.00  0.00     0.041 A 
ATOM     93  F   UNL A   1      53.812  22.303  32.949  1.00  0.00    -0.206 F 
ATOM     94  C   UNL A   1      56.093  23.805  35.319  1.00  0.00     0.022 A 
BRANCH  91  95
ATOM     95  S   UNL A   1      56.434  26.369  36.354  1.00  0.00     0.124 S 
ATOM     96  O   UNL A   1      57.430  25.580  37.073  1.00  0.00    -0.237 OA
ATOM     97  O   UNL A   1      56.950  27.252  35.314  1.00  0.00    -0.237 OA
ATOM     98  O   UNL A   1      55.381  26.946  37.188  1.00  0.00    -0.744 OA
ENDBRANCH  91  95
ENDBRANCH  65  88
ENDBRANCH  39  40
ENDBRANCH  32  34
ENDBRANCH  31  32
ENDBRANCH  30  31
ENDBRANCH  29  30
ENDBRANCH  28  29
ENDBRANCH  27  28
ENDBRANCH  26  27
ENDBRANCH  25  26
ENDBRANCH   1  25
TORSDOF 28
ENDMDL
