MODEL 1
REMARK VINA RESULT:      -8.3      0.000      0.000
REMARK SMILES C[C@@H](C(=O)OCCOCCOCCOCCOC(=O)c1ccc(-c2c3nc(c(-c4cc(S(=O)(=O)[O-])ccc4F)c4ccc([nH]4)c(-c4cc(S(=O)(=O)[O-])ccc4F)c4nc(c(-c5cc(S(=O)(=O)[O-])ccc5F)c5ccc2[nH]5)C=C4)C=C3)cc1)c1ccccc1-c1ccn(C(F)F)c(=O)c1
REMARK SMILES IDX 11 1 10 2 9 3 8 4 7 5 6 6 5 7 3 8 4 9 2 10 1 11 83 12 84 13
REMARK SMILES IDX 88 14 85 15 87 16 86 17 89 18 90 19 98 20 91 21 96 22 92 23
REMARK SMILES IDX 97 24 93 25 94 26 95 27 12 28 13 29 14 30 15 31 16 32 17 33
REMARK SMILES IDX 18 34 19 35 20 36 21 37 82 38 22 39 81 40 23 41 24 42 25 43
REMARK SMILES IDX 75 44 26 45 80 46 74 47 76 48 27 49 79 50 73 51 72 52 28 54
REMARK SMILES IDX 60 55 40 56 59 57 41 58 44 59 58 60 77 61 42 62 43 63 57 65
REMARK SMILES IDX 78 66 45 67 29 68 30 69 38 70 31 71 37 72 39 73 36 74 32 75
REMARK SMILES IDX 33 76 34 77 35 78 61 79 62 80 70 81 63 82 69 83 71 84 68 85
REMARK SMILES IDX 64 86 65 87 66 88 67 89 46 90 47 91 55 92 48 93 54 94 56 95
REMARK SMILES IDX 53 96 49 97 50 98 51 99 52 100
REMARK H PARENT 76 53 44 64
REMARK Flexibility Score: inf
ROOT
ATOM      1  O   UNL A   1      41.264  23.187  27.055  1.00  0.00    -0.377 OA
ENDROOT
BRANCH   1   2
ATOM      2  C   UNL A   1      40.837  24.212  27.923  1.00  0.00     0.188 C 
BRANCH   2   3
ATOM      3  C   UNL A   1      40.080  25.369  27.249  1.00  0.00     0.188 C 
BRANCH   3   4
ATOM      4  O   UNL A   1      39.293  26.273  28.005  1.00  0.00    -0.376 OA
BRANCH   4   5
ATOM      5  C   UNL A   1      39.775  26.858  29.204  1.00  0.00     0.202 C 
BRANCH   5   6
ATOM      6  C   UNL A   1      38.883  27.677  30.163  1.00  0.00     0.261 C 
BRANCH   6   7
ATOM      7  O   UNL A   1      38.580  29.042  29.820  1.00  0.00    -0.463 OA
BRANCH   7   8
ATOM      8  C   UNL A   1      37.730  29.669  30.666  1.00  0.00     0.313 C 
ATOM      9  O   UNL A   1      36.720  29.127  31.108  1.00  0.00    -0.252 OA
BRANCH   8  10
ATOM     10  C   UNL A   1      38.125  31.127  31.014  1.00  0.00     0.127 C 
ATOM     11  C   UNL A   1      39.023  31.929  30.064  1.00  0.00     0.025 C 
BRANCH  10  12
ATOM     12  C   UNL A   1      38.561  31.179  32.494  1.00  0.00    -0.026 A 
ATOM     13  C   UNL A   1      39.610  30.369  32.972  1.00  0.00     0.005 A 
ATOM     14  C   UNL A   1      37.805  31.915  33.439  1.00  0.00    -0.014 A 
ATOM     15  C   UNL A   1      39.852  30.232  34.340  1.00  0.00     0.000 A 
ATOM     16  C   UNL A   1      38.055  31.769  34.811  1.00  0.00     0.009 A 
ATOM     17  C   UNL A   1      39.064  30.916  35.259  1.00  0.00     0.001 A 
BRANCH  14  18
ATOM     18  C   UNL A   1      36.796  32.887  32.976  1.00  0.00    -0.011 A 
ATOM     19  C   UNL A   1      37.085  34.283  32.714  1.00  0.00     0.027 A 
ATOM     20  C   UNL A   1      35.519  32.485  33.079  1.00  0.00     0.080 A 
ATOM     21  C   UNL A   1      36.110  35.194  32.809  1.00  0.00     0.095 A 
ATOM     22  C   UNL A   1      34.412  33.474  33.035  1.00  0.00     0.255 A 
ATOM     23  N   UNL A   1      34.799  34.806  33.017  1.00  0.00    -0.258 N 
ATOM     24  O   UNL A   1      33.258  33.061  33.084  1.00  0.00    -0.269 OA
BRANCH  23  25
ATOM     25  C   UNL A   1      33.761  35.790  33.168  1.00  0.00     0.451 C 
ATOM     26  F   UNL A   1      34.051  36.642  34.180  1.00  0.00    -0.185 F 
ATOM     27  F   UNL A   1      33.612  36.520  32.035  1.00  0.00    -0.185 F 
ENDBRANCH  23  25
ENDBRANCH  14  18
ENDBRANCH  10  12
ENDBRANCH   8  10
ENDBRANCH   7   8
ENDBRANCH   6   7
ENDBRANCH   5   6
ENDBRANCH   4   5
ENDBRANCH   3   4
ENDBRANCH   2   3
ENDBRANCH   1   2
BRANCH   1  28
ATOM     28  C   UNL A   1      41.203  21.862  27.553  1.00  0.00     0.188 C 
BRANCH  28  29
ATOM     29  C   UNL A   1      42.159  20.821  26.942  1.00  0.00     0.188 C 
BRANCH  29  30
ATOM     30  O   UNL A   1      42.562  21.113  25.606  1.00  0.00    -0.376 OA
BRANCH  30  31
ATOM     31  C   UNL A   1      43.800  21.776  25.394  1.00  0.00     0.202 C 
BRANCH  31  32
ATOM     32  C   UNL A   1      43.882  22.788  24.237  1.00  0.00     0.261 C 
BRANCH  32  33
ATOM     33  O   UNL A   1      43.921  24.176  24.593  1.00  0.00    -0.460 OA
BRANCH  33  34
ATOM     34  C   UNL A   1      45.111  24.703  24.958  1.00  0.00     0.338 C 
ATOM     35  O   UNL A   1      46.206  24.401  24.512  1.00  0.00    -0.246 OA
BRANCH  34  36
ATOM     36  C   UNL A   1      44.843  25.869  25.827  1.00  0.00     0.060 A 
ATOM     37  C   UNL A   1      45.909  26.703  26.189  1.00  0.00     0.016 A 
ATOM     38  C   UNL A   1      43.545  26.156  26.259  1.00  0.00     0.016 A 
ATOM     39  C   UNL A   1      45.689  27.805  27.014  1.00  0.00     0.010 A 
ATOM     40  C   UNL A   1      43.331  27.245  27.110  1.00  0.00     0.010 A 
ATOM     41  C   UNL A   1      44.407  28.052  27.519  1.00  0.00    -0.014 A 
BRANCH  41  42
ATOM     42  C   UNL A   1      44.238  29.000  28.650  1.00  0.00     0.031 A 
ATOM     43  C   UNL A   1      44.163  28.429  30.040  1.00  0.00     0.074 A 
ATOM     44  C   UNL A   1      44.189  30.330  28.457  1.00  0.00     0.049 A 
ATOM     45  N   UNL A   1      43.962  29.033  31.181  1.00  0.00    -0.248 NA
ATOM     46  C   UNL A   1      44.334  26.971  30.153  1.00  0.00     0.031 C 
ATOM     47  C   UNL A   1      44.317  31.003  27.167  1.00  0.00     0.029 A 
ATOM     48  N   UNL A   1      44.013  31.354  29.356  1.00  0.00    -0.354 N 
ATOM     49  C   UNL A   1      43.972  28.031  32.146  1.00  0.00     0.074 A 
ATOM     50  C   UNL A   1      44.163  26.777  31.450  1.00  0.00     0.031 C 
ATOM     51  C   UNL A   1      44.204  32.331  27.356  1.00  0.00     0.029 A 
ATOM     52  C   UNL A   1      43.952  32.599  28.772  1.00  0.00     0.049 A 
ATOM     53  H   UNL A   1      43.936  31.211  30.327  1.00  0.00     0.167 HD
ATOM     54  C   UNL A   1      43.842  28.148  33.490  1.00  0.00     0.034 A 
ATOM     55  C   UNL A   1      43.693  33.805  29.316  1.00  0.00     0.034 A 
ATOM     56  C   UNL A   1      43.639  29.405  34.165  1.00  0.00     0.049 A 
ATOM     57  C   UNL A   1      43.444  33.899  30.805  1.00  0.00     0.074 A 
ATOM     58  C   UNL A   1      43.504  29.641  35.522  1.00  0.00     0.029 A 
ATOM     59  N   UNL A   1      43.523  30.637  33.535  1.00  0.00    -0.354 N 
ATOM     60  N   UNL A   1      43.459  32.946  31.710  1.00  0.00    -0.248 NA
ATOM     61  C   UNL A   1      43.147  35.232  31.347  1.00  0.00     0.031 C 
ATOM     62  C   UNL A   1      43.220  30.998  35.704  1.00  0.00     0.029 A 
ATOM     63  C   UNL A   1      43.276  31.630  34.471  1.00  0.00     0.049 A 
ATOM     64  H   UNL A   1      43.605  30.785  32.565  1.00  0.00     0.167 HD
ATOM     65  C   UNL A   1      43.213  33.575  32.930  1.00  0.00     0.074 A 
ATOM     66  C   UNL A   1      43.065  34.986  32.646  1.00  0.00     0.031 C 
ATOM     67  C   UNL A   1      43.125  33.035  34.174  1.00  0.00     0.034 A 
BRANCH  54  68
ATOM     68  C   UNL A   1      43.852  26.875  34.302  1.00  0.00     0.023 A 
ATOM     69  C   UNL A   1      45.048  26.243  34.683  1.00  0.00     0.031 A 
ATOM     70  C   UNL A   1      42.639  26.266  34.674  1.00  0.00     0.131 A 
ATOM     71  C   UNL A   1      45.007  25.009  35.348  1.00  0.00     0.055 A 
ATOM     72  C   UNL A   1      42.605  25.082  35.412  1.00  0.00     0.041 A 
ATOM     73  F   UNL A   1      41.465  26.807  34.314  1.00  0.00    -0.206 F 
ATOM     74  C   UNL A   1      43.795  24.437  35.741  1.00  0.00     0.022 A 
BRANCH  71  75
ATOM     75  S   UNL A   1      46.554  24.084  35.556  1.00  0.00     0.124 S 
ATOM     76  O   UNL A   1      46.262  23.286  36.744  1.00  0.00    -0.237 OA
ATOM     77  O   UNL A   1      46.654  23.348  34.301  1.00  0.00    -0.237 OA
ATOM     78  O   UNL A   1      47.556  25.131  35.749  1.00  0.00    -0.744 OA
ENDBRANCH  71  75
ENDBRANCH  54  68
BRANCH  55  79
ATOM     79  C   UNL A   1      43.608  35.025  28.459  1.00  0.00     0.023 A 
ATOM     80  C   UNL A   1      44.763  35.683  28.009  1.00  0.00     0.031 A 
ATOM     81  C   UNL A   1      42.362  35.595  28.136  1.00  0.00     0.131 A 
ATOM     82  C   UNL A   1      44.653  36.896  27.309  1.00  0.00     0.055 A 
ATOM     83  C   UNL A   1      42.256  36.768  27.385  1.00  0.00     0.041 A 
ATOM     84  F   UNL A   1      41.223  35.014  28.545  1.00  0.00    -0.206 F 
ATOM     85  C   UNL A   1      43.407  37.433  26.980  1.00  0.00     0.022 A 
BRANCH  82  86
ATOM     86  S   UNL A   1      46.168  37.816  26.923  1.00  0.00     0.124 S 
ATOM     87  O   UNL A   1      46.717  38.055  28.252  1.00  0.00    -0.237 OA
ATOM     88  O   UNL A   1      46.895  36.866  26.088  1.00  0.00    -0.237 OA
ATOM     89  O   UNL A   1      45.676  39.003  26.226  1.00  0.00    -0.744 OA
ENDBRANCH  82  86
ENDBRANCH  55  79
BRANCH  67  90
ATOM     90  C   UNL A   1      42.914  33.987  35.330  1.00  0.00     0.023 A 
ATOM     91  C   UNL A   1      41.634  34.413  35.722  1.00  0.00     0.031 A 
ATOM     92  C   UNL A   1      44.020  34.474  36.051  1.00  0.00     0.131 A 
ATOM     93  C   UNL A   1      41.495  35.344  36.764  1.00  0.00     0.055 A 
ATOM     94  C   UNL A   1      43.871  35.343  37.132  1.00  0.00     0.041 A 
ATOM     95  F   UNL A   1      45.268  34.105  35.720  1.00  0.00    -0.206 F 
ATOM     96  C   UNL A   1      42.604  35.795  37.485  1.00  0.00     0.022 A 
BRANCH  93  97
ATOM     97  S   UNL A   1      39.853  36.041  37.097  1.00  0.00     0.124 S 
ATOM     98  O   UNL A   1      39.480  36.573  35.791  1.00  0.00    -0.237 OA
ATOM     99  O   UNL A   1      39.104  34.873  37.549  1.00  0.00    -0.237 OA
ATOM    100  O   UNL A   1      40.111  37.047  38.127  1.00  0.00    -0.744 OA
ENDBRANCH  93  97
ENDBRANCH  67  90
ENDBRANCH  41  42
ENDBRANCH  34  36
ENDBRANCH  33  34
ENDBRANCH  32  33
ENDBRANCH  31  32
ENDBRANCH  30  31
ENDBRANCH  29  30
ENDBRANCH  28  29
ENDBRANCH   1  28
TORSDOF 26
ENDMDL
MODEL 2
REMARK VINA RESULT:      -7.9      5.705      8.541
REMARK SMILES C[C@@H](C(=O)OCCOCCOCCOCCOC(=O)c1ccc(-c2c3nc(c(-c4cc(S(=O)(=O)[O-])ccc4F)c4ccc([nH]4)c(-c4cc(S(=O)(=O)[O-])ccc4F)c4nc(c(-c5cc(S(=O)(=O)[O-])ccc5F)c5ccc2[nH]5)C=C4)C=C3)cc1)c1ccccc1-c1ccn(C(F)F)c(=O)c1
REMARK SMILES IDX 11 1 10 2 9 3 8 4 7 5 6 6 5 7 3 8 4 9 2 10 1 11 83 12 84 13
REMARK SMILES IDX 88 14 85 15 87 16 86 17 89 18 90 19 98 20 91 21 96 22 92 23
REMARK SMILES IDX 97 24 93 25 94 26 95 27 12 28 13 29 14 30 15 31 16 32 17 33
REMARK SMILES IDX 18 34 19 35 20 36 21 37 82 38 22 39 81 40 23 41 24 42 25 43
REMARK SMILES IDX 75 44 26 45 80 46 74 47 76 48 27 49 79 50 73 51 72 52 28 54
REMARK SMILES IDX 60 55 40 56 59 57 41 58 44 59 58 60 77 61 42 62 43 63 57 65
REMARK SMILES IDX 78 66 45 67 29 68 30 69 38 70 31 71 37 72 39 73 36 74 32 75
REMARK SMILES IDX 33 76 34 77 35 78 61 79 62 80 70 81 63 82 69 83 71 84 68 85
REMARK SMILES IDX 64 86 65 87 66 88 67 89 46 90 47 91 55 92 48 93 54 94 56 95
REMARK SMILES IDX 53 96 49 97 50 98 51 99 52 100
REMARK H PARENT 76 53 44 64
REMARK Flexibility Score: inf
ROOT
ATOM      1  O   UNL A   1      38.196  22.793  25.556  1.00  0.00    -0.377 OA
ENDROOT
BRANCH   1   2
ATOM      2  C   UNL A   1      38.249  21.386  25.585  1.00  0.00     0.188 C 
BRANCH   2   3
ATOM      3  C   UNL A   1      37.084  20.671  24.878  1.00  0.00     0.188 C 
BRANCH   3   4
ATOM      4  O   UNL A   1      35.782  21.229  24.855  1.00  0.00    -0.376 OA
BRANCH   4   5
ATOM      5  C   UNL A   1      34.988  21.317  26.028  1.00  0.00     0.202 C 
BRANCH   5   6
ATOM      6  C   UNL A   1      34.877  22.600  26.879  1.00  0.00     0.261 C 
BRANCH   6   7
ATOM      7  O   UNL A   1      33.735  23.455  26.684  1.00  0.00    -0.463 OA
BRANCH   7   8
ATOM      8  C   UNL A   1      32.591  23.021  27.260  1.00  0.00     0.313 C 
ATOM      9  O   UNL A   1      32.571  22.480  28.363  1.00  0.00    -0.252 OA
BRANCH   8  10
ATOM     10  C   UNL A   1      31.314  23.245  26.410  1.00  0.00     0.127 C 
ATOM     11  C   UNL A   1      29.940  22.847  26.964  1.00  0.00     0.025 C 
BRANCH  10  12
ATOM     12  C   UNL A   1      31.585  22.748  24.974  1.00  0.00    -0.026 A 
ATOM     13  C   UNL A   1      31.796  21.381  24.704  1.00  0.00     0.005 A 
ATOM     14  C   UNL A   1      31.799  23.673  23.923  1.00  0.00    -0.014 A 
ATOM     15  C   UNL A   1      32.274  20.953  23.465  1.00  0.00     0.000 A 
ATOM     16  C   UNL A   1      32.281  23.233  22.682  1.00  0.00     0.009 A 
ATOM     17  C   UNL A   1      32.534  21.879  22.461  1.00  0.00     0.001 A 
BRANCH  14  18
ATOM     18  C   UNL A   1      31.450  25.095  24.113  1.00  0.00    -0.011 A 
ATOM     19  C   UNL A   1      30.106  25.618  23.975  1.00  0.00     0.027 A 
ATOM     20  C   UNL A   1      32.491  25.943  24.144  1.00  0.00     0.080 A 
ATOM     21  C   UNL A   1      29.922  26.902  23.645  1.00  0.00     0.095 A 
ATOM     22  C   UNL A   1      32.282  27.398  23.928  1.00  0.00     0.255 A 
ATOM     23  N   UNL A   1      30.994  27.772  23.572  1.00  0.00    -0.258 N 
ATOM     24  O   UNL A   1      33.251  28.145  24.012  1.00  0.00    -0.269 OA
BRANCH  23  25
ATOM     25  C   UNL A   1      30.799  29.139  23.169  1.00  0.00     0.451 C 
ATOM     26  F   UNL A   1      30.401  29.206  21.877  1.00  0.00    -0.185 F 
ATOM     27  F   UNL A   1      29.855  29.742  23.933  1.00  0.00    -0.185 F 
ENDBRANCH  23  25
ENDBRANCH  14  18
ENDBRANCH  10  12
ENDBRANCH   8  10
ENDBRANCH   7   8
ENDBRANCH   6   7
ENDBRANCH   5   6
ENDBRANCH   4   5
ENDBRANCH   3   4
ENDBRANCH   2   3
ENDBRANCH   1   2
BRANCH   1  28
ATOM     28  C   UNL A   1      38.962  23.481  26.530  1.00  0.00     0.188 C 
BRANCH  28  29
ATOM     29  C   UNL A   1      39.998  22.669  27.331  1.00  0.00     0.188 C 
BRANCH  29  30
ATOM     30  O   UNL A   1      41.348  22.888  26.929  1.00  0.00    -0.376 OA
BRANCH  30  31
ATOM     31  C   UNL A   1      41.862  22.156  25.826  1.00  0.00     0.202 C 
BRANCH  31  32
ATOM     32  C   UNL A   1      43.334  21.712  25.883  1.00  0.00     0.261 C 
BRANCH  32  33
ATOM     33  O   UNL A   1      44.277  22.502  25.147  1.00  0.00    -0.460 OA
BRANCH  33  34
ATOM     34  C   UNL A   1      45.369  22.957  25.801  1.00  0.00     0.338 C 
ATOM     35  O   UNL A   1      46.490  22.476  25.765  1.00  0.00    -0.246 OA
BRANCH  34  36
ATOM     36  C   UNL A   1      45.030  24.271  26.389  1.00  0.00     0.060 A 
ATOM     37  C   UNL A   1      44.623  25.308  25.539  1.00  0.00     0.016 A 
ATOM     38  C   UNL A   1      45.086  24.472  27.770  1.00  0.00     0.016 A 
ATOM     39  C   UNL A   1      44.306  26.560  26.063  1.00  0.00     0.010 A 
ATOM     40  C   UNL A   1      44.795  25.737  28.292  1.00  0.00     0.010 A 
ATOM     41  C   UNL A   1      44.439  26.795  27.437  1.00  0.00    -0.014 A 
BRANCH  41  42
ATOM     42  C   UNL A   1      44.436  28.191  27.943  1.00  0.00     0.031 A 
ATOM     43  C   UNL A   1      43.141  28.742  28.476  1.00  0.00     0.074 A 
ATOM     44  C   UNL A   1      45.554  28.939  27.964  1.00  0.00     0.049 A 
ATOM     45  N   UNL A   1      42.863  29.940  28.919  1.00  0.00    -0.248 NA
ATOM     46  C   UNL A   1      42.003  27.809  28.508  1.00  0.00     0.031 C 
ATOM     47  C   UNL A   1      46.878  28.493  27.536  1.00  0.00     0.029 A 
ATOM     48  N   UNL A   1      45.748  30.239  28.362  1.00  0.00    -0.354 N 
ATOM     49  C   UNL A   1      41.518  29.908  29.273  1.00  0.00     0.074 A 
ATOM     50  C   UNL A   1      41.030  28.583  28.958  1.00  0.00     0.031 C 
ATOM     51  C   UNL A   1      47.748  29.509  27.685  1.00  0.00     0.029 A 
ATOM     52  C   UNL A   1      47.035  30.688  28.176  1.00  0.00     0.049 A 
ATOM     53  H   UNL A   1      45.033  30.798  28.744  1.00  0.00     0.167 HD
ATOM     54  C   UNL A   1      40.762  30.892  29.817  1.00  0.00     0.034 A 
ATOM     55  C   UNL A   1      47.564  31.916  28.353  1.00  0.00     0.034 A 
ATOM     56  C   UNL A   1      41.263  32.212  30.112  1.00  0.00     0.049 A 
ATOM     57  C   UNL A   1      46.675  33.031  28.861  1.00  0.00     0.074 A 
ATOM     58  C   UNL A   1      40.589  33.283  30.672  1.00  0.00     0.029 A 
ATOM     59  N   UNL A   1      42.556  32.649  29.854  1.00  0.00    -0.354 N 
ATOM     60  N   UNL A   1      45.404  32.991  29.195  1.00  0.00    -0.248 NA
ATOM     61  C   UNL A   1      47.293  34.354  29.018  1.00  0.00     0.031 C 
ATOM     62  C   UNL A   1      41.445  34.388  30.672  1.00  0.00     0.029 A 
ATOM     63  C   UNL A   1      42.687  33.983  30.205  1.00  0.00     0.049 A 
ATOM     64  H   UNL A   1      43.276  32.091  29.478  1.00  0.00     0.167 HD
ATOM     65  C   UNL A   1      45.087  34.273  29.639  1.00  0.00     0.074 A 
ATOM     66  C   UNL A   1      46.299  35.058  29.541  1.00  0.00     0.031 C 
ATOM     67  C   UNL A   1      43.901  34.758  30.096  1.00  0.00     0.034 A 
BRANCH  54  68
ATOM     68  C   UNL A   1      39.303  30.592  30.065  1.00  0.00     0.023 A 
ATOM     69  C   UNL A   1      38.298  30.986  29.164  1.00  0.00     0.031 A 
ATOM     70  C   UNL A   1      38.908  29.928  31.240  1.00  0.00     0.131 A 
ATOM     71  C   UNL A   1      36.949  30.777  29.485  1.00  0.00     0.055 A 
ATOM     72  C   UNL A   1      37.569  29.645  31.513  1.00  0.00     0.041 A 
ATOM     73  F   UNL A   1      39.820  29.554  32.152  1.00  0.00    -0.206 F 
ATOM     74  C   UNL A   1      36.578  30.084  30.639  1.00  0.00     0.022 A 
BRANCH  71  75
ATOM     75  S   UNL A   1      35.680  31.559  28.450  1.00  0.00     0.124 S 
ATOM     76  O   UNL A   1      36.407  32.704  27.908  1.00  0.00    -0.237 OA
ATOM     77  O   UNL A   1      35.352  30.502  27.501  1.00  0.00    -0.237 OA
ATOM     78  O   UNL A   1      34.623  31.896  29.401  1.00  0.00    -0.744 OA
ENDBRANCH  71  75
ENDBRANCH  54  68
BRANCH  55  79
ATOM     79  C   UNL A   1      48.992  32.188  28.011  1.00  0.00     0.023 A 
ATOM     80  C   UNL A   1      50.030  31.851  28.894  1.00  0.00     0.031 A 
ATOM     81  C   UNL A   1      49.335  32.857  26.822  1.00  0.00     0.131 A 
ATOM     82  C   UNL A   1      51.351  32.229  28.602  1.00  0.00     0.055 A 
ATOM     83  C   UNL A   1      50.658  33.176  26.506  1.00  0.00     0.041 A 
ATOM     84  F   UNL A   1      48.384  33.212  25.943  1.00  0.00    -0.206 F 
ATOM     85  C   UNL A   1      51.673  32.874  27.406  1.00  0.00     0.022 A 
BRANCH  82  86
ATOM     86  S   UNL A   1      52.630  31.956  29.859  1.00  0.00     0.124 S 
ATOM     87  O   UNL A   1      53.775  32.640  29.270  1.00  0.00    -0.237 OA
ATOM     88  O   UNL A   1      52.039  32.586  31.034  1.00  0.00    -0.237 OA
ATOM     89  O   UNL A   1      52.737  30.499  29.924  1.00  0.00    -0.744 OA
ENDBRANCH  82  86
ENDBRANCH  55  79
BRANCH  67  90
ATOM     90  C   UNL A   1      43.876  36.190  30.578  1.00  0.00     0.023 A 
ATOM     91  C   UNL A   1      43.571  37.261  29.721  1.00  0.00     0.031 A 
ATOM     92  C   UNL A   1      44.164  36.484  31.924  1.00  0.00     0.131 A 
ATOM     93  C   UNL A   1      43.619  38.579  30.203  1.00  0.00     0.055 A 
ATOM     94  C   UNL A   1      44.140  37.790  32.415  1.00  0.00     0.041 A 
ATOM     95  F   UNL A   1      44.468  35.503  32.789  1.00  0.00    -0.206 F 
ATOM     96  C   UNL A   1      43.880  38.848  31.550  1.00  0.00     0.022 A 
BRANCH  93  97
ATOM     97  S   UNL A   1      43.439  39.946  29.024  1.00  0.00     0.124 S 
ATOM     98  O   UNL A   1      42.768  40.957  29.834  1.00  0.00    -0.237 OA
ATOM     99  O   UNL A   1      44.823  40.232  28.664  1.00  0.00    -0.237 OA
ATOM    100  O   UNL A   1      42.627  39.370  27.953  1.00  0.00    -0.744 OA
ENDBRANCH  93  97
ENDBRANCH  67  90
ENDBRANCH  41  42
ENDBRANCH  34  36
ENDBRANCH  33  34
ENDBRANCH  32  33
ENDBRANCH  31  32
ENDBRANCH  30  31
ENDBRANCH  29  30
ENDBRANCH  28  29
ENDBRANCH   1  28
TORSDOF 26
ENDMDL
MODEL 3
REMARK VINA RESULT:      -7.7      5.582      7.926
REMARK SMILES C[C@@H](C(=O)OCCOCCOCCOCCOC(=O)c1ccc(-c2c3nc(c(-c4cc(S(=O)(=O)[O-])ccc4F)c4ccc([nH]4)c(-c4cc(S(=O)(=O)[O-])ccc4F)c4nc(c(-c5cc(S(=O)(=O)[O-])ccc5F)c5ccc2[nH]5)C=C4)C=C3)cc1)c1ccccc1-c1ccn(C(F)F)c(=O)c1
REMARK SMILES IDX 11 1 10 2 9 3 8 4 7 5 6 6 5 7 3 8 4 9 2 10 1 11 83 12 84 13
REMARK SMILES IDX 88 14 85 15 87 16 86 17 89 18 90 19 98 20 91 21 96 22 92 23
REMARK SMILES IDX 97 24 93 25 94 26 95 27 12 28 13 29 14 30 15 31 16 32 17 33
REMARK SMILES IDX 18 34 19 35 20 36 21 37 82 38 22 39 81 40 23 41 24 42 25 43
REMARK SMILES IDX 75 44 26 45 80 46 74 47 76 48 27 49 79 50 73 51 72 52 28 54
REMARK SMILES IDX 60 55 40 56 59 57 41 58 44 59 58 60 77 61 42 62 43 63 57 65
REMARK SMILES IDX 78 66 45 67 29 68 30 69 38 70 31 71 37 72 39 73 36 74 32 75
REMARK SMILES IDX 33 76 34 77 35 78 61 79 62 80 70 81 63 82 69 83 71 84 68 85
REMARK SMILES IDX 64 86 65 87 66 88 67 89 46 90 47 91 55 92 48 93 54 94 56 95
REMARK SMILES IDX 53 96 49 97 50 98 51 99 52 100
REMARK H PARENT 76 53 44 64
REMARK Flexibility Score: inf
ROOT
ATOM      1  O   UNL A   1      38.865  21.541  26.353  1.00  0.00    -0.377 OA
ENDROOT
BRANCH   1   2
ATOM      2  C   UNL A   1      37.953  21.823  25.317  1.00  0.00     0.188 C 
BRANCH   2   3
ATOM      3  C   UNL A   1      36.469  21.796  25.723  1.00  0.00     0.188 C 
BRANCH   3   4
ATOM      4  O   UNL A   1      35.789  22.978  26.109  1.00  0.00    -0.376 OA
BRANCH   4   5
ATOM      5  C   UNL A   1      35.903  24.180  25.365  1.00  0.00     0.202 C 
BRANCH   5   6
ATOM      6  C   UNL A   1      34.738  24.783  24.550  1.00  0.00     0.261 C 
BRANCH   6   7
ATOM      7  O   UNL A   1      33.733  25.543  25.248  1.00  0.00    -0.463 OA
BRANCH   7   8
ATOM      8  C   UNL A   1      33.187  26.556  24.538  1.00  0.00     0.313 C 
ATOM      9  O   UNL A   1      33.472  26.766  23.361  1.00  0.00    -0.252 OA
BRANCH   8  10
ATOM     10  C   UNL A   1      32.190  27.438  25.332  1.00  0.00     0.127 C 
ATOM     11  C   UNL A   1      31.753  27.025  26.744  1.00  0.00     0.025 C 
BRANCH  10  12
ATOM     12  C   UNL A   1      31.025  27.829  24.398  1.00  0.00    -0.026 A 
ATOM     13  C   UNL A   1      30.890  29.146  23.915  1.00  0.00     0.005 A 
ATOM     14  C   UNL A   1      29.971  26.917  24.146  1.00  0.00    -0.014 A 
ATOM     15  C   UNL A   1      29.723  29.565  23.274  1.00  0.00     0.000 A 
ATOM     16  C   UNL A   1      28.803  27.349  23.501  1.00  0.00     0.009 A 
ATOM     17  C   UNL A   1      28.674  28.673  23.083  1.00  0.00     0.001 A 
BRANCH  14  18
ATOM     18  C   UNL A   1      30.130  25.493  24.501  1.00  0.00    -0.011 A 
ATOM     19  C   UNL A   1      30.044  24.988  25.856  1.00  0.00     0.027 A 
ATOM     20  C   UNL A   1      30.646  24.714  23.536  1.00  0.00     0.080 A 
ATOM     21  C   UNL A   1      30.682  23.860  26.189  1.00  0.00     0.095 A 
ATOM     22  C   UNL A   1      31.225  23.387  23.870  1.00  0.00     0.255 A 
ATOM     23  N   UNL A   1      31.308  23.093  25.224  1.00  0.00    -0.258 N 
ATOM     24  O   UNL A   1      31.642  22.686  22.955  1.00  0.00    -0.269 OA
BRANCH  23  25
ATOM     25  C   UNL A   1      32.034  21.907  25.591  1.00  0.00     0.451 C 
ATOM     26  F   UNL A   1      31.404  20.799  25.136  1.00  0.00    -0.185 F 
ATOM     27  F   UNL A   1      33.287  21.922  25.071  1.00  0.00    -0.185 F 
ENDBRANCH  23  25
ENDBRANCH  14  18
ENDBRANCH  10  12
ENDBRANCH   8  10
ENDBRANCH   7   8
ENDBRANCH   6   7
ENDBRANCH   5   6
ENDBRANCH   4   5
ENDBRANCH   3   4
ENDBRANCH   2   3
ENDBRANCH   1   2
BRANCH   1  28
ATOM     28  C   UNL A   1      39.824  20.529  26.101  1.00  0.00     0.188 C 
BRANCH  28  29
ATOM     29  C   UNL A   1      41.264  20.766  26.595  1.00  0.00     0.188 C 
BRANCH  29  30
ATOM     30  O   UNL A   1      42.271  20.361  25.671  1.00  0.00    -0.376 OA
BRANCH  30  31
ATOM     31  C   UNL A   1      43.570  20.924  25.783  1.00  0.00     0.202 C 
BRANCH  31  32
ATOM     32  C   UNL A   1      43.902  22.141  24.901  1.00  0.00     0.261 C 
BRANCH  32  33
ATOM     33  O   UNL A   1      43.174  23.349  25.165  1.00  0.00    -0.460 OA
BRANCH  33  34
ATOM     34  C   UNL A   1      43.861  24.512  25.176  1.00  0.00     0.338 C 
ATOM     35  O   UNL A   1      44.499  24.987  24.251  1.00  0.00    -0.246 OA
BRANCH  34  36
ATOM     36  C   UNL A   1      43.522  25.226  26.426  1.00  0.00     0.060 A 
ATOM     37  C   UNL A   1      42.404  24.810  27.162  1.00  0.00     0.016 A 
ATOM     38  C   UNL A   1      44.316  26.280  26.886  1.00  0.00     0.016 A 
ATOM     39  C   UNL A   1      42.055  25.469  28.340  1.00  0.00     0.010 A 
ATOM     40  C   UNL A   1      43.948  26.959  28.052  1.00  0.00     0.010 A 
ATOM     41  C   UNL A   1      42.796  26.579  28.763  1.00  0.00    -0.014 A 
BRANCH  41  42
ATOM     42  C   UNL A   1      42.236  27.476  29.805  1.00  0.00     0.031 A 
ATOM     43  C   UNL A   1      42.869  27.449  31.170  1.00  0.00     0.074 A 
ATOM     44  C   UNL A   1      41.220  28.318  29.543  1.00  0.00     0.049 A 
ATOM     45  N   UNL A   1      42.533  28.089  32.259  1.00  0.00    -0.248 NA
ATOM     46  C   UNL A   1      44.042  26.573  31.324  1.00  0.00     0.031 C 
ATOM     47  C   UNL A   1      40.570  28.480  28.244  1.00  0.00     0.029 A 
ATOM     48  N   UNL A   1      40.554  29.194  30.365  1.00  0.00    -0.354 N 
ATOM     49  C   UNL A   1      43.444  27.686  33.230  1.00  0.00     0.074 A 
ATOM     50  C   UNL A   1      44.324  26.720  32.608  1.00  0.00     0.031 C 
ATOM     51  C   UNL A   1      39.590  29.396  28.361  1.00  0.00     0.029 A 
ATOM     52  C   UNL A   1      39.513  29.849  29.748  1.00  0.00     0.049 A 
ATOM     53  H   UNL A   1      40.799  29.339  31.308  1.00  0.00     0.167 HD
ATOM     54  C   UNL A   1      43.543  28.092  34.519  1.00  0.00     0.034 A 
ATOM     55  C   UNL A   1      38.591  30.692  30.256  1.00  0.00     0.034 A 
ATOM     56  C   UNL A   1      42.648  29.046  35.125  1.00  0.00     0.049 A 
ATOM     57  C   UNL A   1      38.654  31.049  31.726  1.00  0.00     0.074 A 
ATOM     58  C   UNL A   1      42.662  29.535  36.420  1.00  0.00     0.029 A 
ATOM     59  N   UNL A   1      41.569  29.643  34.487  1.00  0.00    -0.354 N 
ATOM     60  N   UNL A   1      39.522  30.665  32.635  1.00  0.00    -0.248 NA
ATOM     61  C   UNL A   1      37.616  31.955  32.235  1.00  0.00     0.031 C 
ATOM     62  C   UNL A   1      41.543  30.357  36.588  1.00  0.00     0.029 A 
ATOM     63  C   UNL A   1      40.886  30.463  35.372  1.00  0.00     0.049 A 
ATOM     64  H   UNL A   1      41.325  29.505  33.542  1.00  0.00     0.167 HD
ATOM     65  C   UNL A   1      39.154  31.316  33.812  1.00  0.00     0.074 A 
ATOM     66  C   UNL A   1      37.996  32.124  33.493  1.00  0.00     0.031 C 
ATOM     67  C   UNL A   1      39.726  31.259  35.043  1.00  0.00     0.034 A 
BRANCH  54  68
ATOM     68  C   UNL A   1      44.615  27.452  35.368  1.00  0.00     0.023 A 
ATOM     69  C   UNL A   1      45.910  27.993  35.465  1.00  0.00     0.031 A 
ATOM     70  C   UNL A   1      44.345  26.263  36.069  1.00  0.00     0.131 A 
ATOM     71  C   UNL A   1      46.902  27.308  36.182  1.00  0.00     0.055 A 
ATOM     72  C   UNL A   1      45.313  25.634  36.853  1.00  0.00     0.041 A 
ATOM     73  F   UNL A   1      43.137  25.684  35.991  1.00  0.00    -0.206 F 
ATOM     74  C   UNL A   1      46.606  26.148  36.901  1.00  0.00     0.022 A 
BRANCH  71  75
ATOM     75  S   UNL A   1      48.620  27.872  36.039  1.00  0.00     0.124 S 
ATOM     76  O   UNL A   1      48.915  27.565  34.642  1.00  0.00    -0.237 OA
ATOM     77  O   UNL A   1      48.518  29.287  36.374  1.00  0.00    -0.237 OA
ATOM     78  O   UNL A   1      49.334  27.048  37.014  1.00  0.00    -0.744 OA
ENDBRANCH  71  75
ENDBRANCH  54  68
BRANCH  55  79
ATOM     79  C   UNL A   1      37.495  31.231  29.397  1.00  0.00     0.023 A 
ATOM     80  C   UNL A   1      36.449  30.409  28.947  1.00  0.00     0.031 A 
ATOM     81  C   UNL A   1      37.518  32.565  28.950  1.00  0.00     0.131 A 
ATOM     82  C   UNL A   1      35.501  30.912  28.041  1.00  0.00     0.055 A 
ATOM     83  C   UNL A   1      36.537  33.078  28.098  1.00  0.00     0.041 A 
ATOM     84  F   UNL A   1      38.498  33.396  29.340  1.00  0.00    -0.206 F 
ATOM     85  C   UNL A   1      35.529  32.245  27.627  1.00  0.00     0.022 A 
BRANCH  82  86
ATOM     86  S   UNL A   1      34.288  29.766  27.329  1.00  0.00     0.124 S 
ATOM     87  O   UNL A   1      34.222  28.731  28.353  1.00  0.00    -0.237 OA
ATOM     88  O   UNL A   1      33.110  30.616  27.197  1.00  0.00    -0.237 OA
ATOM     89  O   UNL A   1      34.904  29.359  26.068  1.00  0.00    -0.744 OA
ENDBRANCH  82  86
ENDBRANCH  55  79
BRANCH  67  90
ATOM     90  C   UNL A   1      39.140  32.140  36.123  1.00  0.00     0.023 A 
ATOM     91  C   UNL A   1      38.322  31.626  37.143  1.00  0.00     0.031 A 
ATOM     92  C   UNL A   1      39.410  33.522  36.127  1.00  0.00     0.131 A 
ATOM     93  C   UNL A   1      37.754  32.494  38.088  1.00  0.00     0.055 A 
ATOM     94  C   UNL A   1      38.901  34.369  37.111  1.00  0.00     0.041 A 
ATOM     95  F   UNL A   1      40.181  34.071  35.175  1.00  0.00    -0.206 F 
ATOM     96  C   UNL A   1      38.055  33.860  38.091  1.00  0.00     0.022 A 
BRANCH  93  97
ATOM     97  S   UNL A   1      36.529  31.835  39.253  1.00  0.00     0.124 S 
ATOM     98  O   UNL A   1      35.383  32.704  39.011  1.00  0.00    -0.237 OA
ATOM     99  O   UNL A   1      36.387  30.453  38.807  1.00  0.00    -0.237 OA
ATOM    100  O   UNL A   1      37.171  32.002  40.556  1.00  0.00    -0.744 OA
ENDBRANCH  93  97
ENDBRANCH  67  90
ENDBRANCH  41  42
ENDBRANCH  34  36
ENDBRANCH  33  34
ENDBRANCH  32  33
ENDBRANCH  31  32
ENDBRANCH  30  31
ENDBRANCH  29  30
ENDBRANCH  28  29
ENDBRANCH   1  28
TORSDOF 26
ENDMDL
