MODEL 1
REMARK VINA RESULT:      -9.2      0.000      0.000
REMARK SMILES Cc1c(-c2nn(-c3ccccc3)cc2/C=N/O)nnn1-c1ccc(C(=O)OCCOCCOCCOCCOC(=O)c2ccc(-c3c4nc(c(-c5cc(S(=O)(=O)[O-])ccc5F)c5ccc([nH]5)c(-c5cc(S(=O)(=O)[O-])ccc5F)c5nc(c(-c6cc(S(=O)(=O)[O-])ccc6F)c6ccc3[nH]6)C=C5)C=C4)cc2)cc1
REMARK SMILES IDX 32 1 31 2 30 3 29 4 28 5 27 6 25 7 26 8 24 9 21 10 22 11
REMARK SMILES IDX 106 12 23 13 105 14 20 15 1 16 2 17 3 18 18 19 19 20 4 21
REMARK SMILES IDX 5 22 14 23 6 24 13 25 15 26 16 27 17 28 7 30 8 31 12 32 9 33
REMARK SMILES IDX 11 34 10 35 33 36 34 37 35 38 36 39 37 40 38 41 39 42 40 43
REMARK SMILES IDX 41 44 42 45 43 46 104 47 44 48 103 49 45 50 46 51 47 52
REMARK SMILES IDX 97 53 48 54 102 55 96 56 98 57 49 58 101 59 95 60 94 61
REMARK SMILES IDX 50 63 82 64 62 65 81 66 63 67 66 68 80 69 99 70 64 71 65 72
REMARK SMILES IDX 79 74 100 75 67 76 51 77 52 78 60 79 53 80 59 81 61 82 58 83
REMARK SMILES IDX 54 84 55 85 56 86 57 87 83 88 84 89 92 90 85 91 91 92 93 93
REMARK SMILES IDX 90 94 86 95 87 96 88 97 89 98 68 99 69 100 77 101 70 102
REMARK SMILES IDX 76 103 78 104 75 105 71 106 72 107 73 108 74 109
REMARK H PARENT 17 29 98 62 66 73
REMARK Flexibility Score: inf
ROOT
ATOM      1  C   UNL A   1      37.983  30.192  29.885  1.00  0.00     0.188 C 
ENDROOT
BRANCH   1   2
ATOM      2  C   UNL A   1      36.738  29.728  29.096  1.00  0.00     0.188 C 
BRANCH   2   3
ATOM      3  O   UNL A   1      35.877  30.644  28.434  1.00  0.00    -0.376 OA
BRANCH   3   4
ATOM      4  C   UNL A   1      34.845  30.232  27.555  1.00  0.00     0.202 C 
BRANCH   4   5
ATOM      5  C   UNL A   1      33.490  30.948  27.435  1.00  0.00     0.261 C 
BRANCH   5   6
ATOM      6  O   UNL A   1      32.341  30.134  27.214  1.00  0.00    -0.460 OA
BRANCH   6   7
ATOM      7  C   UNL A   1      31.787  30.242  25.989  1.00  0.00     0.338 C 
ATOM      8  O   UNL A   1      31.156  31.185  25.541  1.00  0.00    -0.246 OA
BRANCH   7   9
ATOM      9  C   UNL A   1      32.194  29.073  25.182  1.00  0.00     0.060 A 
ATOM     10  C   UNL A   1      33.003  26.755  23.908  1.00  0.00     0.067 A 
ATOM     11  C   UNL A   1      31.753  26.779  24.529  1.00  0.00     0.029 A 
ATOM     12  C   UNL A   1      33.788  27.914  23.804  1.00  0.00     0.029 A 
ATOM     13  C   UNL A   1      31.370  27.936  25.202  1.00  0.00     0.018 A 
ATOM     14  C   UNL A   1      33.369  29.087  24.425  1.00  0.00     0.018 A 
BRANCH  10  15
ATOM     15  N   UNL A   1      33.560  25.507  23.568  1.00  0.00    -0.217 N 
ATOM     16  C   UNL A   1      33.765  24.603  25.932  1.00  0.00     0.069 C 
ATOM     17  C   UNL A   1      33.939  24.521  24.461  1.00  0.00     0.071 A 
ATOM     18  C   UNL A   1      34.329  23.486  23.638  1.00  0.00     0.137 A 
ATOM     19  N   UNL A   1      34.092  23.807  22.332  1.00  0.00    -0.128 NA
ATOM     20  N   UNL A   1      33.540  25.017  22.308  1.00  0.00    -0.061 NA
BRANCH  18  21
ATOM     21  C   UNL A   1      34.799  22.166  24.039  1.00  0.00     0.124 A 
ATOM     22  N   UNL A   1      34.011  21.087  23.965  1.00  0.00    -0.165 NA
ATOM     23  C   UNL A   1      36.055  21.881  24.621  1.00  0.00     0.044 A 
ATOM     24  N   UNL A   1      34.705  20.117  24.597  1.00  0.00    -0.240 N 
ATOM     25  C   UNL A   1      35.939  20.560  25.015  1.00  0.00     0.125 A 
BRANCH  23  26
ATOM     26  C   UNL A   1      37.223  22.700  24.826  1.00  0.00     0.166 C 
ATOM     27  N   UNL A   1      37.330  23.423  25.889  1.00  0.00    -0.097 NA
BRANCH  27  28
ATOM     28  O   UNL A   1      38.525  24.149  25.836  1.00  0.00    -0.411 OA
ATOM     29  H   UNL A   1      39.291  23.823  26.267  1.00  0.00     0.330 HD
ENDBRANCH  27  28
ENDBRANCH  23  26
BRANCH  24  30
ATOM     30  C   UNL A   1      34.138  18.836  24.792  1.00  0.00     0.065 A 
ATOM     31  C   UNL A   1      34.789  17.713  24.262  1.00  0.00     0.028 A 
ATOM     32  C   UNL A   1      32.933  18.687  25.490  1.00  0.00     0.028 A 
ATOM     33  C   UNL A   1      34.250  16.443  24.457  1.00  0.00     0.002 A 
ATOM     34  C   UNL A   1      32.374  17.415  25.635  1.00  0.00     0.002 A 
ATOM     35  C   UNL A   1      33.037  16.294  25.131  1.00  0.00     0.000 A 
ENDBRANCH  24  30
ENDBRANCH  18  21
ENDBRANCH  10  15
ENDBRANCH   7   9
ENDBRANCH   6   7
ENDBRANCH   5   6
ENDBRANCH   4   5
ENDBRANCH   3   4
ENDBRANCH   2   3
ENDBRANCH   1   2
BRANCH   1  36
ATOM     36  O   UNL A   1      37.773  30.307  31.282  1.00  0.00    -0.377 OA
BRANCH  36  37
ATOM     37  C   UNL A   1      36.416  30.447  31.700  1.00  0.00     0.188 C 
BRANCH  37  38
ATOM     38  C   UNL A   1      35.990  31.753  32.420  1.00  0.00     0.188 C 
BRANCH  38  39
ATOM     39  O   UNL A   1      36.968  32.786  32.405  1.00  0.00    -0.376 OA
BRANCH  39  40
ATOM     40  C   UNL A   1      37.903  32.951  33.457  1.00  0.00     0.202 C 
BRANCH  40  41
ATOM     41  C   UNL A   1      37.800  31.982  34.627  1.00  0.00     0.261 C 
BRANCH  41  42
ATOM     42  O   UNL A   1      39.054  31.489  35.055  1.00  0.00    -0.460 OA
BRANCH  42  43
ATOM     43  C   UNL A   1      39.821  32.378  35.705  1.00  0.00     0.338 C 
ATOM     44  O   UNL A   1      39.442  33.296  36.430  1.00  0.00    -0.246 OA
BRANCH  43  45
ATOM     45  C   UNL A   1      41.204  32.156  35.302  1.00  0.00     0.060 A 
ATOM     46  C   UNL A   1      41.461  32.218  33.934  1.00  0.00     0.016 A 
ATOM     47  C   UNL A   1      42.048  31.496  36.209  1.00  0.00     0.016 A 
ATOM     48  C   UNL A   1      42.399  31.355  33.432  1.00  0.00     0.010 A 
ATOM     49  C   UNL A   1      42.951  30.605  35.703  1.00  0.00     0.010 A 
ATOM     50  C   UNL A   1      43.034  30.480  34.321  1.00  0.00    -0.014 A 
BRANCH  50  51
ATOM     51  C   UNL A   1      43.895  29.465  33.775  1.00  0.00     0.031 A 
ATOM     52  C   UNL A   1      45.132  30.054  33.236  1.00  0.00     0.074 A 
ATOM     53  C   UNL A   1      43.609  28.154  33.872  1.00  0.00     0.049 A 
ATOM     54  N   UNL A   1      45.423  30.250  31.995  1.00  0.00    -0.248 NA
ATOM     55  C   UNL A   1      46.017  30.760  34.180  1.00  0.00     0.031 C 
ATOM     56  C   UNL A   1      42.538  27.511  34.636  1.00  0.00     0.029 A 
ATOM     57  N   UNL A   1      44.301  27.099  33.375  1.00  0.00    -0.354 N 
ATOM     58  C   UNL A   1      46.673  30.848  32.017  1.00  0.00     0.074 A 
ATOM     59  C   UNL A   1      46.824  31.398  33.333  1.00  0.00     0.031 C 
ATOM     60  C   UNL A   1      42.801  26.186  34.739  1.00  0.00     0.029 A 
ATOM     61  C   UNL A   1      43.985  25.875  33.950  1.00  0.00     0.049 A 
ATOM     62  H   UNL A   1      44.974  27.194  32.662  1.00  0.00     0.167 HD
ATOM     63  C   UNL A   1      47.603  30.535  31.077  1.00  0.00     0.034 A 
ATOM     64  C   UNL A   1      44.708  24.724  33.850  1.00  0.00     0.034 A 
ATOM     65  C   UNL A   1      46.972  29.915  29.928  1.00  0.00     0.049 A 
ATOM     66  C   UNL A   1      45.584  24.876  32.654  1.00  0.00     0.074 A 
ATOM     67  C   UNL A   1      45.974  30.305  29.054  1.00  0.00     0.029 A 
ATOM     68  N   UNL A   1      47.064  28.544  29.801  1.00  0.00    -0.354 N 
ATOM     69  N   UNL A   1      45.120  24.959  31.435  1.00  0.00    -0.248 NA
ATOM     70  C   UNL A   1      46.906  25.462  32.845  1.00  0.00     0.031 C 
ATOM     71  C   UNL A   1      45.206  29.128  28.818  1.00  0.00     0.029 A 
ATOM     72  C   UNL A   1      45.819  28.059  29.476  1.00  0.00     0.049 A 
ATOM     73  H   UNL A   1      47.880  28.006  29.921  1.00  0.00     0.167 HD
ATOM     74  C   UNL A   1      45.864  25.962  30.828  1.00  0.00     0.074 A 
ATOM     75  C   UNL A   1      47.009  26.169  31.714  1.00  0.00     0.031 C 
ATOM     76  C   UNL A   1      45.334  26.735  29.832  1.00  0.00     0.034 A 
BRANCH  63  77
ATOM     77  C   UNL A   1      49.082  30.399  31.369  1.00  0.00     0.023 A 
ATOM     78  C   UNL A   1      49.958  30.885  30.384  1.00  0.00     0.031 A 
ATOM     79  C   UNL A   1      49.680  29.600  32.374  1.00  0.00     0.131 A 
ATOM     80  C   UNL A   1      51.301  30.479  30.349  1.00  0.00     0.055 A 
ATOM     81  C   UNL A   1      51.032  29.253  32.372  1.00  0.00     0.041 A 
ATOM     82  F   UNL A   1      48.995  29.031  33.372  1.00  0.00    -0.206 F 
ATOM     83  C   UNL A   1      51.845  29.662  31.334  1.00  0.00     0.022 A 
BRANCH  80  84
ATOM     84  S   UNL A   1      52.273  30.894  28.883  1.00  0.00     0.124 S 
ATOM     85  O   UNL A   1      51.700  32.183  28.512  1.00  0.00    -0.237 OA
ATOM     86  O   UNL A   1      53.628  30.920  29.424  1.00  0.00    -0.237 OA
ATOM     87  O   UNL A   1      51.986  29.793  27.968  1.00  0.00    -0.744 OA
ENDBRANCH  80  84
ENDBRANCH  63  77
BRANCH  64  88
ATOM     88  C   UNL A   1      44.940  23.723  34.935  1.00  0.00     0.023 A 
ATOM     89  C   UNL A   1      45.059  22.335  34.702  1.00  0.00     0.031 A 
ATOM     90  C   UNL A   1      45.278  24.173  36.233  1.00  0.00     0.131 A 
ATOM     91  C   UNL A   1      45.486  21.470  35.743  1.00  0.00     0.055 A 
ATOM     92  C   UNL A   1      45.690  23.316  37.255  1.00  0.00     0.041 A 
ATOM     93  F   UNL A   1      45.299  25.481  36.532  1.00  0.00    -0.206 F 
ATOM     94  C   UNL A   1      45.803  21.959  37.013  1.00  0.00     0.022 A 
BRANCH  91  95
ATOM     95  S   UNL A   1      45.707  19.682  35.444  1.00  0.00     0.124 S 
ATOM     96  O   UNL A   1      46.893  19.651  34.597  1.00  0.00    -0.237 OA
ATOM     97  O   UNL A   1      45.858  19.157  36.796  1.00  0.00    -0.237 OA
ATOM     98  O   UNL A   1      44.466  19.291  34.773  1.00  0.00    -0.744 OA
ENDBRANCH  91  95
ENDBRANCH  64  88
BRANCH  76  99
ATOM     99  C   UNL A   1      44.043  26.286  29.174  1.00  0.00     0.023 A 
ATOM    100  C   UNL A   1      43.933  25.272  28.193  1.00  0.00     0.031 A 
ATOM    101  C   UNL A   1      42.849  26.837  29.674  1.00  0.00     0.131 A 
ATOM    102  C   UNL A   1      42.659  24.854  27.752  1.00  0.00     0.055 A 
ATOM    103  C   UNL A   1      41.593  26.405  29.252  1.00  0.00     0.041 A 
ATOM    104  F   UNL A   1      42.886  27.787  30.624  1.00  0.00    -0.206 F 
ATOM    105  C   UNL A   1      41.493  25.414  28.286  1.00  0.00     0.022 A 
BRANCH 102 106
ATOM    106  S   UNL A   1      42.487  23.581  26.458  1.00  0.00     0.124 S 
ATOM    107  O   UNL A   1      41.142  23.059  26.669  1.00  0.00    -0.237 OA
ATOM    108  O   UNL A   1      42.693  24.347  25.233  1.00  0.00    -0.237 OA
ATOM    109  O   UNL A   1      43.562  22.634  26.768  1.00  0.00    -0.744 OA
ENDBRANCH 102 106
ENDBRANCH  76  99
ENDBRANCH  50  51
ENDBRANCH  43  45
ENDBRANCH  42  43
ENDBRANCH  41  42
ENDBRANCH  40  41
ENDBRANCH  39  40
ENDBRANCH  38  39
ENDBRANCH  37  38
ENDBRANCH  36  37
ENDBRANCH   1  36
TORSDOF 28
ENDMDL
MODEL 2
REMARK VINA RESULT:      -9.0      1.752      2.179
REMARK SMILES Cc1c(-c2nn(-c3ccccc3)cc2/C=N/O)nnn1-c1ccc(C(=O)OCCOCCOCCOCCOC(=O)c2ccc(-c3c4nc(c(-c5cc(S(=O)(=O)[O-])ccc5F)c5ccc([nH]5)c(-c5cc(S(=O)(=O)[O-])ccc5F)c5nc(c(-c6cc(S(=O)(=O)[O-])ccc6F)c6ccc3[nH]6)C=C5)C=C4)cc2)cc1
REMARK SMILES IDX 32 1 31 2 30 3 29 4 28 5 27 6 25 7 26 8 24 9 21 10 22 11
REMARK SMILES IDX 106 12 23 13 105 14 20 15 1 16 2 17 3 18 18 19 19 20 4 21
REMARK SMILES IDX 5 22 14 23 6 24 13 25 15 26 16 27 17 28 7 30 8 31 12 32 9 33
REMARK SMILES IDX 11 34 10 35 33 36 34 37 35 38 36 39 37 40 38 41 39 42 40 43
REMARK SMILES IDX 41 44 42 45 43 46 104 47 44 48 103 49 45 50 46 51 47 52
REMARK SMILES IDX 97 53 48 54 102 55 96 56 98 57 49 58 101 59 95 60 94 61
REMARK SMILES IDX 50 63 82 64 62 65 81 66 63 67 66 68 80 69 99 70 64 71 65 72
REMARK SMILES IDX 79 74 100 75 67 76 51 77 52 78 60 79 53 80 59 81 61 82 58 83
REMARK SMILES IDX 54 84 55 85 56 86 57 87 83 88 84 89 92 90 85 91 91 92 93 93
REMARK SMILES IDX 90 94 86 95 87 96 88 97 89 98 68 99 69 100 77 101 70 102
REMARK SMILES IDX 76 103 78 104 75 105 71 106 72 107 73 108 74 109
REMARK H PARENT 17 29 98 62 66 73
REMARK Flexibility Score: inf
ROOT
ATOM      1  C   UNL A   1      37.756  30.154  29.908  1.00  0.00     0.188 C 
ENDROOT
BRANCH   1   2
ATOM      2  C   UNL A   1      36.363  29.714  29.400  1.00  0.00     0.188 C 
BRANCH   2   3
ATOM      3  O   UNL A   1      35.652  30.450  28.415  1.00  0.00    -0.376 OA
BRANCH   3   4
ATOM      4  C   UNL A   1      34.525  29.929  27.731  1.00  0.00     0.202 C 
BRANCH   4   5
ATOM      5  C   UNL A   1      33.318  30.780  27.304  1.00  0.00     0.261 C 
BRANCH   5   6
ATOM      6  O   UNL A   1      32.080  30.101  27.112  1.00  0.00    -0.460 OA
BRANCH   6   7
ATOM      7  C   UNL A   1      31.574  30.170  25.863  1.00  0.00     0.338 C 
ATOM      8  O   UNL A   1      30.937  31.087  25.371  1.00  0.00    -0.246 OA
BRANCH   7   9
ATOM      9  C   UNL A   1      32.046  28.998  25.098  1.00  0.00     0.060 A 
ATOM     10  C   UNL A   1      32.982  26.684  23.905  1.00  0.00     0.067 A 
ATOM     11  C   UNL A   1      31.730  26.663  24.523  1.00  0.00     0.029 A 
ATOM     12  C   UNL A   1      33.704  27.879  23.763  1.00  0.00     0.029 A 
ATOM     13  C   UNL A   1      31.283  27.820  25.155  1.00  0.00     0.018 A 
ATOM     14  C   UNL A   1      33.221  29.049  24.342  1.00  0.00     0.018 A 
BRANCH  10  15
ATOM     15  N   UNL A   1      33.605  25.456  23.609  1.00  0.00    -0.217 N 
ATOM     16  C   UNL A   1      33.492  24.477  25.949  1.00  0.00     0.069 C 
ATOM     17  C   UNL A   1      33.874  24.447  24.516  1.00  0.00     0.071 A 
ATOM     18  C   UNL A   1      34.397  23.447  23.725  1.00  0.00     0.137 A 
ATOM     19  N   UNL A   1      34.340  23.807  22.409  1.00  0.00    -0.128 NA
ATOM     20  N   UNL A   1      33.774  25.009  22.345  1.00  0.00    -0.061 NA
BRANCH  18  21
ATOM     21  C   UNL A   1      34.831  22.121  24.148  1.00  0.00     0.124 A 
ATOM     22  N   UNL A   1      34.068  21.038  23.960  1.00  0.00    -0.165 NA
ATOM     23  C   UNL A   1      36.015  21.832  24.864  1.00  0.00     0.044 A 
ATOM     24  N   UNL A   1      34.694  20.059  24.645  1.00  0.00    -0.240 N 
ATOM     25  C   UNL A   1      35.869  20.501  25.211  1.00  0.00     0.125 A 
BRANCH  23  26
ATOM     26  C   UNL A   1      37.144  22.655  25.219  1.00  0.00     0.166 C 
ATOM     27  N   UNL A   1      38.264  22.109  25.553  1.00  0.00    -0.097 NA
BRANCH  27  28
ATOM     28  O   UNL A   1      39.184  23.110  25.887  1.00  0.00    -0.411 OA
ATOM     29  H   UNL A   1      38.923  24.010  25.871  1.00  0.00     0.330 HD
ENDBRANCH  27  28
ENDBRANCH  23  26
BRANCH  24  30
ATOM     30  C   UNL A   1      34.123  18.769  24.745  1.00  0.00     0.065 A 
ATOM     31  C   UNL A   1      34.854  17.661  24.297  1.00  0.00     0.028 A 
ATOM     32  C   UNL A   1      32.835  18.598  25.269  1.00  0.00     0.028 A 
ATOM     33  C   UNL A   1      34.309  16.382  24.401  1.00  0.00     0.002 A 
ATOM     34  C   UNL A   1      32.277  17.318  25.321  1.00  0.00     0.002 A 
ATOM     35  C   UNL A   1      33.017  16.212  24.900  1.00  0.00     0.000 A 
ENDBRANCH  24  30
ENDBRANCH  18  21
ENDBRANCH  10  15
ENDBRANCH   7   9
ENDBRANCH   6   7
ENDBRANCH   5   6
ENDBRANCH   4   5
ENDBRANCH   3   4
ENDBRANCH   2   3
ENDBRANCH   1   2
BRANCH   1  36
ATOM     36  O   UNL A   1      37.865  30.204  31.321  1.00  0.00    -0.377 OA
BRANCH  36  37
ATOM     37  C   UNL A   1      36.642  30.358  32.038  1.00  0.00     0.188 C 
BRANCH  37  38
ATOM     38  C   UNL A   1      36.332  31.728  32.697  1.00  0.00     0.188 C 
BRANCH  38  39
ATOM     39  O   UNL A   1      37.109  32.813  32.205  1.00  0.00    -0.376 OA
BRANCH  39  40
ATOM     40  C   UNL A   1      38.280  33.260  32.866  1.00  0.00     0.202 C 
BRANCH  40  41
ATOM     41  C   UNL A   1      38.636  32.570  34.177  1.00  0.00     0.261 C 
BRANCH  41  42
ATOM     42  O   UNL A   1      40.025  32.376  34.346  1.00  0.00    -0.460 OA
BRANCH  42  43
ATOM     43  C   UNL A   1      40.755  33.501  34.378  1.00  0.00     0.338 C 
ATOM     44  O   UNL A   1      40.407  34.601  34.803  1.00  0.00    -0.246 OA
BRANCH  43  45
ATOM     45  C   UNL A   1      42.014  33.237  33.693  1.00  0.00     0.060 A 
ATOM     46  C   UNL A   1      41.931  33.023  32.318  1.00  0.00     0.016 A 
ATOM     47  C   UNL A   1      43.099  32.801  34.470  1.00  0.00     0.016 A 
ATOM     48  C   UNL A   1      42.786  32.101  31.775  1.00  0.00     0.010 A 
ATOM     49  C   UNL A   1      43.920  31.850  33.937  1.00  0.00     0.010 A 
ATOM     50  C   UNL A   1      43.680  31.445  32.628  1.00  0.00    -0.014 A 
BRANCH  50  51
ATOM     51  C   UNL A   1      44.460  30.362  32.092  1.00  0.00     0.031 A 
ATOM     52  C   UNL A   1      45.525  30.865  31.208  1.00  0.00     0.074 A 
ATOM     53  C   UNL A   1      44.271  29.086  32.469  1.00  0.00     0.049 A 
ATOM     54  N   UNL A   1      45.541  30.843  29.919  1.00  0.00    -0.248 NA
ATOM     55  C   UNL A   1      46.549  31.741  31.806  1.00  0.00     0.031 C 
ATOM     56  C   UNL A   1      43.418  28.572  33.543  1.00  0.00     0.029 A 
ATOM     57  N   UNL A   1      44.899  27.970  32.021  1.00  0.00    -0.354 N 
ATOM     58  C   UNL A   1      46.735  31.454  29.570  1.00  0.00     0.074 A 
ATOM     59  C   UNL A   1      47.127  32.231  30.710  1.00  0.00     0.031 C 
ATOM     60  C   UNL A   1      43.766  27.290  33.810  1.00  0.00     0.029 A 
ATOM     61  C   UNL A   1      44.774  26.862  32.851  1.00  0.00     0.049 A 
ATOM     62  H   UNL A   1      45.402  27.947  31.175  1.00  0.00     0.167 HD
ATOM     63  C   UNL A   1      47.463  30.993  28.519  1.00  0.00     0.034 A 
ATOM     64  C   UNL A   1      45.520  25.723  32.795  1.00  0.00     0.034 A 
ATOM     65  C   UNL A   1      46.641  30.170  27.656  1.00  0.00     0.049 A 
ATOM     66  C   UNL A   1      46.119  25.674  31.431  1.00  0.00     0.074 A 
ATOM     67  C   UNL A   1      45.463  30.384  26.962  1.00  0.00     0.029 A 
ATOM     68  N   UNL A   1      46.776  28.800  27.746  1.00  0.00    -0.354 N 
ATOM     69  N   UNL A   1      45.408  25.533  30.344  1.00  0.00    -0.248 NA
ATOM     70  C   UNL A   1      47.419  26.304  31.232  1.00  0.00     0.031 C 
ATOM     71  C   UNL A   1      44.726  29.172  27.100  1.00  0.00     0.029 A 
ATOM     72  C   UNL A   1      45.519  28.246  27.783  1.00  0.00     0.049 A 
ATOM     73  H   UNL A   1      47.627  28.304  27.778  1.00  0.00     0.167 HD
ATOM     74  C   UNL A   1      45.955  26.423  29.430  1.00  0.00     0.074 A 
ATOM     75  C   UNL A   1      47.246  26.801  30.002  1.00  0.00     0.031 C 
ATOM     76  C   UNL A   1      45.189  26.999  28.455  1.00  0.00     0.034 A 
BRANCH  63  77
ATOM     77  C   UNL A   1      48.976  30.934  28.506  1.00  0.00     0.023 A 
ATOM     78  C   UNL A   1      49.618  31.640  27.475  1.00  0.00     0.031 A 
ATOM     79  C   UNL A   1      49.797  30.037  29.233  1.00  0.00     0.131 A 
ATOM     80  C   UNL A   1      50.947  31.356  27.124  1.00  0.00     0.055 A 
ATOM     81  C   UNL A   1      51.139  29.807  28.922  1.00  0.00     0.041 A 
ATOM     82  F   UNL A   1      49.350  29.264  30.227  1.00  0.00    -0.206 F 
ATOM     83  C   UNL A   1      51.713  30.440  27.838  1.00  0.00     0.022 A 
BRANCH  80  84
ATOM     84  S   UNL A   1      51.591  32.075  25.598  1.00  0.00     0.124 S 
ATOM     85  O   UNL A   1      50.538  33.024  25.257  1.00  0.00    -0.237 OA
ATOM     86  O   UNL A   1      52.855  32.647  26.050  1.00  0.00    -0.237 OA
ATOM     87  O   UNL A   1      51.710  30.924  24.708  1.00  0.00    -0.744 OA
ENDBRANCH  80  84
ENDBRANCH  63  77
BRANCH  64  88
ATOM     88  C   UNL A   1      46.026  24.934  33.959  1.00  0.00     0.023 A 
ATOM     89  C   UNL A   1      45.891  23.532  34.068  1.00  0.00     0.031 A 
ATOM     90  C   UNL A   1      46.873  25.558  34.905  1.00  0.00     0.131 A 
ATOM     91  C   UNL A   1      46.575  22.826  35.092  1.00  0.00     0.055 A 
ATOM     92  C   UNL A   1      47.537  24.859  35.914  1.00  0.00     0.041 A 
ATOM     93  F   UNL A   1      47.153  26.869  34.830  1.00  0.00    -0.206 F 
ATOM     94  C   UNL A   1      47.397  23.486  36.009  1.00  0.00     0.022 A 
BRANCH  91  95
ATOM     95  S   UNL A   1      46.464  21.007  35.210  1.00  0.00     0.124 S 
ATOM     96  O   UNL A   1      47.387  20.569  34.171  1.00  0.00    -0.237 OA
ATOM     97  O   UNL A   1      46.869  20.760  36.589  1.00  0.00    -0.237 OA
ATOM     98  O   UNL A   1      45.053  20.731  34.931  1.00  0.00    -0.744 OA
ENDBRANCH  91  95
ENDBRANCH  64  88
BRANCH  76  99
ATOM     99  C   UNL A   1      43.814  26.420  28.174  1.00  0.00     0.023 A 
ATOM    100  C   UNL A   1      42.593  26.930  28.673  1.00  0.00     0.031 A 
ATOM    101  C   UNL A   1      43.747  25.369  27.241  1.00  0.00     0.131 A 
ATOM    102  C   UNL A   1      41.369  26.382  28.235  1.00  0.00     0.055 A 
ATOM    103  C   UNL A   1      42.535  24.846  26.794  1.00  0.00     0.041 A 
ATOM    104  F   UNL A   1      44.870  24.856  26.712  1.00  0.00    -0.206 F 
ATOM    105  C   UNL A   1      41.340  25.348  27.292  1.00  0.00     0.022 A 
BRANCH 102 106
ATOM    106  S   UNL A   1      39.781  26.989  28.893  1.00  0.00     0.124 S 
ATOM    107  O   UNL A   1      38.998  25.772  29.073  1.00  0.00    -0.237 OA
ATOM    108  O   UNL A   1      40.189  27.677  30.115  1.00  0.00    -0.237 OA
ATOM    109  O   UNL A   1      39.291  27.876  27.834  1.00  0.00    -0.744 OA
ENDBRANCH 102 106
ENDBRANCH  76  99
ENDBRANCH  50  51
ENDBRANCH  43  45
ENDBRANCH  42  43
ENDBRANCH  41  42
ENDBRANCH  40  41
ENDBRANCH  39  40
ENDBRANCH  38  39
ENDBRANCH  37  38
ENDBRANCH  36  37
ENDBRANCH   1  36
TORSDOF 28
ENDMDL
MODEL 3
REMARK VINA RESULT:      -8.6      7.641     13.037
REMARK SMILES Cc1c(-c2nn(-c3ccccc3)cc2/C=N/O)nnn1-c1ccc(C(=O)OCCOCCOCCOCCOC(=O)c2ccc(-c3c4nc(c(-c5cc(S(=O)(=O)[O-])ccc5F)c5ccc([nH]5)c(-c5cc(S(=O)(=O)[O-])ccc5F)c5nc(c(-c6cc(S(=O)(=O)[O-])ccc6F)c6ccc3[nH]6)C=C5)C=C4)cc2)cc1
REMARK SMILES IDX 32 1 31 2 30 3 29 4 28 5 27 6 25 7 26 8 24 9 21 10 22 11
REMARK SMILES IDX 106 12 23 13 105 14 20 15 1 16 2 17 3 18 18 19 19 20 4 21
REMARK SMILES IDX 5 22 14 23 6 24 13 25 15 26 16 27 17 28 7 30 8 31 12 32 9 33
REMARK SMILES IDX 11 34 10 35 33 36 34 37 35 38 36 39 37 40 38 41 39 42 40 43
REMARK SMILES IDX 41 44 42 45 43 46 104 47 44 48 103 49 45 50 46 51 47 52
REMARK SMILES IDX 97 53 48 54 102 55 96 56 98 57 49 58 101 59 95 60 94 61
REMARK SMILES IDX 50 63 82 64 62 65 81 66 63 67 66 68 80 69 99 70 64 71 65 72
REMARK SMILES IDX 79 74 100 75 67 76 51 77 52 78 60 79 53 80 59 81 61 82 58 83
REMARK SMILES IDX 54 84 55 85 56 86 57 87 83 88 84 89 92 90 85 91 91 92 93 93
REMARK SMILES IDX 90 94 86 95 87 96 88 97 89 98 68 99 69 100 77 101 70 102
REMARK SMILES IDX 76 103 78 104 75 105 71 106 72 107 73 108 74 109
REMARK H PARENT 17 29 98 62 66 73
REMARK Flexibility Score: inf
ROOT
ATOM      1  C   UNL A   1      40.383  27.424  29.001  1.00  0.00     0.188 C 
ENDROOT
BRANCH   1   2
ATOM      2  C   UNL A   1      41.196  26.757  27.868  1.00  0.00     0.188 C 
BRANCH   2   3
ATOM      3  O   UNL A   1      42.522  26.287  28.065  1.00  0.00    -0.376 OA
BRANCH   3   4
ATOM      4  C   UNL A   1      42.942  24.988  27.684  1.00  0.00     0.202 C 
BRANCH   4   5
ATOM      5  C   UNL A   1      42.696  24.387  26.291  1.00  0.00     0.261 C 
BRANCH   5   6
ATOM      6  O   UNL A   1      42.393  22.996  26.227  1.00  0.00    -0.460 OA
BRANCH   6   7
ATOM      7  C   UNL A   1      41.579  22.540  27.202  1.00  0.00     0.338 C 
ATOM      8  O   UNL A   1      41.889  22.223  28.338  1.00  0.00    -0.246 OA
BRANCH   7   9
ATOM      9  C   UNL A   1      40.183  22.622  26.727  1.00  0.00     0.060 A 
ATOM     10  C   UNL A   1      37.667  22.759  25.585  1.00  0.00     0.067 A 
ATOM     11  C   UNL A   1      38.337  21.535  25.589  1.00  0.00     0.029 A 
ATOM     12  C   UNL A   1      38.183  23.875  26.262  1.00  0.00     0.029 A 
ATOM     13  C   UNL A   1      39.619  21.482  26.130  1.00  0.00     0.018 A 
ATOM     14  C   UNL A   1      39.439  23.799  26.858  1.00  0.00     0.018 A 
BRANCH  10  15
ATOM     15  N   UNL A   1      36.567  22.920  24.720  1.00  0.00    -0.217 N 
ATOM     16  C   UNL A   1      34.830  23.397  26.508  1.00  0.00     0.069 C 
ATOM     17  C   UNL A   1      35.266  23.183  25.106  1.00  0.00     0.071 A 
ATOM     18  C   UNL A   1      34.607  23.336  23.905  1.00  0.00     0.137 A 
ATOM     19  N   UNL A   1      35.495  23.272  22.870  1.00  0.00    -0.128 NA
ATOM     20  N   UNL A   1      36.707  23.100  23.387  1.00  0.00    -0.061 NA
BRANCH  18  21
ATOM     21  C   UNL A   1      33.201  23.663  23.703  1.00  0.00     0.124 A 
ATOM     22  N   UNL A   1      32.806  24.903  23.392  1.00  0.00    -0.165 NA
ATOM     23  C   UNL A   1      32.115  22.780  23.895  1.00  0.00     0.044 A 
ATOM     24  N   UNL A   1      31.460  24.862  23.485  1.00  0.00    -0.240 N 
ATOM     25  C   UNL A   1      31.006  23.600  23.795  1.00  0.00     0.125 A 
BRANCH  23  26
ATOM     26  C   UNL A   1      32.068  21.363  24.159  1.00  0.00     0.166 C 
ATOM     27  N   UNL A   1      31.998  20.933  25.373  1.00  0.00    -0.097 NA
BRANCH  27  28
ATOM     28  O   UNL A   1      32.003  19.533  25.367  1.00  0.00    -0.411 OA
ATOM     29  H   UNL A   1      32.463  19.069  24.695  1.00  0.00     0.330 HD
ENDBRANCH  27  28
ENDBRANCH  23  26
BRANCH  24  30
ATOM     30  C   UNL A   1      30.688  26.034  23.304  1.00  0.00     0.065 A 
ATOM     31  C   UNL A   1      29.428  26.123  23.912  1.00  0.00     0.028 A 
ATOM     32  C   UNL A   1      31.166  27.088  22.514  1.00  0.00     0.028 A 
ATOM     33  C   UNL A   1      28.662  27.277  23.753  1.00  0.00     0.002 A 
ATOM     34  C   UNL A   1      30.368  28.217  22.319  1.00  0.00     0.002 A 
ATOM     35  C   UNL A   1      29.125  28.318  22.947  1.00  0.00     0.000 A 
ENDBRANCH  24  30
ENDBRANCH  18  21
ENDBRANCH  10  15
ENDBRANCH   7   9
ENDBRANCH   6   7
ENDBRANCH   5   6
ENDBRANCH   4   5
ENDBRANCH   3   4
ENDBRANCH   2   3
ENDBRANCH   1   2
BRANCH   1  36
ATOM     36  O   UNL A   1      39.283  28.193  28.546  1.00  0.00    -0.377 OA
BRANCH  36  37
ATOM     37  C   UNL A   1      39.093  29.453  29.188  1.00  0.00     0.188 C 
BRANCH  37  38
ATOM     38  C   UNL A   1      40.248  30.035  30.045  1.00  0.00     0.188 C 
BRANCH  38  39
ATOM     39  O   UNL A   1      39.827  30.813  31.159  1.00  0.00    -0.376 OA
BRANCH  39  40
ATOM     40  C   UNL A   1      38.480  31.215  31.329  1.00  0.00     0.202 C 
BRANCH  40  41
ATOM     41  C   UNL A   1      38.003  31.442  32.758  1.00  0.00     0.261 C 
BRANCH  41  42
ATOM     42  O   UNL A   1      38.268  32.746  33.234  1.00  0.00    -0.460 OA
BRANCH  42  43
ATOM     43  C   UNL A   1      39.409  32.875  33.928  1.00  0.00     0.338 C 
ATOM     44  O   UNL A   1      40.515  33.181  33.487  1.00  0.00    -0.246 OA
BRANCH  43  45
ATOM     45  C   UNL A   1      39.148  32.460  35.300  1.00  0.00     0.060 A 
ATOM     46  C   UNL A   1      37.897  32.796  35.815  1.00  0.00     0.016 A 
ATOM     47  C   UNL A   1      40.255  32.165  36.113  1.00  0.00     0.016 A 
ATOM     48  C   UNL A   1      37.836  33.139  37.140  1.00  0.00     0.010 A 
ATOM     49  C   UNL A   1      40.202  32.550  37.421  1.00  0.00     0.010 A 
ATOM     50  C   UNL A   1      39.022  33.125  37.881  1.00  0.00    -0.014 A 
BRANCH  50  51
ATOM     51  C   UNL A   1      38.990  33.642  39.224  1.00  0.00     0.031 A 
ATOM     52  C   UNL A   1      39.676  34.941  39.307  1.00  0.00     0.074 A 
ATOM     53  C   UNL A   1      38.311  33.031  40.211  1.00  0.00     0.049 A 
ATOM     54  N   UNL A   1      40.850  35.171  39.789  1.00  0.00    -0.248 NA
ATOM     55  C   UNL A   1      39.124  36.055  38.515  1.00  0.00     0.031 C 
ATOM     56  C   UNL A   1      37.391  31.896  40.115  1.00  0.00     0.029 A 
ATOM     57  N   UNL A   1      38.226  33.379  41.519  1.00  0.00    -0.354 N 
ATOM     58  C   UNL A   1      41.044  36.532  39.611  1.00  0.00     0.074 A 
ATOM     59  C   UNL A   1      40.127  36.929  38.582  1.00  0.00     0.031 C 
ATOM     60  C   UNL A   1      36.672  31.809  41.260  1.00  0.00     0.029 A 
ATOM     61  C   UNL A   1      37.165  32.801  42.205  1.00  0.00     0.049 A 
ATOM     62  H   UNL A   1      38.866  33.992  41.948  1.00  0.00     0.167 HD
ATOM     63  C   UNL A   1      41.683  37.266  40.559  1.00  0.00     0.034 A 
ATOM     64  C   UNL A   1      36.683  33.186  43.420  1.00  0.00     0.034 A 
ATOM     65  C   UNL A   1      42.443  36.403  41.441  1.00  0.00     0.049 A 
ATOM     66  C   UNL A   1      37.766  33.970  44.077  1.00  0.00     0.074 A 
ATOM     67  C   UNL A   1      43.449  35.474  41.243  1.00  0.00     0.029 A 
ATOM     68  N   UNL A   1      41.915  36.121  42.685  1.00  0.00    -0.354 N 
ATOM     69  N   UNL A   1      38.906  33.446  44.442  1.00  0.00    -0.248 NA
ATOM     70  C   UNL A   1      37.802  35.411  43.851  1.00  0.00     0.031 C 
ATOM     71  C   UNL A   1      43.150  34.408  42.140  1.00  0.00     0.029 A 
ATOM     72  C   UNL A   1      42.042  34.771  42.908  1.00  0.00     0.049 A 
ATOM     73  H   UNL A   1      41.518  36.775  43.305  1.00  0.00     0.167 HD
ATOM     74  C   UNL A   1      39.871  34.375  44.073  1.00  0.00     0.074 A 
ATOM     75  C   UNL A   1      39.124  35.603  43.800  1.00  0.00     0.031 C 
ATOM     76  C   UNL A   1      41.137  33.986  43.733  1.00  0.00     0.034 A 
BRANCH  63  77
ATOM     77  C   UNL A   1      41.286  38.677  40.939  1.00  0.00     0.023 A 
ATOM     78  C   UNL A   1      42.214  39.687  40.639  1.00  0.00     0.031 A 
ATOM     79  C   UNL A   1      40.228  39.059  41.801  1.00  0.00     0.131 A 
ATOM     80  C   UNL A   1      42.149  40.939  41.270  1.00  0.00     0.055 A 
ATOM     81  C   UNL A   1      40.131  40.328  42.375  1.00  0.00     0.041 A 
ATOM     82  F   UNL A   1      39.272  38.222  42.215  1.00  0.00    -0.206 F 
ATOM     83  C   UNL A   1      41.115  41.267  42.142  1.00  0.00     0.022 A 
BRANCH  80  84
ATOM     84  S   UNL A   1      43.550  42.062  41.070  1.00  0.00     0.124 S 
ATOM     85  O   UNL A   1      43.317  43.011  42.154  1.00  0.00    -0.237 OA
ATOM     86  O   UNL A   1      44.682  41.157  41.235  1.00  0.00    -0.237 OA
ATOM     87  O   UNL A   1      43.365  42.593  39.722  1.00  0.00    -0.744 OA
ENDBRANCH  80  84
ENDBRANCH  63  77
BRANCH  64  88
ATOM     88  C   UNL A   1      35.247  33.236  43.831  1.00  0.00     0.023 A 
ATOM     89  C   UNL A   1      34.228  33.811  43.039  1.00  0.00     0.031 A 
ATOM     90  C   UNL A   1      34.822  32.493  44.957  1.00  0.00     0.131 A 
ATOM     91  C   UNL A   1      32.865  33.638  43.393  1.00  0.00     0.055 A 
ATOM     92  C   UNL A   1      33.479  32.333  45.304  1.00  0.00     0.041 A 
ATOM     93  F   UNL A   1      35.699  31.821  45.719  1.00  0.00    -0.206 F 
ATOM     94  C   UNL A   1      32.492  32.900  44.518  1.00  0.00     0.022 A 
BRANCH  91  95
ATOM     95  S   UNL A   1      31.532  34.318  42.346  1.00  0.00     0.124 S 
ATOM     96  O   UNL A   1      32.004  35.672  42.079  1.00  0.00    -0.237 OA
ATOM     97  O   UNL A   1      31.523  33.397  41.216  1.00  0.00    -0.237 OA
ATOM     98  O   UNL A   1      30.349  34.242  43.205  1.00  0.00    -0.744 OA
ENDBRANCH  91  95
ENDBRANCH  64  88
BRANCH  76  99
ATOM     99  C   UNL A   1      41.577  32.573  44.068  1.00  0.00     0.023 A 
ATOM    100  C   UNL A   1      42.075  32.145  45.321  1.00  0.00     0.031 A 
ATOM    101  C   UNL A   1      41.350  31.589  43.088  1.00  0.00     0.131 A 
ATOM    102  C   UNL A   1      42.328  30.775  45.547  1.00  0.00     0.055 A 
ATOM    103  C   UNL A   1      41.579  30.235  43.324  1.00  0.00     0.041 A 
ATOM    104  F   UNL A   1      40.855  31.929  41.886  1.00  0.00    -0.206 F 
ATOM    105  C   UNL A   1      42.073  29.822  44.554  1.00  0.00     0.022 A 
BRANCH 102 106
ATOM    106  S   UNL A   1      43.011  30.198  47.136  1.00  0.00     0.124 S 
ATOM    107  O   UNL A   1      43.192  31.429  47.897  1.00  0.00    -0.237 OA
ATOM    108  O   UNL A   1      41.969  29.295  47.617  1.00  0.00    -0.237 OA
ATOM    109  O   UNL A   1      44.258  29.534  46.749  1.00  0.00    -0.744 OA
ENDBRANCH 102 106
ENDBRANCH  76  99
ENDBRANCH  50  51
ENDBRANCH  43  45
ENDBRANCH  42  43
ENDBRANCH  41  42
ENDBRANCH  40  41
ENDBRANCH  39  40
ENDBRANCH  38  39
ENDBRANCH  37  38
ENDBRANCH  36  37
ENDBRANCH   1  36
TORSDOF 28
ENDMDL
