MODEL 1
REMARK VINA RESULT:      -9.9      0.000      0.000
REMARK SMILES Cc1cc(Nc2ccc(C(=O)OCCOCCOCCOCCOC(=O)c3ccc(-c4c5nc(c(-c6cc(S(=O)(=O)[O-])ccc6F)c6ccc([nH]6)c(-c6cc(S(=O)(=O)[O-])ccc6F)c6nc(c(-c7cc(S(=O)(=O)[O-])ccc7F)c7ccc4[nH]7)C=C6)C=C5)cc3)cc2)nc(-n2nc(C)cc2C)n1
REMARK SMILES IDX 18 1 17 2 16 3 15 4 14 5 13 6 12 7 10 8 11 9 9 10 6 11 7 12
REMARK SMILES IDX 91 13 8 14 90 15 5 16 4 18 1 19 2 20 3 21 101 22 93 23 92 24
REMARK SMILES IDX 94 25 95 26 99 27 96 28 98 29 100 30 97 31 19 32 20 33 21 34
REMARK SMILES IDX 22 35 23 36 24 37 25 38 26 39 27 40 28 41 89 42 29 43 88 44
REMARK SMILES IDX 30 45 31 46 32 47 82 48 33 49 87 50 81 51 83 52 34 53 86 54
REMARK SMILES IDX 80 55 79 56 35 58 67 59 47 60 66 61 48 62 51 63 65 64 84 65
REMARK SMILES IDX 49 66 50 67 64 69 85 70 52 71 36 72 37 73 45 74 38 75 44 76
REMARK SMILES IDX 46 77 43 78 39 79 40 80 41 81 42 82 68 83 69 84 77 85 70 86
REMARK SMILES IDX 76 87 78 88 75 89 71 90 72 91 73 92 74 93 53 94 54 95 62 96
REMARK SMILES IDX 55 97 61 98 63 99 60 100 56 101 57 102 58 103 59 104
REMARK H PARENT 5 17 83 57 51 68
REMARK Flexibility Score: inf
ROOT
ATOM      1  O   UNL A   1      32.913  22.191  25.649  1.00  0.00    -0.377 OA
ENDROOT
BRANCH   1   2
ATOM      2  C   UNL A   1      31.907  23.098  25.231  1.00  0.00     0.188 C 
BRANCH   2   3
ATOM      3  C   UNL A   1      31.377  22.909  23.797  1.00  0.00     0.188 C 
BRANCH   3   4
ATOM      4  O   UNL A   1      31.837  23.886  22.882  1.00  0.00    -0.376 OA
BRANCH   4   5
ATOM      5  C   UNL A   1      32.722  24.913  23.289  1.00  0.00     0.202 C 
BRANCH   5   6
ATOM      6  C   UNL A   1      32.323  26.397  23.362  1.00  0.00     0.261 C 
BRANCH   6   7
ATOM      7  O   UNL A   1      32.223  26.985  24.658  1.00  0.00    -0.460 OA
BRANCH   7   8
ATOM      8  C   UNL A   1      31.787  28.258  24.724  1.00  0.00     0.338 C 
ATOM      9  O   UNL A   1      30.757  28.705  24.250  1.00  0.00    -0.246 OA
BRANCH   8  10
ATOM     10  C   UNL A   1      32.657  28.982  25.680  1.00  0.00     0.060 A 
ATOM     11  C   UNL A   1      34.260  30.477  27.416  1.00  0.00     0.040 A 
ATOM     12  C   UNL A   1      32.915  30.816  27.239  1.00  0.00     0.027 A 
ATOM     13  C   UNL A   1      34.762  29.319  26.798  1.00  0.00     0.027 A 
ATOM     14  C   UNL A   1      32.121  30.082  26.360  1.00  0.00     0.018 A 
ATOM     15  C   UNL A   1      33.965  28.564  25.939  1.00  0.00     0.018 A 
BRANCH  11  16
ATOM     16  N   UNL A   1      35.143  31.429  27.972  1.00  0.00    -0.340 N 
ATOM     17  H   UNL A   1      35.642  32.028  27.371  1.00  0.00     0.168 HD
BRANCH  16  18
ATOM     18  C   UNL A   1      35.329  31.545  29.366  1.00  0.00     0.136 A 
ATOM     19  C   UNL A   1      37.003  29.837  32.243  1.00  0.00     0.067 C 
ATOM     20  C   UNL A   1      36.321  30.855  31.381  1.00  0.00     0.045 A 
ATOM     21  C   UNL A   1      36.072  30.605  30.045  1.00  0.00     0.070 A 
ATOM     22  N   UNL A   1      35.935  31.994  31.992  1.00  0.00    -0.216 NA
ATOM     23  C   UNL A   1      35.159  32.831  31.271  1.00  0.00     0.252 A 
ATOM     24  N   UNL A   1      34.815  32.613  29.995  1.00  0.00    -0.194 NA
BRANCH  23  25
ATOM     25  N   UNL A   1      34.703  34.048  31.880  1.00  0.00    -0.203 N 
ATOM     26  N   UNL A   1      33.475  34.575  31.596  1.00  0.00    -0.170 NA
ATOM     27  C   UNL A   1      35.392  34.835  32.792  1.00  0.00     0.045 A 
ATOM     28  C   UNL A   1      33.340  35.600  32.441  1.00  0.00     0.060 A 
ATOM     29  C   UNL A   1      34.515  35.823  33.186  1.00  0.00     0.049 A 
ATOM     30  C   UNL A   1      36.825  34.635  33.114  1.00  0.00     0.067 C 
ATOM     31  C   UNL A   1      32.067  36.358  32.501  1.00  0.00     0.069 C 
ENDBRANCH  23  25
ENDBRANCH  16  18
ENDBRANCH  11  16
ENDBRANCH   8  10
ENDBRANCH   7   8
ENDBRANCH   6   7
ENDBRANCH   5   6
ENDBRANCH   4   5
ENDBRANCH   3   4
ENDBRANCH   2   3
ENDBRANCH   1   2
BRANCH   1  32
ATOM     32  C   UNL A   1      34.006  22.663  26.437  1.00  0.00     0.188 C 
BRANCH  32  33
ATOM     33  C   UNL A   1      35.489  22.377  26.087  1.00  0.00     0.188 C 
BRANCH  33  34
ATOM     34  O   UNL A   1      35.695  21.615  24.907  1.00  0.00    -0.376 OA
BRANCH  34  35
ATOM     35  C   UNL A   1      37.015  21.209  24.597  1.00  0.00     0.202 C 
BRANCH  35  36
ATOM     36  C   UNL A   1      37.989  21.112  25.780  1.00  0.00     0.261 C 
BRANCH  36  37
ATOM     37  O   UNL A   1      39.306  21.632  25.546  1.00  0.00    -0.460 OA
BRANCH  37  38
ATOM     38  C   UNL A   1      40.336  20.863  25.957  1.00  0.00     0.338 C 
ATOM     39  O   UNL A   1      40.360  19.640  25.997  1.00  0.00    -0.246 OA
BRANCH  38  40
ATOM     40  C   UNL A   1      41.509  21.731  26.165  1.00  0.00     0.060 A 
ATOM     41  C   UNL A   1      42.758  21.133  26.377  1.00  0.00     0.016 A 
ATOM     42  C   UNL A   1      41.377  23.122  26.174  1.00  0.00     0.016 A 
ATOM     43  C   UNL A   1      43.866  21.925  26.670  1.00  0.00     0.010 A 
ATOM     44  C   UNL A   1      42.485  23.914  26.483  1.00  0.00     0.010 A 
ATOM     45  C   UNL A   1      43.720  23.314  26.788  1.00  0.00    -0.014 A 
BRANCH  45  46
ATOM     46  C   UNL A   1      44.782  24.085  27.482  1.00  0.00     0.031 A 
ATOM     47  C   UNL A   1      44.696  24.213  28.981  1.00  0.00     0.074 A 
ATOM     48  C   UNL A   1      45.836  24.590  26.817  1.00  0.00     0.049 A 
ATOM     49  N   UNL A   1      45.512  24.798  29.819  1.00  0.00    -0.248 NA
ATOM     50  C   UNL A   1      43.522  23.596  29.619  1.00  0.00     0.031 C 
ATOM     51  C   UNL A   1      46.056  24.479  25.376  1.00  0.00     0.029 A 
ATOM     52  N   UNL A   1      46.926  25.287  27.273  1.00  0.00    -0.354 N 
ATOM     53  C   UNL A   1      44.946  24.628  31.079  1.00  0.00     0.074 A 
ATOM     54  C   UNL A   1      43.695  23.929  30.886  1.00  0.00     0.031 C 
ATOM     55  C   UNL A   1      47.223  25.074  25.069  1.00  0.00     0.029 A 
ATOM     56  C   UNL A   1      47.811  25.641  26.282  1.00  0.00     0.049 A 
ATOM     57  H   UNL A   1      47.062  25.514  28.221  1.00  0.00     0.167 HD
ATOM     58  C   UNL A   1      45.432  25.008  32.287  1.00  0.00     0.034 A 
ATOM     59  C   UNL A   1      48.958  26.346  26.350  1.00  0.00     0.034 A 
ATOM     60  C   UNL A   1      46.677  25.714  32.458  1.00  0.00     0.049 A 
ATOM     61  C   UNL A   1      49.432  26.843  27.697  1.00  0.00     0.074 A 
ATOM     62  C   UNL A   1      47.275  26.135  33.632  1.00  0.00     0.029 A 
ATOM     63  N   UNL A   1      47.511  26.122  31.422  1.00  0.00    -0.354 N 
ATOM     64  N   UNL A   1      48.898  26.665  28.884  1.00  0.00    -0.248 NA
ATOM     65  C   UNL A   1      50.675  27.626  27.710  1.00  0.00     0.031 C 
ATOM     66  C   UNL A   1      48.416  26.874  33.303  1.00  0.00     0.029 A 
ATOM     67  C   UNL A   1      48.593  26.826  31.930  1.00  0.00     0.049 A 
ATOM     68  H   UNL A   1      47.356  25.937  30.468  1.00  0.00     0.167 HD
ATOM     69  C   UNL A   1      49.767  27.275  29.788  1.00  0.00     0.074 A 
ATOM     70  C   UNL A   1      50.862  27.814  29.007  1.00  0.00     0.031 C 
ATOM     71  C   UNL A   1      49.676  27.370  31.141  1.00  0.00     0.034 A 
BRANCH  58  72
ATOM     72  C   UNL A   1      44.570  24.728  33.498  1.00  0.00     0.023 A 
ATOM     73  C   UNL A   1      43.592  25.634  33.947  1.00  0.00     0.031 A 
ATOM     74  C   UNL A   1      44.772  23.557  34.251  1.00  0.00     0.131 A 
ATOM     75  C   UNL A   1      42.923  25.400  35.159  1.00  0.00     0.055 A 
ATOM     76  C   UNL A   1      44.034  23.284  35.404  1.00  0.00     0.041 A 
ATOM     77  F   UNL A   1      45.709  22.666  33.892  1.00  0.00    -0.206 F 
ATOM     78  C   UNL A   1      43.116  24.218  35.875  1.00  0.00     0.022 A 
BRANCH  75  79
ATOM     79  S   UNL A   1      41.938  26.744  35.879  1.00  0.00     0.124 S 
ATOM     80  O   UNL A   1      42.863  27.290  36.870  1.00  0.00    -0.237 OA
ATOM     81  O   UNL A   1      41.667  27.590  34.723  1.00  0.00    -0.237 OA
ATOM     82  O   UNL A   1      40.776  26.055  36.437  1.00  0.00    -0.744 OA
ENDBRANCH  75  79
ENDBRANCH  58  72
BRANCH  59  83
ATOM     83  C   UNL A   1      49.743  26.642  25.116  1.00  0.00     0.023 A 
ATOM     84  C   UNL A   1      49.172  27.351  24.046  1.00  0.00     0.031 A 
ATOM     85  C   UNL A   1      51.057  26.165  24.962  1.00  0.00     0.131 A 
ATOM     86  C   UNL A   1      49.894  27.519  22.853  1.00  0.00     0.055 A 
ATOM     87  C   UNL A   1      51.793  26.387  23.797  1.00  0.00     0.041 A 
ATOM     88  F   UNL A   1      51.650  25.476  25.950  1.00  0.00    -0.206 F 
ATOM     89  C   UNL A   1      51.206  27.056  22.727  1.00  0.00     0.022 A 
BRANCH  86  90
ATOM     90  S   UNL A   1      49.057  28.272  21.431  1.00  0.00     0.124 S 
ATOM     91  O   UNL A   1      47.751  28.595  21.993  1.00  0.00    -0.237 OA
ATOM     92  O   UNL A   1      49.926  29.406  21.133  1.00  0.00    -0.237 OA
ATOM     93  O   UNL A   1      49.061  27.207  20.431  1.00  0.00    -0.744 OA
ENDBRANCH  86  90
ENDBRANCH  59  83
BRANCH  71  94
ATOM     94  C   UNL A   1      50.830  28.028  31.867  1.00  0.00     0.023 A 
ATOM     95  C   UNL A   1      51.917  27.292  32.368  1.00  0.00     0.031 A 
ATOM     96  C   UNL A   1      50.822  29.419  32.085  1.00  0.00     0.131 A 
ATOM     97  C   UNL A   1      52.906  27.935  33.130  1.00  0.00     0.055 A 
ATOM     98  C   UNL A   1      51.850  30.064  32.773  1.00  0.00     0.041 A 
ATOM     99  F   UNL A   1      49.809  30.177  31.634  1.00  0.00    -0.206 F 
ATOM    100  C   UNL A   1      52.890  29.319  33.318  1.00  0.00     0.022 A 
BRANCH  97 101
ATOM    101  S   UNL A   1      54.140  26.919  33.990  1.00  0.00     0.124 S 
ATOM    102  O   UNL A   1      55.391  27.443  33.451  1.00  0.00    -0.237 OA
ATOM    103  O   UNL A   1      53.872  27.224  35.391  1.00  0.00    -0.237 OA
ATOM    104  O   UNL A   1      53.810  25.556  33.577  1.00  0.00    -0.744 OA
ENDBRANCH  97 101
ENDBRANCH  71  94
ENDBRANCH  45  46
ENDBRANCH  38  40
ENDBRANCH  37  38
ENDBRANCH  36  37
ENDBRANCH  35  36
ENDBRANCH  34  35
ENDBRANCH  33  34
ENDBRANCH  32  33
ENDBRANCH   1  32
TORSDOF 26
ENDMDL
MODEL 2
REMARK VINA RESULT:      -9.5      5.952     12.406
REMARK SMILES Cc1cc(Nc2ccc(C(=O)OCCOCCOCCOCCOC(=O)c3ccc(-c4c5nc(c(-c6cc(S(=O)(=O)[O-])ccc6F)c6ccc([nH]6)c(-c6cc(S(=O)(=O)[O-])ccc6F)c6nc(c(-c7cc(S(=O)(=O)[O-])ccc7F)c7ccc4[nH]7)C=C6)C=C5)cc3)cc2)nc(-n2nc(C)cc2C)n1
REMARK SMILES IDX 18 1 17 2 16 3 15 4 14 5 13 6 12 7 10 8 11 9 9 10 6 11 7 12
REMARK SMILES IDX 91 13 8 14 90 15 5 16 4 18 1 19 2 20 3 21 101 22 93 23 92 24
REMARK SMILES IDX 94 25 95 26 99 27 96 28 98 29 100 30 97 31 19 32 20 33 21 34
REMARK SMILES IDX 22 35 23 36 24 37 25 38 26 39 27 40 28 41 89 42 29 43 88 44
REMARK SMILES IDX 30 45 31 46 32 47 82 48 33 49 87 50 81 51 83 52 34 53 86 54
REMARK SMILES IDX 80 55 79 56 35 58 67 59 47 60 66 61 48 62 51 63 65 64 84 65
REMARK SMILES IDX 49 66 50 67 64 69 85 70 52 71 36 72 37 73 45 74 38 75 44 76
REMARK SMILES IDX 46 77 43 78 39 79 40 80 41 81 42 82 68 83 69 84 77 85 70 86
REMARK SMILES IDX 76 87 78 88 75 89 71 90 72 91 73 92 74 93 53 94 54 95 62 96
REMARK SMILES IDX 55 97 61 98 63 99 60 100 56 101 57 102 58 103 59 104
REMARK H PARENT 5 17 83 57 51 68
REMARK Flexibility Score: inf
ROOT
ATOM      1  O   UNL A   1      42.415  26.620  28.795  1.00  0.00    -0.377 OA
ENDROOT
BRANCH   1   2
ATOM      2  C   UNL A   1      41.059  26.863  29.129  1.00  0.00     0.188 C 
BRANCH   2   3
ATOM      3  C   UNL A   1      40.151  27.330  27.975  1.00  0.00     0.188 C 
BRANCH   3   4
ATOM      4  O   UNL A   1      39.422  26.285  27.359  1.00  0.00    -0.376 OA
BRANCH   4   5
ATOM      5  C   UNL A   1      39.870  24.944  27.420  1.00  0.00     0.202 C 
BRANCH   5   6
ATOM      6  C   UNL A   1      39.073  23.757  26.852  1.00  0.00     0.261 C 
BRANCH   6   7
ATOM      7  O   UNL A   1      37.714  23.994  26.491  1.00  0.00    -0.460 OA
BRANCH   7   8
ATOM      8  C   UNL A   1      37.113  23.072  25.714  1.00  0.00     0.338 C 
ATOM      9  O   UNL A   1      37.572  21.999  25.362  1.00  0.00    -0.246 OA
BRANCH   8  10
ATOM     10  C   UNL A   1      35.698  23.476  25.550  1.00  0.00     0.060 A 
ATOM     11  C   UNL A   1      33.073  24.372  25.192  1.00  0.00     0.040 A 
ATOM     12  C   UNL A   1      33.995  24.472  24.146  1.00  0.00     0.027 A 
ATOM     13  C   UNL A   1      33.451  23.722  26.379  1.00  0.00     0.027 A 
ATOM     14  C   UNL A   1      35.308  24.042  24.330  1.00  0.00     0.018 A 
ATOM     15  C   UNL A   1      34.755  23.264  26.560  1.00  0.00     0.018 A 
BRANCH  11  16
ATOM     16  N   UNL A   1      31.895  25.151  25.149  1.00  0.00    -0.340 N 
ATOM     17  H   UNL A   1      31.028  24.719  25.322  1.00  0.00     0.168 HD
BRANCH  16  18
ATOM     18  C   UNL A   1      31.929  26.533  24.865  1.00  0.00     0.136 A 
ATOM     19  C   UNL A   1      30.435  29.082  22.570  1.00  0.00     0.067 C 
ATOM     20  C   UNL A   1      31.137  28.425  23.718  1.00  0.00     0.045 A 
ATOM     21  C   UNL A   1      31.153  27.050  23.851  1.00  0.00     0.070 A 
ATOM     22  N   UNL A   1      31.777  29.246  24.577  1.00  0.00    -0.216 NA
ATOM     23  C   UNL A   1      32.563  28.655  25.503  1.00  0.00     0.252 A 
ATOM     24  N   UNL A   1      32.685  27.328  25.638  1.00  0.00    -0.194 NA
BRANCH  23  25
ATOM     25  N   UNL A   1      33.282  29.482  26.428  1.00  0.00    -0.203 N 
ATOM     26  N   UNL A   1      34.461  29.076  26.987  1.00  0.00    -0.170 NA
ATOM     27  C   UNL A   1      32.920  30.745  26.878  1.00  0.00     0.045 A 
ATOM     28  C   UNL A   1      34.905  30.141  27.660  1.00  0.00     0.060 A 
ATOM     29  C   UNL A   1      33.970  31.194  27.649  1.00  0.00     0.049 A 
ATOM     30  C   UNL A   1      31.589  31.344  26.619  1.00  0.00     0.067 C 
ATOM     31  C   UNL A   1      36.234  30.109  28.318  1.00  0.00     0.069 C 
ENDBRANCH  23  25
ENDBRANCH  16  18
ENDBRANCH  11  16
ENDBRANCH   8  10
ENDBRANCH   7   8
ENDBRANCH   6   7
ENDBRANCH   5   6
ENDBRANCH   4   5
ENDBRANCH   3   4
ENDBRANCH   2   3
ENDBRANCH   1   2
BRANCH   1  32
ATOM     32  C   UNL A   1      43.445  27.382  29.425  1.00  0.00     0.188 C 
BRANCH  32  33
ATOM     33  C   UNL A   1      44.940  26.974  29.397  1.00  0.00     0.188 C 
BRANCH  33  34
ATOM     34  O   UNL A   1      45.602  27.188  28.159  1.00  0.00    -0.376 OA
BRANCH  34  35
ATOM     35  C   UNL A   1      46.366  28.369  28.007  1.00  0.00     0.202 C 
BRANCH  35  36
ATOM     36  C   UNL A   1      46.187  29.126  26.684  1.00  0.00     0.261 C 
BRANCH  36  37
ATOM     37  O   UNL A   1      44.931  29.797  26.515  1.00  0.00    -0.460 OA
BRANCH  37  38
ATOM     38  C   UNL A   1      44.944  31.139  26.654  1.00  0.00     0.338 C 
ATOM     39  O   UNL A   1      45.481  31.943  25.905  1.00  0.00    -0.246 OA
BRANCH  38  40
ATOM     40  C   UNL A   1      44.031  31.501  27.754  1.00  0.00     0.060 A 
ATOM     41  C   UNL A   1      44.065  32.809  28.253  1.00  0.00     0.016 A 
ATOM     42  C   UNL A   1      43.166  30.553  28.306  1.00  0.00     0.016 A 
ATOM     43  C   UNL A   1      43.284  33.154  29.353  1.00  0.00     0.010 A 
ATOM     44  C   UNL A   1      42.394  30.894  29.419  1.00  0.00     0.010 A 
ATOM     45  C   UNL A   1      42.494  32.181  29.980  1.00  0.00    -0.014 A 
BRANCH  45  46
ATOM     46  C   UNL A   1      41.997  32.444  31.355  1.00  0.00     0.031 A 
ATOM     47  C   UNL A   1      40.543  32.803  31.523  1.00  0.00     0.074 A 
ATOM     48  C   UNL A   1      42.788  32.294  32.431  1.00  0.00     0.049 A 
ATOM     49  N   UNL A   1      39.861  33.042  32.612  1.00  0.00    -0.248 NA
ATOM     50  C   UNL A   1      39.754  32.910  30.285  1.00  0.00     0.031 C 
ATOM     51  C   UNL A   1      44.194  31.894  32.396  1.00  0.00     0.029 A 
ATOM     52  N   UNL A   1      42.513  32.447  33.766  1.00  0.00    -0.354 N 
ATOM     53  C   UNL A   1      38.567  33.335  32.192  1.00  0.00     0.074 A 
ATOM     54  C   UNL A   1      38.575  33.292  30.746  1.00  0.00     0.031 C 
ATOM     55  C   UNL A   1      44.654  31.818  33.658  1.00  0.00     0.029 A 
ATOM     56  C   UNL A   1      43.590  32.199  34.586  1.00  0.00     0.049 A 
ATOM     57  H   UNL A   1      41.628  32.711  34.107  1.00  0.00     0.167 HD
ATOM     58  C   UNL A   1      37.470  33.602  32.942  1.00  0.00     0.034 A 
ATOM     59  C   UNL A   1      43.700  32.280  35.927  1.00  0.00     0.034 A 
ATOM     60  C   UNL A   1      37.483  33.651  34.384  1.00  0.00     0.049 A 
ATOM     61  C   UNL A   1      42.486  32.673  36.739  1.00  0.00     0.074 A 
ATOM     62  C   UNL A   1      36.431  33.896  35.248  1.00  0.00     0.029 A 
ATOM     63  N   UNL A   1      38.611  33.468  35.176  1.00  0.00    -0.354 N 
ATOM     64  N   UNL A   1      41.264  32.935  36.333  1.00  0.00    -0.248 NA
ATOM     65  C   UNL A   1      42.669  32.768  38.192  1.00  0.00     0.031 C 
ATOM     66  C   UNL A   1      36.938  33.954  36.550  1.00  0.00     0.029 A 
ATOM     67  C   UNL A   1      38.287  33.639  36.515  1.00  0.00     0.049 A 
ATOM     68  H   UNL A   1      39.509  33.250  34.837  1.00  0.00     0.167 HD
ATOM     69  C   UNL A   1      40.523  33.178  37.489  1.00  0.00     0.074 A 
ATOM     70  C   UNL A   1      41.436  33.022  38.603  1.00  0.00     0.031 C 
ATOM     71  C   UNL A   1      39.208  33.490  37.620  1.00  0.00     0.034 A 
BRANCH  58  72
ATOM     72  C   UNL A   1      36.192  33.933  32.205  1.00  0.00     0.023 A 
ATOM     73  C   UNL A   1      35.589  35.202  32.283  1.00  0.00     0.031 A 
ATOM     74  C   UNL A   1      35.533  32.941  31.456  1.00  0.00     0.131 A 
ATOM     75  C   UNL A   1      34.327  35.416  31.705  1.00  0.00     0.055 A 
ATOM     76  C   UNL A   1      34.325  33.189  30.802  1.00  0.00     0.041 A 
ATOM     77  F   UNL A   1      36.041  31.702  31.365  1.00  0.00    -0.206 F 
ATOM     78  C   UNL A   1      33.705  34.427  30.940  1.00  0.00     0.022 A 
BRANCH  75  79
ATOM     79  S   UNL A   1      33.430  36.937  32.121  1.00  0.00     0.124 S 
ATOM     80  O   UNL A   1      32.750  37.233  30.861  1.00  0.00    -0.237 OA
ATOM     81  O   UNL A   1      32.576  36.509  33.223  1.00  0.00    -0.237 OA
ATOM     82  O   UNL A   1      34.492  37.875  32.480  1.00  0.00    -0.744 OA
ENDBRANCH  75  79
ENDBRANCH  58  72
BRANCH  59  83
ATOM     83  C   UNL A   1      45.000  31.996  36.601  1.00  0.00     0.023 A 
ATOM     84  C   UNL A   1      45.321  30.700  37.039  1.00  0.00     0.031 A 
ATOM     85  C   UNL A   1      45.915  33.028  36.876  1.00  0.00     0.131 A 
ATOM     86  C   UNL A   1      46.500  30.480  37.771  1.00  0.00     0.055 A 
ATOM     87  C   UNL A   1      47.114  32.794  37.551  1.00  0.00     0.041 A 
ATOM     88  F   UNL A   1      45.655  34.287  36.487  1.00  0.00    -0.206 F 
ATOM     89  C   UNL A   1      47.406  31.515  38.015  1.00  0.00     0.022 A 
BRANCH  86  90
ATOM     90  S   UNL A   1      46.788  28.836  38.480  1.00  0.00     0.124 S 
ATOM     91  O   UNL A   1      45.490  28.540  39.076  1.00  0.00    -0.237 OA
ATOM     92  O   UNL A   1      47.147  28.055  37.300  1.00  0.00    -0.237 OA
ATOM     93  O   UNL A   1      47.876  29.061  39.430  1.00  0.00    -0.744 OA
ENDBRANCH  86  90
ENDBRANCH  59  83
BRANCH  71  94
ATOM     94  C   UNL A   1      38.663  33.618  39.026  1.00  0.00     0.023 A 
ATOM     95  C   UNL A   1      37.930  32.588  39.641  1.00  0.00     0.031 A 
ATOM     96  C   UNL A   1      38.860  34.807  39.752  1.00  0.00     0.131 A 
ATOM     97  C   UNL A   1      37.352  32.797  40.904  1.00  0.00     0.055 A 
ATOM     98  C   UNL A   1      38.352  34.979  41.041  1.00  0.00     0.041 A 
ATOM     99  F   UNL A   1      39.549  35.829  39.218  1.00  0.00    -0.206 F 
ATOM    100  C   UNL A   1      37.577  33.979  41.616  1.00  0.00     0.022 A 
BRANCH  97 101
ATOM    101  S   UNL A   1      36.190  31.561  41.545  1.00  0.00     0.124 S 
ATOM    102  O   UNL A   1      35.476  31.161  40.337  1.00  0.00    -0.237 OA
ATOM    103  O   UNL A   1      37.084  30.560  42.118  1.00  0.00    -0.237 OA
ATOM    104  O   UNL A   1      35.394  32.309  42.516  1.00  0.00    -0.744 OA
ENDBRANCH  97 101
ENDBRANCH  71  94
ENDBRANCH  45  46
ENDBRANCH  38  40
ENDBRANCH  37  38
ENDBRANCH  36  37
ENDBRANCH  35  36
ENDBRANCH  34  35
ENDBRANCH  33  34
ENDBRANCH  32  33
ENDBRANCH   1  32
TORSDOF 26
ENDMDL
MODEL 3
REMARK VINA RESULT:      -9.3      5.024     10.392
REMARK SMILES Cc1cc(Nc2ccc(C(=O)OCCOCCOCCOCCOC(=O)c3ccc(-c4c5nc(c(-c6cc(S(=O)(=O)[O-])ccc6F)c6ccc([nH]6)c(-c6cc(S(=O)(=O)[O-])ccc6F)c6nc(c(-c7cc(S(=O)(=O)[O-])ccc7F)c7ccc4[nH]7)C=C6)C=C5)cc3)cc2)nc(-n2nc(C)cc2C)n1
REMARK SMILES IDX 18 1 17 2 16 3 15 4 14 5 13 6 12 7 10 8 11 9 9 10 6 11 7 12
REMARK SMILES IDX 91 13 8 14 90 15 5 16 4 18 1 19 2 20 3 21 101 22 93 23 92 24
REMARK SMILES IDX 94 25 95 26 99 27 96 28 98 29 100 30 97 31 19 32 20 33 21 34
REMARK SMILES IDX 22 35 23 36 24 37 25 38 26 39 27 40 28 41 89 42 29 43 88 44
REMARK SMILES IDX 30 45 31 46 32 47 82 48 33 49 87 50 81 51 83 52 34 53 86 54
REMARK SMILES IDX 80 55 79 56 35 58 67 59 47 60 66 61 48 62 51 63 65 64 84 65
REMARK SMILES IDX 49 66 50 67 64 69 85 70 52 71 36 72 37 73 45 74 38 75 44 76
REMARK SMILES IDX 46 77 43 78 39 79 40 80 41 81 42 82 68 83 69 84 77 85 70 86
REMARK SMILES IDX 76 87 78 88 75 89 71 90 72 91 73 92 74 93 53 94 54 95 62 96
REMARK SMILES IDX 55 97 61 98 63 99 60 100 56 101 57 102 58 103 59 104
REMARK H PARENT 5 17 83 57 51 68
REMARK Flexibility Score: inf
ROOT
ATOM      1  O   UNL A   1      35.810  32.884  31.968  1.00  0.00    -0.377 OA
ENDROOT
BRANCH   1   2
ATOM      2  C   UNL A   1      37.123  32.439  32.262  1.00  0.00     0.188 C 
BRANCH   2   3
ATOM      3  C   UNL A   1      37.731  32.948  33.583  1.00  0.00     0.188 C 
BRANCH   3   4
ATOM      4  O   UNL A   1      37.708  31.996  34.629  1.00  0.00    -0.376 OA
BRANCH   4   5
ATOM      5  C   UNL A   1      38.173  30.674  34.428  1.00  0.00     0.202 C 
BRANCH   5   6
ATOM      6  C   UNL A   1      39.661  30.310  34.292  1.00  0.00     0.261 C 
BRANCH   6   7
ATOM      7  O   UNL A   1      40.114  29.141  34.972  1.00  0.00    -0.460 OA
BRANCH   7   8
ATOM      8  C   UNL A   1      40.600  28.137  34.215  1.00  0.00     0.338 C 
ATOM      9  O   UNL A   1      40.188  27.775  33.126  1.00  0.00    -0.246 OA
BRANCH   8  10
ATOM     10  C   UNL A   1      41.876  27.694  34.821  1.00  0.00     0.060 A 
ATOM     11  C   UNL A   1      44.256  26.718  35.917  1.00  0.00     0.040 A 
ATOM     12  C   UNL A   1      43.954  26.476  34.574  1.00  0.00     0.027 A 
ATOM     13  C   UNL A   1      43.407  27.542  36.673  1.00  0.00     0.027 A 
ATOM     14  C   UNL A   1      42.759  26.947  34.032  1.00  0.00     0.018 A 
ATOM     15  C   UNL A   1      42.223  28.040  36.130  1.00  0.00     0.018 A 
BRANCH  11  16
ATOM     16  N   UNL A   1      45.236  25.925  36.555  1.00  0.00    -0.340 N 
ATOM     17  H   UNL A   1      45.075  24.959  36.664  1.00  0.00     0.168 HD
BRANCH  16  18
ATOM     18  C   UNL A   1      46.439  26.478  37.042  1.00  0.00     0.136 A 
ATOM     19  C   UNL A   1      49.380  25.642  39.197  1.00  0.00     0.067 C 
ATOM     20  C   UNL A   1      48.475  26.298  38.200  1.00  0.00     0.045 A 
ATOM     21  C   UNL A   1      47.254  25.740  37.871  1.00  0.00     0.070 A 
ATOM     22  N   UNL A   1      48.904  27.467  37.682  1.00  0.00    -0.216 NA
ATOM     23  C   UNL A   1      48.018  28.153  36.929  1.00  0.00     0.252 A 
ATOM     24  N   UNL A   1      46.790  27.708  36.634  1.00  0.00    -0.194 NA
BRANCH  23  25
ATOM     25  N   UNL A   1      48.415  29.414  36.371  1.00  0.00    -0.203 N 
ATOM     26  N   UNL A   1      48.097  30.598  36.975  1.00  0.00    -0.170 NA
ATOM     27  C   UNL A   1      49.136  29.622  35.203  1.00  0.00     0.045 A 
ATOM     28  C   UNL A   1      48.747  31.527  36.269  1.00  0.00     0.060 A 
ATOM     29  C   UNL A   1      49.383  30.976  35.139  1.00  0.00     0.049 A 
ATOM     30  C   UNL A   1      49.422  28.544  34.226  1.00  0.00     0.067 C 
ATOM     31  C   UNL A   1      48.726  32.945  36.702  1.00  0.00     0.069 C 
ENDBRANCH  23  25
ENDBRANCH  16  18
ENDBRANCH  11  16
ENDBRANCH   8  10
ENDBRANCH   7   8
ENDBRANCH   6   7
ENDBRANCH   5   6
ENDBRANCH   4   5
ENDBRANCH   3   4
ENDBRANCH   2   3
ENDBRANCH   1   2
BRANCH   1  32
ATOM     32  C   UNL A   1      35.514  34.281  31.998  1.00  0.00     0.188 C 
BRANCH  32  33
ATOM     33  C   UNL A   1      34.247  34.893  31.346  1.00  0.00     0.188 C 
BRANCH  33  34
ATOM     34  O   UNL A   1      33.651  34.105  30.327  1.00  0.00    -0.376 OA
BRANCH  34  35
ATOM     35  C   UNL A   1      34.105  34.278  28.998  1.00  0.00     0.202 C 
BRANCH  35  36
ATOM     36  C   UNL A   1      35.453  33.630  28.652  1.00  0.00     0.261 C 
BRANCH  36  37
ATOM     37  O   UNL A   1      35.408  32.587  27.669  1.00  0.00    -0.460 OA
BRANCH  37  38
ATOM     38  C   UNL A   1      35.048  31.363  28.109  1.00  0.00     0.338 C 
ATOM     39  O   UNL A   1      33.905  30.948  28.251  1.00  0.00    -0.246 OA
BRANCH  38  40
ATOM     40  C   UNL A   1      36.259  30.528  28.205  1.00  0.00     0.060 A 
ATOM     41  C   UNL A   1      36.475  29.788  29.374  1.00  0.00     0.016 A 
ATOM     42  C   UNL A   1      37.186  30.492  27.160  1.00  0.00     0.016 A 
ATOM     43  C   UNL A   1      37.655  29.066  29.531  1.00  0.00     0.010 A 
ATOM     44  C   UNL A   1      38.377  29.781  27.324  1.00  0.00     0.010 A 
ATOM     45  C   UNL A   1      38.639  29.111  28.534  1.00  0.00    -0.014 A 
BRANCH  45  46
ATOM     46  C   UNL A   1      40.020  28.686  28.876  1.00  0.00     0.031 A 
ATOM     47  C   UNL A   1      40.733  29.426  29.978  1.00  0.00     0.074 A 
ATOM     48  C   UNL A   1      40.598  27.626  28.285  1.00  0.00     0.049 A 
ATOM     49  N   UNL A   1      41.920  29.227  30.488  1.00  0.00    -0.248 NA
ATOM     50  C   UNL A   1      40.001  30.550  30.585  1.00  0.00     0.031 C 
ATOM     51  C   UNL A   1      39.984  26.799  27.249  1.00  0.00     0.029 A 
ATOM     52  N   UNL A   1      41.830  27.058  28.487  1.00  0.00    -0.354 N 
ATOM     53  C   UNL A   1      42.081  30.203  31.467  1.00  0.00     0.074 A 
ATOM     54  C   UNL A   1      40.889  31.022  31.442  1.00  0.00     0.031 C 
ATOM     55  C   UNL A   1      40.839  25.815  26.916  1.00  0.00     0.029 A 
ATOM     56  C   UNL A   1      42.073  25.965  27.686  1.00  0.00     0.049 A 
ATOM     57  H   UNL A   1      42.480  27.399  29.142  1.00  0.00     0.167 HD
ATOM     58  C   UNL A   1      43.121  30.391  32.316  1.00  0.00     0.034 A 
ATOM     59  C   UNL A   1      43.169  25.186  27.586  1.00  0.00     0.034 A 
ATOM     60  C   UNL A   1      44.307  29.570  32.319  1.00  0.00     0.049 A 
ATOM     61  C   UNL A   1      44.356  25.474  28.478  1.00  0.00     0.074 A 
ATOM     62  C   UNL A   1      45.414  29.657  33.143  1.00  0.00     0.029 A 
ATOM     63  N   UNL A   1      44.549  28.519  31.442  1.00  0.00    -0.354 N 
ATOM     64  N   UNL A   1      44.493  26.391  29.409  1.00  0.00    -0.248 NA
ATOM     65  C   UNL A   1      45.530  24.609  28.310  1.00  0.00     0.031 C 
ATOM     66  C   UNL A   1      46.361  28.725  32.706  1.00  0.00     0.029 A 
ATOM     67  C   UNL A   1      45.806  27.980  31.677  1.00  0.00     0.049 A 
ATOM     68  H   UNL A   1      43.920  28.202  30.753  1.00  0.00     0.167 HD
ATOM     69  C   UNL A   1      45.752  26.179  29.970  1.00  0.00     0.074 A 
ATOM     70  C   UNL A   1      46.325  25.043  29.276  1.00  0.00     0.031 C 
ATOM     71  C   UNL A   1      46.373  26.852  30.973  1.00  0.00     0.034 A 
BRANCH  58  72
ATOM     72  C   UNL A   1      43.041  31.575  33.255  1.00  0.00     0.023 A 
ATOM     73  C   UNL A   1      42.692  31.434  34.611  1.00  0.00     0.031 A 
ATOM     74  C   UNL A   1      43.262  32.876  32.768  1.00  0.00     0.131 A 
ATOM     75  C   UNL A   1      42.484  32.574  35.403  1.00  0.00     0.055 A 
ATOM     76  C   UNL A   1      43.149  34.000  33.588  1.00  0.00     0.041 A 
ATOM     77  F   UNL A   1      43.570  33.081  31.478  1.00  0.00    -0.206 F 
ATOM     78  C   UNL A   1      42.739  33.854  34.909  1.00  0.00     0.022 A 
BRANCH  75  79
ATOM     79  S   UNL A   1      41.702  32.369  37.027  1.00  0.00     0.124 S 
ATOM     80  O   UNL A   1      42.255  31.089  37.463  1.00  0.00    -0.237 OA
ATOM     81  O   UNL A   1      42.166  33.546  37.752  1.00  0.00    -0.237 OA
ATOM     82  O   UNL A   1      40.273  32.347  36.719  1.00  0.00    -0.744 OA
ENDBRANCH  75  79
ENDBRANCH  58  72
BRANCH  59  83
ATOM     83  C   UNL A   1      43.216  24.064  26.604  1.00  0.00     0.023 A 
ATOM     84  C   UNL A   1      42.502  22.875  26.827  1.00  0.00     0.031 A 
ATOM     85  C   UNL A   1      44.028  24.138  25.458  1.00  0.00     0.131 A 
ATOM     86  C   UNL A   1      42.651  21.792  25.945  1.00  0.00     0.055 A 
ATOM     87  C   UNL A   1      44.127  23.080  24.553  1.00  0.00     0.041 A 
ATOM     88  F   UNL A   1      44.739  25.247  25.199  1.00  0.00    -0.206 F 
ATOM     89  C   UNL A   1      43.447  21.892  24.801  1.00  0.00     0.022 A 
BRANCH  86  90
ATOM     90  S   UNL A   1      41.863  20.215  26.367  1.00  0.00     0.124 S 
ATOM     91  O   UNL A   1      42.340  19.999  27.728  1.00  0.00    -0.237 OA
ATOM     92  O   UNL A   1      40.446  20.536  26.226  1.00  0.00    -0.237 OA
ATOM     93  O   UNL A   1      42.392  19.291  25.365  1.00  0.00    -0.744 OA
ENDBRANCH  86  90
ENDBRANCH  59  83
BRANCH  71  94
ATOM     94  C   UNL A   1      47.721  26.332  31.424  1.00  0.00     0.023 A 
ATOM     95  C   UNL A   1      47.854  25.412  32.478  1.00  0.00     0.031 A 
ATOM     96  C   UNL A   1      48.897  26.791  30.802  1.00  0.00     0.131 A 
ATOM     97  C   UNL A   1      49.132  25.045  32.931  1.00  0.00     0.055 A 
ATOM     98  C   UNL A   1      50.162  26.360  31.203  1.00  0.00     0.041 A 
ATOM     99  F   UNL A   1      48.837  27.674  29.790  1.00  0.00    -0.206 F 
ATOM    100  C   UNL A   1      50.285  25.498  32.286  1.00  0.00     0.022 A 
BRANCH  97 101
ATOM    101  S   UNL A   1      49.269  24.079  34.461  1.00  0.00     0.124 S 
ATOM    102  O   UNL A   1      47.870  23.916  34.843  1.00  0.00    -0.237 OA
ATOM    103  O   UNL A   1      49.950  22.872  34.006  1.00  0.00    -0.237 OA
ATOM    104  O   UNL A   1      50.056  24.941  35.342  1.00  0.00    -0.744 OA
ENDBRANCH  97 101
ENDBRANCH  71  94
ENDBRANCH  45  46
ENDBRANCH  38  40
ENDBRANCH  37  38
ENDBRANCH  36  37
ENDBRANCH  35  36
ENDBRANCH  34  35
ENDBRANCH  33  34
ENDBRANCH  32  33
ENDBRANCH   1  32
TORSDOF 26
ENDMDL
