MODEL 1
REMARK VINA RESULT:      -6.9      0.000      0.000
REMARK SMILES CCSc1nc(CC(=O)N[C@@H](C(=O)OCCOCCOCCOCCOC(=O)c2ccc(-c3c4nc(c(-c5cc(S(=O)(=O)[O-])ccc5F)c5ccc([nH]5)c(-c5cc(S(=O)(=O)[O-])ccc5F)c5nc(c(-c6cc(S(=O)(=O)[O-])ccc6F)c6ccc3[nH]6)C=C5)C=C4)cc2)C2=C(C)N=N[C@@H]2C)cs1
REMARK SMILES IDX 19 1 18 2 17 3 16 4 15 5 14 6 12 7 13 8 11 9 10 10 8 11 9 12
REMARK SMILES IDX 7 14 6 15 4 16 5 17 100 18 99 19 3 20 2 21 1 22 92 23 93 24
REMARK SMILES IDX 97 25 94 26 95 27 96 28 98 29 20 30 21 31 22 32 23 33 24 34
REMARK SMILES IDX 25 35 26 36 27 37 28 38 29 39 30 40 91 41 31 42 90 43 32 44
REMARK SMILES IDX 33 45 34 46 84 47 35 48 89 49 83 50 85 51 36 52 88 53 82 54
REMARK SMILES IDX 81 55 37 57 69 58 49 59 68 60 50 61 53 62 67 63 86 64 51 65
REMARK SMILES IDX 52 66 66 68 87 69 54 70 38 71 39 72 47 73 40 74 46 75 48 76
REMARK SMILES IDX 45 77 41 78 42 79 43 80 44 81 70 82 71 83 79 84 72 85 78 86
REMARK SMILES IDX 80 87 77 88 73 89 74 90 75 91 76 92 55 93 56 94 64 95 57 96
REMARK SMILES IDX 63 97 65 98 62 99 58 100 59 101 60 102 61 103
REMARK H PARENT 10 13 85 56 53 67
REMARK Flexibility Score: inf
ROOT
ATOM      1  C   UNL A   1      39.247  29.356  30.077  1.00  0.00     0.188 C 
ENDROOT
BRANCH   1   2
ATOM      2  C   UNL A   1      39.059  28.067  29.245  1.00  0.00     0.188 C 
BRANCH   2   3
ATOM      3  O   UNL A   1      39.277  28.064  27.844  1.00  0.00    -0.376 OA
BRANCH   3   4
ATOM      4  C   UNL A   1      40.566  27.731  27.362  1.00  0.00     0.202 C 
BRANCH   4   5
ATOM      5  C   UNL A   1      40.764  26.411  26.596  1.00  0.00     0.261 C 
BRANCH   5   6
ATOM      6  O   UNL A   1      42.093  26.068  26.145  1.00  0.00    -0.461 OA
BRANCH   6   7
ATOM      7  C   UNL A   1      42.866  27.069  25.633  1.00  0.00     0.333 C 
ATOM      8  O   UNL A   1      42.565  27.720  24.637  1.00  0.00    -0.249 OA
BRANCH   7   9
ATOM      9  C   UNL A   1      44.188  27.326  26.449  1.00  0.00     0.223 C 
BRANCH   9  10
ATOM     10  N   UNL A   1      44.391  26.746  27.777  1.00  0.00    -0.339 N 
ATOM     11  C   UNL A   1      45.185  25.710  28.163  1.00  0.00     0.226 C 
ATOM     12  O   UNL A   1      45.243  25.448  29.367  1.00  0.00    -0.275 OA
ATOM     13  H   UNL A   1      43.875  27.171  28.500  1.00  0.00     0.164 HD
BRANCH  11  14
ATOM     14  C   UNL A   1      46.027  24.965  27.156  1.00  0.00     0.157 C 
BRANCH  14  15
ATOM     15  C   UNL A   1      45.220  24.032  26.326  1.00  0.00     0.062 A 
ATOM     16  C   UNL A   1      43.737  22.401  26.070  1.00  0.00     0.150 A 
ATOM     17  N   UNL A   1      44.457  23.055  26.959  1.00  0.00    -0.234 NA
ATOM     18  S   UNL A   1      43.950  22.899  24.443  1.00  0.00    -0.116 S 
ATOM     19  C   UNL A   1      45.105  24.053  24.949  1.00  0.00     0.092 A 
BRANCH  16  20
ATOM     20  S   UNL A   1      42.515  21.258  26.584  1.00  0.00    -0.096 SA
BRANCH  20  21
ATOM     21  C   UNL A   1      40.949  22.030  26.090  1.00  0.00     0.074 C 
ATOM     22  C   UNL A   1      40.118  22.562  27.245  1.00  0.00     0.016 C 
ENDBRANCH  20  21
ENDBRANCH  16  20
ENDBRANCH  14  15
ENDBRANCH  11  14
ENDBRANCH   9  10
BRANCH   9  23
ATOM     23  C   UNL A   1      44.531  28.786  26.588  1.00  0.00     0.012 C 
ATOM     24  C   UNL A   1      45.734  29.357  26.457  1.00  0.00     0.064 C 
ATOM     25  C   UNL A   1      43.599  29.935  26.816  1.00  0.00     0.156 C 
ATOM     26  C   UNL A   1      47.060  28.695  26.349  1.00  0.00     0.069 C 
ATOM     27  N   UNL A   1      45.669  30.726  26.421  1.00  0.00    -0.160 NA
ATOM     28  N   UNL A   1      44.469  31.105  26.502  1.00  0.00    -0.181 NA
ATOM     29  C   UNL A   1      43.164  30.134  28.274  1.00  0.00     0.040 C 
ENDBRANCH   9  23
ENDBRANCH   7   9
ENDBRANCH   6   7
ENDBRANCH   5   6
ENDBRANCH   4   5
ENDBRANCH   3   4
ENDBRANCH   2   3
ENDBRANCH   1   2
BRANCH   1  30
ATOM     30  O   UNL A   1      38.268  30.348  29.860  1.00  0.00    -0.377 OA
BRANCH  30  31
ATOM     31  C   UNL A   1      37.050  30.143  30.559  1.00  0.00     0.188 C 
BRANCH  31  32
ATOM     32  C   UNL A   1      36.164  31.388  30.761  1.00  0.00     0.188 C 
BRANCH  32  33
ATOM     33  O   UNL A   1      35.729  31.565  32.107  1.00  0.00    -0.376 OA
BRANCH  33  34
ATOM     34  C   UNL A   1      35.267  32.832  32.546  1.00  0.00     0.202 C 
BRANCH  34  35
ATOM     35  C   UNL A   1      35.522  33.247  34.006  1.00  0.00     0.261 C 
BRANCH  35  36
ATOM     36  O   UNL A   1      36.881  33.493  34.387  1.00  0.00    -0.460 OA
BRANCH  36  37
ATOM     37  C   UNL A   1      37.340  32.882  35.500  1.00  0.00     0.338 C 
ATOM     38  O   UNL A   1      36.807  32.884  36.597  1.00  0.00    -0.246 OA
BRANCH  37  39
ATOM     39  C   UNL A   1      38.457  31.994  35.103  1.00  0.00     0.060 A 
ATOM     40  C   UNL A   1      39.693  32.157  35.742  1.00  0.00     0.016 A 
ATOM     41  C   UNL A   1      38.287  30.994  34.140  1.00  0.00     0.016 A 
ATOM     42  C   UNL A   1      40.777  31.361  35.385  1.00  0.00     0.010 A 
ATOM     43  C   UNL A   1      39.386  30.217  33.755  1.00  0.00     0.010 A 
ATOM     44  C   UNL A   1      40.646  30.436  34.341  1.00  0.00    -0.014 A 
BRANCH  44  45
ATOM     45  C   UNL A   1      41.886  29.952  33.686  1.00  0.00     0.031 A 
ATOM     46  C   UNL A   1      42.593  30.905  32.756  1.00  0.00     0.074 A 
ATOM     47  C   UNL A   1      42.428  28.759  33.982  1.00  0.00     0.049 A 
ATOM     48  N   UNL A   1      43.708  30.752  32.093  1.00  0.00    -0.248 NA
ATOM     49  C   UNL A   1      41.949  32.214  32.555  1.00  0.00     0.031 C 
ATOM     50  C   UNL A   1      41.869  27.785  34.918  1.00  0.00     0.029 A 
ATOM     51  N   UNL A   1      43.583  28.169  33.531  1.00  0.00    -0.354 N 
ATOM     52  C   UNL A   1      43.899  31.942  31.397  1.00  0.00     0.074 A 
ATOM     53  C   UNL A   1      42.759  32.786  31.681  1.00  0.00     0.031 C 
ATOM     54  C   UNL A   1      42.686  26.717  34.972  1.00  0.00     0.029 A 
ATOM     55  C   UNL A   1      43.805  26.916  34.052  1.00  0.00     0.049 A 
ATOM     56  H   UNL A   1      44.196  28.604  32.895  1.00  0.00     0.167 HD
ATOM     57  C   UNL A   1      44.935  32.305  30.605  1.00  0.00     0.034 A 
ATOM     58  C   UNL A   1      44.790  26.030  33.796  1.00  0.00     0.034 A 
ATOM     59  C   UNL A   1      46.057  31.446  30.321  1.00  0.00     0.049 A 
ATOM     60  C   UNL A   1      45.887  26.418  32.828  1.00  0.00     0.074 A 
ATOM     61  C   UNL A   1      47.161  31.705  29.528  1.00  0.00     0.029 A 
ATOM     62  N   UNL A   1      46.212  30.154  30.808  1.00  0.00    -0.354 N 
ATOM     63  N   UNL A   1      46.057  27.546  32.175  1.00  0.00    -0.248 NA
ATOM     64  C   UNL A   1      46.931  25.417  32.577  1.00  0.00     0.031 C 
ATOM     65  C   UNL A   1      47.938  30.543  29.470  1.00  0.00     0.029 A 
ATOM     66  C   UNL A   1      47.374  29.592  30.305  1.00  0.00     0.049 A 
ATOM     67  H   UNL A   1      45.588  29.705  31.423  1.00  0.00     0.167 HD
ATOM     68  C   UNL A   1      47.249  27.400  31.467  1.00  0.00     0.074 A 
ATOM     69  C   UNL A   1      47.760  26.084  31.790  1.00  0.00     0.031 C 
ATOM     70  C   UNL A   1      47.868  28.273  30.629  1.00  0.00     0.034 A 
BRANCH  57  71
ATOM     71  C   UNL A   1      44.862  33.662  29.948  1.00  0.00     0.023 A 
ATOM     72  C   UNL A   1      44.357  33.834  28.646  1.00  0.00     0.031 A 
ATOM     73  C   UNL A   1      45.347  34.800  30.618  1.00  0.00     0.131 A 
ATOM     74  C   UNL A   1      44.419  35.093  28.030  1.00  0.00     0.055 A 
ATOM     75  C   UNL A   1      45.324  36.066  30.033  1.00  0.00     0.041 A 
ATOM     76  F   UNL A   1      45.870  34.694  31.850  1.00  0.00    -0.206 F 
ATOM     77  C   UNL A   1      44.872  36.217  28.725  1.00  0.00     0.022 A 
BRANCH  74  78
ATOM     78  S   UNL A   1      44.048  35.212  26.258  1.00  0.00     0.124 S 
ATOM     79  O   UNL A   1      43.062  36.290  26.237  1.00  0.00    -0.237 OA
ATOM     80  O   UNL A   1      45.350  35.526  25.683  1.00  0.00    -0.237 OA
ATOM     81  O   UNL A   1      43.522  33.890  25.929  1.00  0.00    -0.744 OA
ENDBRANCH  74  78
ENDBRANCH  57  71
BRANCH  58  82
ATOM     82  C   UNL A   1      44.779  24.676  34.426  1.00  0.00     0.023 A 
ATOM     83  C   UNL A   1      45.343  24.450  35.691  1.00  0.00     0.031 A 
ATOM     84  C   UNL A   1      44.269  23.565  33.728  1.00  0.00     0.131 A 
ATOM     85  C   UNL A   1      45.435  23.143  36.196  1.00  0.00     0.055 A 
ATOM     86  C   UNL A   1      44.306  22.275  34.261  1.00  0.00     0.041 A 
ATOM     87  F   UNL A   1      43.724  23.719  32.510  1.00  0.00    -0.206 F 
ATOM     88  C   UNL A   1      44.906  22.057  35.496  1.00  0.00     0.022 A 
BRANCH  85  89
ATOM     89  S   UNL A   1      46.349  22.867  37.739  1.00  0.00     0.124 S 
ATOM     90  O   UNL A   1      45.311  23.088  38.740  1.00  0.00    -0.237 OA
ATOM     91  O   UNL A   1      46.803  21.490  37.579  1.00  0.00    -0.237 OA
ATOM     92  O   UNL A   1      47.402  23.879  37.696  1.00  0.00    -0.744 OA
ENDBRANCH  85  89
ENDBRANCH  58  82
BRANCH  70  93
ATOM     93  C   UNL A   1      49.198  27.847  30.050  1.00  0.00     0.023 A 
ATOM     94  C   UNL A   1      49.287  27.070  28.882  1.00  0.00     0.031 A 
ATOM     95  C   UNL A   1      50.397  28.208  30.693  1.00  0.00     0.131 A 
ATOM     96  C   UNL A   1      50.538  26.614  28.439  1.00  0.00     0.055 A 
ATOM     97  C   UNL A   1      51.643  27.818  30.202  1.00  0.00     0.041 A 
ATOM     98  F   UNL A   1      50.378  28.948  31.814  1.00  0.00    -0.206 F 
ATOM     99  C   UNL A   1      51.719  27.000  29.079  1.00  0.00     0.022 A 
BRANCH  96 100
ATOM    100  S   UNL A   1      50.593  25.398  27.094  1.00  0.00     0.124 S 
ATOM    101  O   UNL A   1      49.926  26.114  26.012  1.00  0.00    -0.237 OA
ATOM    102  O   UNL A   1      52.027  25.183  26.927  1.00  0.00    -0.237 OA
ATOM    103  O   UNL A   1      49.853  24.259  27.632  1.00  0.00    -0.744 OA
ENDBRANCH  96 100
ENDBRANCH  70  93
ENDBRANCH  44  45
ENDBRANCH  37  39
ENDBRANCH  36  37
ENDBRANCH  35  36
ENDBRANCH  34  35
ENDBRANCH  33  34
ENDBRANCH  32  33
ENDBRANCH  31  32
ENDBRANCH  30  31
ENDBRANCH   1  30
TORSDOF 29
ENDMDL
MODEL 2
REMARK VINA RESULT:      -6.7      5.500      8.427
REMARK SMILES CCSc1nc(CC(=O)N[C@@H](C(=O)OCCOCCOCCOCCOC(=O)c2ccc(-c3c4nc(c(-c5cc(S(=O)(=O)[O-])ccc5F)c5ccc([nH]5)c(-c5cc(S(=O)(=O)[O-])ccc5F)c5nc(c(-c6cc(S(=O)(=O)[O-])ccc6F)c6ccc3[nH]6)C=C5)C=C4)cc2)C2=C(C)N=N[C@@H]2C)cs1
REMARK SMILES IDX 19 1 18 2 17 3 16 4 15 5 14 6 12 7 13 8 11 9 10 10 8 11 9 12
REMARK SMILES IDX 7 14 6 15 4 16 5 17 100 18 99 19 3 20 2 21 1 22 92 23 93 24
REMARK SMILES IDX 97 25 94 26 95 27 96 28 98 29 20 30 21 31 22 32 23 33 24 34
REMARK SMILES IDX 25 35 26 36 27 37 28 38 29 39 30 40 91 41 31 42 90 43 32 44
REMARK SMILES IDX 33 45 34 46 84 47 35 48 89 49 83 50 85 51 36 52 88 53 82 54
REMARK SMILES IDX 81 55 37 57 69 58 49 59 68 60 50 61 53 62 67 63 86 64 51 65
REMARK SMILES IDX 52 66 66 68 87 69 54 70 38 71 39 72 47 73 40 74 46 75 48 76
REMARK SMILES IDX 45 77 41 78 42 79 43 80 44 81 70 82 71 83 79 84 72 85 78 86
REMARK SMILES IDX 80 87 77 88 73 89 74 90 75 91 76 92 55 93 56 94 64 95 57 96
REMARK SMILES IDX 63 97 65 98 62 99 58 100 59 101 60 102 61 103
REMARK H PARENT 10 13 85 56 53 67
REMARK Flexibility Score: inf
ROOT
ATOM      1  C   UNL A   1      40.688  23.673  27.337  1.00  0.00     0.188 C 
ENDROOT
BRANCH   1   2
ATOM      2  C   UNL A   1      40.606  22.189  26.911  1.00  0.00     0.188 C 
BRANCH   2   3
ATOM      3  O   UNL A   1      39.353  21.550  26.728  1.00  0.00    -0.376 OA
BRANCH   3   4
ATOM      4  C   UNL A   1      38.549  21.942  25.631  1.00  0.00     0.202 C 
BRANCH   4   5
ATOM      5  C   UNL A   1      37.033  22.115  25.834  1.00  0.00     0.261 C 
BRANCH   5   6
ATOM      6  O   UNL A   1      36.135  21.280  25.069  1.00  0.00    -0.461 OA
BRANCH   6   7
ATOM      7  C   UNL A   1      35.178  21.899  24.321  1.00  0.00     0.333 C 
ATOM      8  O   UNL A   1      35.426  22.663  23.393  1.00  0.00    -0.249 OA
BRANCH   7   9
ATOM      9  C   UNL A   1      33.707  21.533  24.749  1.00  0.00     0.223 C 
BRANCH   9  10
ATOM     10  N   UNL A   1      33.302  21.520  26.155  1.00  0.00    -0.339 N 
ATOM     11  C   UNL A   1      33.393  22.497  27.098  1.00  0.00     0.226 C 
ATOM     12  O   UNL A   1      32.912  22.270  28.210  1.00  0.00    -0.275 OA
ATOM     13  H   UNL A   1      32.904  20.675  26.465  1.00  0.00     0.164 HD
BRANCH  11  14
ATOM     14  C   UNL A   1      33.988  23.843  26.761  1.00  0.00     0.157 C 
BRANCH  14  15
ATOM     15  C   UNL A   1      32.982  24.777  26.188  1.00  0.00     0.062 A 
ATOM     16  C   UNL A   1      32.364  26.412  24.820  1.00  0.00     0.150 A 
ATOM     17  N   UNL A   1      33.405  25.756  25.294  1.00  0.00    -0.234 NA
ATOM     18  S   UNL A   1      30.842  25.911  25.430  1.00  0.00    -0.116 S 
ATOM     19  C   UNL A   1      31.620  24.755  26.420  1.00  0.00     0.092 A 
BRANCH  16  20
ATOM     20  S   UNL A   1      32.557  27.557  23.511  1.00  0.00    -0.096 SA
BRANCH  20  21
ATOM     21  C   UNL A   1      31.343  27.026  22.273  1.00  0.00     0.074 C 
ATOM     22  C   UNL A   1      31.815  25.900  21.370  1.00  0.00     0.016 C 
ENDBRANCH  20  21
ENDBRANCH  16  20
ENDBRANCH  14  15
ENDBRANCH  11  14
ENDBRANCH   9  10
BRANCH   9  23
ATOM     23  C   UNL A   1      33.224  20.227  24.176  1.00  0.00     0.012 C 
ATOM     24  C   UNL A   1      32.477  20.043  23.082  1.00  0.00     0.064 C 
ATOM     25  C   UNL A   1      33.539  18.841  24.646  1.00  0.00     0.156 C 
ATOM     26  C   UNL A   1      31.763  21.065  22.273  1.00  0.00     0.069 C 
ATOM     27  N   UNL A   1      32.401  18.726  22.708  1.00  0.00    -0.160 NA
ATOM     28  N   UNL A   1      33.083  18.013  23.492  1.00  0.00    -0.181 NA
ATOM     29  C   UNL A   1      32.708  18.360  25.843  1.00  0.00     0.040 C 
ENDBRANCH   9  23
ENDBRANCH   7   9
ENDBRANCH   6   7
ENDBRANCH   5   6
ENDBRANCH   4   5
ENDBRANCH   3   4
ENDBRANCH   2   3
ENDBRANCH   1   2
BRANCH   1  30
ATOM     30  O   UNL A   1      41.029  24.567  26.301  1.00  0.00    -0.377 OA
BRANCH  30  31
ATOM     31  C   UNL A   1      40.881  25.940  26.630  1.00  0.00     0.188 C 
BRANCH  31  32
ATOM     32  C   UNL A   1      39.706  26.293  27.562  1.00  0.00     0.188 C 
BRANCH  32  33
ATOM     33  O   UNL A   1      39.555  27.693  27.782  1.00  0.00    -0.376 OA
BRANCH  33  34
ATOM     34  C   UNL A   1      38.280  28.232  28.092  1.00  0.00     0.202 C 
BRANCH  34  35
ATOM     35  C   UNL A   1      38.181  29.324  29.172  1.00  0.00     0.261 C 
BRANCH  35  36
ATOM     36  O   UNL A   1      36.923  29.468  29.843  1.00  0.00    -0.460 OA
BRANCH  36  37
ATOM     37  C   UNL A   1      36.942  29.886  31.126  1.00  0.00     0.338 C 
ATOM     38  O   UNL A   1      36.019  30.408  31.730  1.00  0.00    -0.246 OA
BRANCH  37  39
ATOM     39  C   UNL A   1      38.180  29.369  31.754  1.00  0.00     0.060 A 
ATOM     40  C   UNL A   1      39.245  30.259  31.950  1.00  0.00     0.016 A 
ATOM     41  C   UNL A   1      38.285  28.039  32.173  1.00  0.00     0.016 A 
ATOM     42  C   UNL A   1      40.435  29.812  32.516  1.00  0.00     0.010 A 
ATOM     43  C   UNL A   1      39.495  27.581  32.708  1.00  0.00     0.010 A 
ATOM     44  C   UNL A   1      40.589  28.457  32.832  1.00  0.00    -0.014 A 
BRANCH  44  45
ATOM     45  C   UNL A   1      41.969  27.934  32.986  1.00  0.00     0.031 A 
ATOM     46  C   UNL A   1      42.733  27.617  31.725  1.00  0.00     0.074 A 
ATOM     47  C   UNL A   1      42.566  27.844  34.186  1.00  0.00     0.049 A 
ATOM     48  N   UNL A   1      43.958  27.192  31.576  1.00  0.00    -0.248 NA
ATOM     49  C   UNL A   1      42.007  27.817  30.459  1.00  0.00     0.031 C 
ATOM     50  C   UNL A   1      41.948  28.187  35.466  1.00  0.00     0.029 A 
ATOM     51  N   UNL A   1      43.836  27.446  34.521  1.00  0.00    -0.354 N 
ATOM     52  C   UNL A   1      44.151  27.072  30.203  1.00  0.00     0.074 A 
ATOM     53  C   UNL A   1      42.900  27.423  29.567  1.00  0.00     0.031 C 
ATOM     54  C   UNL A   1      42.845  27.986  36.449  1.00  0.00     0.029 A 
ATOM     55  C   UNL A   1      44.086  27.468  35.873  1.00  0.00     0.049 A 
ATOM     56  H   UNL A   1      44.507  27.172  33.854  1.00  0.00     0.167 HD
ATOM     57  C   UNL A   1      45.272  26.717  29.531  1.00  0.00     0.034 A 
ATOM     58  C   UNL A   1      45.185  27.094  36.561  1.00  0.00     0.034 A 
ATOM     59  C   UNL A   1      46.506  26.356  30.179  1.00  0.00     0.049 A 
ATOM     60  C   UNL A   1      46.393  26.603  35.794  1.00  0.00     0.074 A 
ATOM     61  C   UNL A   1      47.704  25.973  29.601  1.00  0.00     0.029 A 
ATOM     62  N   UNL A   1      46.700  26.320  31.554  1.00  0.00    -0.354 N 
ATOM     63  N   UNL A   1      46.564  26.494  34.495  1.00  0.00    -0.248 NA
ATOM     64  C   UNL A   1      47.561  26.201  36.587  1.00  0.00     0.031 C 
ATOM     65  C   UNL A   1      48.591  25.626  30.624  1.00  0.00     0.029 A 
ATOM     66  C   UNL A   1      47.985  25.887  31.843  1.00  0.00     0.049 A 
ATOM     67  H   UNL A   1      46.024  26.567  32.226  1.00  0.00     0.167 HD
ATOM     68  C   UNL A   1      47.873  26.047  34.319  1.00  0.00     0.074 A 
ATOM     69  C   UNL A   1      48.448  25.926  35.643  1.00  0.00     0.031 C 
ATOM     70  C   UNL A   1      48.542  25.764  33.170  1.00  0.00     0.034 A 
BRANCH  57  71
ATOM     71  C   UNL A   1      45.181  26.643  28.025  1.00  0.00     0.023 A 
ATOM     72  C   UNL A   1      44.976  25.427  27.349  1.00  0.00     0.031 A 
ATOM     73  C   UNL A   1      45.349  27.805  27.249  1.00  0.00     0.131 A 
ATOM     74  C   UNL A   1      45.020  25.388  25.947  1.00  0.00     0.055 A 
ATOM     75  C   UNL A   1      45.302  27.773  25.855  1.00  0.00     0.041 A 
ATOM     76  F   UNL A   1      45.580  28.990  27.836  1.00  0.00    -0.206 F 
ATOM     77  C   UNL A   1      45.152  26.557  25.195  1.00  0.00     0.022 A 
BRANCH  74  78
ATOM     78  S   UNL A   1      45.059  23.772  25.124  1.00  0.00     0.124 S 
ATOM     79  O   UNL A   1      45.637  22.926  26.166  1.00  0.00    -0.237 OA
ATOM     80  O   UNL A   1      43.654  23.537  24.818  1.00  0.00    -0.237 OA
ATOM     81  O   UNL A   1      45.922  23.997  23.967  1.00  0.00    -0.744 OA
ENDBRANCH  74  78
ENDBRANCH  57  71
BRANCH  58  82
ATOM     82  C   UNL A   1      45.197  27.127  38.054  1.00  0.00     0.023 A 
ATOM     83  C   UNL A   1      45.677  28.242  38.759  1.00  0.00     0.031 A 
ATOM     84  C   UNL A   1      44.798  26.002  38.798  1.00  0.00     0.131 A 
ATOM     85  C   UNL A   1      45.798  28.188  40.158  1.00  0.00     0.055 A 
ATOM     86  C   UNL A   1      44.862  25.976  40.193  1.00  0.00     0.041 A 
ATOM     87  F   UNL A   1      44.337  24.904  38.177  1.00  0.00    -0.206 F 
ATOM     88  C   UNL A   1      45.379  27.069  40.880  1.00  0.00     0.022 A 
BRANCH  85  89
ATOM     89  S   UNL A   1      46.608  29.567  41.016  1.00  0.00     0.124 S 
ATOM     90  O   UNL A   1      45.746  30.687  40.653  1.00  0.00    -0.237 OA
ATOM     91  O   UNL A   1      46.547  29.134  42.407  1.00  0.00    -0.237 OA
ATOM     92  O   UNL A   1      47.946  29.592  40.430  1.00  0.00    -0.744 OA
ENDBRANCH  85  89
ENDBRANCH  58  82
BRANCH  70  93
ATOM     93  C   UNL A   1      49.991  25.350  33.300  1.00  0.00     0.023 A 
ATOM     94  C   UNL A   1      50.382  24.000  33.310  1.00  0.00     0.031 A 
ATOM     95  C   UNL A   1      50.995  26.327  33.438  1.00  0.00     0.131 A 
ATOM     96  C   UNL A   1      51.726  23.663  33.534  1.00  0.00     0.055 A 
ATOM     97  C   UNL A   1      52.340  25.987  33.581  1.00  0.00     0.041 A 
ATOM     98  F   UNL A   1      50.683  27.634  33.438  1.00  0.00    -0.206 F 
ATOM     99  C   UNL A   1      52.710  24.648  33.649  1.00  0.00     0.022 A 
BRANCH  96 100
ATOM    100  S   UNL A   1      52.150  21.921  33.810  1.00  0.00     0.124 S 
ATOM    101  O   UNL A   1      51.076  21.233  33.102  1.00  0.00    -0.237 OA
ATOM    102  O   UNL A   1      53.475  21.824  33.206  1.00  0.00    -0.237 OA
ATOM    103  O   UNL A   1      52.120  21.787  35.264  1.00  0.00    -0.744 OA
ENDBRANCH  96 100
ENDBRANCH  70  93
ENDBRANCH  44  45
ENDBRANCH  37  39
ENDBRANCH  36  37
ENDBRANCH  35  36
ENDBRANCH  34  35
ENDBRANCH  33  34
ENDBRANCH  32  33
ENDBRANCH  31  32
ENDBRANCH  30  31
ENDBRANCH   1  30
TORSDOF 29
ENDMDL
MODEL 3
REMARK VINA RESULT:      -6.3      5.494      8.899
REMARK SMILES CCSc1nc(CC(=O)N[C@@H](C(=O)OCCOCCOCCOCCOC(=O)c2ccc(-c3c4nc(c(-c5cc(S(=O)(=O)[O-])ccc5F)c5ccc([nH]5)c(-c5cc(S(=O)(=O)[O-])ccc5F)c5nc(c(-c6cc(S(=O)(=O)[O-])ccc6F)c6ccc3[nH]6)C=C5)C=C4)cc2)C2=C(C)N=N[C@@H]2C)cs1
REMARK SMILES IDX 19 1 18 2 17 3 16 4 15 5 14 6 12 7 13 8 11 9 10 10 8 11 9 12
REMARK SMILES IDX 7 14 6 15 4 16 5 17 100 18 99 19 3 20 2 21 1 22 92 23 93 24
REMARK SMILES IDX 97 25 94 26 95 27 96 28 98 29 20 30 21 31 22 32 23 33 24 34
REMARK SMILES IDX 25 35 26 36 27 37 28 38 29 39 30 40 91 41 31 42 90 43 32 44
REMARK SMILES IDX 33 45 34 46 84 47 35 48 89 49 83 50 85 51 36 52 88 53 82 54
REMARK SMILES IDX 81 55 37 57 69 58 49 59 68 60 50 61 53 62 67 63 86 64 51 65
REMARK SMILES IDX 52 66 66 68 87 69 54 70 38 71 39 72 47 73 40 74 46 75 48 76
REMARK SMILES IDX 45 77 41 78 42 79 43 80 44 81 70 82 71 83 79 84 72 85 78 86
REMARK SMILES IDX 80 87 77 88 73 89 74 90 75 91 76 92 55 93 56 94 64 95 57 96
REMARK SMILES IDX 63 97 65 98 62 99 58 100 59 101 60 102 61 103
REMARK H PARENT 10 13 85 56 53 67
REMARK Flexibility Score: inf
ROOT
ATOM      1  C   UNL A   1      41.152  22.447  26.781  1.00  0.00     0.188 C 
ENDROOT
BRANCH   1   2
ATOM      2  C   UNL A   1      40.202  21.258  26.514  1.00  0.00     0.188 C 
BRANCH   2   3
ATOM      3  O   UNL A   1      38.829  21.470  26.229  1.00  0.00    -0.376 OA
BRANCH   3   4
ATOM      4  C   UNL A   1      38.473  22.551  25.387  1.00  0.00     0.202 C 
BRANCH   4   5
ATOM      5  C   UNL A   1      37.388  23.539  25.850  1.00  0.00     0.261 C 
BRANCH   5   6
ATOM      6  O   UNL A   1      36.023  23.072  25.935  1.00  0.00    -0.461 OA
BRANCH   6   7
ATOM      7  C   UNL A   1      35.310  22.983  24.775  1.00  0.00     0.333 C 
ATOM      8  O   UNL A   1      35.778  23.230  23.668  1.00  0.00    -0.249 OA
BRANCH   7   9
ATOM      9  C   UNL A   1      33.820  22.519  24.984  1.00  0.00     0.223 C 
BRANCH   9  10
ATOM     10  N   UNL A   1      33.165  22.617  26.289  1.00  0.00    -0.339 N 
ATOM     11  C   UNL A   1      31.960  23.154  26.622  1.00  0.00     0.226 C 
ATOM     12  O   UNL A   1      31.588  23.052  27.793  1.00  0.00    -0.275 OA
ATOM     13  H   UNL A   1      33.675  22.235  27.040  1.00  0.00     0.164 HD
BRANCH  11  14
ATOM     14  C   UNL A   1      31.075  23.779  25.569  1.00  0.00     0.157 C 
BRANCH  14  15
ATOM     15  C   UNL A   1      31.323  25.238  25.418  1.00  0.00     0.062 A 
ATOM     16  C   UNL A   1      31.425  27.106  24.225  1.00  0.00     0.150 A 
ATOM     17  N   UNL A   1      31.288  25.798  24.145  1.00  0.00    -0.234 NA
ATOM     18  S   UNL A   1      31.625  27.726  25.811  1.00  0.00    -0.116 S 
ATOM     19  C   UNL A   1      31.552  26.139  26.440  1.00  0.00     0.092 A 
BRANCH  16  20
ATOM     20  S   UNL A   1      31.204  28.111  22.809  1.00  0.00    -0.096 SA
BRANCH  20  21
ATOM     21  C   UNL A   1      32.783  28.986  22.635  1.00  0.00     0.074 C 
ATOM     22  C   UNL A   1      34.006  28.152  22.975  1.00  0.00     0.016 C 
ENDBRANCH  20  21
ENDBRANCH  16  20
ENDBRANCH  14  15
ENDBRANCH  11  14
ENDBRANCH   9  10
BRANCH   9  23
ATOM     23  C   UNL A   1      33.556  21.118  24.502  1.00  0.00     0.012 C 
ATOM     24  C   UNL A   1      34.361  20.054  24.606  1.00  0.00     0.064 C 
ATOM     25  C   UNL A   1      32.308  20.576  23.879  1.00  0.00     0.156 C 
ATOM     26  C   UNL A   1      35.786  20.016  25.028  1.00  0.00     0.069 C 
ATOM     27  N   UNL A   1      33.735  18.881  24.271  1.00  0.00    -0.160 NA
ATOM     28  N   UNL A   1      32.533  19.104  23.964  1.00  0.00    -0.181 NA
ATOM     29  C   UNL A   1      32.151  20.876  22.381  1.00  0.00     0.040 C 
ENDBRANCH   9  23
ENDBRANCH   7   9
ENDBRANCH   6   7
ENDBRANCH   5   6
ENDBRANCH   4   5
ENDBRANCH   3   4
ENDBRANCH   2   3
ENDBRANCH   1   2
BRANCH   1  30
ATOM     30  O   UNL A   1      42.039  22.743  25.724  1.00  0.00    -0.377 OA
BRANCH  30  31
ATOM     31  C   UNL A   1      42.656  24.019  25.808  1.00  0.00     0.188 C 
BRANCH  31  32
ATOM     32  C   UNL A   1      42.094  24.978  26.876  1.00  0.00     0.188 C 
BRANCH  32  33
ATOM     33  O   UNL A   1      41.659  26.227  26.347  1.00  0.00    -0.376 OA
BRANCH  33  34
ATOM     34  C   UNL A   1      40.463  26.824  26.821  1.00  0.00     0.202 C 
BRANCH  34  35
ATOM     35  C   UNL A   1      40.396  28.358  26.933  1.00  0.00     0.261 C 
BRANCH  35  36
ATOM     36  O   UNL A   1      39.182  28.923  27.442  1.00  0.00    -0.460 OA
BRANCH  36  37
ATOM     37  C   UNL A   1      39.278  29.778  28.483  1.00  0.00     0.338 C 
ATOM     38  O   UNL A   1      38.441  30.596  28.826  1.00  0.00    -0.246 OA
BRANCH  37  39
ATOM     39  C   UNL A   1      40.452  29.377  29.292  1.00  0.00     0.060 A 
ATOM     40  C   UNL A   1      41.608  30.165  29.218  1.00  0.00     0.016 A 
ATOM     41  C   UNL A   1      40.411  28.263  30.137  1.00  0.00     0.016 A 
ATOM     42  C   UNL A   1      42.743  29.814  29.943  1.00  0.00     0.010 A 
ATOM     43  C   UNL A   1      41.563  27.889  30.838  1.00  0.00     0.010 A 
ATOM     44  C   UNL A   1      42.747  28.636  30.701  1.00  0.00    -0.014 A 
BRANCH  44  45
ATOM     45  C   UNL A   1      44.061  28.056  31.071  1.00  0.00     0.031 A 
ATOM     46  C   UNL A   1      44.877  27.432  29.968  1.00  0.00     0.074 A 
ATOM     47  C   UNL A   1      44.565  28.170  32.312  1.00  0.00     0.049 A 
ATOM     48  N   UNL A   1      46.067  26.896  30.010  1.00  0.00    -0.248 NA
ATOM     49  C   UNL A   1      44.259  27.421  28.631  1.00  0.00     0.031 C 
ATOM     50  C   UNL A   1      43.895  28.813  33.441  1.00  0.00     0.029 A 
ATOM     51  N   UNL A   1      45.769  27.756  32.825  1.00  0.00    -0.354 N 
ATOM     52  C   UNL A   1      46.340  26.483  28.709  1.00  0.00     0.074 A 
ATOM     53  C   UNL A   1      45.171  26.789  27.913  1.00  0.00     0.031 C 
ATOM     54  C   UNL A   1      44.702  28.751  34.517  1.00  0.00     0.029 A 
ATOM     55  C   UNL A   1      45.928  28.037  34.161  1.00  0.00     0.049 A 
ATOM     56  H   UNL A   1      46.456  27.302  32.285  1.00  0.00     0.167 HD
ATOM     57  C   UNL A   1      47.468  25.917  28.218  1.00  0.00     0.034 A 
ATOM     58  C   UNL A   1      46.940  27.731  35.000  1.00  0.00     0.034 A 
ATOM     59  C   UNL A   1      48.618  25.606  29.026  1.00  0.00     0.049 A 
ATOM     60  C   UNL A   1      48.149  27.006  34.451  1.00  0.00     0.074 A 
ATOM     61  C   UNL A   1      49.813  25.025  28.639  1.00  0.00     0.029 A 
ATOM     62  N   UNL A   1      48.715  25.838  30.393  1.00  0.00    -0.354 N 
ATOM     63  N   UNL A   1      48.396  26.620  33.218  1.00  0.00    -0.248 NA
ATOM     64  C   UNL A   1      49.219  26.689  35.404  1.00  0.00     0.031 C 
ATOM     65  C   UNL A   1      50.595  24.830  29.782  1.00  0.00     0.029 A 
ATOM     66  C   UNL A   1      49.933  25.380  30.869  1.00  0.00     0.049 A 
ATOM     67  H   UNL A   1      48.020  26.267  30.943  1.00  0.00     0.167 HD
ATOM     68  C   UNL A   1      49.669  26.051  33.246  1.00  0.00     0.074 A 
ATOM     69  C   UNL A   1      50.139  26.162  34.611  1.00  0.00     0.031 C 
ATOM     70  C   UNL A   1      50.386  25.490  32.237  1.00  0.00     0.034 A 
BRANCH  57  71
ATOM     71  C   UNL A   1      47.473  25.543  26.754  1.00  0.00     0.023 A 
ATOM     72  C   UNL A   1      48.051  26.372  25.775  1.00  0.00     0.031 A 
ATOM     73  C   UNL A   1      46.849  24.358  26.325  1.00  0.00     0.131 A 
ATOM     74  C   UNL A   1      47.926  26.044  24.417  1.00  0.00     0.055 A 
ATOM     75  C   UNL A   1      46.807  23.993  24.979  1.00  0.00     0.041 A 
ATOM     76  F   UNL A   1      46.252  23.542  27.209  1.00  0.00    -0.206 F 
ATOM     77  C   UNL A   1      47.334  24.845  24.014  1.00  0.00     0.022 A 
BRANCH  74  78
ATOM     78  S   UNL A   1      48.408  27.279  23.178  1.00  0.00     0.124 S 
ATOM     79  O   UNL A   1      47.201  28.098  23.096  1.00  0.00    -0.237 OA
ATOM     80  O   UNL A   1      49.567  27.910  23.795  1.00  0.00    -0.237 OA
ATOM     81  O   UNL A   1      48.690  26.478  21.989  1.00  0.00    -0.744 OA
ENDBRANCH  74  78
ENDBRANCH  57  71
BRANCH  58  82
ATOM     82  C   UNL A   1      46.854  28.068  36.453  1.00  0.00     0.023 A 
ATOM     83  C   UNL A   1      46.322  27.163  37.385  1.00  0.00     0.031 A 
ATOM     84  C   UNL A   1      47.232  29.341  36.917  1.00  0.00     0.131 A 
ATOM     85  C   UNL A   1      46.134  27.560  38.719  1.00  0.00     0.055 A 
ATOM     86  C   UNL A   1      47.100  29.710  38.257  1.00  0.00     0.041 A 
ATOM     87  F   UNL A   1      47.740  30.251  36.069  1.00  0.00    -0.206 F 
ATOM     88  C   UNL A   1      46.534  28.821  39.164  1.00  0.00     0.022 A 
BRANCH  85  89
ATOM     89  S   UNL A   1      45.261  26.437  39.847  1.00  0.00     0.124 S 
ATOM     90  O   UNL A   1      43.868  26.685  39.491  1.00  0.00    -0.237 OA
ATOM     91  O   UNL A   1      45.803  25.139  39.459  1.00  0.00    -0.237 OA
ATOM     92  O   UNL A   1      45.662  26.907  41.171  1.00  0.00    -0.744 OA
ENDBRANCH  85  89
ENDBRANCH  58  82
BRANCH  70  93
ATOM     93  C   UNL A   1      51.780  25.006  32.568  1.00  0.00     0.023 A 
ATOM     94  C   UNL A   1      52.060  23.650  32.807  1.00  0.00     0.031 A 
ATOM     95  C   UNL A   1      52.842  25.925  32.667  1.00  0.00     0.131 A 
ATOM     96  C   UNL A   1      53.347  23.262  33.210  1.00  0.00     0.055 A 
ATOM     97  C   UNL A   1      54.138  25.522  32.990  1.00  0.00     0.041 A 
ATOM     98  F   UNL A   1      52.637  27.235  32.452  1.00  0.00    -0.206 F 
ATOM     99  C   UNL A   1      54.393  24.186  33.283  1.00  0.00     0.022 A 
BRANCH  96 100
ATOM    100  S   UNL A   1      53.605  21.555  33.769  1.00  0.00     0.124 S 
ATOM    101  O   UNL A   1      54.799  21.685  34.596  1.00  0.00    -0.237 OA
ATOM    102  O   UNL A   1      52.363  21.271  34.481  1.00  0.00    -0.237 OA
ATOM    103  O   UNL A   1      53.790  20.812  32.524  1.00  0.00    -0.744 OA
ENDBRANCH  96 100
ENDBRANCH  70  93
ENDBRANCH  44  45
ENDBRANCH  37  39
ENDBRANCH  36  37
ENDBRANCH  35  36
ENDBRANCH  34  35
ENDBRANCH  33  34
ENDBRANCH  32  33
ENDBRANCH  31  32
ENDBRANCH  30  31
ENDBRANCH   1  30
TORSDOF 29
ENDMDL
