MODEL 1
REMARK VINA RESULT:      -7.1      0.000      0.000
REMARK SMILES O=C(CSc1nc2cnccc2n1CCC1CC1)OCCOCCOCCOCCOC(=O)c1ccc(-c2c3nc(c(-c4cc(S(=O)(=O)[O-])ccc4F)c4ccc([nH]4)c(-c4cc(S(=O)(=O)[O-])ccc4F)c4nc(c(-c5cc(S(=O)(=O)[O-])ccc5F)c5ccc2[nH]5)C=C4)C=C3)cc1
REMARK SMILES IDX 24 1 23 2 22 3 21 4 20 5 19 6 2 7 1 8 3 9 4 10 5 11 6 12
REMARK SMILES IDX 13 13 7 14 12 15 8 16 11 17 9 18 10 19 14 20 15 21 16 22
REMARK SMILES IDX 17 23 18 24 25 25 26 26 27 27 28 28 29 29 30 30 31 31 32 32
REMARK SMILES IDX 33 33 34 34 35 35 96 36 36 37 95 38 37 39 38 40 39 41 89 42
REMARK SMILES IDX 40 43 94 44 88 45 90 46 41 47 93 48 87 49 86 50 42 52 74 53
REMARK SMILES IDX 54 54 73 55 55 56 58 57 72 58 91 59 56 60 57 61 71 63 92 64
REMARK SMILES IDX 59 65 43 66 44 67 52 68 45 69 51 70 53 71 50 72 46 73 47 74
REMARK SMILES IDX 48 75 49 76 75 77 76 78 84 79 77 80 83 81 85 82 82 83 78 84
REMARK SMILES IDX 79 85 80 86 81 87 60 88 61 89 69 90 62 91 68 92 70 93 67 94
REMARK SMILES IDX 63 95 64 96 65 97 66 98
REMARK H PARENT 90 51 58 62
REMARK Flexibility Score: inf
ROOT
ATOM      1  C   UNL A   1      38.698  33.277  33.466  1.00  0.00     0.188 C 
ENDROOT
BRANCH   1   2
ATOM      2  C   UNL A   1      39.042  34.564  34.205  1.00  0.00     0.188 C 
BRANCH   2   3
ATOM      3  O   UNL A   1      38.740  34.527  35.599  1.00  0.00    -0.376 OA
BRANCH   3   4
ATOM      4  C   UNL A   1      38.886  33.313  36.352  1.00  0.00     0.202 C 
BRANCH   4   5
ATOM      5  C   UNL A   1      40.287  32.787  36.667  1.00  0.00     0.261 C 
BRANCH   5   6
ATOM      6  O   UNL A   1      40.419  32.397  38.045  1.00  0.00    -0.463 OA
BRANCH   6   7
ATOM      7  C   UNL A   1      41.147  33.217  38.845  1.00  0.00     0.316 C 
ATOM      8  O   UNL A   1      41.192  34.430  38.656  1.00  0.00    -0.251 OA
BRANCH   7   9
ATOM      9  C   UNL A   1      41.835  32.565  40.006  1.00  0.00     0.200 C 
BRANCH   9  10
ATOM     10  S   UNL A   1      41.282  33.238  41.594  1.00  0.00    -0.076 SA
BRANCH  10  11
ATOM     11  C   UNL A   1      39.592  32.895  41.509  1.00  0.00     0.169 A 
ATOM     12  N   UNL A   1      39.125  31.672  41.423  1.00  0.00    -0.221 NA
ATOM     13  N   UNL A   1      38.587  33.835  41.450  1.00  0.00    -0.319 N 
ATOM     14  C   UNL A   1      37.809  31.828  41.075  1.00  0.00     0.108 A 
ATOM     15  C   UNL A   1      37.472  33.175  40.979  1.00  0.00     0.072 A 
ATOM     16  C   UNL A   1      36.827  30.870  40.813  1.00  0.00     0.141 A 
ATOM     17  C   UNL A   1      36.219  33.599  40.548  1.00  0.00     0.049 A 
ATOM     18  N   UNL A   1      35.574  31.250  40.450  1.00  0.00    -0.262 NA
ATOM     19  C   UNL A   1      35.316  32.574  40.309  1.00  0.00     0.113 A 
BRANCH  13  20
ATOM     20  C   UNL A   1      38.607  35.215  41.903  1.00  0.00     0.125 C 
BRANCH  20  21
ATOM     21  C   UNL A   1      38.775  36.306  40.828  1.00  0.00     0.025 C 
BRANCH  21  22
ATOM     22  C   UNL A   1      39.954  37.238  40.884  1.00  0.00    -0.009 C 
ATOM     23  C   UNL A   1      39.901  38.750  40.772  1.00  0.00     0.004 C 
ATOM     24  C   UNL A   1      40.231  38.098  42.074  1.00  0.00     0.004 C 
ENDBRANCH  21  22
ENDBRANCH  20  21
ENDBRANCH  13  20
ENDBRANCH  10  11
ENDBRANCH   9  10
ENDBRANCH   7   9
ENDBRANCH   6   7
ENDBRANCH   5   6
ENDBRANCH   4   5
ENDBRANCH   3   4
ENDBRANCH   2   3
ENDBRANCH   1   2
BRANCH   1  25
ATOM     25  O   UNL A   1      37.427  33.234  32.842  1.00  0.00    -0.377 OA
BRANCH  25  26
ATOM     26  C   UNL A   1      36.783  34.480  32.665  1.00  0.00     0.188 C 
BRANCH  26  27
ATOM     27  C   UNL A   1      35.673  34.607  31.593  1.00  0.00     0.188 C 
BRANCH  27  28
ATOM     28  O   UNL A   1      34.602  33.689  31.582  1.00  0.00    -0.376 OA
BRANCH  28  29
ATOM     29  C   UNL A   1      34.266  33.057  30.363  1.00  0.00     0.202 C 
BRANCH  29  30
ATOM     30  C   UNL A   1      34.588  33.654  28.967  1.00  0.00     0.261 C 
BRANCH  30  31
ATOM     31  O   UNL A   1      35.413  32.873  28.084  1.00  0.00    -0.460 OA
BRANCH  31  32
ATOM     32  C   UNL A   1      35.248  31.515  28.052  1.00  0.00     0.338 C 
ATOM     33  O   UNL A   1      34.354  30.916  27.513  1.00  0.00    -0.246 OA
BRANCH  32  34
ATOM     34  C   UNL A   1      36.545  30.898  28.504  1.00  0.00     0.060 A 
ATOM     35  C   UNL A   1      37.467  31.588  29.294  1.00  0.00     0.016 A 
ATOM     36  C   UNL A   1      36.946  29.719  27.849  1.00  0.00     0.016 A 
ATOM     37  C   UNL A   1      38.805  31.164  29.314  1.00  0.00     0.010 A 
ATOM     38  C   UNL A   1      38.288  29.308  27.860  1.00  0.00     0.010 A 
ATOM     39  C   UNL A   1      39.239  30.044  28.568  1.00  0.00    -0.014 A 
BRANCH  39  40
ATOM     40  C   UNL A   1      40.617  29.550  28.814  1.00  0.00     0.031 A 
ATOM     41  C   UNL A   1      40.820  29.172  30.246  1.00  0.00     0.074 A 
ATOM     42  C   UNL A   1      41.601  29.204  27.951  1.00  0.00     0.049 A 
ATOM     43  N   UNL A   1      41.672  29.624  31.108  1.00  0.00    -0.248 NA
ATOM     44  C   UNL A   1      39.828  28.237  30.799  1.00  0.00     0.031 C 
ATOM     45  C   UNL A   1      41.501  29.017  26.505  1.00  0.00     0.029 A 
ATOM     46  N   UNL A   1      42.904  28.835  28.219  1.00  0.00    -0.354 N 
ATOM     47  C   UNL A   1      41.413  28.925  32.288  1.00  0.00     0.074 A 
ATOM     48  C   UNL A   1      40.177  28.215  32.080  1.00  0.00     0.031 C 
ATOM     49  C   UNL A   1      42.625  28.419  26.047  1.00  0.00     0.029 A 
ATOM     50  C   UNL A   1      43.554  28.221  27.153  1.00  0.00     0.049 A 
ATOM     51  H   UNL A   1      43.336  28.991  29.089  1.00  0.00     0.167 HD
ATOM     52  C   UNL A   1      42.299  28.833  33.319  1.00  0.00     0.034 A 
ATOM     53  C   UNL A   1      44.700  27.487  27.170  1.00  0.00     0.034 A 
ATOM     54  C   UNL A   1      43.336  29.818  33.226  1.00  0.00     0.049 A 
ATOM     55  C   UNL A   1      45.398  27.638  28.467  1.00  0.00     0.074 A 
ATOM     56  C   UNL A   1      43.363  31.197  33.228  1.00  0.00     0.029 A 
ATOM     57  N   UNL A   1      44.580  29.419  32.810  1.00  0.00    -0.354 N 
ATOM     58  N   UNL A   1      46.119  28.657  28.829  1.00  0.00    -0.248 NA
ATOM     59  C   UNL A   1      44.989  26.757  29.548  1.00  0.00     0.031 C 
ATOM     60  C   UNL A   1      44.433  31.546  32.360  1.00  0.00     0.029 A 
ATOM     61  C   UNL A   1      45.027  30.362  31.920  1.00  0.00     0.049 A 
ATOM     62  H   UNL A   1      45.061  28.609  33.095  1.00  0.00     0.167 HD
ATOM     63  C   UNL A   1      45.835  28.822  30.173  1.00  0.00     0.074 A 
ATOM     64  C   UNL A   1      45.245  27.552  30.587  1.00  0.00     0.031 C 
ATOM     65  C   UNL A   1      45.839  30.057  30.760  1.00  0.00     0.034 A 
BRANCH  52  66
ATOM     66  C   UNL A   1      42.352  27.667  34.275  1.00  0.00     0.023 A 
ATOM     67  C   UNL A   1      43.118  26.513  34.021  1.00  0.00     0.031 A 
ATOM     68  C   UNL A   1      41.792  27.757  35.564  1.00  0.00     0.131 A 
ATOM     69  C   UNL A   1      43.264  25.497  34.971  1.00  0.00     0.055 A 
ATOM     70  C   UNL A   1      42.004  26.779  36.545  1.00  0.00     0.041 A 
ATOM     71  F   UNL A   1      41.067  28.826  35.929  1.00  0.00    -0.206 F 
ATOM     72  C   UNL A   1      42.736  25.635  36.249  1.00  0.00     0.022 A 
BRANCH  69  73
ATOM     73  S   UNL A   1      44.142  23.970  34.541  1.00  0.00     0.124 S 
ATOM     74  O   UNL A   1      43.178  22.949  34.935  1.00  0.00    -0.237 OA
ATOM     75  O   UNL A   1      44.341  24.135  33.104  1.00  0.00    -0.237 OA
ATOM     76  O   UNL A   1      45.360  24.040  35.343  1.00  0.00    -0.744 OA
ENDBRANCH  69  73
ENDBRANCH  52  66
BRANCH  53  77
ATOM     77  C   UNL A   1      45.025  26.335  26.291  1.00  0.00     0.023 A 
ATOM     78  C   UNL A   1      44.128  25.255  26.238  1.00  0.00     0.031 A 
ATOM     79  C   UNL A   1      46.303  26.137  25.741  1.00  0.00     0.131 A 
ATOM     80  C   UNL A   1      44.507  24.031  25.680  1.00  0.00     0.055 A 
ATOM     81  C   UNL A   1      46.681  24.912  25.171  1.00  0.00     0.041 A 
ATOM     82  F   UNL A   1      47.230  27.106  25.795  1.00  0.00    -0.206 F 
ATOM     83  C   UNL A   1      45.782  23.847  25.146  1.00  0.00     0.022 A 
BRANCH  80  84
ATOM     84  S   UNL A   1      43.344  22.644  25.707  1.00  0.00     0.124 S 
ATOM     85  O   UNL A   1      42.049  23.318  25.675  1.00  0.00    -0.237 OA
ATOM     86  O   UNL A   1      43.714  21.925  24.494  1.00  0.00    -0.237 OA
ATOM     87  O   UNL A   1      43.655  21.971  26.966  1.00  0.00    -0.744 OA
ENDBRANCH  80  84
ENDBRANCH  53  77
BRANCH  65  88
ATOM     88  C   UNL A   1      46.486  31.230  30.045  1.00  0.00     0.023 A 
ATOM     89  C   UNL A   1      45.713  31.918  29.085  1.00  0.00     0.031 A 
ATOM     90  C   UNL A   1      47.837  31.606  30.153  1.00  0.00     0.131 A 
ATOM     91  C   UNL A   1      46.290  32.900  28.270  1.00  0.00     0.055 A 
ATOM     92  C   UNL A   1      48.354  32.700  29.459  1.00  0.00     0.041 A 
ATOM     93  F   UNL A   1      48.732  30.880  30.839  1.00  0.00    -0.206 F 
ATOM     94  C   UNL A   1      47.591  33.340  28.494  1.00  0.00     0.022 A 
BRANCH  91  95
ATOM     95  S   UNL A   1      45.415  33.530  26.818  1.00  0.00     0.124 S 
ATOM     96  O   UNL A   1      45.459  34.977  27.021  1.00  0.00    -0.237 OA
ATOM     97  O   UNL A   1      46.256  33.031  25.731  1.00  0.00    -0.237 OA
ATOM     98  O   UNL A   1      44.090  32.927  26.915  1.00  0.00    -0.744 OA
ENDBRANCH  91  95
ENDBRANCH  65  88
ENDBRANCH  39  40
ENDBRANCH  32  34
ENDBRANCH  31  32
ENDBRANCH  30  31
ENDBRANCH  29  30
ENDBRANCH  28  29
ENDBRANCH  27  28
ENDBRANCH  26  27
ENDBRANCH  25  26
ENDBRANCH   1  25
TORSDOF 28
ENDMDL
MODEL 2
REMARK VINA RESULT:      -6.9      3.084      4.530
REMARK SMILES O=C(CSc1nc2cnccc2n1CCC1CC1)OCCOCCOCCOCCOC(=O)c1ccc(-c2c3nc(c(-c4cc(S(=O)(=O)[O-])ccc4F)c4ccc([nH]4)c(-c4cc(S(=O)(=O)[O-])ccc4F)c4nc(c(-c5cc(S(=O)(=O)[O-])ccc5F)c5ccc2[nH]5)C=C4)C=C3)cc1
REMARK SMILES IDX 24 1 23 2 22 3 21 4 20 5 19 6 2 7 1 8 3 9 4 10 5 11 6 12
REMARK SMILES IDX 13 13 7 14 12 15 8 16 11 17 9 18 10 19 14 20 15 21 16 22
REMARK SMILES IDX 17 23 18 24 25 25 26 26 27 27 28 28 29 29 30 30 31 31 32 32
REMARK SMILES IDX 33 33 34 34 35 35 96 36 36 37 95 38 37 39 38 40 39 41 89 42
REMARK SMILES IDX 40 43 94 44 88 45 90 46 41 47 93 48 87 49 86 50 42 52 74 53
REMARK SMILES IDX 54 54 73 55 55 56 58 57 72 58 91 59 56 60 57 61 71 63 92 64
REMARK SMILES IDX 59 65 43 66 44 67 52 68 45 69 51 70 53 71 50 72 46 73 47 74
REMARK SMILES IDX 48 75 49 76 75 77 76 78 84 79 77 80 83 81 85 82 82 83 78 84
REMARK SMILES IDX 79 85 80 86 81 87 60 88 61 89 69 90 62 91 68 92 70 93 67 94
REMARK SMILES IDX 63 95 64 96 65 97 66 98
REMARK H PARENT 90 51 58 62
REMARK Flexibility Score: inf
ROOT
ATOM      1  C   UNL A   1      37.017  32.773  34.007  1.00  0.00     0.188 C 
ENDROOT
BRANCH   1   2
ATOM      2  C   UNL A   1      36.402  33.501  35.196  1.00  0.00     0.188 C 
BRANCH   2   3
ATOM      3  O   UNL A   1      37.134  33.341  36.410  1.00  0.00    -0.376 OA
BRANCH   3   4
ATOM      4  C   UNL A   1      38.259  34.181  36.710  1.00  0.00     0.202 C 
BRANCH   4   5
ATOM      5  C   UNL A   1      39.088  33.909  37.966  1.00  0.00     0.261 C 
BRANCH   5   6
ATOM      6  O   UNL A   1      40.345  34.607  37.945  1.00  0.00    -0.463 OA
BRANCH   6   7
ATOM      7  C   UNL A   1      40.321  35.919  38.293  1.00  0.00     0.316 C 
ATOM      8  O   UNL A   1      40.185  36.807  37.454  1.00  0.00    -0.251 OA
BRANCH   7   9
ATOM      9  C   UNL A   1      40.405  36.214  39.760  1.00  0.00     0.200 C 
BRANCH   9  10
ATOM     10  S   UNL A   1      39.088  37.329  40.310  1.00  0.00    -0.076 SA
BRANCH  10  11
ATOM     11  C   UNL A   1      39.831  38.028  41.703  1.00  0.00     0.169 A 
ATOM     12  N   UNL A   1      39.909  37.397  42.851  1.00  0.00    -0.221 NA
ATOM     13  N   UNL A   1      40.340  39.305  41.783  1.00  0.00    -0.319 N 
ATOM     14  C   UNL A   1      40.272  38.362  43.753  1.00  0.00     0.108 A 
ATOM     15  C   UNL A   1      40.443  39.594  43.127  1.00  0.00     0.072 A 
ATOM     16  C   UNL A   1      40.469  38.277  45.132  1.00  0.00     0.141 A 
ATOM     17  C   UNL A   1      40.719  40.757  43.839  1.00  0.00     0.049 A 
ATOM     18  N   UNL A   1      40.802  39.382  45.850  1.00  0.00    -0.262 NA
ATOM     19  C   UNL A   1      40.894  40.569  45.201  1.00  0.00     0.113 A 
BRANCH  13  20
ATOM     20  C   UNL A   1      40.812  40.163  40.710  1.00  0.00     0.125 C 
BRANCH  20  21
ATOM     21  C   UNL A   1      39.885  41.313  40.269  1.00  0.00     0.025 C 
BRANCH  21  22
ATOM     22  C   UNL A   1      40.456  42.681  40.016  1.00  0.00    -0.009 C 
ATOM     23  C   UNL A   1      40.537  43.812  41.024  1.00  0.00     0.004 C 
ATOM     24  C   UNL A   1      41.775  43.106  40.576  1.00  0.00     0.004 C 
ENDBRANCH  21  22
ENDBRANCH  20  21
ENDBRANCH  13  20
ENDBRANCH  10  11
ENDBRANCH   9  10
ENDBRANCH   7   9
ENDBRANCH   6   7
ENDBRANCH   5   6
ENDBRANCH   4   5
ENDBRANCH   3   4
ENDBRANCH   2   3
ENDBRANCH   1   2
BRANCH   1  25
ATOM     25  O   UNL A   1      36.176  32.591  32.882  1.00  0.00    -0.377 OA
BRANCH  25  26
ATOM     26  C   UNL A   1      35.399  33.711  32.503  1.00  0.00     0.188 C 
BRANCH  26  27
ATOM     27  C   UNL A   1      35.386  34.149  31.018  1.00  0.00     0.188 C 
BRANCH  27  28
ATOM     28  O   UNL A   1      34.209  34.002  30.255  1.00  0.00    -0.376 OA
BRANCH  28  29
ATOM     29  C   UNL A   1      34.328  33.814  28.859  1.00  0.00     0.202 C 
BRANCH  29  30
ATOM     30  C   UNL A   1      35.686  33.752  28.111  1.00  0.00     0.261 C 
BRANCH  30  31
ATOM     31  O   UNL A   1      36.575  32.669  28.435  1.00  0.00    -0.460 OA
BRANCH  31  32
ATOM     32  C   UNL A   1      36.062  31.407  28.562  1.00  0.00     0.338 C 
ATOM     33  O   UNL A   1      34.972  31.039  28.209  1.00  0.00    -0.246 OA
BRANCH  32  34
ATOM     34  C   UNL A   1      37.210  30.492  28.900  1.00  0.00     0.060 A 
ATOM     35  C   UNL A   1      38.490  30.971  29.188  1.00  0.00     0.016 A 
ATOM     36  C   UNL A   1      37.036  29.126  28.610  1.00  0.00     0.016 A 
ATOM     37  C   UNL A   1      39.590  30.109  29.056  1.00  0.00     0.010 A 
ATOM     38  C   UNL A   1      38.140  28.273  28.463  1.00  0.00     0.010 A 
ATOM     39  C   UNL A   1      39.433  28.762  28.655  1.00  0.00    -0.014 A 
BRANCH  39  40
ATOM     40  C   UNL A   1      40.622  27.879  28.745  1.00  0.00     0.031 A 
ATOM     41  C   UNL A   1      41.322  28.026  30.058  1.00  0.00     0.074 A 
ATOM     42  C   UNL A   1      41.029  26.859  27.953  1.00  0.00     0.049 A 
ATOM     43  N   UNL A   1      42.541  28.377  30.310  1.00  0.00    -0.248 NA
ATOM     44  C   UNL A   1      40.470  27.872  31.247  1.00  0.00     0.031 C 
ATOM     45  C   UNL A   1      40.279  26.196  26.888  1.00  0.00     0.029 A 
ATOM     46  N   UNL A   1      42.191  26.118  28.017  1.00  0.00    -0.354 N 
ATOM     47  C   UNL A   1      42.652  28.353  31.702  1.00  0.00     0.074 A 
ATOM     48  C   UNL A   1      41.317  28.196  32.217  1.00  0.00     0.031 C 
ATOM     49  C   UNL A   1      40.921  25.063  26.520  1.00  0.00     0.029 A 
ATOM     50  C   UNL A   1      42.157  24.936  27.283  1.00  0.00     0.049 A 
ATOM     51  H   UNL A   1      42.978  26.399  28.538  1.00  0.00     0.167 HD
ATOM     52  C   UNL A   1      43.844  28.303  32.361  1.00  0.00     0.034 A 
ATOM     53  C   UNL A   1      42.989  23.862  27.368  1.00  0.00     0.034 A 
ATOM     54  C   UNL A   1      44.943  28.656  31.512  1.00  0.00     0.049 A 
ATOM     55  C   UNL A   1      44.187  24.192  28.171  1.00  0.00     0.074 A 
ATOM     56  C   UNL A   1      45.297  29.787  30.806  1.00  0.00     0.029 A 
ATOM     57  N   UNL A   1      45.755  27.654  31.045  1.00  0.00    -0.354 N 
ATOM     58  N   UNL A   1      45.214  24.876  27.761  1.00  0.00    -0.248 NA
ATOM     59  C   UNL A   1      44.083  24.042  29.613  1.00  0.00     0.031 C 
ATOM     60  C   UNL A   1      45.941  29.305  29.635  1.00  0.00     0.029 A 
ATOM     61  C   UNL A   1      45.989  27.913  29.719  1.00  0.00     0.049 A 
ATOM     62  H   UNL A   1      46.104  26.893  31.564  1.00  0.00     0.167 HD
ATOM     63  C   UNL A   1      45.580  25.640  28.855  1.00  0.00     0.074 A 
ATOM     64  C   UNL A   1      44.940  24.989  29.994  1.00  0.00     0.031 C 
ATOM     65  C   UNL A   1      46.129  26.884  28.708  1.00  0.00     0.034 A 
BRANCH  52  66
ATOM     66  C   UNL A   1      44.021  27.679  33.723  1.00  0.00     0.023 A 
ATOM     67  C   UNL A   1      43.894  26.294  33.945  1.00  0.00     0.031 A 
ATOM     68  C   UNL A   1      44.517  28.428  34.807  1.00  0.00     0.131 A 
ATOM     69  C   UNL A   1      44.188  25.712  35.181  1.00  0.00     0.055 A 
ATOM     70  C   UNL A   1      44.890  27.836  36.021  1.00  0.00     0.041 A 
ATOM     71  F   UNL A   1      44.708  29.753  34.703  1.00  0.00    -0.206 F 
ATOM     72  C   UNL A   1      44.717  26.471  36.219  1.00  0.00     0.022 A 
BRANCH  69  73
ATOM     73  S   UNL A   1      43.871  23.947  35.454  1.00  0.00     0.124 S 
ATOM     74  O   UNL A   1      44.614  23.337  34.356  1.00  0.00    -0.237 OA
ATOM     75  O   UNL A   1      44.430  23.748  36.788  1.00  0.00    -0.237 OA
ATOM     76  O   UNL A   1      42.417  23.847  35.374  1.00  0.00    -0.744 OA
ENDBRANCH  69  73
ENDBRANCH  52  66
BRANCH  53  77
ATOM     77  C   UNL A   1      42.622  22.441  27.146  1.00  0.00     0.023 A 
ATOM     78  C   UNL A   1      43.503  21.623  26.419  1.00  0.00     0.031 A 
ATOM     79  C   UNL A   1      41.324  21.948  27.370  1.00  0.00     0.131 A 
ATOM     80  C   UNL A   1      43.090  20.384  25.921  1.00  0.00     0.055 A 
ATOM     81  C   UNL A   1      40.913  20.699  26.880  1.00  0.00     0.041 A 
ATOM     82  F   UNL A   1      40.412  22.689  28.017  1.00  0.00    -0.206 F 
ATOM     83  C   UNL A   1      41.797  19.913  26.143  1.00  0.00     0.022 A 
BRANCH  80  84
ATOM     84  S   UNL A   1      44.236  19.403  24.920  1.00  0.00     0.124 S 
ATOM     85  O   UNL A   1      44.264  20.141  23.660  1.00  0.00    -0.237 OA
ATOM     86  O   UNL A   1      45.455  19.468  25.718  1.00  0.00    -0.237 OA
ATOM     87  O   UNL A   1      43.588  18.096  24.853  1.00  0.00    -0.744 OA
ENDBRANCH  80  84
ENDBRANCH  53  77
BRANCH  65  88
ATOM     88  C   UNL A   1      46.667  27.317  27.356  1.00  0.00     0.023 A 
ATOM     89  C   UNL A   1      48.046  27.138  27.113  1.00  0.00     0.031 A 
ATOM     90  C   UNL A   1      45.939  28.011  26.373  1.00  0.00     0.131 A 
ATOM     91  C   UNL A   1      48.644  27.661  25.960  1.00  0.00     0.055 A 
ATOM     92  C   UNL A   1      46.510  28.373  25.153  1.00  0.00     0.041 A 
ATOM     93  F   UNL A   1      44.693  28.459  26.584  1.00  0.00    -0.206 F 
ATOM     94  C   UNL A   1      47.873  28.223  24.947  1.00  0.00     0.022 A 
BRANCH  91  95
ATOM     95  S   UNL A   1      50.445  27.746  25.808  1.00  0.00     0.124 S 
ATOM     96  O   UNL A   1      50.770  26.486  25.145  1.00  0.00    -0.237 OA
ATOM     97  O   UNL A   1      50.612  28.942  24.983  1.00  0.00    -0.237 OA
ATOM     98  O   UNL A   1      50.909  27.864  27.187  1.00  0.00    -0.744 OA
ENDBRANCH  91  95
ENDBRANCH  65  88
ENDBRANCH  39  40
ENDBRANCH  32  34
ENDBRANCH  31  32
ENDBRANCH  30  31
ENDBRANCH  29  30
ENDBRANCH  28  29
ENDBRANCH  27  28
ENDBRANCH  26  27
ENDBRANCH  25  26
ENDBRANCH   1  25
TORSDOF 28
ENDMDL
MODEL 3
REMARK VINA RESULT:      -6.9      5.857     10.030
REMARK SMILES O=C(CSc1nc2cnccc2n1CCC1CC1)OCCOCCOCCOCCOC(=O)c1ccc(-c2c3nc(c(-c4cc(S(=O)(=O)[O-])ccc4F)c4ccc([nH]4)c(-c4cc(S(=O)(=O)[O-])ccc4F)c4nc(c(-c5cc(S(=O)(=O)[O-])ccc5F)c5ccc2[nH]5)C=C4)C=C3)cc1
REMARK SMILES IDX 24 1 23 2 22 3 21 4 20 5 19 6 2 7 1 8 3 9 4 10 5 11 6 12
REMARK SMILES IDX 13 13 7 14 12 15 8 16 11 17 9 18 10 19 14 20 15 21 16 22
REMARK SMILES IDX 17 23 18 24 25 25 26 26 27 27 28 28 29 29 30 30 31 31 32 32
REMARK SMILES IDX 33 33 34 34 35 35 96 36 36 37 95 38 37 39 38 40 39 41 89 42
REMARK SMILES IDX 40 43 94 44 88 45 90 46 41 47 93 48 87 49 86 50 42 52 74 53
REMARK SMILES IDX 54 54 73 55 55 56 58 57 72 58 91 59 56 60 57 61 71 63 92 64
REMARK SMILES IDX 59 65 43 66 44 67 52 68 45 69 51 70 53 71 50 72 46 73 47 74
REMARK SMILES IDX 48 75 49 76 75 77 76 78 84 79 77 80 83 81 85 82 82 83 78 84
REMARK SMILES IDX 79 85 80 86 81 87 60 88 61 89 69 90 62 91 68 92 70 93 67 94
REMARK SMILES IDX 63 95 64 96 65 97 66 98
REMARK H PARENT 90 51 58 62
REMARK Flexibility Score: inf
ROOT
ATOM      1  C   UNL A   1      45.990  44.655  26.998  1.00  0.00     0.188 C 
ENDROOT
BRANCH   1   2
ATOM      2  C   UNL A   1      45.192  44.746  28.293  1.00  0.00     0.188 C 
BRANCH   2   3
ATOM      3  O   UNL A   1      45.039  43.496  28.964  1.00  0.00    -0.376 OA
BRANCH   3   4
ATOM      4  C   UNL A   1      44.066  43.334  30.007  1.00  0.00     0.202 C 
BRANCH   4   5
ATOM      5  C   UNL A   1      43.848  44.464  31.014  1.00  0.00     0.261 C 
BRANCH   5   6
ATOM      6  O   UNL A   1      42.570  44.367  31.666  1.00  0.00    -0.463 OA
BRANCH   6   7
ATOM      7  C   UNL A   1      42.578  44.013  32.977  1.00  0.00     0.316 C 
ATOM      8  O   UNL A   1      42.270  44.807  33.862  1.00  0.00    -0.251 OA
BRANCH   7   9
ATOM      9  C   UNL A   1      42.920  42.583  33.271  1.00  0.00     0.200 C 
BRANCH   9  10
ATOM     10  S   UNL A   1      43.711  42.389  34.888  1.00  0.00    -0.076 SA
BRANCH  10  11
ATOM     11  C   UNL A   1      44.554  40.901  34.648  1.00  0.00     0.169 A 
ATOM     12  N   UNL A   1      44.142  39.767  35.166  1.00  0.00    -0.221 NA
ATOM     13  N   UNL A   1      45.746  40.756  33.974  1.00  0.00    -0.319 N 
ATOM     14  C   UNL A   1      45.202  38.912  35.015  1.00  0.00     0.108 A 
ATOM     15  C   UNL A   1      46.263  39.540  34.367  1.00  0.00     0.072 A 
ATOM     16  C   UNL A   1      45.350  37.582  35.410  1.00  0.00     0.141 A 
ATOM     17  C   UNL A   1      47.492  38.915  34.178  1.00  0.00     0.049 A 
ATOM     18  N   UNL A   1      46.515  36.921  35.184  1.00  0.00    -0.262 NA
ATOM     19  C   UNL A   1      47.539  37.597  34.607  1.00  0.00     0.113 A 
BRANCH  13  20
ATOM     20  C   UNL A   1      46.320  41.612  32.951  1.00  0.00     0.125 C 
BRANCH  20  21
ATOM     21  C   UNL A   1      46.342  41.069  31.509  1.00  0.00     0.025 C 
BRANCH  21  22
ATOM     22  C   UNL A   1      47.654  40.732  30.856  1.00  0.00    -0.009 C 
ATOM     23  C   UNL A   1      48.416  41.611  29.883  1.00  0.00     0.004 C 
ATOM     24  C   UNL A   1      48.935  41.383  31.264  1.00  0.00     0.004 C 
ENDBRANCH  21  22
ENDBRANCH  20  21
ENDBRANCH  13  20
ENDBRANCH  10  11
ENDBRANCH   9  10
ENDBRANCH   7   9
ENDBRANCH   6   7
ENDBRANCH   5   6
ENDBRANCH   4   5
ENDBRANCH   3   4
ENDBRANCH   2   3
ENDBRANCH   1   2
BRANCH   1  25
ATOM     25  O   UNL A   1      45.268  44.883  25.801  1.00  0.00    -0.377 OA
BRANCH  25  26
ATOM     26  C   UNL A   1      44.497  43.795  25.328  1.00  0.00     0.188 C 
BRANCH  26  27
ATOM     27  C   UNL A   1      45.220  42.511  24.854  1.00  0.00     0.188 C 
BRANCH  27  28
ATOM     28  O   UNL A   1      44.679  41.247  25.168  1.00  0.00    -0.376 OA
BRANCH  28  29
ATOM     29  C   UNL A   1      44.597  40.866  26.526  1.00  0.00     0.202 C 
BRANCH  29  30
ATOM     30  C   UNL A   1      45.561  39.851  27.196  1.00  0.00     0.261 C 
BRANCH  30  31
ATOM     31  O   UNL A   1      45.109  39.196  28.395  1.00  0.00    -0.460 OA
BRANCH  31  32
ATOM     32  C   UNL A   1      45.806  38.115  28.862  1.00  0.00     0.338 C 
ATOM     33  O   UNL A   1      46.930  38.120  29.293  1.00  0.00    -0.246 OA
BRANCH  32  34
ATOM     34  C   UNL A   1      44.814  36.999  29.061  1.00  0.00     0.060 A 
ATOM     35  C   UNL A   1      44.374  36.604  30.326  1.00  0.00     0.016 A 
ATOM     36  C   UNL A   1      44.583  36.156  27.958  1.00  0.00     0.016 A 
ATOM     37  C   UNL A   1      43.827  35.323  30.493  1.00  0.00     0.010 A 
ATOM     38  C   UNL A   1      44.050  34.870  28.132  1.00  0.00     0.010 A 
ATOM     39  C   UNL A   1      43.694  34.427  29.407  1.00  0.00    -0.014 A 
BRANCH  39  40
ATOM     40  C   UNL A   1      42.918  33.182  29.638  1.00  0.00     0.031 A 
ATOM     41  C   UNL A   1      41.523  33.477  30.086  1.00  0.00     0.074 A 
ATOM     42  C   UNL A   1      43.193  31.896  29.320  1.00  0.00     0.049 A 
ATOM     43  N   UNL A   1      40.910  33.125  31.170  1.00  0.00    -0.248 NA
ATOM     44  C   UNL A   1      40.769  34.406  29.231  1.00  0.00     0.031 C 
ATOM     45  C   UNL A   1      44.257  31.394  28.451  1.00  0.00     0.029 A 
ATOM     46  N   UNL A   1      42.488  30.752  29.633  1.00  0.00    -0.354 N 
ATOM     47  C   UNL A   1      39.633  33.679  31.070  1.00  0.00     0.074 A 
ATOM     48  C   UNL A   1      39.663  34.579  29.947  1.00  0.00     0.031 C 
ATOM     49  C   UNL A   1      44.036  30.089  28.173  1.00  0.00     0.029 A 
ATOM     50  C   UNL A   1      42.844  29.636  28.880  1.00  0.00     0.049 A 
ATOM     51  H   UNL A   1      41.792  30.726  30.328  1.00  0.00     0.167 HD
ATOM     52  C   UNL A   1      38.570  33.258  31.810  1.00  0.00     0.034 A 
ATOM     53  C   UNL A   1      42.164  28.467  28.725  1.00  0.00     0.034 A 
ATOM     54  C   UNL A   1      38.977  32.474  32.939  1.00  0.00     0.049 A 
ATOM     55  C   UNL A   1      41.069  28.365  29.716  1.00  0.00     0.074 A 
ATOM     56  C   UNL A   1      39.753  32.715  34.055  1.00  0.00     0.029 A 
ATOM     57  N   UNL A   1      38.811  31.115  32.884  1.00  0.00    -0.354 N 
ATOM     58  N   UNL A   1      41.203  28.048  30.968  1.00  0.00    -0.248 NA
ATOM     59  C   UNL A   1      39.799  28.981  29.368  1.00  0.00     0.031 C 
ATOM     60  C   UNL A   1      40.407  31.482  34.321  1.00  0.00     0.029 A 
ATOM     61  C   UNL A   1      39.955  30.549  33.386  1.00  0.00     0.049 A 
ATOM     62  H   UNL A   1      38.019  30.634  32.549  1.00  0.00     0.167 HD
ATOM     63  C   UNL A   1      40.291  28.853  31.629  1.00  0.00     0.074 A 
ATOM     64  C   UNL A   1      39.370  29.301  30.589  1.00  0.00     0.031 C 
ATOM     65  C   UNL A   1      40.527  29.312  32.896  1.00  0.00     0.034 A 
BRANCH  52  66
ATOM     66  C   UNL A   1      37.137  33.354  31.347  1.00  0.00     0.023 A 
ATOM     67  C   UNL A   1      36.712  32.873  30.094  1.00  0.00     0.031 A 
ATOM     68  C   UNL A   1      36.113  33.751  32.228  1.00  0.00     0.131 A 
ATOM     69  C   UNL A   1      35.362  32.849  29.729  1.00  0.00     0.055 A 
ATOM     70  C   UNL A   1      34.755  33.651  31.896  1.00  0.00     0.041 A 
ATOM     71  F   UNL A   1      36.397  34.198  33.462  1.00  0.00    -0.206 F 
ATOM     72  C   UNL A   1      34.372  33.207  30.636  1.00  0.00     0.022 A 
BRANCH  69  73
ATOM     73  S   UNL A   1      34.883  32.355  28.050  1.00  0.00     0.124 S 
ATOM     74  O   UNL A   1      36.047  31.587  27.621  1.00  0.00    -0.237 OA
ATOM     75  O   UNL A   1      33.669  31.583  28.303  1.00  0.00    -0.237 OA
ATOM     76  O   UNL A   1      34.672  33.629  27.369  1.00  0.00    -0.744 OA
ENDBRANCH  69  73
ENDBRANCH  52  66
BRANCH  53  77
ATOM     77  C   UNL A   1      42.137  27.616  27.509  1.00  0.00     0.023 A 
ATOM     78  C   UNL A   1      42.647  26.310  27.590  1.00  0.00     0.031 A 
ATOM     79  C   UNL A   1      41.899  28.135  26.224  1.00  0.00     0.131 A 
ATOM     80  C   UNL A   1      42.928  25.573  26.436  1.00  0.00     0.055 A 
ATOM     81  C   UNL A   1      42.169  27.392  25.065  1.00  0.00     0.041 A 
ATOM     82  F   UNL A   1      41.455  29.390  26.064  1.00  0.00    -0.206 F 
ATOM     83  C   UNL A   1      42.695  26.105  25.168  1.00  0.00     0.022 A 
BRANCH  80  84
ATOM     84  S   UNL A   1      43.662  23.925  26.590  1.00  0.00     0.124 S 
ATOM     85  O   UNL A   1      45.075  24.184  26.327  1.00  0.00    -0.237 OA
ATOM     86  O   UNL A   1      43.327  23.582  27.968  1.00  0.00    -0.237 OA
ATOM     87  O   UNL A   1      42.975  23.155  25.557  1.00  0.00    -0.744 OA
ENDBRANCH  80  84
ENDBRANCH  53  77
BRANCH  65  88
ATOM     88  C   UNL A   1      41.619  28.677  33.737  1.00  0.00     0.023 A 
ATOM     89  C   UNL A   1      41.239  27.679  34.660  1.00  0.00     0.031 A 
ATOM     90  C   UNL A   1      42.962  29.095  33.779  1.00  0.00     0.131 A 
ATOM     91  C   UNL A   1      42.159  27.168  35.583  1.00  0.00     0.055 A 
ATOM     92  C   UNL A   1      43.906  28.456  34.583  1.00  0.00     0.041 A 
ATOM     93  F   UNL A   1      43.394  30.190  33.138  1.00  0.00    -0.206 F 
ATOM     94  C   UNL A   1      43.507  27.504  35.509  1.00  0.00     0.022 A 
BRANCH  91  95
ATOM     95  S   UNL A   1      41.606  26.162  36.982  1.00  0.00     0.124 S 
ATOM     96  O   UNL A   1      40.431  26.892  37.455  1.00  0.00    -0.237 OA
ATOM     97  O   UNL A   1      41.321  24.885  36.329  1.00  0.00    -0.237 OA
ATOM     98  O   UNL A   1      42.748  26.163  37.890  1.00  0.00    -0.744 OA
ENDBRANCH  91  95
ENDBRANCH  65  88
ENDBRANCH  39  40
ENDBRANCH  32  34
ENDBRANCH  31  32
ENDBRANCH  30  31
ENDBRANCH  29  30
ENDBRANCH  28  29
ENDBRANCH  27  28
ENDBRANCH  26  27
ENDBRANCH  25  26
ENDBRANCH   1  25
TORSDOF 28
ENDMDL
