MODEL 1
REMARK VINA RESULT:     -10.0      0.000      0.000
REMARK SMILES Cc1c(Cl)cc2c(c1C)O[C@H](C(F)(F)F)C(C(=O)OCCOCCOCCOCCOC(=O)c1ccc(-c3c4nc(c(-c5cc(S(=O)(=O)[O-])ccc5F)c5ccc([nH]5)c(-c5cc(S(=O)(=O)[O-])ccc5F)c5nc(c(-c6cc(S(=O)(=O)[O-])ccc6F)c6ccc3[nH]6)C=C5)C=C4)cc1)=C2
REMARK SMILES IDX 26 1 25 2 24 3 23 4 22 5 21 6 20 7 19 8 17 9 18 10 16 11
REMARK SMILES IDX 1 12 2 13 3 14 8 15 4 16 5 17 7 18 9 19 6 20 10 21 97 22
REMARK SMILES IDX 11 23 12 24 13 25 14 26 15 27 27 28 28 29 29 30 30 31 31 32
REMARK SMILES IDX 32 33 33 34 34 35 35 36 96 37 36 38 95 39 37 40 38 41 39 42
REMARK SMILES IDX 89 43 40 44 94 45 88 46 90 47 41 48 93 49 87 50 86 51 42 53
REMARK SMILES IDX 74 54 54 55 73 56 55 57 58 58 72 59 91 60 56 61 57 62 71 64
REMARK SMILES IDX 92 65 59 66 43 67 44 68 52 69 45 70 51 71 53 72 50 73 46 74
REMARK SMILES IDX 47 75 48 76 49 77 75 78 76 79 84 80 77 81 83 82 85 83 82 84
REMARK SMILES IDX 78 85 79 86 80 87 81 88 60 89 61 90 69 91 62 92 68 93 70 94
REMARK SMILES IDX 67 95 63 96 64 97 65 98 66 99
REMARK H PARENT 90 52 58 63
REMARK Flexibility Score: inf
ROOT
ATOM      1  C   UNL A   1      31.371  29.253  24.981  1.00  0.00     0.188 C 
ENDROOT
BRANCH   1   2
ATOM      2  O   UNL A   1      31.894  28.418  23.947  1.00  0.00    -0.377 OA
BRANCH   2   3
ATOM      3  C   UNL A   1      30.988  27.969  22.952  1.00  0.00     0.188 C 
BRANCH   3   4
ATOM      4  C   UNL A   1      30.604  26.489  23.133  1.00  0.00     0.188 C 
BRANCH   4   5
ATOM      5  O   UNL A   1      30.007  26.214  24.389  1.00  0.00    -0.376 OA
BRANCH   5   6
ATOM      6  C   UNL A   1      30.434  25.113  25.176  1.00  0.00     0.202 C 
BRANCH   6   7
ATOM      7  C   UNL A   1      31.496  25.205  26.292  1.00  0.00     0.261 C 
BRANCH   7   8
ATOM      8  O   UNL A   1      32.597  24.295  26.231  1.00  0.00    -0.460 OA
BRANCH   8   9
ATOM      9  C   UNL A   1      33.389  24.328  25.148  1.00  0.00     0.338 C 
ATOM     10  O   UNL A   1      33.735  25.311  24.517  1.00  0.00    -0.246 OA
BRANCH   9  11
ATOM     11  C   UNL A   1      33.931  22.963  24.958  1.00  0.00     0.087 C 
ATOM     12  C   UNL A   1      35.036  16.569  25.009  1.00  0.00     0.046 C 
ATOM     13  C   UNL A   1      34.515  17.970  24.807  1.00  0.00    -0.026 A 
ATOM     14  C   UNL A   1      33.135  18.233  24.712  1.00  0.00     0.045 A 
ATOM     15  C   UNL A   1      35.419  19.061  24.736  1.00  0.00    -0.004 A 
ATOM     16  Cl  UNL A   1      31.947  16.975  24.675  1.00  0.00    -0.084 Cl
ATOM     17  C   UNL A   1      32.656  19.544  24.670  1.00  0.00     0.032 A 
ATOM     18  C   UNL A   1      34.917  20.379  24.691  1.00  0.00     0.131 A 
ATOM     19  C   UNL A   1      36.918  18.873  24.750  1.00  0.00     0.049 C 
ATOM     20  C   UNL A   1      33.544  20.617  24.716  1.00  0.00     0.019 A 
ATOM     21  O   UNL A   1      35.840  21.387  24.643  1.00  0.00    -0.475 OA
ATOM     22  C   UNL A   1      33.038  21.969  24.871  1.00  0.00     0.027 C 
ATOM     23  C   UNL A   1      35.417  22.769  24.796  1.00  0.00     0.316 C 
BRANCH  23  24
ATOM     24  C   UNL A   1      36.216  23.378  25.957  1.00  0.00     0.430 C 
ATOM     25  F   UNL A   1      36.588  24.652  25.681  1.00  0.00    -0.167 F 
ATOM     26  F   UNL A   1      35.503  23.415  27.104  1.00  0.00    -0.167 F 
ATOM     27  F   UNL A   1      37.344  22.674  26.204  1.00  0.00    -0.167 F 
ENDBRANCH  23  24
ENDBRANCH   9  11
ENDBRANCH   8   9
ENDBRANCH   7   8
ENDBRANCH   6   7
ENDBRANCH   5   6
ENDBRANCH   4   5
ENDBRANCH   3   4
ENDBRANCH   2   3
ENDBRANCH   1   2
BRANCH   1  28
ATOM     28  C   UNL A   1      31.837  29.092  26.448  1.00  0.00     0.188 C 
BRANCH  28  29
ATOM     29  O   UNL A   1      32.100  30.329  27.110  1.00  0.00    -0.376 OA
BRANCH  29  30
ATOM     30  C   UNL A   1      31.772  31.520  26.410  1.00  0.00     0.202 C 
BRANCH  30  31
ATOM     31  C   UNL A   1      31.783  32.791  27.268  1.00  0.00     0.261 C 
BRANCH  31  32
ATOM     32  O   UNL A   1      33.036  33.488  27.325  1.00  0.00    -0.460 OA
BRANCH  32  33
ATOM     33  C   UNL A   1      33.254  34.295  28.388  1.00  0.00     0.338 C 
ATOM     34  O   UNL A   1      32.556  35.221  28.761  1.00  0.00    -0.246 OA
BRANCH  33  35
ATOM     35  C   UNL A   1      34.394  33.732  29.137  1.00  0.00     0.060 A 
ATOM     36  C   UNL A   1      35.690  34.173  28.844  1.00  0.00     0.016 A 
ATOM     37  C   UNL A   1      34.175  32.794  30.150  1.00  0.00     0.016 A 
ATOM     38  C   UNL A   1      36.776  33.660  29.557  1.00  0.00     0.010 A 
ATOM     39  C   UNL A   1      35.263  32.268  30.848  1.00  0.00     0.010 A 
ATOM     40  C   UNL A   1      36.570  32.682  30.541  1.00  0.00    -0.014 A 
BRANCH  40  41
ATOM     41  C   UNL A   1      37.730  31.967  31.125  1.00  0.00     0.031 A 
ATOM     42  C   UNL A   1      38.211  32.383  32.488  1.00  0.00     0.074 A 
ATOM     43  C   UNL A   1      38.323  30.949  30.477  1.00  0.00     0.049 A 
ATOM     44  N   UNL A   1      39.210  31.921  33.191  1.00  0.00    -0.248 NA
ATOM     45  C   UNL A   1      37.460  33.466  33.148  1.00  0.00     0.031 C 
ATOM     46  C   UNL A   1      37.913  30.423  29.175  1.00  0.00     0.029 A 
ATOM     47  N   UNL A   1      39.396  30.168  30.831  1.00  0.00    -0.354 N 
ATOM     48  C   UNL A   1      39.200  32.639  34.380  1.00  0.00     0.074 A 
ATOM     49  C   UNL A   1      38.123  33.601  34.286  1.00  0.00     0.031 C 
ATOM     50  C   UNL A   1      38.718  29.396  28.847  1.00  0.00     0.029 A 
ATOM     51  C   UNL A   1      39.721  29.214  29.896  1.00  0.00     0.049 A 
ATOM     52  H   UNL A   1      39.886  30.281  31.678  1.00  0.00     0.167 HD
ATOM     53  C   UNL A   1      40.001  32.497  35.462  1.00  0.00     0.034 A 
ATOM     54  C   UNL A   1      40.719  28.304  29.886  1.00  0.00     0.034 A 
ATOM     55  C   UNL A   1      41.080  31.546  35.543  1.00  0.00     0.049 A 
ATOM     56  C   UNL A   1      41.674  28.243  31.054  1.00  0.00     0.074 A 
ATOM     57  C   UNL A   1      41.959  31.336  36.589  1.00  0.00     0.029 A 
ATOM     58  N   UNL A   1      41.428  30.654  34.541  1.00  0.00    -0.354 N 
ATOM     59  N   UNL A   1      41.668  28.950  32.161  1.00  0.00    -0.248 NA
ATOM     60  C   UNL A   1      42.769  27.266  30.973  1.00  0.00     0.031 C 
ATOM     61  C   UNL A   1      42.878  30.359  36.197  1.00  0.00     0.029 A 
ATOM     62  C   UNL A   1      42.526  29.908  34.935  1.00  0.00     0.049 A 
ATOM     63  H   UNL A   1      40.964  30.563  33.678  1.00  0.00     0.167 HD
ATOM     64  C   UNL A   1      42.735  28.478  32.920  1.00  0.00     0.074 A 
ATOM     65  C   UNL A   1      43.369  27.431  32.145  1.00  0.00     0.031 C 
ATOM     66  C   UNL A   1      43.147  28.868  34.152  1.00  0.00     0.034 A 
BRANCH  53  67
ATOM     67  C   UNL A   1      39.757  33.404  36.635  1.00  0.00     0.023 A 
ATOM     68  C   UNL A   1      39.106  32.942  37.792  1.00  0.00     0.031 A 
ATOM     69  C   UNL A   1      40.206  34.735  36.611  1.00  0.00     0.131 A 
ATOM     70  C   UNL A   1      38.892  33.815  38.867  1.00  0.00     0.055 A 
ATOM     71  C   UNL A   1      40.044  35.582  37.708  1.00  0.00     0.041 A 
ATOM     72  F   UNL A   1      40.813  35.231  35.522  1.00  0.00    -0.206 F 
ATOM     73  C   UNL A   1      39.379  35.125  38.842  1.00  0.00     0.022 A 
BRANCH  70  74
ATOM     74  S   UNL A   1      37.907  33.236  40.274  1.00  0.00     0.124 S 
ATOM     75  O   UNL A   1      38.678  32.078  40.716  1.00  0.00    -0.237 OA
ATOM     76  O   UNL A   1      37.920  34.390  41.167  1.00  0.00    -0.237 OA
ATOM     77  O   UNL A   1      36.610  32.925  39.678  1.00  0.00    -0.744 OA
ENDBRANCH  70  74
ENDBRANCH  53  67
BRANCH  54  78
ATOM     78  C   UNL A   1      40.883  27.382  28.726  1.00  0.00     0.023 A 
ATOM     79  C   UNL A   1      41.890  27.595  27.771  1.00  0.00     0.031 A 
ATOM     80  C   UNL A   1      40.016  26.291  28.541  1.00  0.00     0.131 A 
ATOM     81  C   UNL A   1      41.991  26.742  26.660  1.00  0.00     0.055 A 
ATOM     82  C   UNL A   1      40.147  25.422  27.456  1.00  0.00     0.041 A 
ATOM     83  F   UNL A   1      39.036  26.046  29.424  1.00  0.00    -0.206 F 
ATOM     84  C   UNL A   1      41.135  25.650  26.503  1.00  0.00     0.022 A 
BRANCH  81  85
ATOM     85  S   UNL A   1      43.236  27.107  25.393  1.00  0.00     0.124 S 
ATOM     86  O   UNL A   1      43.511  25.779  24.857  1.00  0.00    -0.237 OA
ATOM     87  O   UNL A   1      42.514  28.020  24.511  1.00  0.00    -0.237 OA
ATOM     88  O   UNL A   1      44.327  27.713  26.153  1.00  0.00    -0.744 OA
ENDBRANCH  81  85
ENDBRANCH  54  78
BRANCH  66  89
ATOM     89  C   UNL A   1      44.311  28.141  34.773  1.00  0.00     0.023 A 
ATOM     90  C   UNL A   1      44.140  26.928  35.459  1.00  0.00     0.031 A 
ATOM     91  C   UNL A   1      45.618  28.630  34.595  1.00  0.00     0.131 A 
ATOM     92  C   UNL A   1      45.263  26.248  35.957  1.00  0.00     0.055 A 
ATOM     93  C   UNL A   1      46.733  27.929  35.054  1.00  0.00     0.041 A 
ATOM     94  F   UNL A   1      45.832  29.782  33.939  1.00  0.00    -0.206 F 
ATOM     95  C   UNL A   1      46.557  26.731  35.741  1.00  0.00     0.022 A 
BRANCH  92  96
ATOM     96  S   UNL A   1      45.012  24.721  36.902  1.00  0.00     0.124 S 
ATOM     97  O   UNL A   1      46.034  24.834  37.937  1.00  0.00    -0.237 OA
ATOM     98  O   UNL A   1      43.630  24.851  37.353  1.00  0.00    -0.237 OA
ATOM     99  O   UNL A   1      45.241  23.666  35.916  1.00  0.00    -0.744 OA
ENDBRANCH  92  96
ENDBRANCH  66  89
ENDBRANCH  40  41
ENDBRANCH  33  35
ENDBRANCH  32  33
ENDBRANCH  31  32
ENDBRANCH  30  31
ENDBRANCH  29  30
ENDBRANCH  28  29
ENDBRANCH   1  28
TORSDOF 24
ENDMDL
MODEL 2
REMARK VINA RESULT:      -9.9      5.739     11.067
REMARK SMILES Cc1c(Cl)cc2c(c1C)O[C@H](C(F)(F)F)C(C(=O)OCCOCCOCCOCCOC(=O)c1ccc(-c3c4nc(c(-c5cc(S(=O)(=O)[O-])ccc5F)c5ccc([nH]5)c(-c5cc(S(=O)(=O)[O-])ccc5F)c5nc(c(-c6cc(S(=O)(=O)[O-])ccc6F)c6ccc3[nH]6)C=C5)C=C4)cc1)=C2
REMARK SMILES IDX 26 1 25 2 24 3 23 4 22 5 21 6 20 7 19 8 17 9 18 10 16 11
REMARK SMILES IDX 1 12 2 13 3 14 8 15 4 16 5 17 7 18 9 19 6 20 10 21 97 22
REMARK SMILES IDX 11 23 12 24 13 25 14 26 15 27 27 28 28 29 29 30 30 31 31 32
REMARK SMILES IDX 32 33 33 34 34 35 35 36 96 37 36 38 95 39 37 40 38 41 39 42
REMARK SMILES IDX 89 43 40 44 94 45 88 46 90 47 41 48 93 49 87 50 86 51 42 53
REMARK SMILES IDX 74 54 54 55 73 56 55 57 58 58 72 59 91 60 56 61 57 62 71 64
REMARK SMILES IDX 92 65 59 66 43 67 44 68 52 69 45 70 51 71 53 72 50 73 46 74
REMARK SMILES IDX 47 75 48 76 49 77 75 78 76 79 84 80 77 81 83 82 85 83 82 84
REMARK SMILES IDX 78 85 79 86 80 87 81 88 60 89 61 90 69 91 62 92 68 93 70 94
REMARK SMILES IDX 67 95 63 96 64 97 65 98 66 99
REMARK H PARENT 90 52 58 63
REMARK Flexibility Score: inf
ROOT
ATOM      1  C   UNL A   1      42.569  18.355  26.146  1.00  0.00     0.188 C 
ENDROOT
BRANCH   1   2
ATOM      2  O   UNL A   1      42.324  19.523  25.360  1.00  0.00    -0.377 OA
BRANCH   2   3
ATOM      3  C   UNL A   1      42.106  20.740  26.055  1.00  0.00     0.188 C 
BRANCH   3   4
ATOM      4  C   UNL A   1      40.659  20.874  26.567  1.00  0.00     0.188 C 
BRANCH   4   5
ATOM      5  O   UNL A   1      40.531  21.772  27.655  1.00  0.00    -0.376 OA
BRANCH   5   6
ATOM      6  C   UNL A   1      41.609  22.612  28.042  1.00  0.00     0.202 C 
BRANCH   6   7
ATOM      7  C   UNL A   1      41.441  24.057  28.555  1.00  0.00     0.261 C 
BRANCH   7   8
ATOM      8  O   UNL A   1      41.415  25.103  27.582  1.00  0.00    -0.460 OA
BRANCH   8   9
ATOM      9  C   UNL A   1      40.271  25.785  27.412  1.00  0.00     0.338 C 
ATOM     10  O   UNL A   1      39.278  25.420  26.809  1.00  0.00    -0.246 OA
BRANCH   9  11
ATOM     11  C   UNL A   1      40.355  27.001  28.253  1.00  0.00     0.087 C 
ATOM     12  C   UNL A   1      39.131  32.188  31.954  1.00  0.00     0.046 C 
ATOM     13  C   UNL A   1      39.306  30.812  31.362  1.00  0.00    -0.026 A 
ATOM     14  C   UNL A   1      38.424  29.760  31.676  1.00  0.00     0.045 A 
ATOM     15  C   UNL A   1      40.361  30.561  30.448  1.00  0.00    -0.004 A 
ATOM     16  Cl  UNL A   1      37.171  29.918  32.860  1.00  0.00    -0.084 Cl
ATOM     17  C   UNL A   1      38.508  28.533  31.016  1.00  0.00     0.032 A 
ATOM     18  C   UNL A   1      40.431  29.314  29.791  1.00  0.00     0.131 A 
ATOM     19  C   UNL A   1      41.403  31.601  30.108  1.00  0.00     0.049 C 
ATOM     20  C   UNL A   1      39.475  28.329  30.034  1.00  0.00     0.019 A 
ATOM     21  O   UNL A   1      41.460  29.141  28.907  1.00  0.00    -0.475 OA
ATOM     22  C   UNL A   1      39.434  27.131  29.214  1.00  0.00     0.027 C 
ATOM     23  C   UNL A   1      41.491  27.971  28.045  1.00  0.00     0.316 C 
BRANCH  23  24
ATOM     24  C   UNL A   1      41.584  28.460  26.593  1.00  0.00     0.430 C 
ATOM     25  F   UNL A   1      41.920  27.449  25.756  1.00  0.00    -0.167 F 
ATOM     26  F   UNL A   1      40.414  28.968  26.149  1.00  0.00    -0.167 F 
ATOM     27  F   UNL A   1      42.523  29.425  26.456  1.00  0.00    -0.167 F 
ENDBRANCH  23  24
ENDBRANCH   9  11
ENDBRANCH   8   9
ENDBRANCH   7   8
ENDBRANCH   6   7
ENDBRANCH   5   6
ENDBRANCH   4   5
ENDBRANCH   3   4
ENDBRANCH   2   3
ENDBRANCH   1   2
BRANCH   1  28
ATOM     28  C   UNL A   1      44.010  17.854  26.402  1.00  0.00     0.188 C 
BRANCH  28  29
ATOM     29  O   UNL A   1      44.904  18.083  25.313  1.00  0.00    -0.376 OA
BRANCH  29  30
ATOM     30  C   UNL A   1      46.080  18.830  25.587  1.00  0.00     0.202 C 
BRANCH  30  31
ATOM     31  C   UNL A   1      46.384  19.942  24.574  1.00  0.00     0.261 C 
BRANCH  31  32
ATOM     32  O   UNL A   1      46.305  21.281  25.084  1.00  0.00    -0.460 OA
BRANCH  32  33
ATOM     33  C   UNL A   1      45.338  22.084  24.585  1.00  0.00     0.338 C 
ATOM     34  O   UNL A   1      44.531  21.806  23.716  1.00  0.00    -0.246 OA
BRANCH  33  35
ATOM     35  C   UNL A   1      45.308  23.301  25.418  1.00  0.00     0.060 A 
ATOM     36  C   UNL A   1      46.444  23.653  26.158  1.00  0.00     0.016 A 
ATOM     37  C   UNL A   1      44.168  24.110  25.439  1.00  0.00     0.016 A 
ATOM     38  C   UNL A   1      46.433  24.811  26.938  1.00  0.00     0.010 A 
ATOM     39  C   UNL A   1      44.153  25.257  26.234  1.00  0.00     0.010 A 
ATOM     40  C   UNL A   1      45.277  25.602  27.004  1.00  0.00    -0.014 A 
BRANCH  40  41
ATOM     41  C   UNL A   1      45.182  26.689  28.008  1.00  0.00     0.031 A 
ATOM     42  C   UNL A   1      44.903  26.316  29.438  1.00  0.00     0.074 A 
ATOM     43  C   UNL A   1      45.372  27.975  27.666  1.00  0.00     0.049 A 
ATOM     44  N   UNL A   1      44.760  27.087  30.482  1.00  0.00    -0.248 NA
ATOM     45  C   UNL A   1      44.772  24.877  29.728  1.00  0.00     0.031 C 
ATOM     46  C   UNL A   1      45.698  28.453  26.322  1.00  0.00     0.029 A 
ATOM     47  N   UNL A   1      45.325  29.118  28.425  1.00  0.00    -0.354 N 
ATOM     48  C   UNL A   1      44.540  26.232  31.555  1.00  0.00     0.074 A 
ATOM     49  C   UNL A   1      44.523  24.884  31.029  1.00  0.00     0.031 C 
ATOM     50  C   UNL A   1      45.835  29.791  26.357  1.00  0.00     0.029 A 
ATOM     51  C   UNL A   1      45.572  30.269  27.714  1.00  0.00     0.049 A 
ATOM     52  H   UNL A   1      45.133  29.113  29.391  1.00  0.00     0.167 HD
ATOM     53  C   UNL A   1      44.387  26.540  32.864  1.00  0.00     0.034 A 
ATOM     54  C   UNL A   1      45.577  31.559  28.113  1.00  0.00     0.034 A 
ATOM     55  C   UNL A   1      44.392  27.885  33.380  1.00  0.00     0.049 A 
ATOM     56  C   UNL A   1      45.287  31.886  29.558  1.00  0.00     0.074 A 
ATOM     57  C   UNL A   1      44.228  28.301  34.688  1.00  0.00     0.029 A 
ATOM     58  N   UNL A   1      44.563  29.027  32.613  1.00  0.00    -0.354 N 
ATOM     59  N   UNL A   1      45.053  31.066  30.557  1.00  0.00    -0.248 NA
ATOM     60  C   UNL A   1      45.260  33.307  29.931  1.00  0.00     0.031 C 
ATOM     61  C   UNL A   1      44.240  29.698  34.706  1.00  0.00     0.029 A 
ATOM     62  C   UNL A   1      44.484  30.150  33.419  1.00  0.00     0.049 A 
ATOM     63  H   UNL A   1      44.719  29.039  31.641  1.00  0.00     0.167 HD
ATOM     64  C   UNL A   1      44.886  31.873  31.680  1.00  0.00     0.074 A 
ATOM     65  C   UNL A   1      45.039  33.243  31.238  1.00  0.00     0.031 C 
ATOM     66  C   UNL A   1      44.639  31.511  32.964  1.00  0.00     0.034 A 
BRANCH  53  67
ATOM     67  C   UNL A   1      44.179  25.405  33.828  1.00  0.00     0.023 A 
ATOM     68  C   UNL A   1      45.218  24.511  34.138  1.00  0.00     0.031 A 
ATOM     69  C   UNL A   1      42.940  25.233  34.468  1.00  0.00     0.131 A 
ATOM     70  C   UNL A   1      44.989  23.463  35.039  1.00  0.00     0.055 A 
ATOM     71  C   UNL A   1      42.736  24.224  35.409  1.00  0.00     0.041 A 
ATOM     72  F   UNL A   1      41.910  26.046  34.190  1.00  0.00    -0.206 F 
ATOM     73  C   UNL A   1      43.763  23.328  35.696  1.00  0.00     0.022 A 
BRANCH  70  74
ATOM     74  S   UNL A   1      46.297  22.232  35.291  1.00  0.00     0.124 S 
ATOM     75  O   UNL A   1      46.029  21.796  36.659  1.00  0.00    -0.237 OA
ATOM     76  O   UNL A   1      46.020  21.255  34.245  1.00  0.00    -0.237 OA
ATOM     77  O   UNL A   1      47.527  23.001  35.117  1.00  0.00    -0.744 OA
ENDBRANCH  70  74
ENDBRANCH  53  67
BRANCH  54  78
ATOM     78  C   UNL A   1      45.851  32.647  27.131  1.00  0.00     0.023 A 
ATOM     79  C   UNL A   1      47.164  33.071  26.872  1.00  0.00     0.031 A 
ATOM     80  C   UNL A   1      44.801  33.297  26.459  1.00  0.00     0.131 A 
ATOM     81  C   UNL A   1      47.391  34.133  25.982  1.00  0.00     0.055 A 
ATOM     82  C   UNL A   1      45.036  34.325  25.544  1.00  0.00     0.041 A 
ATOM     83  F   UNL A   1      43.528  32.930  26.674  1.00  0.00    -0.206 F 
ATOM     84  C   UNL A   1      46.338  34.754  25.306  1.00  0.00     0.022 A 
BRANCH  81  85
ATOM     85  S   UNL A   1      49.090  34.725  25.750  1.00  0.00     0.124 S 
ATOM     86  O   UNL A   1      49.783  33.497  25.378  1.00  0.00    -0.237 OA
ATOM     87  O   UNL A   1      48.925  35.716  24.692  1.00  0.00    -0.237 OA
ATOM     88  O   UNL A   1      49.442  35.269  27.059  1.00  0.00    -0.744 OA
ENDBRANCH  81  85
ENDBRANCH  54  78
BRANCH  66  89
ATOM     89  C   UNL A   1      44.560  32.597  34.004  1.00  0.00     0.023 A 
ATOM     90  C   UNL A   1      43.350  33.242  34.305  1.00  0.00     0.031 A 
ATOM     91  C   UNL A   1      45.698  32.924  34.763  1.00  0.00     0.131 A 
ATOM     92  C   UNL A   1      43.308  34.196  35.334  1.00  0.00     0.055 A 
ATOM     93  C   UNL A   1      45.642  33.841  35.812  1.00  0.00     0.041 A 
ATOM     94  F   UNL A   1      46.877  32.328  34.517  1.00  0.00    -0.206 F 
ATOM     95  C   UNL A   1      44.442  34.484  36.101  1.00  0.00     0.022 A 
BRANCH  92  96
ATOM     96  S   UNL A   1      41.751  35.067  35.656  1.00  0.00     0.124 S 
ATOM     97  O   UNL A   1      41.853  35.350  37.084  1.00  0.00    -0.237 OA
ATOM     98  O   UNL A   1      41.845  36.222  34.769  1.00  0.00    -0.237 OA
ATOM     99  O   UNL A   1      40.728  34.089  35.288  1.00  0.00    -0.744 OA
ENDBRANCH  92  96
ENDBRANCH  66  89
ENDBRANCH  40  41
ENDBRANCH  33  35
ENDBRANCH  32  33
ENDBRANCH  31  32
ENDBRANCH  30  31
ENDBRANCH  29  30
ENDBRANCH  28  29
ENDBRANCH   1  28
TORSDOF 24
ENDMDL
MODEL 3
REMARK VINA RESULT:      -9.9      1.185      7.554
REMARK SMILES Cc1c(Cl)cc2c(c1C)O[C@H](C(F)(F)F)C(C(=O)OCCOCCOCCOCCOC(=O)c1ccc(-c3c4nc(c(-c5cc(S(=O)(=O)[O-])ccc5F)c5ccc([nH]5)c(-c5cc(S(=O)(=O)[O-])ccc5F)c5nc(c(-c6cc(S(=O)(=O)[O-])ccc6F)c6ccc3[nH]6)C=C5)C=C4)cc1)=C2
REMARK SMILES IDX 26 1 25 2 24 3 23 4 22 5 21 6 20 7 19 8 17 9 18 10 16 11
REMARK SMILES IDX 1 12 2 13 3 14 8 15 4 16 5 17 7 18 9 19 6 20 10 21 97 22
REMARK SMILES IDX 11 23 12 24 13 25 14 26 15 27 27 28 28 29 29 30 30 31 31 32
REMARK SMILES IDX 32 33 33 34 34 35 35 36 96 37 36 38 95 39 37 40 38 41 39 42
REMARK SMILES IDX 89 43 40 44 94 45 88 46 90 47 41 48 93 49 87 50 86 51 42 53
REMARK SMILES IDX 74 54 54 55 73 56 55 57 58 58 72 59 91 60 56 61 57 62 71 64
REMARK SMILES IDX 92 65 59 66 43 67 44 68 52 69 45 70 51 71 53 72 50 73 46 74
REMARK SMILES IDX 47 75 48 76 49 77 75 78 76 79 84 80 77 81 83 82 85 83 82 84
REMARK SMILES IDX 78 85 79 86 80 87 81 88 60 89 61 90 69 91 62 92 68 93 70 94
REMARK SMILES IDX 67 95 63 96 64 97 65 98 66 99
REMARK H PARENT 90 52 58 63
REMARK Flexibility Score: inf
ROOT
ATOM      1  C   UNL A   1      32.428  29.770  25.074  1.00  0.00     0.188 C 
ENDROOT
BRANCH   1   2
ATOM      2  O   UNL A   1      32.694  28.580  24.330  1.00  0.00    -0.377 OA
BRANCH   2   3
ATOM      3  C   UNL A   1      32.093  28.465  23.050  1.00  0.00     0.188 C 
BRANCH   3   4
ATOM      4  C   UNL A   1      30.562  28.619  23.104  1.00  0.00     0.188 C 
BRANCH   4   5
ATOM      5  O   UNL A   1      29.938  27.709  23.992  1.00  0.00    -0.376 OA
BRANCH   5   6
ATOM      6  C   UNL A   1      29.750  26.348  23.632  1.00  0.00     0.202 C 
BRANCH   6   7
ATOM      7  C   UNL A   1      30.900  25.347  23.394  1.00  0.00     0.261 C 
BRANCH   7   8
ATOM      8  O   UNL A   1      30.667  23.981  23.741  1.00  0.00    -0.460 OA
BRANCH   8   9
ATOM      9  C   UNL A   1      30.991  23.575  24.980  1.00  0.00     0.338 C 
ATOM     10  O   UNL A   1      30.399  23.823  26.015  1.00  0.00    -0.246 OA
BRANCH   9  11
ATOM     11  C   UNL A   1      32.103  22.606  24.848  1.00  0.00     0.087 C 
ATOM     12  C   UNL A   1      35.926  17.365  24.954  1.00  0.00     0.046 C 
ATOM     13  C   UNL A   1      34.864  18.406  24.701  1.00  0.00    -0.026 A 
ATOM     14  C   UNL A   1      33.535  18.043  24.413  1.00  0.00     0.045 A 
ATOM     15  C   UNL A   1      35.189  19.784  24.779  1.00  0.00    -0.004 A 
ATOM     16  Cl  UNL A   1      33.047  16.398  24.185  1.00  0.00    -0.084 Cl
ATOM     17  C   UNL A   1      32.531  19.009  24.323  1.00  0.00     0.032 A 
ATOM     18  C   UNL A   1      34.162  20.748  24.683  1.00  0.00     0.131 A 
ATOM     19  C   UNL A   1      36.600  20.273  25.005  1.00  0.00     0.049 C 
ATOM     20  C   UNL A   1      32.834  20.356  24.514  1.00  0.00     0.019 A 
ATOM     21  O   UNL A   1      34.537  22.058  24.785  1.00  0.00    -0.475 OA
ATOM     22  C   UNL A   1      31.765  21.332  24.617  1.00  0.00     0.027 C 
ATOM     23  C   UNL A   1      33.527  23.098  24.898  1.00  0.00     0.316 C 
BRANCH  23  24
ATOM     24  C   UNL A   1      33.823  23.903  26.172  1.00  0.00     0.430 C 
ATOM     25  F   UNL A   1      33.564  25.220  25.990  1.00  0.00    -0.167 F 
ATOM     26  F   UNL A   1      33.075  23.494  27.220  1.00  0.00    -0.167 F 
ATOM     27  F   UNL A   1      35.122  23.794  26.534  1.00  0.00    -0.167 F 
ENDBRANCH  23  24
ENDBRANCH   9  11
ENDBRANCH   8   9
ENDBRANCH   7   8
ENDBRANCH   6   7
ENDBRANCH   5   6
ENDBRANCH   4   5
ENDBRANCH   3   4
ENDBRANCH   2   3
ENDBRANCH   1   2
BRANCH   1  28
ATOM     28  C   UNL A   1      32.393  29.752  26.621  1.00  0.00     0.188 C 
BRANCH  28  29
ATOM     29  O   UNL A   1      33.672  29.918  27.230  1.00  0.00    -0.376 OA
BRANCH  29  30
ATOM     30  C   UNL A   1      34.130  31.249  27.421  1.00  0.00     0.202 C 
BRANCH  30  31
ATOM     31  C   UNL A   1      33.019  32.305  27.488  1.00  0.00     0.261 C 
BRANCH  31  32
ATOM     32  O   UNL A   1      33.461  33.670  27.440  1.00  0.00    -0.460 OA
BRANCH  32  33
ATOM     33  C   UNL A   1      33.374  34.395  28.578  1.00  0.00     0.338 C 
ATOM     34  O   UNL A   1      32.469  35.142  28.905  1.00  0.00    -0.246 OA
BRANCH  33  35
ATOM     35  C   UNL A   1      34.486  33.971  29.451  1.00  0.00     0.060 A 
ATOM     36  C   UNL A   1      35.796  34.333  29.114  1.00  0.00     0.016 A 
ATOM     37  C   UNL A   1      34.227  33.247  30.618  1.00  0.00     0.016 A 
ATOM     38  C   UNL A   1      36.855  33.952  29.940  1.00  0.00     0.010 A 
ATOM     39  C   UNL A   1      35.289  32.852  31.432  1.00  0.00     0.010 A 
ATOM     40  C   UNL A   1      36.610  33.183  31.087  1.00  0.00    -0.014 A 
BRANCH  40  41
ATOM     41  C   UNL A   1      37.743  32.579  31.828  1.00  0.00     0.031 A 
ATOM     42  C   UNL A   1      38.485  31.437  31.189  1.00  0.00     0.074 A 
ATOM     43  C   UNL A   1      38.127  33.053  33.027  1.00  0.00     0.049 A 
ATOM     44  N   UNL A   1      39.491  30.743  31.649  1.00  0.00    -0.248 NA
ATOM     45  C   UNL A   1      38.032  31.027  29.849  1.00  0.00     0.031 C 
ATOM     46  C   UNL A   1      37.517  34.187  33.721  1.00  0.00     0.029 A 
ATOM     47  N   UNL A   1      39.131  32.644  33.870  1.00  0.00    -0.354 N 
ATOM     48  C   UNL A   1      39.805  29.827  30.652  1.00  0.00     0.074 A 
ATOM     49  C   UNL A   1      38.853  30.023  29.580  1.00  0.00     0.031 C 
ATOM     50  C   UNL A   1      38.170  34.389  34.880  1.00  0.00     0.029 A 
ATOM     51  C   UNL A   1      39.219  33.381  35.027  1.00  0.00     0.049 A 
ATOM     52  H   UNL A   1      39.732  31.892  33.663  1.00  0.00     0.167 HD
ATOM     53  C   UNL A   1      40.808  28.919  30.623  1.00  0.00     0.034 A 
ATOM     54  C   UNL A   1      40.047  33.250  36.086  1.00  0.00     0.034 A 
ATOM     55  C   UNL A   1      41.744  28.720  31.699  1.00  0.00     0.049 A 
ATOM     56  C   UNL A   1      41.084  32.152  36.080  1.00  0.00     0.074 A 
ATOM     57  C   UNL A   1      42.786  27.814  31.771  1.00  0.00     0.029 A 
ATOM     58  N   UNL A   1      41.748  29.433  32.888  1.00  0.00    -0.354 N 
ATOM     59  N   UNL A   1      41.350  31.275  35.140  1.00  0.00    -0.248 NA
ATOM     60  C   UNL A   1      41.930  32.024  37.276  1.00  0.00     0.031 C 
ATOM     61  C   UNL A   1      43.383  27.936  33.029  1.00  0.00     0.029 A 
ATOM     62  C   UNL A   1      42.759  28.968  33.711  1.00  0.00     0.049 A 
ATOM     63  H   UNL A   1      41.125  30.161  33.114  1.00  0.00     0.167 HD
ATOM     64  C   UNL A   1      42.415  30.516  35.618  1.00  0.00     0.074 A 
ATOM     65  C   UNL A   1      42.741  31.032  36.931  1.00  0.00     0.031 C 
ATOM     66  C   UNL A   1      43.072  29.492  35.019  1.00  0.00     0.034 A 
BRANCH  53  67
ATOM     67  C   UNL A   1      40.933  28.056  29.398  1.00  0.00     0.023 A 
ATOM     68  C   UNL A   1      41.893  28.327  28.409  1.00  0.00     0.031 A 
ATOM     69  C   UNL A   1      40.104  26.934  29.231  1.00  0.00     0.131 A 
ATOM     70  C   UNL A   1      41.980  27.504  27.278  1.00  0.00     0.055 A 
ATOM     71  C   UNL A   1      40.236  26.084  28.133  1.00  0.00     0.041 A 
ATOM     72  F   UNL A   1      39.156  26.645  30.136  1.00  0.00    -0.206 F 
ATOM     73  C   UNL A   1      41.174  26.370  27.145  1.00  0.00     0.022 A 
BRANCH  70  74
ATOM     74  S   UNL A   1      43.115  27.975  25.945  1.00  0.00     0.124 S 
ATOM     75  O   UNL A   1      42.184  28.306  24.869  1.00  0.00    -0.237 OA
ATOM     76  O   UNL A   1      43.841  29.097  26.527  1.00  0.00    -0.237 OA
ATOM     77  O   UNL A   1      43.906  26.766  25.727  1.00  0.00    -0.744 OA
ENDBRANCH  70  74
ENDBRANCH  53  67
BRANCH  54  78
ATOM     78  C   UNL A   1      39.926  34.171  37.252  1.00  0.00     0.023 A 
ATOM     79  C   UNL A   1      39.254  33.774  38.419  1.00  0.00     0.031 A 
ATOM     80  C   UNL A   1      40.458  35.471  37.205  1.00  0.00     0.131 A 
ATOM     81  C   UNL A   1      39.110  34.679  39.483  1.00  0.00     0.055 A 
ATOM     82  C   UNL A   1      40.347  36.353  38.282  1.00  0.00     0.041 A 
ATOM     83  F   UNL A   1      41.108  35.900  36.111  1.00  0.00    -0.206 F 
ATOM     84  C   UNL A   1      39.663  35.960  39.428  1.00  0.00     0.022 A 
BRANCH  81  85
ATOM     85  S   UNL A   1      38.145  34.169  40.933  1.00  0.00     0.124 S 
ATOM     86  O   UNL A   1      37.063  33.410  40.316  1.00  0.00    -0.237 OA
ATOM     87  O   UNL A   1      39.122  33.395  41.691  1.00  0.00    -0.237 OA
ATOM     88  O   UNL A   1      37.751  35.438  41.541  1.00  0.00    -0.744 OA
ENDBRANCH  81  85
ENDBRANCH  54  78
BRANCH  66  89
ATOM     89  C   UNL A   1      44.240  28.878  35.745  1.00  0.00     0.023 A 
ATOM     90  C   UNL A   1      44.071  27.816  36.647  1.00  0.00     0.031 A 
ATOM     91  C   UNL A   1      45.548  29.308  35.456  1.00  0.00     0.131 A 
ATOM     92  C   UNL A   1      45.196  27.225  37.244  1.00  0.00     0.055 A 
ATOM     93  C   UNL A   1      46.665  28.689  36.019  1.00  0.00     0.041 A 
ATOM     94  F   UNL A   1      45.761  30.314  34.593  1.00  0.00    -0.206 F 
ATOM     95  C   UNL A   1      46.490  27.643  36.920  1.00  0.00     0.022 A 
BRANCH  92  96
ATOM     96  S   UNL A   1      44.948  25.905  38.461  1.00  0.00     0.124 S 
ATOM     97  O   UNL A   1      44.115  24.963  37.720  1.00  0.00    -0.237 OA
ATOM     98  O   UNL A   1      46.312  25.468  38.737  1.00  0.00    -0.237 OA
ATOM     99  O   UNL A   1      44.281  26.583  39.572  1.00  0.00    -0.744 OA
ENDBRANCH  92  96
ENDBRANCH  66  89
ENDBRANCH  40  41
ENDBRANCH  33  35
ENDBRANCH  32  33
ENDBRANCH  31  32
ENDBRANCH  30  31
ENDBRANCH  29  30
ENDBRANCH  28  29
ENDBRANCH   1  28
TORSDOF 24
ENDMDL
