MODEL 1
REMARK VINA RESULT:     -10.7      0.000      0.000
REMARK SMILES O=C(OCCOCCOCCOCCOC(=O)[C@@H]1CCCN1S(=O)(=O)c1ccc2c3c(cccc13)C(=O)N2)c1ccc(-c2c3nc(c(-c4cc(S(=O)(=O)[O-])ccc4F)c4ccc([nH]4)c(-c4cc(S(=O)(=O)[O-])ccc4F)c4nc(c(-c5cc(S(=O)(=O)[O-])ccc5F)c5ccc2[nH]5)C=C4)C=C3)cc1
REMARK SMILES IDX 8 1 7 2 6 3 5 4 4 5 3 6 2 7 1 8 39 9 40 10 101 11 41 12
REMARK SMILES IDX 100 13 42 14 43 15 44 16 94 17 45 18 99 19 93 20 95 21 46 22
REMARK SMILES IDX 98 23 92 24 91 25 47 27 79 28 59 29 78 30 60 31 63 32 77 33
REMARK SMILES IDX 96 34 61 35 62 36 76 38 97 39 64 40 48 41 49 42 57 43 50 44
REMARK SMILES IDX 56 45 58 46 55 47 51 48 52 49 53 50 54 51 80 52 81 53 89 54
REMARK SMILES IDX 82 55 88 56 90 57 87 58 83 59 84 60 85 61 86 62 65 63 66 64
REMARK SMILES IDX 74 65 67 66 73 67 75 68 72 69 68 70 69 71 70 72 71 73 9 74
REMARK SMILES IDX 10 75 11 76 12 77 13 78 14 79 15 80 16 81 17 82 18 83 19 84
REMARK SMILES IDX 22 85 20 86 21 87 23 88 24 89 25 90 26 91 27 92 35 93 28 94
REMARK SMILES IDX 30 95 34 96 29 97 31 98 33 99 38 100 32 101 36 102 37 104
REMARK H PARENT 95 26 63 37 38 103
REMARK Flexibility Score: inf
ROOT
ATOM      1  C   UNL A   1      33.304  28.431  25.949  1.00  0.00     0.188 C 
ENDROOT
BRANCH   1   2
ATOM      2  C   UNL A   1      33.235  29.924  25.702  1.00  0.00     0.188 C 
BRANCH   2   3
ATOM      3  O   UNL A   1      31.918  30.465  25.725  1.00  0.00    -0.376 OA
BRANCH   3   4
ATOM      4  C   UNL A   1      31.522  31.244  26.845  1.00  0.00     0.202 C 
BRANCH   4   5
ATOM      5  C   UNL A   1      31.272  32.705  26.497  1.00  0.00     0.261 C 
BRANCH   5   6
ATOM      6  O   UNL A   1      32.410  33.533  26.771  1.00  0.00    -0.460 OA
BRANCH   6   7
ATOM      7  C   UNL A   1      33.109  33.674  27.921  1.00  0.00     0.338 C 
ATOM      8  O   UNL A   1      32.731  34.557  28.693  1.00  0.00    -0.246 OA
BRANCH   7   9
ATOM      9  C   UNL A   1      34.335  32.886  28.314  1.00  0.00     0.060 A 
ATOM     10  C   UNL A   1      34.380  31.545  28.714  1.00  0.00     0.016 A 
ATOM     11  C   UNL A   1      35.565  33.570  28.220  1.00  0.00     0.016 A 
ATOM     12  C   UNL A   1      35.579  30.888  28.962  1.00  0.00     0.010 A 
ATOM     13  C   UNL A   1      36.767  32.957  28.582  1.00  0.00     0.010 A 
ATOM     14  C   UNL A   1      36.757  31.624  28.997  1.00  0.00    -0.014 A 
BRANCH  14  15
ATOM     15  C   UNL A   1      37.812  31.095  29.875  1.00  0.00     0.031 A 
ATOM     16  C   UNL A   1      38.743  30.094  29.248  1.00  0.00     0.074 A 
ATOM     17  C   UNL A   1      38.007  31.571  31.112  1.00  0.00     0.049 A 
ATOM     18  N   UNL A   1      39.822  29.551  29.737  1.00  0.00    -0.248 NA
ATOM     19  C   UNL A   1      38.444  29.685  27.860  1.00  0.00     0.031 C 
ATOM     20  C   UNL A   1      37.218  32.621  31.751  1.00  0.00     0.029 A 
ATOM     21  N   UNL A   1      38.946  31.230  32.048  1.00  0.00    -0.354 N 
ATOM     22  C   UNL A   1      40.338  28.769  28.712  1.00  0.00     0.074 A 
ATOM     23  C   UNL A   1      39.465  28.896  27.574  1.00  0.00     0.031 C 
ATOM     24  C   UNL A   1      37.693  32.822  32.992  1.00  0.00     0.029 A 
ATOM     25  C   UNL A   1      38.800  31.896  33.238  1.00  0.00     0.049 A 
ATOM     26  H   UNL A   1      39.659  30.572  31.883  1.00  0.00     0.167 HD
ATOM     27  C   UNL A   1      41.442  27.997  28.727  1.00  0.00     0.034 A 
ATOM     28  C   UNL A   1      39.476  31.748  34.396  1.00  0.00     0.034 A 
ATOM     29  C   UNL A   1      42.247  27.815  29.898  1.00  0.00     0.049 A 
ATOM     30  C   UNL A   1      40.628  30.773  34.434  1.00  0.00     0.074 A 
ATOM     31  C   UNL A   1      43.346  26.998  30.058  1.00  0.00     0.029 A 
ATOM     32  N   UNL A   1      42.021  28.443  31.114  1.00  0.00    -0.354 N 
ATOM     33  N   UNL A   1      41.114  30.033  33.462  1.00  0.00    -0.248 NA
ATOM     34  C   UNL A   1      41.333  30.613  35.713  1.00  0.00     0.031 C 
ATOM     35  C   UNL A   1      43.744  27.077  31.392  1.00  0.00     0.029 A 
ATOM     36  C   UNL A   1      42.948  28.012  32.040  1.00  0.00     0.049 A 
ATOM     37  H   UNL A   1      41.306  29.098  31.289  1.00  0.00     0.167 HD
ATOM     38  C   UNL A   1      42.201  29.352  34.000  1.00  0.00     0.074 A 
ATOM     39  C   UNL A   1      42.305  29.770  35.383  1.00  0.00     0.031 C 
ATOM     40  C   UNL A   1      43.042  28.467  33.406  1.00  0.00     0.034 A 
BRANCH  27  41
ATOM     41  C   UNL A   1      41.800  27.245  27.481  1.00  0.00     0.023 A 
ATOM     42  C   UNL A   1      41.663  25.848  27.452  1.00  0.00     0.031 A 
ATOM     43  C   UNL A   1      42.348  27.891  26.359  1.00  0.00     0.131 A 
ATOM     44  C   UNL A   1      42.119  25.130  26.344  1.00  0.00     0.055 A 
ATOM     45  C   UNL A   1      42.766  27.174  25.238  1.00  0.00     0.041 A 
ATOM     46  F   UNL A   1      42.464  29.229  26.330  1.00  0.00    -0.206 F 
ATOM     47  C   UNL A   1      42.667  25.785  25.235  1.00  0.00     0.022 A 
BRANCH  44  48
ATOM     48  S   UNL A   1      42.050  23.321  26.321  1.00  0.00     0.124 S 
ATOM     49  O   UNL A   1      40.612  23.071  26.379  1.00  0.00    -0.237 OA
ATOM     50  O   UNL A   1      42.688  23.010  25.047  1.00  0.00    -0.237 OA
ATOM     51  O   UNL A   1      42.792  22.928  27.515  1.00  0.00    -0.744 OA
ENDBRANCH  44  48
ENDBRANCH  27  41
BRANCH  28  52
ATOM     52  C   UNL A   1      39.077  32.556  35.581  1.00  0.00     0.023 A 
ATOM     53  C   UNL A   1      39.545  33.874  35.734  1.00  0.00     0.031 A 
ATOM     54  C   UNL A   1      38.307  32.002  36.616  1.00  0.00     0.131 A 
ATOM     55  C   UNL A   1      39.295  34.570  36.924  1.00  0.00     0.055 A 
ATOM     56  C   UNL A   1      38.006  32.722  37.774  1.00  0.00     0.041 A 
ATOM     57  F   UNL A   1      37.844  30.747  36.516  1.00  0.00    -0.206 F 
ATOM     58  C   UNL A   1      38.513  34.009  37.939  1.00  0.00     0.022 A 
BRANCH  55  59
ATOM     59  S   UNL A   1      40.063  36.184  37.231  1.00  0.00     0.124 S 
ATOM     60  O   UNL A   1      39.962  36.829  35.924  1.00  0.00    -0.237 OA
ATOM     61  O   UNL A   1      39.194  36.729  38.271  1.00  0.00    -0.237 OA
ATOM     62  O   UNL A   1      41.415  35.847  37.662  1.00  0.00    -0.744 OA
ENDBRANCH  55  59
ENDBRANCH  28  52
BRANCH  40  63
ATOM     63  C   UNL A   1      44.183  27.899  34.208  1.00  0.00     0.023 A 
ATOM     64  C   UNL A   1      43.995  26.690  34.907  1.00  0.00     0.031 A 
ATOM     65  C   UNL A   1      45.359  28.629  34.436  1.00  0.00     0.131 A 
ATOM     66  C   UNL A   1      44.945  26.275  35.843  1.00  0.00     0.055 A 
ATOM     67  C   UNL A   1      46.329  28.182  35.333  1.00  0.00     0.041 A 
ATOM     68  F   UNL A   1      45.572  29.795  33.805  1.00  0.00    -0.206 F 
ATOM     69  C   UNL A   1      46.116  27.010  36.054  1.00  0.00     0.022 A 
BRANCH  66  70
ATOM     70  S   UNL A   1      44.650  24.822  36.887  1.00  0.00     0.124 S 
ATOM     71  O   UNL A   1      44.196  25.433  38.134  1.00  0.00    -0.237 OA
ATOM     72  O   UNL A   1      43.624  24.106  36.133  1.00  0.00    -0.237 OA
ATOM     73  O   UNL A   1      45.951  24.166  36.957  1.00  0.00    -0.744 OA
ENDBRANCH  66  70
ENDBRANCH  40  63
ENDBRANCH  14  15
ENDBRANCH   7   9
ENDBRANCH   6   7
ENDBRANCH   5   6
ENDBRANCH   4   5
ENDBRANCH   3   4
ENDBRANCH   2   3
ENDBRANCH   1   2
BRANCH   1  74
ATOM     74  O   UNL A   1      32.397  28.023  26.938  1.00  0.00    -0.377 OA
BRANCH  74  75
ATOM     75  C   UNL A   1      31.557  26.931  26.610  1.00  0.00     0.188 C 
BRANCH  75  76
ATOM     76  C   UNL A   1      31.830  25.426  26.831  1.00  0.00     0.188 C 
BRANCH  76  77
ATOM     77  O   UNL A   1      32.925  24.762  26.241  1.00  0.00    -0.376 OA
BRANCH  77  78
ATOM     78  C   UNL A   1      34.201  25.316  25.999  1.00  0.00     0.202 C 
BRANCH  78  79
ATOM     79  C   UNL A   1      35.458  24.520  25.586  1.00  0.00     0.261 C 
BRANCH  79  80
ATOM     80  O   UNL A   1      35.531  23.176  26.087  1.00  0.00    -0.462 OA
BRANCH  80  81
ATOM     81  C   UNL A   1      35.497  22.147  25.208  1.00  0.00     0.324 C 
ATOM     82  O   UNL A   1      36.498  21.677  24.677  1.00  0.00    -0.250 OA
BRANCH  81  83
ATOM     83  C   UNL A   1      34.106  21.603  24.934  1.00  0.00     0.183 C 
ATOM     84  C   UNL A   1      33.875  20.220  24.329  1.00  0.00     0.034 C 
ATOM     85  N   UNL A   1      33.056  22.448  24.259  1.00  0.00    -0.184 NA
ATOM     86  C   UNL A   1      32.370  20.080  24.416  1.00  0.00     0.019 C 
ATOM     87  C   UNL A   1      31.862  21.495  24.130  1.00  0.00     0.103 C 
BRANCH  85  88
ATOM     88  S   UNL A   1      33.336  23.231  22.733  1.00  0.00     0.244 S 
ATOM     89  O   UNL A   1      34.760  23.137  22.483  1.00  0.00    -0.207 OA
ATOM     90  O   UNL A   1      32.425  22.563  21.825  1.00  0.00    -0.207 OA
BRANCH  88  91
ATOM     91  C   UNL A   1      32.909  24.975  22.763  1.00  0.00     0.090 A 
ATOM     92  C   UNL A   1      33.826  25.881  22.186  1.00  0.00     0.024 A 
ATOM     93  C   UNL A   1      31.610  25.464  23.108  1.00  0.00     0.005 A 
ATOM     94  C   UNL A   1      33.610  27.262  22.044  1.00  0.00     0.028 A 
ATOM     95  C   UNL A   1      31.447  26.822  22.969  1.00  0.00     0.019 A 
ATOM     96  C   UNL A   1      30.422  24.806  23.524  1.00  0.00     0.010 A 
ATOM     97  C   UNL A   1      32.388  27.696  22.478  1.00  0.00     0.050 A 
ATOM     98  C   UNL A   1      30.303  27.558  23.231  1.00  0.00     0.050 A 
ATOM     99  C   UNL A   1      29.229  25.517  23.784  1.00  0.00     0.002 A 
ATOM    100  N   UNL A   1      31.846  28.963  22.471  1.00  0.00    -0.321 N 
ATOM    101  C   UNL A   1      29.152  26.911  23.658  1.00  0.00     0.014 A 
ATOM    102  C   UNL A   1      30.533  28.969  22.956  1.00  0.00     0.256 C 
ATOM    103  H   UNL A   1      32.324  29.767  22.164  1.00  0.00     0.170 HD
ATOM    104  O   UNL A   1      29.842  29.960  23.093  1.00  0.00    -0.269 OA
ENDBRANCH  88  91
ENDBRANCH  85  88
ENDBRANCH  81  83
ENDBRANCH  80  81
ENDBRANCH  79  80
ENDBRANCH  78  79
ENDBRANCH  77  78
ENDBRANCH  76  77
ENDBRANCH  75  76
ENDBRANCH  74  75
ENDBRANCH   1  74
TORSDOF 25
ENDMDL
MODEL 2
REMARK VINA RESULT:     -10.6      1.591      2.138
REMARK SMILES O=C(OCCOCCOCCOCCOC(=O)[C@@H]1CCCN1S(=O)(=O)c1ccc2c3c(cccc13)C(=O)N2)c1ccc(-c2c3nc(c(-c4cc(S(=O)(=O)[O-])ccc4F)c4ccc([nH]4)c(-c4cc(S(=O)(=O)[O-])ccc4F)c4nc(c(-c5cc(S(=O)(=O)[O-])ccc5F)c5ccc2[nH]5)C=C4)C=C3)cc1
REMARK SMILES IDX 8 1 7 2 6 3 5 4 4 5 3 6 2 7 1 8 39 9 40 10 101 11 41 12
REMARK SMILES IDX 100 13 42 14 43 15 44 16 94 17 45 18 99 19 93 20 95 21 46 22
REMARK SMILES IDX 98 23 92 24 91 25 47 27 79 28 59 29 78 30 60 31 63 32 77 33
REMARK SMILES IDX 96 34 61 35 62 36 76 38 97 39 64 40 48 41 49 42 57 43 50 44
REMARK SMILES IDX 56 45 58 46 55 47 51 48 52 49 53 50 54 51 80 52 81 53 89 54
REMARK SMILES IDX 82 55 88 56 90 57 87 58 83 59 84 60 85 61 86 62 65 63 66 64
REMARK SMILES IDX 74 65 67 66 73 67 75 68 72 69 68 70 69 71 70 72 71 73 9 74
REMARK SMILES IDX 10 75 11 76 12 77 13 78 14 79 15 80 16 81 17 82 18 83 19 84
REMARK SMILES IDX 22 85 20 86 21 87 23 88 24 89 25 90 26 91 27 92 35 93 28 94
REMARK SMILES IDX 30 95 34 96 29 97 31 98 33 99 38 100 32 101 36 102 37 104
REMARK H PARENT 95 26 63 37 38 103
REMARK Flexibility Score: inf
ROOT
ATOM      1  C   UNL A   1      33.192  28.031  24.839  1.00  0.00     0.188 C 
ENDROOT
BRANCH   1   2
ATOM      2  C   UNL A   1      33.047  29.536  24.933  1.00  0.00     0.188 C 
BRANCH   2   3
ATOM      3  O   UNL A   1      31.838  29.974  25.547  1.00  0.00    -0.376 OA
BRANCH   3   4
ATOM      4  C   UNL A   1      31.916  30.657  26.791  1.00  0.00     0.202 C 
BRANCH   4   5
ATOM      5  C   UNL A   1      31.432  32.098  26.711  1.00  0.00     0.261 C 
BRANCH   5   6
ATOM      6  O   UNL A   1      32.502  33.041  26.854  1.00  0.00    -0.460 OA
BRANCH   6   7
ATOM      7  C   UNL A   1      33.292  33.284  27.926  1.00  0.00     0.338 C 
ATOM      8  O   UNL A   1      32.996  34.257  28.622  1.00  0.00    -0.246 OA
BRANCH   7   9
ATOM      9  C   UNL A   1      34.526  32.505  28.311  1.00  0.00     0.060 A 
ATOM     10  C   UNL A   1      34.581  31.170  28.729  1.00  0.00     0.016 A 
ATOM     11  C   UNL A   1      35.752  33.191  28.188  1.00  0.00     0.016 A 
ATOM     12  C   UNL A   1      35.786  30.520  28.967  1.00  0.00     0.010 A 
ATOM     13  C   UNL A   1      36.962  32.586  28.540  1.00  0.00     0.010 A 
ATOM     14  C   UNL A   1      36.962  31.259  28.973  1.00  0.00    -0.014 A 
BRANCH  14  15
ATOM     15  C   UNL A   1      38.032  30.746  29.842  1.00  0.00     0.031 A 
ATOM     16  C   UNL A   1      38.974  29.761  29.206  1.00  0.00     0.074 A 
ATOM     17  C   UNL A   1      38.230  31.223  31.079  1.00  0.00     0.049 A 
ATOM     18  N   UNL A   1      40.065  29.234  29.685  1.00  0.00    -0.248 NA
ATOM     19  C   UNL A   1      38.671  29.349  27.819  1.00  0.00     0.031 C 
ATOM     20  C   UNL A   1      37.429  32.258  31.725  1.00  0.00     0.029 A 
ATOM     21  N   UNL A   1      39.182  30.895  32.006  1.00  0.00    -0.354 N 
ATOM     22  C   UNL A   1      40.586  28.463  28.654  1.00  0.00     0.074 A 
ATOM     23  C   UNL A   1      39.702  28.578  27.523  1.00  0.00     0.031 C 
ATOM     24  C   UNL A   1      37.910  32.464  32.963  1.00  0.00     0.029 A 
ATOM     25  C   UNL A   1      39.034  31.556  33.199  1.00  0.00     0.049 A 
ATOM     26  H   UNL A   1      39.903  30.248  31.834  1.00  0.00     0.167 HD
ATOM     27  C   UNL A   1      41.702  27.708  28.659  1.00  0.00     0.034 A 
ATOM     28  C   UNL A   1      39.721  31.416  34.351  1.00  0.00     0.034 A 
ATOM     29  C   UNL A   1      42.519  27.537  29.823  1.00  0.00     0.049 A 
ATOM     30  C   UNL A   1      40.889  30.460  34.377  1.00  0.00     0.074 A 
ATOM     31  C   UNL A   1      43.633  26.737  29.973  1.00  0.00     0.029 A 
ATOM     32  N   UNL A   1      42.293  28.159  31.042  1.00  0.00    -0.354 N 
ATOM     33  N   UNL A   1      41.379  29.730  33.400  1.00  0.00    -0.248 NA
ATOM     34  C   UNL A   1      41.606  30.309  35.651  1.00  0.00     0.031 C 
ATOM     35  C   UNL A   1      44.039  26.820  31.304  1.00  0.00     0.029 A 
ATOM     36  C   UNL A   1      43.234  27.741  31.960  1.00  0.00     0.049 A 
ATOM     37  H   UNL A   1      41.569  28.802  31.225  1.00  0.00     0.167 HD
ATOM     38  C   UNL A   1      42.481  29.065  33.929  1.00  0.00     0.074 A 
ATOM     39  C   UNL A   1      42.589  29.483  35.312  1.00  0.00     0.031 C 
ATOM     40  C   UNL A   1      43.331  28.195  33.327  1.00  0.00     0.034 A 
BRANCH  27  41
ATOM     41  C   UNL A   1      42.062  26.965  27.408  1.00  0.00     0.023 A 
ATOM     42  C   UNL A   1      41.845  25.579  27.340  1.00  0.00     0.031 A 
ATOM     43  C   UNL A   1      42.689  27.602  26.323  1.00  0.00     0.131 A 
ATOM     44  C   UNL A   1      42.299  24.861  26.232  1.00  0.00     0.055 A 
ATOM     45  C   UNL A   1      43.107  26.886  25.201  1.00  0.00     0.041 A 
ATOM     46  F   UNL A   1      42.884  28.931  26.332  1.00  0.00    -0.206 F 
ATOM     47  C   UNL A   1      42.926  25.506  25.160  1.00  0.00     0.022 A 
BRANCH  44  48
ATOM     48  S   UNL A   1      42.126  23.059  26.163  1.00  0.00     0.124 S 
ATOM     49  O   UNL A   1      42.945  22.632  27.295  1.00  0.00    -0.237 OA
ATOM     50  O   UNL A   1      40.687  22.888  26.333  1.00  0.00    -0.237 OA
ATOM     51  O   UNL A   1      42.657  22.707  24.851  1.00  0.00    -0.744 OA
ENDBRANCH  44  48
ENDBRANCH  27  41
BRANCH  28  52
ATOM     52  C   UNL A   1      39.319  32.216  35.540  1.00  0.00     0.023 A 
ATOM     53  C   UNL A   1      38.612  31.613  36.597  1.00  0.00     0.031 A 
ATOM     54  C   UNL A   1      39.545  33.600  35.600  1.00  0.00     0.131 A 
ATOM     55  C   UNL A   1      38.100  32.402  37.635  1.00  0.00     0.055 A 
ATOM     56  C   UNL A   1      39.088  34.374  36.669  1.00  0.00     0.041 A 
ATOM     57  F   UNL A   1      40.209  34.219  34.613  1.00  0.00    -0.206 F 
ATOM     58  C   UNL A   1      38.348  33.778  37.687  1.00  0.00     0.022 A 
BRANCH  55  59
ATOM     59  S   UNL A   1      37.011  31.683  38.894  1.00  0.00     0.124 S 
ATOM     60  O   UNL A   1      37.811  31.816  40.109  1.00  0.00    -0.237 OA
ATOM     61  O   UNL A   1      35.845  32.559  38.807  1.00  0.00    -0.237 OA
ATOM     62  O   UNL A   1      36.798  30.317  38.428  1.00  0.00    -0.744 OA
ENDBRANCH  55  59
ENDBRANCH  28  52
BRANCH  40  63
ATOM     63  C   UNL A   1      44.487  27.644  34.118  1.00  0.00     0.023 A 
ATOM     64  C   UNL A   1      44.318  26.442  34.833  1.00  0.00     0.031 A 
ATOM     65  C   UNL A   1      45.662  28.385  34.321  1.00  0.00     0.131 A 
ATOM     66  C   UNL A   1      45.284  26.043  35.760  1.00  0.00     0.055 A 
ATOM     67  C   UNL A   1      46.648  27.955  35.210  1.00  0.00     0.041 A 
ATOM     68  F   UNL A   1      45.857  29.544  33.674  1.00  0.00    -0.206 F 
ATOM     69  C   UNL A   1      46.453  26.789  35.946  1.00  0.00     0.022 A 
BRANCH  66  70
ATOM     70  S   UNL A   1      45.014  24.600  36.824  1.00  0.00     0.124 S 
ATOM     71  O   UNL A   1      44.263  23.711  35.940  1.00  0.00    -0.237 OA
ATOM     72  O   UNL A   1      46.380  24.178  37.120  1.00  0.00    -0.237 OA
ATOM     73  O   UNL A   1      44.260  25.130  37.954  1.00  0.00    -0.744 OA
ENDBRANCH  66  70
ENDBRANCH  40  63
ENDBRANCH  14  15
ENDBRANCH   7   9
ENDBRANCH   6   7
ENDBRANCH   5   6
ENDBRANCH   4   5
ENDBRANCH   3   4
ENDBRANCH   2   3
ENDBRANCH   1   2
BRANCH   1  74
ATOM     74  O   UNL A   1      33.580  27.466  26.063  1.00  0.00    -0.377 OA
BRANCH  74  75
ATOM     75  C   UNL A   1      33.221  26.113  26.275  1.00  0.00     0.188 C 
BRANCH  75  76
ATOM     76  C   UNL A   1      34.094  24.856  26.058  1.00  0.00     0.188 C 
BRANCH  76  77
ATOM     77  O   UNL A   1      34.986  24.734  24.973  1.00  0.00    -0.376 OA
BRANCH  77  78
ATOM     78  C   UNL A   1      36.244  24.094  24.997  1.00  0.00     0.202 C 
BRANCH  78  79
ATOM     79  C   UNL A   1      36.660  22.976  25.977  1.00  0.00     0.261 C 
BRANCH  79  80
ATOM     80  O   UNL A   1      35.718  21.902  26.127  1.00  0.00    -0.462 OA
BRANCH  80  81
ATOM     81  C   UNL A   1      35.776  20.855  25.270  1.00  0.00     0.324 C 
ATOM     82  O   UNL A   1      36.763  20.592  24.591  1.00  0.00    -0.250 OA
BRANCH  81  83
ATOM     83  C   UNL A   1      34.514  20.014  25.223  1.00  0.00     0.183 C 
ATOM     84  C   UNL A   1      34.451  18.678  24.484  1.00  0.00     0.034 C 
ATOM     85  N   UNL A   1      33.174  20.632  24.919  1.00  0.00    -0.184 NA
ATOM     86  C   UNL A   1      33.080  18.165  24.868  1.00  0.00     0.019 C 
ATOM     87  C   UNL A   1      32.222  19.431  24.908  1.00  0.00     0.103 C 
BRANCH  85  88
ATOM     88  S   UNL A   1      32.898  21.599  23.501  1.00  0.00     0.244 S 
ATOM     89  O   UNL A   1      34.190  22.128  23.112  1.00  0.00    -0.207 OA
ATOM     90  O   UNL A   1      32.214  20.699  22.593  1.00  0.00    -0.207 OA
BRANCH  88  91
ATOM     91  C   UNL A   1      31.817  22.996  23.817  1.00  0.00     0.090 A 
ATOM     92  C   UNL A   1      31.121  23.020  25.046  1.00  0.00     0.024 A 
ATOM     93  C   UNL A   1      31.810  24.185  23.019  1.00  0.00     0.005 A 
ATOM     94  C   UNL A   1      30.309  24.076  25.490  1.00  0.00     0.028 A 
ATOM     95  C   UNL A   1      30.990  25.186  23.482  1.00  0.00     0.019 A 
ATOM     96  C   UNL A   1      32.532  24.557  21.854  1.00  0.00     0.010 A 
ATOM     97  C   UNL A   1      30.259  25.151  24.646  1.00  0.00     0.050 A 
ATOM     98  C   UNL A   1      30.789  26.433  22.912  1.00  0.00     0.050 A 
ATOM     99  C   UNL A   1      32.371  25.824  21.253  1.00  0.00     0.002 A 
ATOM    100  N   UNL A   1      29.585  26.346  24.775  1.00  0.00    -0.321 N 
ATOM    101  C   UNL A   1      31.483  26.782  21.761  1.00  0.00     0.014 A 
ATOM    102  C   UNL A   1      29.848  27.209  23.705  1.00  0.00     0.256 C 
ATOM    103  H   UNL A   1      28.991  26.567  25.528  1.00  0.00     0.170 HD
ATOM    104  O   UNL A   1      29.350  28.308  23.554  1.00  0.00    -0.269 OA
ENDBRANCH  88  91
ENDBRANCH  85  88
ENDBRANCH  81  83
ENDBRANCH  80  81
ENDBRANCH  79  80
ENDBRANCH  78  79
ENDBRANCH  77  78
ENDBRANCH  76  77
ENDBRANCH  75  76
ENDBRANCH  74  75
ENDBRANCH   1  74
TORSDOF 25
ENDMDL
MODEL 3
REMARK VINA RESULT:     -10.2      3.719      9.544
REMARK SMILES O=C(OCCOCCOCCOCCOC(=O)[C@@H]1CCCN1S(=O)(=O)c1ccc2c3c(cccc13)C(=O)N2)c1ccc(-c2c3nc(c(-c4cc(S(=O)(=O)[O-])ccc4F)c4ccc([nH]4)c(-c4cc(S(=O)(=O)[O-])ccc4F)c4nc(c(-c5cc(S(=O)(=O)[O-])ccc5F)c5ccc2[nH]5)C=C4)C=C3)cc1
REMARK SMILES IDX 8 1 7 2 6 3 5 4 4 5 3 6 2 7 1 8 39 9 40 10 101 11 41 12
REMARK SMILES IDX 100 13 42 14 43 15 44 16 94 17 45 18 99 19 93 20 95 21 46 22
REMARK SMILES IDX 98 23 92 24 91 25 47 27 79 28 59 29 78 30 60 31 63 32 77 33
REMARK SMILES IDX 96 34 61 35 62 36 76 38 97 39 64 40 48 41 49 42 57 43 50 44
REMARK SMILES IDX 56 45 58 46 55 47 51 48 52 49 53 50 54 51 80 52 81 53 89 54
REMARK SMILES IDX 82 55 88 56 90 57 87 58 83 59 84 60 85 61 86 62 65 63 66 64
REMARK SMILES IDX 74 65 67 66 73 67 75 68 72 69 68 70 69 71 70 72 71 73 9 74
REMARK SMILES IDX 10 75 11 76 12 77 13 78 14 79 15 80 16 81 17 82 18 83 19 84
REMARK SMILES IDX 22 85 20 86 21 87 23 88 24 89 25 90 26 91 27 92 35 93 28 94
REMARK SMILES IDX 30 95 34 96 29 97 31 98 33 99 38 100 32 101 36 102 37 104
REMARK H PARENT 95 26 63 37 38 103
REMARK Flexibility Score: inf
ROOT
ATOM      1  C   UNL A   1      33.187  35.539  29.841  1.00  0.00     0.188 C 
ENDROOT
BRANCH   1   2
ATOM      2  C   UNL A   1      33.672  35.233  31.243  1.00  0.00     0.188 C 
BRANCH   2   3
ATOM      3  O   UNL A   1      33.659  33.849  31.583  1.00  0.00    -0.376 OA
BRANCH   3   4
ATOM      4  C   UNL A   1      34.845  33.267  32.107  1.00  0.00     0.202 C 
BRANCH   4   5
ATOM      5  C   UNL A   1      35.252  31.991  31.383  1.00  0.00     0.261 C 
BRANCH   5   6
ATOM      6  O   UNL A   1      36.337  31.318  32.034  1.00  0.00    -0.460 OA
BRANCH   6   7
ATOM      7  C   UNL A   1      36.956  30.163  31.693  1.00  0.00     0.338 C 
ATOM      8  O   UNL A   1      36.327  29.391  30.967  1.00  0.00    -0.246 OA
BRANCH   7   9
ATOM      9  C   UNL A   1      38.318  29.716  32.166  1.00  0.00     0.060 A 
ATOM     10  C   UNL A   1      39.428  30.532  32.423  1.00  0.00     0.016 A 
ATOM     11  C   UNL A   1      38.464  28.337  32.416  1.00  0.00     0.016 A 
ATOM     12  C   UNL A   1      40.610  30.025  32.949  1.00  0.00     0.010 A 
ATOM     13  C   UNL A   1      39.685  27.797  32.832  1.00  0.00     0.010 A 
ATOM     14  C   UNL A   1      40.768  28.648  33.051  1.00  0.00    -0.014 A 
BRANCH  14  15
ATOM     15  C   UNL A   1      42.151  28.158  32.950  1.00  0.00     0.031 A 
ATOM     16  C   UNL A   1      42.884  27.993  34.254  1.00  0.00     0.074 A 
ATOM     17  C   UNL A   1      42.677  27.761  31.783  1.00  0.00     0.049 A 
ATOM     18  N   UNL A   1      44.058  27.477  34.481  1.00  0.00    -0.248 NA
ATOM     19  C   UNL A   1      42.174  28.426  35.475  1.00  0.00     0.031 C 
ATOM     20  C   UNL A   1      41.992  27.784  30.494  1.00  0.00     0.029 A 
ATOM     21  N   UNL A   1      43.917  27.252  31.506  1.00  0.00    -0.354 N 
ATOM     22  C   UNL A   1      44.208  27.498  35.862  1.00  0.00     0.074 A 
ATOM     23  C   UNL A   1      43.017  28.075  36.429  1.00  0.00     0.031 C 
ATOM     24  C   UNL A   1      42.836  27.330  29.551  1.00  0.00     0.029 A 
ATOM     25  C   UNL A   1      44.124  27.013  30.171  1.00  0.00     0.049 A 
ATOM     26  H   UNL A   1      44.595  27.074  32.197  1.00  0.00     0.167 HD
ATOM     27  C   UNL A   1      45.261  27.082  36.592  1.00  0.00     0.034 A 
ATOM     28  C   UNL A   1      45.240  26.605  29.532  1.00  0.00     0.034 A 
ATOM     29  C   UNL A   1      46.471  26.592  36.002  1.00  0.00     0.049 A 
ATOM     30  C   UNL A   1      46.458  26.274  30.360  1.00  0.00     0.074 A 
ATOM     31  C   UNL A   1      47.636  26.212  36.636  1.00  0.00     0.029 A 
ATOM     32  N   UNL A   1      46.677  26.440  34.639  1.00  0.00    -0.354 N 
ATOM     33  N   UNL A   1      46.598  26.294  31.666  1.00  0.00    -0.248 NA
ATOM     34  C   UNL A   1      47.668  25.855  29.638  1.00  0.00     0.031 C 
ATOM     35  C   UNL A   1      48.571  25.897  35.652  1.00  0.00     0.029 A 
ATOM     36  C   UNL A   1      47.962  25.994  34.409  1.00  0.00     0.049 A 
ATOM     37  H   UNL A   1      46.006  26.623  33.941  1.00  0.00     0.167 HD
ATOM     38  C   UNL A   1      47.893  25.857  31.924  1.00  0.00     0.074 A 
ATOM     39  C   UNL A   1      48.496  25.574  30.637  1.00  0.00     0.031 C 
ATOM     40  C   UNL A   1      48.526  25.697  33.114  1.00  0.00     0.034 A 
BRANCH  27  41
ATOM     41  C   UNL A   1      45.182  27.201  38.084  1.00  0.00     0.023 A 
ATOM     42  C   UNL A   1      45.614  28.383  38.707  1.00  0.00     0.031 A 
ATOM     43  C   UNL A   1      44.761  26.130  38.891  1.00  0.00     0.131 A 
ATOM     44  C   UNL A   1      45.667  28.452  40.101  1.00  0.00     0.055 A 
ATOM     45  C   UNL A   1      44.779  26.217  40.284  1.00  0.00     0.041 A 
ATOM     46  F   UNL A   1      44.307  24.995  38.336  1.00  0.00    -0.206 F 
ATOM     47  C   UNL A   1      45.250  27.377  40.894  1.00  0.00     0.022 A 
BRANCH  44  48
ATOM     48  S   UNL A   1      46.317  29.925  40.931  1.00  0.00     0.124 S 
ATOM     49  O   UNL A   1      45.100  30.538  41.457  1.00  0.00    -0.237 OA
ATOM     50  O   UNL A   1      47.206  29.341  41.930  1.00  0.00    -0.237 OA
ATOM     51  O   UNL A   1      46.969  30.671  39.860  1.00  0.00    -0.744 OA
ENDBRANCH  44  48
ENDBRANCH  27  41
BRANCH  28  52
ATOM     52  C   UNL A   1      45.226  26.482  28.049  1.00  0.00     0.023 A 
ATOM     53  C   UNL A   1      45.076  25.222  27.440  1.00  0.00     0.031 A 
ATOM     54  C   UNL A   1      45.454  27.593  27.222  1.00  0.00     0.131 A 
ATOM     55  C   UNL A   1      45.222  25.094  26.053  1.00  0.00     0.055 A 
ATOM     56  C   UNL A   1      45.536  27.472  25.833  1.00  0.00     0.041 A 
ATOM     57  F   UNL A   1      45.609  28.813  27.758  1.00  0.00    -0.206 F 
ATOM     58  C   UNL A   1      45.435  26.214  25.242  1.00  0.00     0.022 A 
BRANCH  55  59
ATOM     59  S   UNL A   1      45.244  23.458  25.271  1.00  0.00     0.124 S 
ATOM     60  O   UNL A   1      46.389  22.821  25.917  1.00  0.00    -0.237 OA
ATOM     61  O   UNL A   1      43.934  22.935  25.650  1.00  0.00    -0.237 OA
ATOM     62  O   UNL A   1      45.408  23.755  23.852  1.00  0.00    -0.744 OA
ENDBRANCH  55  59
ENDBRANCH  28  52
BRANCH  40  63
ATOM     63  C   UNL A   1      49.932  25.157  33.123  1.00  0.00     0.023 A 
ATOM     64  C   UNL A   1      50.132  23.763  33.089  1.00  0.00     0.031 A 
ATOM     65  C   UNL A   1      51.039  25.988  33.357  1.00  0.00     0.131 A 
ATOM     66  C   UNL A   1      51.402  23.237  33.341  1.00  0.00     0.055 A 
ATOM     67  C   UNL A   1      52.315  25.459  33.555  1.00  0.00     0.041 A 
ATOM     68  F   UNL A   1      50.892  27.321  33.414  1.00  0.00    -0.206 F 
ATOM     69  C   UNL A   1      52.496  24.078  33.564  1.00  0.00     0.022 A 
BRANCH  66  70
ATOM     70  S   UNL A   1      51.656  21.448  33.482  1.00  0.00     0.124 S 
ATOM     71  O   UNL A   1      50.301  20.970  33.746  1.00  0.00    -0.237 OA
ATOM     72  O   UNL A   1      52.191  21.110  32.166  1.00  0.00    -0.237 OA
ATOM     73  O   UNL A   1      52.590  21.310  34.594  1.00  0.00    -0.744 OA
ENDBRANCH  66  70
ENDBRANCH  40  63
ENDBRANCH  14  15
ENDBRANCH   7   9
ENDBRANCH   6   7
ENDBRANCH   5   6
ENDBRANCH   4   5
ENDBRANCH   3   4
ENDBRANCH   2   3
ENDBRANCH   1   2
BRANCH   1  74
ATOM     74  O   UNL A   1      32.782  34.379  29.164  1.00  0.00    -0.377 OA
BRANCH  74  75
ATOM     75  C   UNL A   1      33.552  34.005  28.037  1.00  0.00     0.188 C 
BRANCH  75  76
ATOM     76  C   UNL A   1      34.875  33.205  28.017  1.00  0.00     0.188 C 
BRANCH  76  77
ATOM     77  O   UNL A   1      34.955  31.890  27.515  1.00  0.00    -0.376 OA
BRANCH  77  78
ATOM     78  C   UNL A   1      33.901  30.953  27.465  1.00  0.00     0.202 C 
BRANCH  78  79
ATOM     79  C   UNL A   1      34.057  29.445  27.174  1.00  0.00     0.261 C 
BRANCH  79  80
ATOM     80  O   UNL A   1      32.841  28.746  26.862  1.00  0.00    -0.462 OA
BRANCH  80  81
ATOM     81  C   UNL A   1      32.487  28.596  25.564  1.00  0.00     0.324 C 
ATOM     82  O   UNL A   1      32.863  29.346  24.669  1.00  0.00    -0.250 OA
BRANCH  81  83
ATOM     83  C   UNL A   1      31.585  27.404  25.295  1.00  0.00     0.183 C 
ATOM     84  C   UNL A   1      31.081  26.494  26.413  1.00  0.00     0.034 C 
ATOM     85  N   UNL A   1      31.881  26.437  24.178  1.00  0.00    -0.184 NA
ATOM     86  C   UNL A   1      30.111  25.593  25.679  1.00  0.00     0.019 C 
ATOM     87  C   UNL A   1      30.777  25.384  24.318  1.00  0.00     0.103 C 
BRANCH  85  88
ATOM     88  S   UNL A   1      33.419  25.643  24.022  1.00  0.00     0.244 S 
ATOM     89  O   UNL A   1      33.644  25.468  22.601  1.00  0.00    -0.207 OA
ATOM     90  O   UNL A   1      34.327  26.489  24.770  1.00  0.00    -0.207 OA
BRANCH  88  91
ATOM     91  C   UNL A   1      33.434  24.012  24.773  1.00  0.00     0.090 A 
ATOM     92  C   UNL A   1      33.648  23.938  26.168  1.00  0.00     0.024 A 
ATOM     93  C   UNL A   1      33.004  22.827  24.097  1.00  0.00     0.005 A 
ATOM     94  C   UNL A   1      33.602  22.757  26.926  1.00  0.00     0.028 A 
ATOM     95  C   UNL A   1      32.988  21.692  24.872  1.00  0.00     0.019 A 
ATOM     96  C   UNL A   1      32.536  22.599  22.775  1.00  0.00     0.010 A 
ATOM     97  C   UNL A   1      33.280  21.634  26.214  1.00  0.00     0.050 A 
ATOM     98  C   UNL A   1      32.620  20.416  24.479  1.00  0.00     0.050 A 
ATOM     99  C   UNL A   1      32.133  21.317  22.340  1.00  0.00     0.002 A 
ATOM    100  N   UNL A   1      33.131  20.331  26.638  1.00  0.00    -0.321 N 
ATOM    101  C   UNL A   1      32.183  20.196  23.180  1.00  0.00     0.014 A 
ATOM    102  C   UNL A   1      32.736  19.487  25.594  1.00  0.00     0.256 C 
ATOM    103  H   UNL A   1      33.284  20.029  27.562  1.00  0.00     0.170 HD
ATOM    104  O   UNL A   1      32.573  18.286  25.688  1.00  0.00    -0.269 OA
ENDBRANCH  88  91
ENDBRANCH  85  88
ENDBRANCH  81  83
ENDBRANCH  80  81
ENDBRANCH  79  80
ENDBRANCH  78  79
ENDBRANCH  77  78
ENDBRANCH  76  77
ENDBRANCH  75  76
ENDBRANCH  74  75
ENDBRANCH   1  74
TORSDOF 25
ENDMDL
