MODEL 1
REMARK VINA RESULT:      -8.1      0.000      0.000
REMARK SMILES CCC(CC)COc1cc2c(cc1Cl)C=C(C(=O)OCCOCCOCCOCCOC(=O)c1ccc(-c3c4nc(c(-c5cc(S(=O)(=O)[O-])ccc5F)c5ccc([nH]5)c(-c5cc(S(=O)(=O)[O-])ccc5F)c5nc(c(-c6cc(S(=O)(=O)[O-])ccc6F)c6ccc3[nH]6)C=C5)C=C4)cc1)[C@@H](C(F)(F)F)O2
REMARK SMILES IDX 24 1 23 2 22 3 21 4 20 5 19 6 17 7 18 8 16 9 8 10 9 11 13 12
REMARK SMILES IDX 10 13 12 14 14 15 11 16 102 17 15 18 97 19 7 20 6 21 3 22
REMARK SMILES IDX 2 23 1 24 4 25 5 26 98 27 99 28 100 29 101 30 25 31 26 32
REMARK SMILES IDX 27 33 28 34 29 35 30 36 31 37 32 38 33 39 34 40 35 41 96 42
REMARK SMILES IDX 36 43 95 44 37 45 38 46 39 47 89 48 40 49 94 50 88 51 90 52
REMARK SMILES IDX 41 53 93 54 87 55 86 56 42 58 74 59 54 60 73 61 55 62 58 63
REMARK SMILES IDX 72 64 91 65 56 66 57 67 71 69 92 70 59 71 43 72 44 73 52 74
REMARK SMILES IDX 45 75 51 76 53 77 50 78 46 79 47 80 48 81 49 82 75 83 76 84
REMARK SMILES IDX 84 85 77 86 83 87 85 88 82 89 78 90 79 91 80 92 81 93 60 94
REMARK SMILES IDX 61 95 69 96 62 97 68 98 70 99 67 100 63 101 64 102 65 103
REMARK SMILES IDX 66 104
REMARK H PARENT 90 57 58 68
REMARK Flexibility Score: inf
ROOT
ATOM      1  C   UNL A   1      43.174  22.451  26.887  1.00  0.00     0.188 C 
ENDROOT
BRANCH   1   2
ATOM      2  C   UNL A   1      41.953  21.557  27.168  1.00  0.00     0.188 C 
BRANCH   2   3
ATOM      3  O   UNL A   1      41.176  21.133  26.067  1.00  0.00    -0.376 OA
BRANCH   3   4
ATOM      4  C   UNL A   1      40.368  19.964  26.071  1.00  0.00     0.202 C 
BRANCH   4   5
ATOM      5  C   UNL A   1      38.917  19.810  25.566  1.00  0.00     0.261 C 
BRANCH   5   6
ATOM      6  O   UNL A   1      38.060  20.946  25.627  1.00  0.00    -0.460 OA
BRANCH   6   7
ATOM      7  C   UNL A   1      36.792  20.724  25.253  1.00  0.00     0.338 C 
ATOM      8  O   UNL A   1      36.315  19.665  24.880  1.00  0.00    -0.246 OA
BRANCH   7   9
ATOM      9  C   UNL A   1      35.989  21.927  25.533  1.00  0.00     0.087 C 
ATOM     10  C   UNL A   1      32.043  24.732  26.663  1.00  0.00     0.141 A 
ATOM     11  C   UNL A   1      33.314  25.067  26.169  1.00  0.00     0.095 A 
ATOM     12  C   UNL A   1      31.743  23.394  26.947  1.00  0.00     0.083 A 
ATOM     13  C   UNL A   1      34.284  24.065  26.031  1.00  0.00     0.131 A 
ATOM     14  C   UNL A   1      32.755  22.449  26.983  1.00  0.00     0.036 A 
ATOM     15  Cl  UNL A   1      30.135  22.810  27.168  1.00  0.00    -0.080 Cl
ATOM     16  C   UNL A   1      34.020  22.784  26.515  1.00  0.00     0.019 A 
ATOM     17  O   UNL A   1      35.466  24.368  25.405  1.00  0.00    -0.475 OA
ATOM     18  C   UNL A   1      34.998  21.731  26.405  1.00  0.00     0.027 C 
ATOM     19  C   UNL A   1      36.233  23.243  24.839  1.00  0.00     0.316 C 
BRANCH  10  20
ATOM     20  O   UNL A   1      31.067  25.692  26.743  1.00  0.00    -0.492 OA
BRANCH  20  21
ATOM     21  C   UNL A   1      31.398  26.931  26.070  1.00  0.00     0.233 C 
BRANCH  21  22
ATOM     22  C   UNL A   1      30.892  26.985  24.604  1.00  0.00     0.026 C 
BRANCH  22  23
ATOM     23  C   UNL A   1      29.407  26.564  24.510  1.00  0.00     0.003 C 
ATOM     24  C   UNL A   1      28.654  27.261  23.384  1.00  0.00     0.004 C 
ENDBRANCH  22  23
BRANCH  22  25
ATOM     25  C   UNL A   1      31.155  28.344  23.918  1.00  0.00     0.003 C 
ATOM     26  C   UNL A   1      31.087  29.565  24.819  1.00  0.00     0.004 C 
ENDBRANCH  22  25
ENDBRANCH  21  22
ENDBRANCH  20  21
ENDBRANCH  10  20
BRANCH  19  27
ATOM     27  C   UNL A   1      35.987  23.111  23.331  1.00  0.00     0.430 C 
ATOM     28  F   UNL A   1      37.082  22.660  22.679  1.00  0.00    -0.167 F 
ATOM     29  F   UNL A   1      34.983  22.239  23.072  1.00  0.00    -0.167 F 
ATOM     30  F   UNL A   1      35.640  24.295  22.774  1.00  0.00    -0.167 F 
ENDBRANCH  19  27
ENDBRANCH   7   9
ENDBRANCH   6   7
ENDBRANCH   5   6
ENDBRANCH   4   5
ENDBRANCH   3   4
ENDBRANCH   2   3
ENDBRANCH   1   2
BRANCH   1  31
ATOM     31  O   UNL A   1      42.836  23.819  26.752  1.00  0.00    -0.377 OA
BRANCH  31  32
ATOM     32  C   UNL A   1      42.067  24.184  25.608  1.00  0.00     0.188 C 
BRANCH  32  33
ATOM     33  C   UNL A   1      41.692  25.664  25.375  1.00  0.00     0.188 C 
BRANCH  33  34
ATOM     34  O   UNL A   1      42.703  26.418  24.710  1.00  0.00    -0.376 OA
BRANCH  34  35
ATOM     35  C   UNL A   1      43.353  27.448  25.438  1.00  0.00     0.202 C 
BRANCH  35  36
ATOM     36  C   UNL A   1      44.633  27.034  26.176  1.00  0.00     0.261 C 
BRANCH  36  37
ATOM     37  O   UNL A   1      44.462  26.622  27.538  1.00  0.00    -0.460 OA
BRANCH  37  38
ATOM     38  C   UNL A   1      43.381  27.085  28.206  1.00  0.00     0.338 C 
ATOM     39  O   UNL A   1      42.395  26.449  28.529  1.00  0.00    -0.246 OA
BRANCH  38  40
ATOM     40  C   UNL A   1      43.702  28.458  28.656  1.00  0.00     0.060 A 
ATOM     41  C   UNL A   1      42.918  29.535  28.235  1.00  0.00     0.016 A 
ATOM     42  C   UNL A   1      44.821  28.672  29.472  1.00  0.00     0.016 A 
ATOM     43  C   UNL A   1      43.233  30.824  28.662  1.00  0.00     0.010 A 
ATOM     44  C   UNL A   1      45.134  29.966  29.902  1.00  0.00     0.010 A 
ATOM     45  C   UNL A   1      44.323  31.046  29.524  1.00  0.00    -0.014 A 
BRANCH  45  46
ATOM     46  C   UNL A   1      44.449  32.366  30.194  1.00  0.00     0.031 A 
ATOM     47  C   UNL A   1      45.344  33.451  29.685  1.00  0.00     0.074 A 
ATOM     48  C   UNL A   1      43.699  32.567  31.296  1.00  0.00     0.049 A 
ATOM     49  N   UNL A   1      45.420  34.695  30.083  1.00  0.00    -0.248 NA
ATOM     50  C   UNL A   1      46.278  33.105  28.605  1.00  0.00     0.031 C 
ATOM     51  C   UNL A   1      42.839  31.550  31.905  1.00  0.00     0.029 A 
ATOM     52  N   UNL A   1      43.519  33.674  32.083  1.00  0.00    -0.354 N 
ATOM     53  C   UNL A   1      46.391  35.293  29.290  1.00  0.00     0.074 A 
ATOM     54  C   UNL A   1      46.916  34.257  28.424  1.00  0.00     0.031 C 
ATOM     55  C   UNL A   1      42.189  32.093  32.942  1.00  0.00     0.029 A 
ATOM     56  C   UNL A   1      42.606  33.485  33.095  1.00  0.00     0.049 A 
ATOM     57  H   UNL A   1      43.997  34.523  31.939  1.00  0.00     0.167 HD
ATOM     58  C   UNL A   1      46.786  36.591  29.281  1.00  0.00     0.034 A 
ATOM     59  C   UNL A   1      42.138  34.333  34.033  1.00  0.00     0.034 A 
ATOM     60  C   UNL A   1      46.257  37.598  30.172  1.00  0.00     0.049 A 
ATOM     61  C   UNL A   1      42.591  35.770  33.999  1.00  0.00     0.074 A 
ATOM     62  C   UNL A   1      46.554  38.950  30.204  1.00  0.00     0.029 A 
ATOM     63  N   UNL A   1      45.337  37.373  31.190  1.00  0.00    -0.354 N 
ATOM     64  N   UNL A   1      43.415  36.352  33.159  1.00  0.00    -0.248 NA
ATOM     65  C   UNL A   1      42.036  36.671  35.015  1.00  0.00     0.031 C 
ATOM     66  C   UNL A   1      45.884  39.522  31.285  1.00  0.00     0.029 A 
ATOM     67  C   UNL A   1      45.087  38.553  31.873  1.00  0.00     0.049 A 
ATOM     68  H   UNL A   1      44.925  36.502  31.395  1.00  0.00     0.167 HD
ATOM     69  C   UNL A   1      43.451  37.694  33.526  1.00  0.00     0.074 A 
ATOM     70  C   UNL A   1      42.548  37.839  34.649  1.00  0.00     0.031 C 
ATOM     71  C   UNL A   1      44.171  38.707  32.981  1.00  0.00     0.034 A 
BRANCH  58  72
ATOM     72  C   UNL A   1      47.814  37.037  28.268  1.00  0.00     0.023 A 
ATOM     73  C   UNL A   1      49.152  37.243  28.658  1.00  0.00     0.031 A 
ATOM     74  C   UNL A   1      47.437  37.427  26.970  1.00  0.00     0.131 A 
ATOM     75  C   UNL A   1      50.049  37.865  27.780  1.00  0.00     0.055 A 
ATOM     76  C   UNL A   1      48.347  38.003  26.081  1.00  0.00     0.041 A 
ATOM     77  F   UNL A   1      46.172  37.263  26.549  1.00  0.00    -0.206 F 
ATOM     78  C   UNL A   1      49.655  38.239  26.491  1.00  0.00     0.022 A 
BRANCH  75  79
ATOM     79  S   UNL A   1      51.733  38.293  28.301  1.00  0.00     0.124 S 
ATOM     80  O   UNL A   1      51.814  39.704  27.928  1.00  0.00    -0.237 OA
ATOM     81  O   UNL A   1      51.685  38.030  29.737  1.00  0.00    -0.237 OA
ATOM     82  O   UNL A   1      52.580  37.395  27.523  1.00  0.00    -0.744 OA
ENDBRANCH  75  79
ENDBRANCH  58  72
BRANCH  59  83
ATOM     83  C   UNL A   1      41.122  33.841  35.006  1.00  0.00     0.023 A 
ATOM     84  C   UNL A   1      39.780  33.671  34.620  1.00  0.00     0.031 A 
ATOM     85  C   UNL A   1      41.446  33.659  36.361  1.00  0.00     0.131 A 
ATOM     86  C   UNL A   1      38.803  33.407  35.588  1.00  0.00     0.055 A 
ATOM     87  C   UNL A   1      40.482  33.316  37.310  1.00  0.00     0.041 A 
ATOM     88  F   UNL A   1      42.709  33.831  36.783  1.00  0.00    -0.206 F 
ATOM     89  C   UNL A   1      39.148  33.208  36.928  1.00  0.00     0.022 A 
BRANCH  86  90
ATOM     90  S   UNL A   1      37.039  33.466  35.166  1.00  0.00     0.124 S 
ATOM     91  O   UNL A   1      36.969  34.653  34.319  1.00  0.00    -0.237 OA
ATOM     92  O   UNL A   1      36.855  32.189  34.481  1.00  0.00    -0.237 OA
ATOM     93  O   UNL A   1      36.378  33.575  36.463  1.00  0.00    -0.744 OA
ENDBRANCH  86  90
ENDBRANCH  59  83
BRANCH  71  94
ATOM     94  C   UNL A   1      44.024  40.098  33.558  1.00  0.00     0.023 A 
ATOM     95  C   UNL A   1      43.439  41.119  32.780  1.00  0.00     0.031 A 
ATOM     96  C   UNL A   1      44.594  40.454  34.792  1.00  0.00     0.131 A 
ATOM     97  C   UNL A   1      43.484  42.448  33.221  1.00  0.00     0.055 A 
ATOM     98  C   UNL A   1      44.583  41.771  35.254  1.00  0.00     0.041 A 
ATOM     99  F   UNL A   1      45.177  39.524  35.567  1.00  0.00    -0.206 F 
ATOM    100  C   UNL A   1      44.042  42.777  34.460  1.00  0.00     0.022 A 
BRANCH  97 101
ATOM    101  S   UNL A   1      42.916  43.806  32.162  1.00  0.00     0.124 S 
ATOM    102  O   UNL A   1      42.319  44.718  33.134  1.00  0.00    -0.237 OA
ATOM    103  O   UNL A   1      44.164  44.268  31.560  1.00  0.00    -0.237 OA
ATOM    104  O   UNL A   1      41.975  43.170  31.246  1.00  0.00    -0.744 OA
ENDBRANCH  97 101
ENDBRANCH  71  94
ENDBRANCH  45  46
ENDBRANCH  38  40
ENDBRANCH  37  38
ENDBRANCH  36  37
ENDBRANCH  35  36
ENDBRANCH  34  35
ENDBRANCH  33  34
ENDBRANCH  32  33
ENDBRANCH  31  32
ENDBRANCH   1  31
TORSDOF 29
ENDMDL
MODEL 2
REMARK VINA RESULT:      -7.8      6.950     11.713
REMARK SMILES CCC(CC)COc1cc2c(cc1Cl)C=C(C(=O)OCCOCCOCCOCCOC(=O)c1ccc(-c3c4nc(c(-c5cc(S(=O)(=O)[O-])ccc5F)c5ccc([nH]5)c(-c5cc(S(=O)(=O)[O-])ccc5F)c5nc(c(-c6cc(S(=O)(=O)[O-])ccc6F)c6ccc3[nH]6)C=C5)C=C4)cc1)[C@@H](C(F)(F)F)O2
REMARK SMILES IDX 24 1 23 2 22 3 21 4 20 5 19 6 17 7 18 8 16 9 8 10 9 11 13 12
REMARK SMILES IDX 10 13 12 14 14 15 11 16 102 17 15 18 97 19 7 20 6 21 3 22
REMARK SMILES IDX 2 23 1 24 4 25 5 26 98 27 99 28 100 29 101 30 25 31 26 32
REMARK SMILES IDX 27 33 28 34 29 35 30 36 31 37 32 38 33 39 34 40 35 41 96 42
REMARK SMILES IDX 36 43 95 44 37 45 38 46 39 47 89 48 40 49 94 50 88 51 90 52
REMARK SMILES IDX 41 53 93 54 87 55 86 56 42 58 74 59 54 60 73 61 55 62 58 63
REMARK SMILES IDX 72 64 91 65 56 66 57 67 71 69 92 70 59 71 43 72 44 73 52 74
REMARK SMILES IDX 45 75 51 76 53 77 50 78 46 79 47 80 48 81 49 82 75 83 76 84
REMARK SMILES IDX 84 85 77 86 83 87 85 88 82 89 78 90 79 91 80 92 81 93 60 94
REMARK SMILES IDX 61 95 69 96 62 97 68 98 70 99 67 100 63 101 64 102 65 103
REMARK SMILES IDX 66 104
REMARK H PARENT 90 57 58 68
REMARK Flexibility Score: inf
ROOT
ATOM      1  C   UNL A   1      46.876  25.710  29.032  1.00  0.00     0.188 C 
ENDROOT
BRANCH   1   2
ATOM      2  C   UNL A   1      48.123  25.912  29.912  1.00  0.00     0.188 C 
BRANCH   2   3
ATOM      3  O   UNL A   1      49.376  26.027  29.268  1.00  0.00    -0.376 OA
BRANCH   3   4
ATOM      4  C   UNL A   1      49.737  25.299  28.103  1.00  0.00     0.202 C 
BRANCH   4   5
ATOM      5  C   UNL A   1      50.204  25.858  26.741  1.00  0.00     0.261 C 
BRANCH   5   6
ATOM      6  O   UNL A   1      49.214  26.325  25.831  1.00  0.00    -0.460 OA
BRANCH   6   7
ATOM      7  C   UNL A   1      49.402  27.572  25.374  1.00  0.00     0.338 C 
ATOM      8  O   UNL A   1      50.219  27.928  24.540  1.00  0.00    -0.246 OA
BRANCH   7   9
ATOM      9  C   UNL A   1      48.336  28.443  25.898  1.00  0.00     0.087 C 
ATOM     10  C   UNL A   1      45.307  30.641  29.171  1.00  0.00     0.141 A 
ATOM     11  C   UNL A   1      45.281  30.584  27.768  1.00  0.00     0.095 A 
ATOM     12  C   UNL A   1      46.352  30.020  29.867  1.00  0.00     0.083 A 
ATOM     13  C   UNL A   1      46.335  29.964  27.084  1.00  0.00     0.131 A 
ATOM     14  C   UNL A   1      47.473  29.576  29.185  1.00  0.00     0.036 A 
ATOM     15  Cl  UNL A   1      46.292  29.677  31.556  1.00  0.00    -0.080 Cl
ATOM     16  C   UNL A   1      47.457  29.539  27.795  1.00  0.00     0.019 A 
ATOM     17  O   UNL A   1      46.227  29.774  25.730  1.00  0.00    -0.475 OA
ATOM     18  C   UNL A   1      48.568  28.911  27.126  1.00  0.00     0.027 C 
ATOM     19  C   UNL A   1      47.069  28.722  25.132  1.00  0.00     0.316 C 
BRANCH  10  20
ATOM     20  O   UNL A   1      44.252  31.189  29.852  1.00  0.00    -0.492 OA
BRANCH  20  21
ATOM     21  C   UNL A   1      44.313  32.630  29.980  1.00  0.00     0.233 C 
BRANCH  21  22
ATOM     22  C   UNL A   1      43.182  33.361  29.209  1.00  0.00     0.026 C 
BRANCH  22  23
ATOM     23  C   UNL A   1      42.243  34.116  30.179  1.00  0.00     0.003 C 
ATOM     24  C   UNL A   1      40.835  33.536  30.227  1.00  0.00     0.004 C 
ENDBRANCH  22  23
BRANCH  22  25
ATOM     25  C   UNL A   1      43.705  34.275  28.078  1.00  0.00     0.003 C 
ATOM     26  C   UNL A   1      45.216  34.345  27.929  1.00  0.00     0.004 C 
ENDBRANCH  22  25
ENDBRANCH  21  22
ENDBRANCH  20  21
ENDBRANCH  10  20
BRANCH  19  27
ATOM     27  C   UNL A   1      46.270  27.429  24.923  1.00  0.00     0.430 C 
ATOM     28  F   UNL A   1      46.283  26.645  26.025  1.00  0.00    -0.167 F 
ATOM     29  F   UNL A   1      44.972  27.694  24.639  1.00  0.00    -0.167 F 
ATOM     30  F   UNL A   1      46.761  26.695  23.897  1.00  0.00    -0.167 F 
ENDBRANCH  19  27
ENDBRANCH   7   9
ENDBRANCH   6   7
ENDBRANCH   5   6
ENDBRANCH   4   5
ENDBRANCH   3   4
ENDBRANCH   2   3
ENDBRANCH   1   2
BRANCH   1  31
ATOM     31  O   UNL A   1      46.336  24.405  29.135  1.00  0.00    -0.377 OA
BRANCH  31  32
ATOM     32  C   UNL A   1      45.394  24.016  28.139  1.00  0.00     0.188 C 
BRANCH  32  33
ATOM     33  C   UNL A   1      45.878  23.690  26.709  1.00  0.00     0.188 C 
BRANCH  33  34
ATOM     34  O   UNL A   1      45.002  22.828  25.986  1.00  0.00    -0.376 OA
BRANCH  34  35
ATOM     35  C   UNL A   1      44.533  23.264  24.719  1.00  0.00     0.202 C 
BRANCH  35  36
ATOM     36  C   UNL A   1      43.125  23.872  24.705  1.00  0.00     0.261 C 
BRANCH  36  37
ATOM     37  O   UNL A   1      42.695  24.480  25.930  1.00  0.00    -0.460 OA
BRANCH  37  38
ATOM     38  C   UNL A   1      42.474  25.814  25.928  1.00  0.00     0.338 C 
ATOM     39  O   UNL A   1      42.067  26.485  24.998  1.00  0.00    -0.246 OA
BRANCH  38  40
ATOM     40  C   UNL A   1      42.620  26.282  27.325  1.00  0.00     0.060 A 
ATOM     41  C   UNL A   1      41.718  25.857  28.304  1.00  0.00     0.016 A 
ATOM     42  C   UNL A   1      43.643  27.184  27.646  1.00  0.00     0.016 A 
ATOM     43  C   UNL A   1      41.864  26.308  29.615  1.00  0.00     0.010 A 
ATOM     44  C   UNL A   1      43.789  27.632  28.963  1.00  0.00     0.010 A 
ATOM     45  C   UNL A   1      42.919  27.173  29.962  1.00  0.00    -0.014 A 
BRANCH  45  46
ATOM     46  C   UNL A   1      43.224  27.389  31.399  1.00  0.00     0.031 A 
ATOM     47  C   UNL A   1      44.081  26.455  32.195  1.00  0.00     0.074 A 
ATOM     48  C   UNL A   1      42.705  28.491  31.976  1.00  0.00     0.049 A 
ATOM     49  N   UNL A   1      44.552  26.616  33.404  1.00  0.00    -0.248 NA
ATOM     50  C   UNL A   1      44.450  25.179  31.568  1.00  0.00     0.031 C 
ATOM     51  C   UNL A   1      41.811  29.432  31.301  1.00  0.00     0.029 A 
ATOM     52  N   UNL A   1      42.861  29.018  33.232  1.00  0.00    -0.354 N 
ATOM     53  C   UNL A   1      45.295  25.475  33.682  1.00  0.00     0.074 A 
ATOM     54  C   UNL A   1      45.163  24.605  32.532  1.00  0.00     0.031 C 
ATOM     55  C   UNL A   1      41.532  30.444  32.133  1.00  0.00     0.029 A 
ATOM     56  C   UNL A   1      42.200  30.211  33.411  1.00  0.00     0.049 A 
ATOM     57  H   UNL A   1      43.393  28.584  33.938  1.00  0.00     0.167 HD
ATOM     58  C   UNL A   1      46.029  25.200  34.789  1.00  0.00     0.034 A 
ATOM     59  C   UNL A   1      42.146  31.040  34.473  1.00  0.00     0.034 A 
ATOM     60  C   UNL A   1      46.123  26.082  35.930  1.00  0.00     0.049 A 
ATOM     61  C   UNL A   1      42.973  30.712  35.689  1.00  0.00     0.074 A 
ATOM     62  C   UNL A   1      46.883  25.916  37.076  1.00  0.00     0.029 A 
ATOM     63  N   UNL A   1      45.437  27.281  36.083  1.00  0.00    -0.354 N 
ATOM     64  N   UNL A   1      43.774  29.691  35.888  1.00  0.00    -0.248 NA
ATOM     65  C   UNL A   1      42.914  31.654  36.814  1.00  0.00     0.031 C 
ATOM     66  C   UNL A   1      46.595  26.963  37.950  1.00  0.00     0.029 A 
ATOM     67  C   UNL A   1      45.731  27.842  37.317  1.00  0.00     0.049 A 
ATOM     68  H   UNL A   1      44.831  27.673  35.414  1.00  0.00     0.167 HD
ATOM     69  C   UNL A   1      44.338  29.886  37.145  1.00  0.00     0.074 A 
ATOM     70  C   UNL A   1      43.804  31.134  37.649  1.00  0.00     0.031 C 
ATOM     71  C   UNL A   1      45.216  29.098  37.816  1.00  0.00     0.034 A 
BRANCH  58  72
ATOM     72  C   UNL A   1      46.825  23.918  34.840  1.00  0.00     0.023 A 
ATOM     73  C   UNL A   1      46.318  22.793  35.519  1.00  0.00     0.031 A 
ATOM     74  C   UNL A   1      48.152  23.865  34.374  1.00  0.00     0.131 A 
ATOM     75  C   UNL A   1      47.145  21.687  35.756  1.00  0.00     0.055 A 
ATOM     76  C   UNL A   1      48.957  22.741  34.570  1.00  0.00     0.041 A 
ATOM     77  F   UNL A   1      48.690  24.913  33.729  1.00  0.00    -0.206 F 
ATOM     78  C   UNL A   1      48.458  21.652  35.278  1.00  0.00     0.022 A 
BRANCH  75  79
ATOM     79  S   UNL A   1      46.580  20.288  36.764  1.00  0.00     0.124 S 
ATOM     80  O   UNL A   1      45.749  20.955  37.764  1.00  0.00    -0.237 OA
ATOM     81  O   UNL A   1      45.853  19.481  35.787  1.00  0.00    -0.237 OA
ATOM     82  O   UNL A   1      47.814  19.701  37.274  1.00  0.00    -0.744 OA
ENDBRANCH  75  79
ENDBRANCH  58  72
BRANCH  59  83
ATOM     83  C   UNL A   1      41.347  32.294  34.368  1.00  0.00     0.023 A 
ATOM     84  C   UNL A   1      39.969  32.294  34.650  1.00  0.00     0.031 A 
ATOM     85  C   UNL A   1      41.916  33.474  33.862  1.00  0.00     0.131 A 
ATOM     86  C   UNL A   1      39.195  33.422  34.353  1.00  0.00     0.055 A 
ATOM     87  C   UNL A   1      41.155  34.624  33.641  1.00  0.00     0.041 A 
ATOM     88  F   UNL A   1      43.222  33.519  33.556  1.00  0.00    -0.206 F 
ATOM     89  C   UNL A   1      39.782  34.595  33.869  1.00  0.00     0.022 A 
BRANCH  86  90
ATOM     90  S   UNL A   1      37.383  33.353  34.436  1.00  0.00     0.124 S 
ATOM     91  O   UNL A   1      37.159  32.904  35.807  1.00  0.00    -0.237 OA
ATOM     92  O   UNL A   1      37.020  34.741  34.159  1.00  0.00    -0.237 OA
ATOM     93  O   UNL A   1      37.027  32.397  33.393  1.00  0.00    -0.744 OA
ENDBRANCH  86  90
ENDBRANCH  59  83
BRANCH  71  94
ATOM     94  C   UNL A   1      45.699  29.541  39.180  1.00  0.00     0.023 A 
ATOM     95  C   UNL A   1      45.001  29.134  40.335  1.00  0.00     0.031 A 
ATOM     96  C   UNL A   1      46.734  30.480  39.330  1.00  0.00     0.131 A 
ATOM     97  C   UNL A   1      45.313  29.701  41.578  1.00  0.00     0.055 A 
ATOM     98  C   UNL A   1      47.080  30.997  40.580  1.00  0.00     0.041 A 
ATOM     99  F   UNL A   1      47.423  30.913  38.261  1.00  0.00    -0.206 F 
ATOM    100  C   UNL A   1      46.357  30.621  41.708  1.00  0.00     0.022 A 
BRANCH  97 101
ATOM    101  S   UNL A   1      44.311  29.345  43.047  1.00  0.00     0.124 S 
ATOM    102  O   UNL A   1      42.964  29.660  42.577  1.00  0.00    -0.237 OA
ATOM    103  O   UNL A   1      44.578  27.926  43.264  1.00  0.00    -0.237 OA
ATOM    104  O   UNL A   1      44.841  30.247  44.064  1.00  0.00    -0.744 OA
ENDBRANCH  97 101
ENDBRANCH  71  94
ENDBRANCH  45  46
ENDBRANCH  38  40
ENDBRANCH  37  38
ENDBRANCH  36  37
ENDBRANCH  35  36
ENDBRANCH  34  35
ENDBRANCH  33  34
ENDBRANCH  32  33
ENDBRANCH  31  32
ENDBRANCH   1  31
TORSDOF 29
ENDMDL
MODEL 3
REMARK VINA RESULT:      -7.7      4.779     11.913
REMARK SMILES CCC(CC)COc1cc2c(cc1Cl)C=C(C(=O)OCCOCCOCCOCCOC(=O)c1ccc(-c3c4nc(c(-c5cc(S(=O)(=O)[O-])ccc5F)c5ccc([nH]5)c(-c5cc(S(=O)(=O)[O-])ccc5F)c5nc(c(-c6cc(S(=O)(=O)[O-])ccc6F)c6ccc3[nH]6)C=C5)C=C4)cc1)[C@@H](C(F)(F)F)O2
REMARK SMILES IDX 24 1 23 2 22 3 21 4 20 5 19 6 17 7 18 8 16 9 8 10 9 11 13 12
REMARK SMILES IDX 10 13 12 14 14 15 11 16 102 17 15 18 97 19 7 20 6 21 3 22
REMARK SMILES IDX 2 23 1 24 4 25 5 26 98 27 99 28 100 29 101 30 25 31 26 32
REMARK SMILES IDX 27 33 28 34 29 35 30 36 31 37 32 38 33 39 34 40 35 41 96 42
REMARK SMILES IDX 36 43 95 44 37 45 38 46 39 47 89 48 40 49 94 50 88 51 90 52
REMARK SMILES IDX 41 53 93 54 87 55 86 56 42 58 74 59 54 60 73 61 55 62 58 63
REMARK SMILES IDX 72 64 91 65 56 66 57 67 71 69 92 70 59 71 43 72 44 73 52 74
REMARK SMILES IDX 45 75 51 76 53 77 50 78 46 79 47 80 48 81 49 82 75 83 76 84
REMARK SMILES IDX 84 85 77 86 83 87 85 88 82 89 78 90 79 91 80 92 81 93 60 94
REMARK SMILES IDX 61 95 69 96 62 97 68 98 70 99 67 100 63 101 64 102 65 103
REMARK SMILES IDX 66 104
REMARK H PARENT 90 57 58 68
REMARK Flexibility Score: inf
ROOT
ATOM      1  C   UNL A   1      38.108  33.577  35.691  1.00  0.00     0.188 C 
ENDROOT
BRANCH   1   2
ATOM      2  C   UNL A   1      36.868  33.129  34.897  1.00  0.00     0.188 C 
BRANCH   2   3
ATOM      3  O   UNL A   1      35.854  34.084  34.659  1.00  0.00    -0.376 OA
BRANCH   3   4
ATOM      4  C   UNL A   1      35.793  34.903  33.500  1.00  0.00     0.202 C 
BRANCH   4   5
ATOM      5  C   UNL A   1      35.318  34.510  32.084  1.00  0.00     0.261 C 
BRANCH   5   6
ATOM      6  O   UNL A   1      35.599  33.193  31.621  1.00  0.00    -0.460 OA
BRANCH   6   7
ATOM      7  C   UNL A   1      36.726  33.069  30.904  1.00  0.00     0.338 C 
ATOM      8  O   UNL A   1      37.811  33.565  31.159  1.00  0.00    -0.246 OA
BRANCH   7   9
ATOM      9  C   UNL A   1      36.511  32.076  29.837  1.00  0.00     0.087 C 
ATOM     10  C   UNL A   1      34.120  29.250  26.519  1.00  0.00     0.141 A 
ATOM     11  C   UNL A   1      35.437  29.207  27.004  1.00  0.00     0.095 A 
ATOM     12  C   UNL A   1      33.251  30.252  26.970  1.00  0.00     0.083 A 
ATOM     13  C   UNL A   1      35.881  30.205  27.881  1.00  0.00     0.131 A 
ATOM     14  C   UNL A   1      33.747  31.330  27.685  1.00  0.00     0.036 A 
ATOM     15  Cl  UNL A   1      31.540  30.181  26.770  1.00  0.00    -0.080 Cl
ATOM     16  C   UNL A   1      35.057  31.299  28.148  1.00  0.00     0.019 A 
ATOM     17  O   UNL A   1      37.112  30.071  28.471  1.00  0.00    -0.475 OA
ATOM     18  C   UNL A   1      35.484  32.354  29.032  1.00  0.00     0.027 C 
ATOM     19  C   UNL A   1      37.344  30.826  29.716  1.00  0.00     0.316 C 
BRANCH  10  20
ATOM     20  O   UNL A   1      33.656  28.245  25.710  1.00  0.00    -0.492 OA
BRANCH  20  21
ATOM     21  C   UNL A   1      33.387  27.003  26.405  1.00  0.00     0.233 C 
BRANCH  21  22
ATOM     22  C   UNL A   1      33.070  25.823  25.449  1.00  0.00     0.026 C 
BRANCH  22  23
ATOM     23  C   UNL A   1      34.111  25.734  24.308  1.00  0.00     0.003 C 
ATOM     24  C   UNL A   1      33.563  26.179  22.958  1.00  0.00     0.004 C 
ENDBRANCH  22  23
BRANCH  22  25
ATOM     25  C   UNL A   1      32.893  24.474  26.181  1.00  0.00     0.003 C 
ATOM     26  C   UNL A   1      31.497  24.183  26.706  1.00  0.00     0.004 C 
ENDBRANCH  22  25
ENDBRANCH  21  22
ENDBRANCH  20  21
ENDBRANCH  10  20
BRANCH  19  27
ATOM     27  C   UNL A   1      37.156  29.931  30.947  1.00  0.00     0.430 C 
ATOM     28  F   UNL A   1      37.990  30.276  31.954  1.00  0.00    -0.167 F 
ATOM     29  F   UNL A   1      35.893  30.018  31.429  1.00  0.00    -0.167 F 
ATOM     30  F   UNL A   1      37.384  28.628  30.659  1.00  0.00    -0.167 F 
ENDBRANCH  19  27
ENDBRANCH   7   9
ENDBRANCH   6   7
ENDBRANCH   5   6
ENDBRANCH   4   5
ENDBRANCH   3   4
ENDBRANCH   2   3
ENDBRANCH   1   2
BRANCH   1  31
ATOM     31  O   UNL A   1      37.828  33.818  37.058  1.00  0.00    -0.377 OA
BRANCH  31  32
ATOM     32  C   UNL A   1      37.454  32.694  37.848  1.00  0.00     0.188 C 
BRANCH  32  33
ATOM     33  C   UNL A   1      38.080  32.494  39.247  1.00  0.00     0.188 C 
BRANCH  33  34
ATOM     34  O   UNL A   1      38.950  33.551  39.646  1.00  0.00    -0.376 OA
BRANCH  34  35
ATOM     35  C   UNL A   1      39.967  33.257  40.590  1.00  0.00     0.202 C 
BRANCH  35  36
ATOM     36  C   UNL A   1      41.397  33.604  40.155  1.00  0.00     0.261 C 
BRANCH  36  37
ATOM     37  O   UNL A   1      41.867  34.903  40.535  1.00  0.00    -0.460 OA
BRANCH  37  38
ATOM     38  C   UNL A   1      41.815  35.888  39.611  1.00  0.00     0.338 C 
ATOM     39  O   UNL A   1      41.666  37.078  39.821  1.00  0.00    -0.246 OA
BRANCH  38  40
ATOM     40  C   UNL A   1      42.176  35.284  38.309  1.00  0.00     0.060 A 
ATOM     41  C   UNL A   1      43.518  35.101  37.970  1.00  0.00     0.016 A 
ATOM     42  C   UNL A   1      41.163  34.938  37.405  1.00  0.00     0.016 A 
ATOM     43  C   UNL A   1      43.846  34.534  36.739  1.00  0.00     0.010 A 
ATOM     44  C   UNL A   1      41.493  34.367  36.172  1.00  0.00     0.010 A 
ATOM     45  C   UNL A   1      42.836  34.134  35.844  1.00  0.00    -0.014 A 
BRANCH  45  46
ATOM     46  C   UNL A   1      43.202  33.270  34.692  1.00  0.00     0.031 A 
ATOM     47  C   UNL A   1      43.426  31.796  34.824  1.00  0.00     0.074 A 
ATOM     48  C   UNL A   1      43.313  33.867  33.490  1.00  0.00     0.049 A 
ATOM     49  N   UNL A   1      43.589  30.911  33.875  1.00  0.00    -0.248 NA
ATOM     50  C   UNL A   1      43.486  31.242  36.183  1.00  0.00     0.031 C 
ATOM     51  C   UNL A   1      43.171  35.307  33.268  1.00  0.00     0.029 A 
ATOM     52  N   UNL A   1      43.546  33.356  32.239  1.00  0.00    -0.354 N 
ATOM     53  C   UNL A   1      43.748  29.687  34.514  1.00  0.00     0.074 A 
ATOM     54  C   UNL A   1      43.717  29.956  35.937  1.00  0.00     0.031 C 
ATOM     55  C   UNL A   1      43.275  35.560  31.957  1.00  0.00     0.029 A 
ATOM     56  C   UNL A   1      43.523  34.308  31.246  1.00  0.00     0.049 A 
ATOM     57  H   UNL A   1      43.716  32.401  32.068  1.00  0.00     0.167 HD
ATOM     58  C   UNL A   1      43.886  28.460  33.954  1.00  0.00     0.034 A 
ATOM     59  C   UNL A   1      43.665  34.193  29.909  1.00  0.00     0.034 A 
ATOM     60  C   UNL A   1      43.934  28.227  32.529  1.00  0.00     0.049 A 
ATOM     61  C   UNL A   1      43.815  32.817  29.313  1.00  0.00     0.074 A 
ATOM     62  C   UNL A   1      44.018  27.015  31.865  1.00  0.00     0.029 A 
ATOM     63  N   UNL A   1      43.913  29.212  31.549  1.00  0.00    -0.354 N 
ATOM     64  N   UNL A   1      43.834  31.655  29.923  1.00  0.00    -0.248 NA
ATOM     65  C   UNL A   1      43.936  32.729  27.854  1.00  0.00     0.031 C 
ATOM     66  C   UNL A   1      44.132  27.269  30.498  1.00  0.00     0.029 A 
ATOM     67  C   UNL A   1      44.019  28.634  30.292  1.00  0.00     0.049 A 
ATOM     68  H   UNL A   1      43.835  30.179  31.722  1.00  0.00     0.167 HD
ATOM     69  C   UNL A   1      43.936  30.697  28.919  1.00  0.00     0.074 A 
ATOM     70  C   UNL A   1      43.951  31.416  27.662  1.00  0.00     0.031 C 
ATOM     71  C   UNL A   1      44.013  29.347  29.034  1.00  0.00     0.034 A 
BRANCH  58  72
ATOM     72  C   UNL A   1      43.967  27.249  34.854  1.00  0.00     0.023 A 
ATOM     73  C   UNL A   1      45.213  26.657  35.138  1.00  0.00     0.031 A 
ATOM     74  C   UNL A   1      42.805  26.580  35.282  1.00  0.00     0.131 A 
ATOM     75  C   UNL A   1      45.265  25.414  35.784  1.00  0.00     0.055 A 
ATOM     76  C   UNL A   1      42.864  25.366  35.968  1.00  0.00     0.041 A 
ATOM     77  F   UNL A   1      41.590  27.095  35.029  1.00  0.00    -0.206 F 
ATOM     78  C   UNL A   1      44.099  24.770  36.207  1.00  0.00     0.022 A 
BRANCH  75  79
ATOM     79  S   UNL A   1      46.840  24.545  36.024  1.00  0.00     0.124 S 
ATOM     80  O   UNL A   1      46.722  23.443  35.071  1.00  0.00    -0.237 OA
ATOM     81  O   UNL A   1      47.815  25.574  35.671  1.00  0.00    -0.237 OA
ATOM     82  O   UNL A   1      46.815  24.154  37.430  1.00  0.00    -0.744 OA
ENDBRANCH  75  79
ENDBRANCH  58  72
BRANCH  59  83
ATOM     83  C   UNL A   1      43.575  35.420  29.068  1.00  0.00     0.023 A 
ATOM     84  C   UNL A   1      44.717  36.198  28.806  1.00  0.00     0.031 A 
ATOM     85  C   UNL A   1      42.332  35.903  28.624  1.00  0.00     0.131 A 
ATOM     86  C   UNL A   1      44.584  37.449  28.191  1.00  0.00     0.055 A 
ATOM     87  C   UNL A   1      42.214  37.114  27.939  1.00  0.00     0.041 A 
ATOM     88  F   UNL A   1      41.210  35.208  28.868  1.00  0.00    -0.206 F 
ATOM     89  C   UNL A   1      43.342  37.903  27.737  1.00  0.00     0.022 A 
BRANCH  86  90
ATOM     90  S   UNL A   1      45.991  38.592  28.099  1.00  0.00     0.124 S 
ATOM     91  O   UNL A   1      45.994  38.957  26.686  1.00  0.00    -0.237 OA
ATOM     92  O   UNL A   1      45.578  39.645  29.023  1.00  0.00    -0.237 OA
ATOM     93  O   UNL A   1      47.121  37.783  28.545  1.00  0.00    -0.744 OA
ENDBRANCH  86  90
ENDBRANCH  59  83
BRANCH  71  94
ATOM     94  C   UNL A   1      44.103  28.512  27.775  1.00  0.00     0.023 A 
ATOM     95  C   UNL A   1      45.359  28.279  27.179  1.00  0.00     0.031 A 
ATOM     96  C   UNL A   1      42.955  28.087  27.085  1.00  0.00     0.131 A 
ATOM     97  C   UNL A   1      45.433  27.686  25.912  1.00  0.00     0.055 A 
ATOM     98  C   UNL A   1      43.038  27.443  25.849  1.00  0.00     0.041 A 
ATOM     99  F   UNL A   1      41.732  28.296  27.600  1.00  0.00    -0.206 F 
ATOM    100  C   UNL A   1      44.279  27.256  25.249  1.00  0.00     0.022 A 
BRANCH  97 101
ATOM    101  S   UNL A   1      47.014  27.547  25.034  1.00  0.00     0.124 S 
ATOM    102  O   UNL A   1      47.454  26.208  25.415  1.00  0.00    -0.237 OA
ATOM    103  O   UNL A   1      46.605  27.696  23.640  1.00  0.00    -0.237 OA
ATOM    104  O   UNL A   1      47.815  28.642  25.573  1.00  0.00    -0.744 OA
ENDBRANCH  97 101
ENDBRANCH  71  94
ENDBRANCH  45  46
ENDBRANCH  38  40
ENDBRANCH  37  38
ENDBRANCH  36  37
ENDBRANCH  35  36
ENDBRANCH  34  35
ENDBRANCH  33  34
ENDBRANCH  32  33
ENDBRANCH  31  32
ENDBRANCH   1  31
TORSDOF 29
ENDMDL
