MODEL 1
REMARK VINA RESULT:     -10.0      0.000      0.000
REMARK SMILES O=C(OCCOCCOCCOCCOC(=O)c1cccc(Nc2ccnc3ccc(F)cc23)c1)c1ccc(-c2c3nc(c(-c4cc(S(=O)(=O)[O-])ccc4F)c4ccc([nH]4)c(-c4cc(S(=O)(=O)[O-])ccc4F)c4nc(c(-c5cc(S(=O)(=O)[O-])ccc5F)c5ccc2[nH]5)C=C4)C=C3)cc1
REMARK SMILES IDX 8 1 7 2 6 3 5 4 4 5 3 6 2 7 1 8 36 9 37 10 98 11 38 12 97 13
REMARK SMILES IDX 39 14 40 15 41 16 91 17 42 18 96 19 90 20 92 21 43 22 95 23
REMARK SMILES IDX 89 24 88 25 44 27 76 28 56 29 75 30 57 31 60 32 74 33 93 34
REMARK SMILES IDX 58 35 59 36 73 38 94 39 61 40 45 41 46 42 54 43 47 44 53 45
REMARK SMILES IDX 55 46 52 47 48 48 49 49 50 50 51 51 77 52 78 53 86 54 79 55
REMARK SMILES IDX 85 56 87 57 84 58 80 59 81 60 82 61 83 62 62 63 63 64 71 65
REMARK SMILES IDX 64 66 70 67 72 68 69 69 65 70 66 71 67 72 68 73 9 74 10 75
REMARK SMILES IDX 11 76 12 77 13 78 14 79 15 80 16 81 17 82 18 83 19 84 35 85
REMARK SMILES IDX 20 86 22 87 21 88 23 89 24 91 25 92 34 93 26 94 28 95 33 96
REMARK SMILES IDX 27 97 29 98 31 99 30 100 32 101
REMARK H PARENT 92 26 60 37 23 90
REMARK Flexibility Score: inf
ROOT
ATOM      1  C   UNL A   1      33.677  30.581  27.483  1.00  0.00     0.188 C 
ENDROOT
BRANCH   1   2
ATOM      2  C   UNL A   1      34.522  31.843  27.647  1.00  0.00     0.188 C 
BRANCH   2   3
ATOM      3  O   UNL A   1      33.994  32.710  28.646  1.00  0.00    -0.376 OA
BRANCH   3   4
ATOM      4  C   UNL A   1      34.137  34.115  28.446  1.00  0.00     0.202 C 
BRANCH   4   5
ATOM      5  C   UNL A   1      32.950  34.974  28.882  1.00  0.00     0.261 C 
BRANCH   5   6
ATOM      6  O   UNL A   1      33.103  35.569  30.178  1.00  0.00    -0.460 OA
BRANCH   6   7
ATOM      7  C   UNL A   1      33.323  34.958  31.368  1.00  0.00     0.338 C 
ATOM      8  O   UNL A   1      32.424  35.000  32.208  1.00  0.00    -0.246 OA
BRANCH   7   9
ATOM      9  C   UNL A   1      34.595  34.269  31.750  1.00  0.00     0.060 A 
ATOM     10  C   UNL A   1      34.689  32.996  32.308  1.00  0.00     0.016 A 
ATOM     11  C   UNL A   1      35.793  34.917  31.410  1.00  0.00     0.016 A 
ATOM     12  C   UNL A   1      35.904  32.376  32.537  1.00  0.00     0.010 A 
ATOM     13  C   UNL A   1      37.030  34.301  31.628  1.00  0.00     0.010 A 
ATOM     14  C   UNL A   1      37.079  33.025  32.198  1.00  0.00    -0.014 A 
BRANCH  14  15
ATOM     15  C   UNL A   1      38.335  32.386  32.605  1.00  0.00     0.031 A 
ATOM     16  C   UNL A   1      38.979  31.460  31.625  1.00  0.00     0.074 A 
ATOM     17  C   UNL A   1      38.932  32.760  33.751  1.00  0.00     0.049 A 
ATOM     18  N   UNL A   1      40.016  30.690  31.779  1.00  0.00    -0.248 NA
ATOM     19  C   UNL A   1      38.378  31.407  30.280  1.00  0.00     0.031 C 
ATOM     20  C   UNL A   1      38.443  33.807  34.657  1.00  0.00     0.029 A 
ATOM     21  N   UNL A   1      40.085  32.323  34.345  1.00  0.00    -0.354 N 
ATOM     22  C   UNL A   1      40.161  30.019  30.571  1.00  0.00     0.074 A 
ATOM     23  C   UNL A   1      39.123  30.489  29.685  1.00  0.00     0.031 C 
ATOM     24  C   UNL A   1      39.286  33.917  35.696  1.00  0.00     0.029 A 
ATOM     25  C   UNL A   1      40.312  32.890  35.578  1.00  0.00     0.049 A 
ATOM     26  H   UNL A   1      40.692  31.669  33.929  1.00  0.00     0.167 HD
ATOM     27  C   UNL A   1      41.074  29.072  30.264  1.00  0.00     0.034 A 
ATOM     28  C   UNL A   1      41.206  32.545  36.527  1.00  0.00     0.034 A 
ATOM     29  C   UNL A   1      42.081  28.647  31.197  1.00  0.00     0.049 A 
ATOM     30  C   UNL A   1      42.125  31.389  36.206  1.00  0.00     0.074 A 
ATOM     31  C   UNL A   1      43.046  27.672  31.044  1.00  0.00     0.029 A 
ATOM     32  N   UNL A   1      42.237  29.173  32.476  1.00  0.00    -0.354 N 
ATOM     33  N   UNL A   1      42.230  30.707  35.085  1.00  0.00    -0.248 NA
ATOM     34  C   UNL A   1      43.026  30.939  37.271  1.00  0.00     0.031 C 
ATOM     35  C   UNL A   1      43.728  27.550  32.257  1.00  0.00     0.029 A 
ATOM     36  C   UNL A   1      43.248  28.508  33.142  1.00  0.00     0.049 A 
ATOM     37  H   UNL A   1      41.706  29.912  32.850  1.00  0.00     0.167 HD
ATOM     38  C   UNL A   1      43.218  29.755  35.310  1.00  0.00     0.074 A 
ATOM     39  C   UNL A   1      43.700  29.977  36.659  1.00  0.00     0.031 C 
ATOM     40  C   UNL A   1      43.685  28.777  34.492  1.00  0.00     0.034 A 
BRANCH  27  41
ATOM     41  C   UNL A   1      40.925  28.366  28.943  1.00  0.00     0.023 A 
ATOM     42  C   UNL A   1      40.318  27.104  28.825  1.00  0.00     0.031 A 
ATOM     43  C   UNL A   1      41.455  28.958  27.784  1.00  0.00     0.131 A 
ATOM     44  C   UNL A   1      40.301  26.456  27.579  1.00  0.00     0.055 A 
ATOM     45  C   UNL A   1      41.374  28.339  26.536  1.00  0.00     0.041 A 
ATOM     46  F   UNL A   1      42.084  30.142  27.849  1.00  0.00    -0.206 F 
ATOM     47  C   UNL A   1      40.801  27.075  26.430  1.00  0.00     0.022 A 
BRANCH  44  48
ATOM     48  S   UNL A   1      39.722  24.738  27.497  1.00  0.00     0.124 S 
ATOM     49  O   UNL A   1      38.786  24.688  28.618  1.00  0.00    -0.237 OA
ATOM     50  O   UNL A   1      39.126  24.667  26.167  1.00  0.00    -0.237 OA
ATOM     51  O   UNL A   1      40.942  23.954  27.676  1.00  0.00    -0.744 OA
ENDBRANCH  44  48
ENDBRANCH  27  41
BRANCH  28  52
ATOM     52  C   UNL A   1      41.194  33.182  37.879  1.00  0.00     0.023 A 
ATOM     53  C   UNL A   1      40.347  32.717  38.897  1.00  0.00     0.031 A 
ATOM     54  C   UNL A   1      41.955  34.338  38.146  1.00  0.00     0.131 A 
ATOM     55  C   UNL A   1      40.229  33.439  40.098  1.00  0.00     0.055 A 
ATOM     56  C   UNL A   1      41.891  35.008  39.369  1.00  0.00     0.041 A 
ATOM     57  F   UNL A   1      42.773  34.848  37.210  1.00  0.00    -0.206 F 
ATOM     58  C   UNL A   1      41.007  34.572  40.347  1.00  0.00     0.022 A 
BRANCH  55  59
ATOM     59  S   UNL A   1      38.927  32.964  41.269  1.00  0.00     0.124 S 
ATOM     60  O   UNL A   1      39.278  33.757  42.441  1.00  0.00    -0.237 OA
ATOM     61  O   UNL A   1      37.719  33.370  40.557  1.00  0.00    -0.237 OA
ATOM     62  O   UNL A   1      39.109  31.522  41.413  1.00  0.00    -0.744 OA
ENDBRANCH  55  59
ENDBRANCH  28  52
BRANCH  40  63
ATOM     63  C   UNL A   1      44.782  27.909  35.041  1.00  0.00     0.023 A 
ATOM     64  C   UNL A   1      44.497  26.685  35.668  1.00  0.00     0.031 A 
ATOM     65  C   UNL A   1      46.125  28.299  34.909  1.00  0.00     0.131 A 
ATOM     66  C   UNL A   1      45.545  25.912  36.183  1.00  0.00     0.055 A 
ATOM     67  C   UNL A   1      47.167  27.494  35.362  1.00  0.00     0.041 A 
ATOM     68  F   UNL A   1      46.444  29.463  34.318  1.00  0.00    -0.206 F 
ATOM     69  C   UNL A   1      46.879  26.296  36.013  1.00  0.00     0.022 A 
BRANCH  66  70
ATOM     70  S   UNL A   1      45.136  24.433  37.146  1.00  0.00     0.124 S 
ATOM     71  O   UNL A   1      44.845  23.461  36.096  1.00  0.00    -0.237 OA
ATOM     72  O   UNL A   1      46.360  24.204  37.905  1.00  0.00    -0.237 OA
ATOM     73  O   UNL A   1      43.983  24.851  37.940  1.00  0.00    -0.744 OA
ENDBRANCH  66  70
ENDBRANCH  40  63
ENDBRANCH  14  15
ENDBRANCH   7   9
ENDBRANCH   6   7
ENDBRANCH   5   6
ENDBRANCH   4   5
ENDBRANCH   3   4
ENDBRANCH   2   3
ENDBRANCH   1   2
BRANCH   1  74
ATOM     74  O   UNL A   1      33.945  29.829  26.306  1.00  0.00    -0.377 OA
BRANCH  74  75
ATOM     75  C   UNL A   1      32.833  29.601  25.447  1.00  0.00     0.188 C 
BRANCH  75  76
ATOM     76  C   UNL A   1      33.079  29.130  23.992  1.00  0.00     0.188 C 
BRANCH  76  77
ATOM     77  O   UNL A   1      32.199  28.114  23.540  1.00  0.00    -0.376 OA
BRANCH  77  78
ATOM     78  C   UNL A   1      30.901  28.143  24.129  1.00  0.00     0.202 C 
BRANCH  78  79
ATOM     79  C   UNL A   1      30.126  26.812  24.083  1.00  0.00     0.261 C 
BRANCH  79  80
ATOM     80  O   UNL A   1      30.048  26.105  25.343  1.00  0.00    -0.460 OA
BRANCH  80  81
ATOM     81  C   UNL A   1      31.018  26.300  26.262  1.00  0.00     0.338 C 
ATOM     82  O   UNL A   1      30.998  27.089  27.193  1.00  0.00    -0.246 OA
BRANCH  81  83
ATOM     83  C   UNL A   1      31.994  25.184  26.126  1.00  0.00     0.062 A 
ATOM     84  C   UNL A   1      33.241  25.491  25.556  1.00  0.00     0.016 A 
ATOM     85  C   UNL A   1      31.767  23.907  26.658  1.00  0.00     0.041 A 
ATOM     86  C   UNL A   1      34.290  24.576  25.617  1.00  0.00     0.003 A 
ATOM     87  C   UNL A   1      32.782  22.931  26.566  1.00  0.00     0.039 A 
ATOM     88  C   UNL A   1      34.059  23.299  26.115  1.00  0.00     0.026 A 
BRANCH  87  89
ATOM     89  N   UNL A   1      32.447  21.537  26.481  1.00  0.00    -0.355 N 
ATOM     90  H   UNL A   1      32.358  20.968  27.278  1.00  0.00     0.167 HD
BRANCH  89  91
ATOM     91  C   UNL A   1      32.253  21.036  25.150  1.00  0.00     0.050 A 
ATOM     92  C   UNL A   1      31.828  21.950  24.178  1.00  0.00     0.047 A 
ATOM     93  C   UNL A   1      32.557  19.709  24.759  1.00  0.00     0.027 A 
ATOM     94  C   UNL A   1      31.904  21.598  22.855  1.00  0.00     0.114 A 
ATOM     95  C   UNL A   1      32.425  19.423  23.377  1.00  0.00     0.072 A 
ATOM     96  C   UNL A   1      32.976  18.670  25.624  1.00  0.00     0.051 A 
ATOM     97  N   UNL A   1      32.167  20.349  22.445  1.00  0.00    -0.256 NA
ATOM     98  C   UNL A   1      32.553  18.119  22.933  1.00  0.00     0.032 A 
ATOM     99  C   UNL A   1      33.120  17.372  25.135  1.00  0.00     0.124 A 
ATOM    100  C   UNL A   1      32.866  17.081  23.805  1.00  0.00     0.041 A 
ATOM    101  F   UNL A   1      33.487  16.383  25.960  1.00  0.00    -0.207 F 
ENDBRANCH  89  91
ENDBRANCH  87  89
ENDBRANCH  81  83
ENDBRANCH  80  81
ENDBRANCH  79  80
ENDBRANCH  78  79
ENDBRANCH  77  78
ENDBRANCH  76  77
ENDBRANCH  75  76
ENDBRANCH  74  75
ENDBRANCH   1  74
TORSDOF 25
ENDMDL
MODEL 2
REMARK VINA RESULT:      -9.4      8.256      9.715
REMARK SMILES O=C(OCCOCCOCCOCCOC(=O)c1cccc(Nc2ccnc3ccc(F)cc23)c1)c1ccc(-c2c3nc(c(-c4cc(S(=O)(=O)[O-])ccc4F)c4ccc([nH]4)c(-c4cc(S(=O)(=O)[O-])ccc4F)c4nc(c(-c5cc(S(=O)(=O)[O-])ccc5F)c5ccc2[nH]5)C=C4)C=C3)cc1
REMARK SMILES IDX 8 1 7 2 6 3 5 4 4 5 3 6 2 7 1 8 36 9 37 10 98 11 38 12 97 13
REMARK SMILES IDX 39 14 40 15 41 16 91 17 42 18 96 19 90 20 92 21 43 22 95 23
REMARK SMILES IDX 89 24 88 25 44 27 76 28 56 29 75 30 57 31 60 32 74 33 93 34
REMARK SMILES IDX 58 35 59 36 73 38 94 39 61 40 45 41 46 42 54 43 47 44 53 45
REMARK SMILES IDX 55 46 52 47 48 48 49 49 50 50 51 51 77 52 78 53 86 54 79 55
REMARK SMILES IDX 85 56 87 57 84 58 80 59 81 60 82 61 83 62 62 63 63 64 71 65
REMARK SMILES IDX 64 66 70 67 72 68 69 69 65 70 66 71 67 72 68 73 9 74 10 75
REMARK SMILES IDX 11 76 12 77 13 78 14 79 15 80 16 81 17 82 18 83 19 84 35 85
REMARK SMILES IDX 20 86 22 87 21 88 23 89 24 91 25 92 34 93 26 94 28 95 33 96
REMARK SMILES IDX 27 97 29 98 31 99 30 100 32 101
REMARK H PARENT 92 26 60 37 23 90
REMARK Flexibility Score: inf
ROOT
ATOM      1  C   UNL A   1      33.406  30.156  27.282  1.00  0.00     0.188 C 
ENDROOT
BRANCH   1   2
ATOM      2  C   UNL A   1      34.124  31.476  27.551  1.00  0.00     0.188 C 
BRANCH   2   3
ATOM      3  O   UNL A   1      34.502  31.607  28.918  1.00  0.00    -0.376 OA
BRANCH   3   4
ATOM      4  C   UNL A   1      35.105  32.834  29.325  1.00  0.00     0.202 C 
BRANCH   4   5
ATOM      5  C   UNL A   1      35.693  32.852  30.736  1.00  0.00     0.261 C 
BRANCH   5   6
ATOM      6  O   UNL A   1      36.554  33.969  30.996  1.00  0.00    -0.460 OA
BRANCH   6   7
ATOM      7  C   UNL A   1      37.786  33.973  31.561  1.00  0.00     0.338 C 
ATOM      8  O   UNL A   1      37.861  33.775  32.774  1.00  0.00    -0.246 OA
BRANCH   7   9
ATOM      9  C   UNL A   1      39.060  34.240  30.824  1.00  0.00     0.060 A 
ATOM     10  C   UNL A   1      39.158  34.602  29.481  1.00  0.00     0.016 A 
ATOM     11  C   UNL A   1      40.242  34.237  31.581  1.00  0.00     0.016 A 
ATOM     12  C   UNL A   1      40.362  34.940  28.892  1.00  0.00     0.010 A 
ATOM     13  C   UNL A   1      41.467  34.583  31.001  1.00  0.00     0.010 A 
ATOM     14  C   UNL A   1      41.521  34.932  29.648  1.00  0.00    -0.014 A 
BRANCH  14  15
ATOM     15  C   UNL A   1      42.785  35.147  28.935  1.00  0.00     0.031 A 
ATOM     16  C   UNL A   1      43.649  33.951  28.699  1.00  0.00     0.074 A 
ATOM     17  C   UNL A   1      43.048  36.350  28.393  1.00  0.00     0.049 A 
ATOM     18  N   UNL A   1      44.850  33.886  28.205  1.00  0.00    -0.248 NA
ATOM     19  C   UNL A   1      43.070  32.643  29.060  1.00  0.00     0.031 C 
ATOM     20  C   UNL A   1      42.146  37.507  28.426  1.00  0.00     0.029 A 
ATOM     21  N   UNL A   1      44.136  36.799  27.695  1.00  0.00    -0.354 N 
ATOM     22  C   UNL A   1      45.194  32.541  28.243  1.00  0.00     0.074 A 
ATOM     23  C   UNL A   1      44.069  31.819  28.786  1.00  0.00     0.031 C 
ATOM     24  C   UNL A   1      42.728  38.536  27.788  1.00  0.00     0.029 A 
ATOM     25  C   UNL A   1      44.073  38.140  27.391  1.00  0.00     0.049 A 
ATOM     26  H   UNL A   1      44.888  36.220  27.436  1.00  0.00     0.167 HD
ATOM     27  C   UNL A   1      46.371  31.985  27.878  1.00  0.00     0.034 A 
ATOM     28  C   UNL A   1      45.035  38.957  26.919  1.00  0.00     0.034 A 
ATOM     29  C   UNL A   1      47.454  32.765  27.346  1.00  0.00     0.049 A 
ATOM     30  C   UNL A   1      46.385  38.332  26.649  1.00  0.00     0.074 A 
ATOM     31  C   UNL A   1      48.717  32.350  26.971  1.00  0.00     0.029 A 
ATOM     32  N   UNL A   1      47.399  34.139  27.128  1.00  0.00    -0.354 N 
ATOM     33  N   UNL A   1      46.739  37.067  26.740  1.00  0.00    -0.248 NA
ATOM     34  C   UNL A   1      47.466  39.232  26.238  1.00  0.00     0.031 C 
ATOM     35  C   UNL A   1      49.450  33.484  26.609  1.00  0.00     0.029 A 
ATOM     36  C   UNL A   1      48.620  34.596  26.674  1.00  0.00     0.049 A 
ATOM     37  H   UNL A   1      46.605  34.701  27.276  1.00  0.00     0.167 HD
ATOM     38  C   UNL A   1      48.083  37.022  26.385  1.00  0.00     0.074 A 
ATOM     39  C   UNL A   1      48.462  38.380  26.045  1.00  0.00     0.031 C 
ATOM     40  C   UNL A   1      48.937  35.967  26.350  1.00  0.00     0.034 A 
BRANCH  27  41
ATOM     41  C   UNL A   1      46.569  30.523  28.173  1.00  0.00     0.023 A 
ATOM     42  C   UNL A   1      46.329  29.520  27.219  1.00  0.00     0.031 A 
ATOM     43  C   UNL A   1      46.961  30.129  29.464  1.00  0.00     0.131 A 
ATOM     44  C   UNL A   1      46.437  28.170  27.589  1.00  0.00     0.055 A 
ATOM     45  C   UNL A   1      47.134  28.788  29.806  1.00  0.00     0.041 A 
ATOM     46  F   UNL A   1      47.161  31.046  30.425  1.00  0.00    -0.206 F 
ATOM     47  C   UNL A   1      46.863  27.798  28.867  1.00  0.00     0.022 A 
BRANCH  44  48
ATOM     48  S   UNL A   1      45.902  26.897  26.412  1.00  0.00     0.124 S 
ATOM     49  O   UNL A   1      44.475  27.188  26.290  1.00  0.00    -0.237 OA
ATOM     50  O   UNL A   1      46.714  27.188  25.236  1.00  0.00    -0.237 OA
ATOM     51  O   UNL A   1      46.218  25.643  27.094  1.00  0.00    -0.744 OA
ENDBRANCH  44  48
ENDBRANCH  27  41
BRANCH  28  52
ATOM     52  C   UNL A   1      44.821  40.432  26.802  1.00  0.00     0.023 A 
ATOM     53  C   UNL A   1      44.460  41.023  25.581  1.00  0.00     0.031 A 
ATOM     54  C   UNL A   1      45.077  41.293  27.888  1.00  0.00     0.131 A 
ATOM     55  C   UNL A   1      44.436  42.423  25.457  1.00  0.00     0.055 A 
ATOM     56  C   UNL A   1      44.977  42.681  27.780  1.00  0.00     0.041 A 
ATOM     57  F   UNL A   1      45.444  40.796  29.081  1.00  0.00    -0.206 F 
ATOM     58  C   UNL A   1      44.676  43.256  26.552  1.00  0.00     0.022 A 
BRANCH  55  59
ATOM     59  S   UNL A   1      44.238  43.142  23.803  1.00  0.00     0.124 S 
ATOM     60  O   UNL A   1      43.414  42.139  23.140  1.00  0.00    -0.237 OA
ATOM     61  O   UNL A   1      43.586  44.413  24.103  1.00  0.00    -0.237 OA
ATOM     62  O   UNL A   1      45.610  43.247  23.312  1.00  0.00    -0.744 OA
ENDBRANCH  55  59
ENDBRANCH  28  52
BRANCH  40  63
ATOM     63  C   UNL A   1      50.344  36.257  25.905  1.00  0.00     0.023 A 
ATOM     64  C   UNL A   1      51.397  36.342  26.829  1.00  0.00     0.031 A 
ATOM     65  C   UNL A   1      50.633  36.421  24.540  1.00  0.00     0.131 A 
ATOM     66  C   UNL A   1      52.691  36.631  26.379  1.00  0.00     0.055 A 
ATOM     67  C   UNL A   1      51.933  36.641  24.091  1.00  0.00     0.041 A 
ATOM     68  F   UNL A   1      49.656  36.350  23.621  1.00  0.00    -0.206 F 
ATOM     69  C   UNL A   1      52.970  36.757  25.014  1.00  0.00     0.022 A 
BRANCH  66  70
ATOM     70  S   UNL A   1      53.991  36.916  27.607  1.00  0.00     0.124 S 
ATOM     71  O   UNL A   1      54.770  35.685  27.512  1.00  0.00    -0.237 OA
ATOM     72  O   UNL A   1      54.640  38.121  27.104  1.00  0.00    -0.237 OA
ATOM     73  O   UNL A   1      53.250  37.086  28.855  1.00  0.00    -0.744 OA
ENDBRANCH  66  70
ENDBRANCH  40  63
ENDBRANCH  14  15
ENDBRANCH   7   9
ENDBRANCH   6   7
ENDBRANCH   5   6
ENDBRANCH   4   5
ENDBRANCH   3   4
ENDBRANCH   2   3
ENDBRANCH   1   2
BRANCH   1  74
ATOM     74  O   UNL A   1      33.825  29.474  26.106  1.00  0.00    -0.377 OA
BRANCH  74  75
ATOM     75  C   UNL A   1      32.862  29.387  25.061  1.00  0.00     0.188 C 
BRANCH  75  76
ATOM     76  C   UNL A   1      32.990  28.266  23.999  1.00  0.00     0.188 C 
BRANCH  76  77
ATOM     77  O   UNL A   1      31.756  27.737  23.542  1.00  0.00    -0.376 OA
BRANCH  77  78
ATOM     78  C   UNL A   1      30.733  27.667  24.533  1.00  0.00     0.202 C 
BRANCH  78  79
ATOM     79  C   UNL A   1      30.639  26.329  25.290  1.00  0.00     0.261 C 
BRANCH  79  80
ATOM     80  O   UNL A   1      31.800  25.992  26.084  1.00  0.00    -0.460 OA
BRANCH  80  81
ATOM     81  C   UNL A   1      31.891  24.754  26.615  1.00  0.00     0.338 C 
ATOM     82  O   UNL A   1      31.053  24.183  27.294  1.00  0.00    -0.246 OA
BRANCH  81  83
ATOM     83  C   UNL A   1      33.064  24.084  25.990  1.00  0.00     0.062 A 
ATOM     84  C   UNL A   1      33.787  24.819  25.035  1.00  0.00     0.016 A 
ATOM     85  C   UNL A   1      33.538  22.833  26.410  1.00  0.00     0.041 A 
ATOM     86  C   UNL A   1      35.027  24.370  24.588  1.00  0.00     0.003 A 
ATOM     87  C   UNL A   1      34.712  22.309  25.826  1.00  0.00     0.039 A 
ATOM     88  C   UNL A   1      35.484  23.116  24.978  1.00  0.00     0.026 A 
BRANCH  87  89
ATOM     89  N   UNL A   1      34.894  20.890  25.706  1.00  0.00    -0.355 N 
ATOM     90  H   UNL A   1      35.599  20.406  26.193  1.00  0.00     0.167 HD
BRANCH  89  91
ATOM     91  C   UNL A   1      33.975  20.228  24.825  1.00  0.00     0.050 A 
ATOM     92  C   UNL A   1      32.997  21.021  24.209  1.00  0.00     0.047 A 
ATOM     93  C   UNL A   1      34.066  18.859  24.478  1.00  0.00     0.027 A 
ATOM     94  C   UNL A   1      32.289  20.504  23.155  1.00  0.00     0.114 A 
ATOM     95  C   UNL A   1      33.152  18.403  23.495  1.00  0.00     0.072 A 
ATOM     96  C   UNL A   1      34.983  17.929  25.026  1.00  0.00     0.051 A 
ATOM     97  N   UNL A   1      32.332  19.209  22.810  1.00  0.00    -0.256 NA
ATOM     98  C   UNL A   1      33.070  17.052  23.211  1.00  0.00     0.032 A 
ATOM     99  C   UNL A   1      34.885  16.578  24.696  1.00  0.00     0.124 A 
ATOM    100  C   UNL A   1      33.905  16.126  23.827  1.00  0.00     0.041 A 
ATOM    101  F   UNL A   1      35.733  15.694  25.238  1.00  0.00    -0.207 F 
ENDBRANCH  89  91
ENDBRANCH  87  89
ENDBRANCH  81  83
ENDBRANCH  80  81
ENDBRANCH  79  80
ENDBRANCH  78  79
ENDBRANCH  77  78
ENDBRANCH  76  77
ENDBRANCH  75  76
ENDBRANCH  74  75
ENDBRANCH   1  74
TORSDOF 25
ENDMDL
MODEL 3
REMARK VINA RESULT:      -8.9      8.491     10.574
REMARK SMILES O=C(OCCOCCOCCOCCOC(=O)c1cccc(Nc2ccnc3ccc(F)cc23)c1)c1ccc(-c2c3nc(c(-c4cc(S(=O)(=O)[O-])ccc4F)c4ccc([nH]4)c(-c4cc(S(=O)(=O)[O-])ccc4F)c4nc(c(-c5cc(S(=O)(=O)[O-])ccc5F)c5ccc2[nH]5)C=C4)C=C3)cc1
REMARK SMILES IDX 8 1 7 2 6 3 5 4 4 5 3 6 2 7 1 8 36 9 37 10 98 11 38 12 97 13
REMARK SMILES IDX 39 14 40 15 41 16 91 17 42 18 96 19 90 20 92 21 43 22 95 23
REMARK SMILES IDX 89 24 88 25 44 27 76 28 56 29 75 30 57 31 60 32 74 33 93 34
REMARK SMILES IDX 58 35 59 36 73 38 94 39 61 40 45 41 46 42 54 43 47 44 53 45
REMARK SMILES IDX 55 46 52 47 48 48 49 49 50 50 51 51 77 52 78 53 86 54 79 55
REMARK SMILES IDX 85 56 87 57 84 58 80 59 81 60 82 61 83 62 62 63 63 64 71 65
REMARK SMILES IDX 64 66 70 67 72 68 69 69 65 70 66 71 67 72 68 73 9 74 10 75
REMARK SMILES IDX 11 76 12 77 13 78 14 79 15 80 16 81 17 82 18 83 19 84 35 85
REMARK SMILES IDX 20 86 22 87 21 88 23 89 24 91 25 92 34 93 26 94 28 95 33 96
REMARK SMILES IDX 27 97 29 98 31 99 30 100 32 101
REMARK H PARENT 92 26 60 37 23 90
REMARK Flexibility Score: inf
ROOT
ATOM      1  C   UNL A   1      38.555  28.165  29.664  1.00  0.00     0.188 C 
ENDROOT
BRANCH   1   2
ATOM      2  C   UNL A   1      37.302  28.996  29.931  1.00  0.00     0.188 C 
BRANCH   2   3
ATOM      3  O   UNL A   1      37.137  30.034  28.968  1.00  0.00    -0.376 OA
BRANCH   3   4
ATOM      4  C   UNL A   1      37.275  31.381  29.416  1.00  0.00     0.202 C 
BRANCH   4   5
ATOM      5  C   UNL A   1      37.641  31.559  30.889  1.00  0.00     0.261 C 
BRANCH   5   6
ATOM      6  O   UNL A   1      37.218  32.809  31.450  1.00  0.00    -0.460 OA
BRANCH   6   7
ATOM      7  C   UNL A   1      37.886  33.987  31.491  1.00  0.00     0.338 C 
ATOM      8  O   UNL A   1      37.398  34.900  32.157  1.00  0.00    -0.246 OA
BRANCH   7   9
ATOM      9  C   UNL A   1      39.157  34.271  30.754  1.00  0.00     0.060 A 
ATOM     10  C   UNL A   1      39.246  34.689  29.427  1.00  0.00     0.016 A 
ATOM     11  C   UNL A   1      40.345  34.223  31.498  1.00  0.00     0.016 A 
ATOM     12  C   UNL A   1      40.448  35.039  28.840  1.00  0.00     0.010 A 
ATOM     13  C   UNL A   1      41.569  34.579  30.922  1.00  0.00     0.010 A 
ATOM     14  C   UNL A   1      41.614  34.986  29.584  1.00  0.00    -0.014 A 
BRANCH  14  15
ATOM     15  C   UNL A   1      42.874  35.217  28.868  1.00  0.00     0.031 A 
ATOM     16  C   UNL A   1      43.709  34.020  28.550  1.00  0.00     0.074 A 
ATOM     17  C   UNL A   1      43.156  36.445  28.396  1.00  0.00     0.049 A 
ATOM     18  N   UNL A   1      44.903  33.961  28.037  1.00  0.00    -0.248 NA
ATOM     19  C   UNL A   1      43.107  32.705  28.840  1.00  0.00     0.031 C 
ATOM     20  C   UNL A   1      42.279  37.616  28.510  1.00  0.00     0.029 A 
ATOM     21  N   UNL A   1      44.244  36.913  27.711  1.00  0.00    -0.354 N 
ATOM     22  C   UNL A   1      45.219  32.609  27.991  1.00  0.00     0.074 A 
ATOM     23  C   UNL A   1      44.085  31.878  28.504  1.00  0.00     0.031 C 
ATOM     24  C   UNL A   1      42.874  38.669  27.926  1.00  0.00     0.029 A 
ATOM     25  C   UNL A   1      44.206  38.271  27.488  1.00  0.00     0.049 A 
ATOM     26  H   UNL A   1      44.981  36.335  27.408  1.00  0.00     0.167 HD
ATOM     27  C   UNL A   1      46.378  32.052  27.577  1.00  0.00     0.034 A 
ATOM     28  C   UNL A   1      45.180  39.094  27.053  1.00  0.00     0.034 A 
ATOM     29  C   UNL A   1      47.472  32.840  27.078  1.00  0.00     0.049 A 
ATOM     30  C   UNL A   1      46.513  38.459  26.729  1.00  0.00     0.074 A 
ATOM     31  C   UNL A   1      48.721  32.422  26.663  1.00  0.00     0.029 A 
ATOM     32  N   UNL A   1      47.443  34.225  26.943  1.00  0.00    -0.354 N 
ATOM     33  N   UNL A   1      46.841  37.184  26.739  1.00  0.00    -0.248 NA
ATOM     34  C   UNL A   1      47.607  39.360  26.358  1.00  0.00     0.031 C 
ATOM     35  C   UNL A   1      49.473  33.560  26.359  1.00  0.00     0.029 A 
ATOM     36  C   UNL A   1      48.668  34.684  26.501  1.00  0.00     0.049 A 
ATOM     37  H   UNL A   1      46.663  34.794  27.135  1.00  0.00     0.167 HD
ATOM     38  C   UNL A   1      48.179  37.133  26.364  1.00  0.00     0.074 A 
ATOM     39  C   UNL A   1      48.583  38.500  26.101  1.00  0.00     0.031 C 
ATOM     40  C   UNL A   1      49.011  36.065  26.255  1.00  0.00     0.034 A 
BRANCH  27  41
ATOM     41  C   UNL A   1      46.550  30.571  27.781  1.00  0.00     0.023 A 
ATOM     42  C   UNL A   1      46.275  29.632  26.774  1.00  0.00     0.031 A 
ATOM     43  C   UNL A   1      46.951  30.093  29.041  1.00  0.00     0.131 A 
ATOM     44  C   UNL A   1      46.359  28.260  27.061  1.00  0.00     0.055 A 
ATOM     45  C   UNL A   1      47.099  28.730  29.300  1.00  0.00     0.041 A 
ATOM     46  F   UNL A   1      47.183  30.946  30.052  1.00  0.00    -0.206 F 
ATOM     47  C   UNL A   1      46.794  27.803  28.308  1.00  0.00     0.022 A 
BRANCH  44  48
ATOM     48  S   UNL A   1      45.780  27.071  25.818  1.00  0.00     0.124 S 
ATOM     49  O   UNL A   1      46.932  26.996  24.922  1.00  0.00    -0.237 OA
ATOM     50  O   UNL A   1      45.516  25.879  26.617  1.00  0.00    -0.237 OA
ATOM     51  O   UNL A   1      44.597  27.714  25.250  1.00  0.00    -0.744 OA
ENDBRANCH  44  48
ENDBRANCH  27  41
BRANCH  28  52
ATOM     52  C   UNL A   1      44.995  40.577  27.027  1.00  0.00     0.023 A 
ATOM     53  C   UNL A   1      44.570  41.240  25.866  1.00  0.00     0.031 A 
ATOM     54  C   UNL A   1      45.343  41.374  28.137  1.00  0.00     0.131 A 
ATOM     55  C   UNL A   1      44.573  42.645  25.816  1.00  0.00     0.055 A 
ATOM     56  C   UNL A   1      45.271  42.767  28.108  1.00  0.00     0.041 A 
ATOM     57  F   UNL A   1      45.774  40.806  29.276  1.00  0.00    -0.206 F 
ATOM     58  C   UNL A   1      44.905  43.413  26.934  1.00  0.00     0.022 A 
BRANCH  55  59
ATOM     59  S   UNL A   1      44.286  43.456  24.219  1.00  0.00     0.124 S 
ATOM     60  O   UNL A   1      45.405  42.956  23.427  1.00  0.00    -0.237 OA
ATOM     61  O   UNL A   1      42.967  42.949  23.857  1.00  0.00    -0.237 OA
ATOM     62  O   UNL A   1      44.339  44.879  24.544  1.00  0.00    -0.744 OA
ENDBRANCH  55  59
ENDBRANCH  28  52
BRANCH  40  63
ATOM     63  C   UNL A   1      50.417  36.352  25.810  1.00  0.00     0.023 A 
ATOM     64  C   UNL A   1      51.464  36.472  26.737  1.00  0.00     0.031 A 
ATOM     65  C   UNL A   1      50.713  36.478  24.442  1.00  0.00     0.131 A 
ATOM     66  C   UNL A   1      52.758  36.758  26.285  1.00  0.00     0.055 A 
ATOM     67  C   UNL A   1      52.014  36.693  23.994  1.00  0.00     0.041 A 
ATOM     68  F   UNL A   1      49.742  36.371  23.520  1.00  0.00    -0.206 F 
ATOM     69  C   UNL A   1      53.045  36.845  24.919  1.00  0.00     0.022 A 
BRANCH  66  70
ATOM     70  S   UNL A   1      54.049  37.089  27.512  1.00  0.00     0.124 S 
ATOM     71  O   UNL A   1      55.197  37.400  26.666  1.00  0.00    -0.237 OA
ATOM     72  O   UNL A   1      53.490  38.208  28.263  1.00  0.00    -0.237 OA
ATOM     73  O   UNL A   1      54.146  35.833  28.252  1.00  0.00    -0.744 OA
ENDBRANCH  66  70
ENDBRANCH  40  63
ENDBRANCH  14  15
ENDBRANCH   7   9
ENDBRANCH   6   7
ENDBRANCH   5   6
ENDBRANCH   4   5
ENDBRANCH   3   4
ENDBRANCH   2   3
ENDBRANCH   1   2
BRANCH   1  74
ATOM     74  O   UNL A   1      39.405  28.673  28.643  1.00  0.00    -0.377 OA
BRANCH  74  75
ATOM     75  C   UNL A   1      40.803  28.590  28.900  1.00  0.00     0.188 C 
BRANCH  75  76
ATOM     76  C   UNL A   1      41.350  27.428  29.767  1.00  0.00     0.188 C 
BRANCH  76  77
ATOM     77  O   UNL A   1      42.373  26.661  29.154  1.00  0.00    -0.376 OA
BRANCH  77  78
ATOM     78  C   UNL A   1      42.391  26.720  27.729  1.00  0.00     0.202 C 
BRANCH  78  79
ATOM     79  C   UNL A   1      41.870  25.462  27.010  1.00  0.00     0.261 C 
BRANCH  79  80
ATOM     80  O   UNL A   1      40.980  24.633  27.793  1.00  0.00    -0.460 OA
BRANCH  80  81
ATOM     81  C   UNL A   1      39.651  24.707  27.566  1.00  0.00     0.338 C 
ATOM     82  O   UNL A   1      38.923  25.665  27.774  1.00  0.00    -0.246 OA
BRANCH  81  83
ATOM     83  C   UNL A   1      39.270  23.524  26.746  1.00  0.00     0.062 A 
ATOM     84  C   UNL A   1      40.201  22.475  26.665  1.00  0.00     0.016 A 
ATOM     85  C   UNL A   1      37.996  23.369  26.182  1.00  0.00     0.041 A 
ATOM     86  C   UNL A   1      39.833  21.243  26.132  1.00  0.00     0.003 A 
ATOM     87  C   UNL A   1      37.687  22.175  25.495  1.00  0.00     0.039 A 
ATOM     88  C   UNL A   1      38.582  21.096  25.543  1.00  0.00     0.026 A 
BRANCH  87  89
ATOM     89  N   UNL A   1      36.745  22.182  24.412  1.00  0.00    -0.355 N 
ATOM     90  H   UNL A   1      37.019  22.302  23.475  1.00  0.00     0.167 HD
BRANCH  89  91
ATOM     91  C   UNL A   1      35.373  22.000  24.794  1.00  0.00     0.050 A 
ATOM     92  C   UNL A   1      34.904  20.683  24.881  1.00  0.00     0.047 A 
ATOM     93  C   UNL A   1      34.516  23.061  25.174  1.00  0.00     0.027 A 
ATOM     94  C   UNL A   1      33.709  20.443  25.510  1.00  0.00     0.114 A 
ATOM     95  C   UNL A   1      33.234  22.686  25.646  1.00  0.00     0.072 A 
ATOM     96  C   UNL A   1      34.838  24.439  25.123  1.00  0.00     0.051 A 
ATOM     97  N   UNL A   1      32.861  21.419  25.865  1.00  0.00    -0.256 NA
ATOM     98  C   UNL A   1      32.283  23.661  25.891  1.00  0.00     0.032 A 
ATOM     99  C   UNL A   1      33.860  25.393  25.403  1.00  0.00     0.124 A 
ATOM    100  C   UNL A   1      32.572  25.013  25.741  1.00  0.00     0.041 A 
ATOM    101  F   UNL A   1      34.156  26.696  25.324  1.00  0.00    -0.207 F 
ENDBRANCH  89  91
ENDBRANCH  87  89
ENDBRANCH  81  83
ENDBRANCH  80  81
ENDBRANCH  79  80
ENDBRANCH  78  79
ENDBRANCH  77  78
ENDBRANCH  76  77
ENDBRANCH  75  76
ENDBRANCH  74  75
ENDBRANCH   1  74
TORSDOF 25
ENDMDL
