MODEL 1
REMARK VINA RESULT:      -7.4      0.000      0.000
REMARK SMILES Cc1cscc1CNC(=O)CC(C)(C)C(=O)OCCOCCOCCOCCOC(=O)c1ccc(-c2c3nc(c(-c4cc(S(=O)(=O)[O-])ccc4F)c4ccc([nH]4)c(-c4cc(S(=O)(=O)[O-])ccc4F)c4nc(c(-c5cc(S(=O)(=O)[O-])ccc5F)c5ccc2[nH]5)C=C4)C=C3)cc1
REMARK SMILES IDX 22 1 21 2 20 3 19 4 18 5 17 6 15 7 16 8 12 9 13 10 14 11
REMARK SMILES IDX 11 12 9 13 8 14 10 16 7 17 6 18 1 19 2 20 3 21 4 22 5 23
REMARK SMILES IDX 23 24 24 25 25 26 26 27 27 28 28 29 29 30 30 31 31 32 32 33
REMARK SMILES IDX 33 34 94 35 34 36 93 37 35 38 36 39 37 40 87 41 38 42 92 43
REMARK SMILES IDX 86 44 88 45 39 46 91 47 85 48 84 49 40 51 72 52 52 53 71 54
REMARK SMILES IDX 53 55 56 56 70 57 89 58 54 59 55 60 69 62 90 63 57 64 41 65
REMARK SMILES IDX 42 66 50 67 43 68 49 69 51 70 48 71 44 72 45 73 46 74 47 75
REMARK SMILES IDX 73 76 74 77 82 78 75 79 81 80 83 81 80 82 76 83 77 84 78 85
REMARK SMILES IDX 79 86 58 87 59 88 67 89 60 90 66 91 68 92 65 93 61 94 62 95
REMARK SMILES IDX 63 96 64 97
REMARK H PARENT 8 15 88 50 56 61
REMARK Flexibility Score: inf
ROOT
ATOM      1  C   UNL A   1      46.228  25.034  25.137  1.00  0.00     0.188 C 
ENDROOT
BRANCH   1   2
ATOM      2  C   UNL A   1      47.506  25.797  24.792  1.00  0.00     0.188 C 
BRANCH   2   3
ATOM      3  O   UNL A   1      47.432  27.132  24.356  1.00  0.00    -0.376 OA
BRANCH   3   4
ATOM      4  C   UNL A   1      46.405  28.040  24.709  1.00  0.00     0.202 C 
BRANCH   4   5
ATOM      5  C   UNL A   1      45.733  28.271  26.083  1.00  0.00     0.261 C 
BRANCH   5   6
ATOM      6  O   UNL A   1      45.085  29.517  26.379  1.00  0.00    -0.463 OA
BRANCH   6   7
ATOM      7  C   UNL A   1      45.926  30.573  26.332  1.00  0.00     0.312 C 
ATOM      8  O   UNL A   1      47.000  30.492  25.748  1.00  0.00    -0.252 OA
BRANCH   7   9
ATOM      9  C   UNL A   1      45.477  31.824  27.121  1.00  0.00     0.071 C 
ATOM     10  C   UNL A   1      46.547  32.076  28.194  1.00  0.00     0.024 C 
ATOM     11  C   UNL A   1      44.167  31.699  27.944  1.00  0.00     0.024 C 
BRANCH   9  12
ATOM     12  C   UNL A   1      45.312  33.035  26.142  1.00  0.00     0.118 C 
BRANCH  12  13
ATOM     13  C   UNL A   1      46.282  34.216  26.229  1.00  0.00     0.221 C 
ATOM     14  N   UNL A   1      46.159  35.164  27.196  1.00  0.00    -0.352 N 
ATOM     15  H   UNL A   1      46.955  35.724  27.345  1.00  0.00     0.163 HD
ATOM     16  O   UNL A   1      47.194  34.333  25.404  1.00  0.00    -0.275 OA
BRANCH  14  17
ATOM     17  C   UNL A   1      45.030  35.463  28.031  1.00  0.00     0.152 C 
BRANCH  17  18
ATOM     18  C   UNL A   1      44.259  36.688  27.611  1.00  0.00    -0.015 A 
ATOM     19  C   UNL A   1      42.603  35.345  26.126  1.00  0.00     0.045 C 
ATOM     20  C   UNL A   1      43.073  36.601  26.780  1.00  0.00    -0.035 A 
ATOM     21  C   UNL A   1      42.415  37.814  26.693  1.00  0.00     0.068 A 
ATOM     22  S   UNL A   1      43.245  39.070  27.490  1.00  0.00    -0.152 S 
ATOM     23  C   UNL A   1      44.495  38.006  27.962  1.00  0.00     0.070 A 
ENDBRANCH  17  18
ENDBRANCH  14  17
ENDBRANCH  12  13
ENDBRANCH   9  12
ENDBRANCH   7   9
ENDBRANCH   6   7
ENDBRANCH   5   6
ENDBRANCH   4   5
ENDBRANCH   3   4
ENDBRANCH   2   3
ENDBRANCH   1   2
BRANCH   1  24
ATOM     24  O   UNL A   1      45.968  23.835  24.444  1.00  0.00    -0.377 OA
BRANCH  24  25
ATOM     25  C   UNL A   1      45.921  22.606  25.156  1.00  0.00     0.188 C 
BRANCH  25  26
ATOM     26  C   UNL A   1      46.220  21.277  24.438  1.00  0.00     0.188 C 
BRANCH  26  27
ATOM     27  O   UNL A   1      46.330  20.150  25.292  1.00  0.00    -0.376 OA
BRANCH  27  28
ATOM     28  C   UNL A   1      45.542  19.001  25.019  1.00  0.00     0.202 C 
BRANCH  28  29
ATOM     29  C   UNL A   1      44.015  19.164  24.922  1.00  0.00     0.261 C 
BRANCH  29  30
ATOM     30  O   UNL A   1      43.339  19.681  26.079  1.00  0.00    -0.460 OA
BRANCH  30  31
ATOM     31  C   UNL A   1      42.128  20.248  25.902  1.00  0.00     0.338 C 
ATOM     32  O   UNL A   1      41.136  19.717  25.428  1.00  0.00    -0.246 OA
BRANCH  31  33
ATOM     33  C   UNL A   1      42.136  21.564  26.572  1.00  0.00     0.060 A 
ATOM     34  C   UNL A   1      42.368  22.712  25.803  1.00  0.00     0.016 A 
ATOM     35  C   UNL A   1      41.931  21.665  27.950  1.00  0.00     0.016 A 
ATOM     36  C   UNL A   1      42.465  23.957  26.419  1.00  0.00     0.010 A 
ATOM     37  C   UNL A   1      42.050  22.911  28.571  1.00  0.00     0.010 A 
ATOM     38  C   UNL A   1      42.372  24.052  27.813  1.00  0.00    -0.014 A 
BRANCH  38  39
ATOM     39  C   UNL A   1      42.888  25.269  28.487  1.00  0.00     0.031 A 
ATOM     40  C   UNL A   1      41.882  26.291  28.951  1.00  0.00     0.074 A 
ATOM     41  C   UNL A   1      44.197  25.442  28.740  1.00  0.00     0.049 A 
ATOM     42  N   UNL A   1      42.070  27.445  29.535  1.00  0.00    -0.248 NA
ATOM     43  C   UNL A   1      40.469  25.959  28.711  1.00  0.00     0.031 C 
ATOM     44  C   UNL A   1      45.255  24.492  28.407  1.00  0.00     0.029 A 
ATOM     45  N   UNL A   1      44.855  26.484  29.343  1.00  0.00    -0.354 N 
ATOM     46  C   UNL A   1      40.799  27.978  29.732  1.00  0.00     0.074 A 
ATOM     47  C   UNL A   1      39.858  27.047  29.151  1.00  0.00     0.031 C 
ATOM     48  C   UNL A   1      46.433  24.994  28.818  1.00  0.00     0.029 A 
ATOM     49  C   UNL A   1      46.218  26.317  29.402  1.00  0.00     0.049 A 
ATOM     50  H   UNL A   1      44.394  27.277  29.701  1.00  0.00     0.167 HD
ATOM     51  C   UNL A   1      40.447  29.130  30.356  1.00  0.00     0.034 A 
ATOM     52  C   UNL A   1      47.177  27.149  29.859  1.00  0.00     0.034 A 
ATOM     53  C   UNL A   1      41.401  30.058  30.909  1.00  0.00     0.049 A 
ATOM     54  C   UNL A   1      46.773  28.487  30.435  1.00  0.00     0.074 A 
ATOM     55  C   UNL A   1      41.164  31.262  31.548  1.00  0.00     0.029 A 
ATOM     56  N   UNL A   1      42.781  29.892  30.880  1.00  0.00    -0.354 N 
ATOM     57  N   UNL A   1      45.572  28.991  30.603  1.00  0.00    -0.248 NA
ATOM     58  C   UNL A   1      47.859  29.365  30.890  1.00  0.00     0.031 C 
ATOM     59  C   UNL A   1      42.397  31.860  31.828  1.00  0.00     0.029 A 
ATOM     60  C   UNL A   1      43.406  30.986  31.457  1.00  0.00     0.049 A 
ATOM     61  H   UNL A   1      43.246  29.110  30.504  1.00  0.00     0.167 HD
ATOM     62  C   UNL A   1      45.759  30.223  31.229  1.00  0.00     0.074 A 
ATOM     63  C   UNL A   1      47.187  30.380  31.411  1.00  0.00     0.031 C 
ATOM     64  C   UNL A   1      44.834  31.135  31.629  1.00  0.00     0.034 A 
BRANCH  51  65
ATOM     65  C   UNL A   1      38.973  29.462  30.404  1.00  0.00     0.023 A 
ATOM     66  C   UNL A   1      38.406  30.438  29.566  1.00  0.00     0.031 A 
ATOM     67  C   UNL A   1      38.135  28.845  31.350  1.00  0.00     0.131 A 
ATOM     68  C   UNL A   1      37.075  30.839  29.756  1.00  0.00     0.055 A 
ATOM     69  C   UNL A   1      36.784  29.177  31.466  1.00  0.00     0.041 A 
ATOM     70  F   UNL A   1      38.622  27.924  32.197  1.00  0.00    -0.206 F 
ATOM     71  C   UNL A   1      36.252  30.195  30.681  1.00  0.00     0.022 A 
BRANCH  68  72
ATOM     72  S   UNL A   1      36.496  32.341  28.917  1.00  0.00     0.124 S 
ATOM     73  O   UNL A   1      37.740  33.094  28.771  1.00  0.00    -0.237 OA
ATOM     74  O   UNL A   1      35.921  31.812  27.686  1.00  0.00    -0.237 OA
ATOM     75  O   UNL A   1      35.538  32.912  29.861  1.00  0.00    -0.744 OA
ENDBRANCH  68  72
ENDBRANCH  51  65
BRANCH  52  76
ATOM     76  C   UNL A   1      48.617  26.763  29.781  1.00  0.00     0.023 A 
ATOM     77  C   UNL A   1      49.365  27.001  28.617  1.00  0.00     0.031 A 
ATOM     78  C   UNL A   1      49.249  26.093  30.844  1.00  0.00     0.131 A 
ATOM     79  C   UNL A   1      50.685  26.531  28.524  1.00  0.00     0.055 A 
ATOM     80  C   UNL A   1      50.581  25.681  30.769  1.00  0.00     0.041 A 
ATOM     81  F   UNL A   1      48.578  25.833  31.977  1.00  0.00    -0.206 F 
ATOM     82  C   UNL A   1      51.303  25.887  29.598  1.00  0.00     0.022 A 
BRANCH  79  83
ATOM     83  S   UNL A   1      51.553  26.688  26.938  1.00  0.00     0.124 S 
ATOM     84  O   UNL A   1      52.581  27.671  27.261  1.00  0.00    -0.237 OA
ATOM     85  O   UNL A   1      52.017  25.323  26.710  1.00  0.00    -0.237 OA
ATOM     86  O   UNL A   1      50.510  27.150  26.026  1.00  0.00    -0.744 OA
ENDBRANCH  79  83
ENDBRANCH  52  76
BRANCH  64  87
ATOM     87  C   UNL A   1      45.337  32.355  32.368  1.00  0.00     0.023 A 
ATOM     88  C   UNL A   1      45.714  33.533  31.700  1.00  0.00     0.031 A 
ATOM     89  C   UNL A   1      45.452  32.328  33.771  1.00  0.00     0.131 A 
ATOM     90  C   UNL A   1      46.250  34.609  32.426  1.00  0.00     0.055 A 
ATOM     91  C   UNL A   1      45.915  33.428  34.494  1.00  0.00     0.041 A 
ATOM     92  F   UNL A   1      45.111  31.230  34.464  1.00  0.00    -0.206 F 
ATOM     93  C   UNL A   1      46.332  34.571  33.820  1.00  0.00     0.022 A 
BRANCH  90  94
ATOM     94  S   UNL A   1      46.947  36.014  31.515  1.00  0.00     0.124 S 
ATOM     95  O   UNL A   1      47.619  35.350  30.402  1.00  0.00    -0.237 OA
ATOM     96  O   UNL A   1      45.757  36.785  31.172  1.00  0.00    -0.237 OA
ATOM     97  O   UNL A   1      47.836  36.646  32.489  1.00  0.00    -0.744 OA
ENDBRANCH  90  94
ENDBRANCH  64  87
ENDBRANCH  38  39
ENDBRANCH  31  33
ENDBRANCH  30  31
ENDBRANCH  29  30
ENDBRANCH  28  29
ENDBRANCH  27  28
ENDBRANCH  26  27
ENDBRANCH  25  26
ENDBRANCH  24  25
ENDBRANCH   1  24
TORSDOF 27
ENDMDL
MODEL 2
REMARK VINA RESULT:      -6.6      3.697      9.747
REMARK SMILES Cc1cscc1CNC(=O)CC(C)(C)C(=O)OCCOCCOCCOCCOC(=O)c1ccc(-c2c3nc(c(-c4cc(S(=O)(=O)[O-])ccc4F)c4ccc([nH]4)c(-c4cc(S(=O)(=O)[O-])ccc4F)c4nc(c(-c5cc(S(=O)(=O)[O-])ccc5F)c5ccc2[nH]5)C=C4)C=C3)cc1
REMARK SMILES IDX 22 1 21 2 20 3 19 4 18 5 17 6 15 7 16 8 12 9 13 10 14 11
REMARK SMILES IDX 11 12 9 13 8 14 10 16 7 17 6 18 1 19 2 20 3 21 4 22 5 23
REMARK SMILES IDX 23 24 24 25 25 26 26 27 27 28 28 29 29 30 30 31 31 32 32 33
REMARK SMILES IDX 33 34 94 35 34 36 93 37 35 38 36 39 37 40 87 41 38 42 92 43
REMARK SMILES IDX 86 44 88 45 39 46 91 47 85 48 84 49 40 51 72 52 52 53 71 54
REMARK SMILES IDX 53 55 56 56 70 57 89 58 54 59 55 60 69 62 90 63 57 64 41 65
REMARK SMILES IDX 42 66 50 67 43 68 49 69 51 70 48 71 44 72 45 73 46 74 47 75
REMARK SMILES IDX 73 76 74 77 82 78 75 79 81 80 83 81 80 82 76 83 77 84 78 85
REMARK SMILES IDX 79 86 58 87 59 88 67 89 60 90 66 91 68 92 65 93 61 94 62 95
REMARK SMILES IDX 63 96 64 97
REMARK H PARENT 8 15 88 50 56 61
REMARK Flexibility Score: inf
ROOT
ATOM      1  C   UNL A   1      37.882  33.603  33.945  1.00  0.00     0.188 C 
ENDROOT
BRANCH   1   2
ATOM      2  C   UNL A   1      38.877  34.762  33.957  1.00  0.00     0.188 C 
BRANCH   2   3
ATOM      3  O   UNL A   1      40.048  34.691  33.182  1.00  0.00    -0.376 OA
BRANCH   3   4
ATOM      4  C   UNL A   1      41.362  34.815  33.692  1.00  0.00     0.202 C 
BRANCH   4   5
ATOM      5  C   UNL A   1      42.609  35.458  33.041  1.00  0.00     0.261 C 
BRANCH   5   6
ATOM      6  O   UNL A   1      43.297  34.797  31.969  1.00  0.00    -0.463 OA
BRANCH   6   7
ATOM      7  C   UNL A   1      43.073  35.371  30.767  1.00  0.00     0.312 C 
ATOM      8  O   UNL A   1      43.284  36.564  30.594  1.00  0.00    -0.252 OA
BRANCH   7   9
ATOM      9  C   UNL A   1      42.468  34.446  29.686  1.00  0.00     0.071 C 
ATOM     10  C   UNL A   1      41.213  35.155  29.152  1.00  0.00     0.024 C 
ATOM     11  C   UNL A   1      41.927  33.072  30.162  1.00  0.00     0.024 C 
BRANCH   9  12
ATOM     12  C   UNL A   1      43.528  34.179  28.565  1.00  0.00     0.118 C 
BRANCH  12  13
ATOM     13  C   UNL A   1      44.781  35.054  28.483  1.00  0.00     0.221 C 
ATOM     14  N   UNL A   1      44.760  36.265  27.864  1.00  0.00    -0.352 N 
ATOM     15  H   UNL A   1      45.508  36.866  28.082  1.00  0.00     0.163 HD
ATOM     16  O   UNL A   1      45.845  34.664  28.974  1.00  0.00    -0.275 OA
BRANCH  14  17
ATOM     17  C   UNL A   1      43.799  36.788  26.934  1.00  0.00     0.152 C 
BRANCH  17  18
ATOM     18  C   UNL A   1      43.289  38.164  27.282  1.00  0.00    -0.015 A 
ATOM     19  C   UNL A   1      45.350  39.371  26.261  1.00  0.00     0.045 C 
ATOM     20  C   UNL A   1      43.995  39.366  26.885  1.00  0.00    -0.035 A 
ATOM     21  C   UNL A   1      43.248  40.505  27.126  1.00  0.00     0.068 A 
ATOM     22  S   UNL A   1      41.776  40.170  27.914  1.00  0.00    -0.152 S 
ATOM     23  C   UNL A   1      42.119  38.497  27.942  1.00  0.00     0.070 A 
ENDBRANCH  17  18
ENDBRANCH  14  17
ENDBRANCH  12  13
ENDBRANCH   9  12
ENDBRANCH   7   9
ENDBRANCH   6   7
ENDBRANCH   5   6
ENDBRANCH   4   5
ENDBRANCH   3   4
ENDBRANCH   2   3
ENDBRANCH   1   2
BRANCH   1  24
ATOM     24  O   UNL A   1      36.701  33.755  33.191  1.00  0.00    -0.377 OA
BRANCH  24  25
ATOM     25  C   UNL A   1      35.951  32.607  32.817  1.00  0.00     0.188 C 
BRANCH  25  26
ATOM     26  C   UNL A   1      34.781  32.729  31.823  1.00  0.00     0.188 C 
BRANCH  26  27
ATOM     27  O   UNL A   1      35.165  32.880  30.467  1.00  0.00    -0.376 OA
BRANCH  27  28
ATOM     28  C   UNL A   1      34.269  33.513  29.566  1.00  0.00     0.202 C 
BRANCH  28  29
ATOM     29  C   UNL A   1      33.950  32.813  28.233  1.00  0.00     0.261 C 
BRANCH  29  30
ATOM     30  O   UNL A   1      35.039  32.163  27.560  1.00  0.00    -0.460 OA
BRANCH  30  31
ATOM     31  C   UNL A   1      35.161  30.827  27.698  1.00  0.00     0.338 C 
ATOM     32  O   UNL A   1      34.553  29.971  27.076  1.00  0.00    -0.246 OA
BRANCH  31  33
ATOM     33  C   UNL A   1      36.311  30.562  28.586  1.00  0.00     0.060 A 
ATOM     34  C   UNL A   1      37.471  31.333  28.438  1.00  0.00     0.016 A 
ATOM     35  C   UNL A   1      36.252  29.551  29.548  1.00  0.00     0.016 A 
ATOM     36  C   UNL A   1      38.600  31.051  29.204  1.00  0.00     0.010 A 
ATOM     37  C   UNL A   1      37.392  29.253  30.300  1.00  0.00     0.010 A 
ATOM     38  C   UNL A   1      38.585  29.968  30.090  1.00  0.00    -0.014 A 
BRANCH  38  39
ATOM     39  C   UNL A   1      39.875  29.415  30.572  1.00  0.00     0.031 A 
ATOM     40  C   UNL A   1      40.501  28.301  29.772  1.00  0.00     0.074 A 
ATOM     41  C   UNL A   1      40.509  29.918  31.646  1.00  0.00     0.049 A 
ATOM     42  N   UNL A   1      41.601  27.629  29.990  1.00  0.00    -0.248 NA
ATOM     43  C   UNL A   1      39.774  27.890  28.561  1.00  0.00     0.031 C 
ATOM     44  C   UNL A   1      40.041  31.040  32.455  1.00  0.00     0.029 A 
ATOM     45  N   UNL A   1      41.692  29.546  32.234  1.00  0.00    -0.354 N 
ATOM     46  C   UNL A   1      41.697  26.715  28.945  1.00  0.00     0.074 A 
ATOM     47  C   UNL A   1      40.513  26.883  28.131  1.00  0.00     0.031 C 
ATOM     48  C   UNL A   1      40.933  31.271  33.434  1.00  0.00     0.029 A 
ATOM     49  C   UNL A   1      42.011  30.286  33.347  1.00  0.00     0.049 A 
ATOM     50  H   UNL A   1      42.258  28.818  31.891  1.00  0.00     0.167 HD
ATOM     51  C   UNL A   1      42.688  25.829  28.678  1.00  0.00     0.034 A 
ATOM     52  C   UNL A   1      43.047  30.165  34.203  1.00  0.00     0.034 A 
ATOM     53  C   UNL A   1      43.850  25.660  29.514  1.00  0.00     0.049 A 
ATOM     54  C   UNL A   1      44.076  29.085  33.961  1.00  0.00     0.074 A 
ATOM     55  C   UNL A   1      44.909  24.785  29.354  1.00  0.00     0.029 A 
ATOM     56  N   UNL A   1      44.101  26.376  30.679  1.00  0.00    -0.354 N 
ATOM     57  N   UNL A   1      44.152  28.214  32.980  1.00  0.00    -0.248 NA
ATOM     58  C   UNL A   1      45.166  28.980  34.940  1.00  0.00     0.031 C 
ATOM     59  C   UNL A   1      45.754  24.912  30.462  1.00  0.00     0.029 A 
ATOM     60  C   UNL A   1      45.278  25.936  31.265  1.00  0.00     0.049 A 
ATOM     61  H   UNL A   1      43.526  27.091  31.037  1.00  0.00     0.167 HD
ATOM     62  C   UNL A   1      45.324  27.492  33.201  1.00  0.00     0.074 A 
ATOM     63  C   UNL A   1      45.922  28.034  34.403  1.00  0.00     0.031 C 
ATOM     64  C   UNL A   1      45.864  26.482  32.469  1.00  0.00     0.034 A 
BRANCH  51  65
ATOM     65  C   UNL A   1      42.509  24.943  27.466  1.00  0.00     0.023 A 
ATOM     66  C   UNL A   1      41.646  23.832  27.482  1.00  0.00     0.031 A 
ATOM     67  C   UNL A   1      43.264  25.168  26.302  1.00  0.00     0.131 A 
ATOM     68  C   UNL A   1      41.635  22.937  26.402  1.00  0.00     0.055 A 
ATOM     69  C   UNL A   1      43.173  24.329  25.190  1.00  0.00     0.041 A 
ATOM     70  F   UNL A   1      44.126  26.195  26.234  1.00  0.00    -0.206 F 
ATOM     71  C   UNL A   1      42.371  23.193  25.244  1.00  0.00     0.022 A 
BRANCH  68  72
ATOM     72  S   UNL A   1      40.799  21.340  26.612  1.00  0.00     0.124 S 
ATOM     73  O   UNL A   1      40.802  21.195  28.066  1.00  0.00    -0.237 OA
ATOM     74  O   UNL A   1      39.500  21.580  25.996  1.00  0.00    -0.237 OA
ATOM     75  O   UNL A   1      41.666  20.404  25.899  1.00  0.00    -0.744 OA
ENDBRANCH  68  72
ENDBRANCH  51  65
BRANCH  52  76
ATOM     76  C   UNL A   1      43.166  31.072  35.384  1.00  0.00     0.023 A 
ATOM     77  C   UNL A   1      43.764  32.336  35.265  1.00  0.00     0.031 A 
ATOM     78  C   UNL A   1      42.741  30.662  36.661  1.00  0.00     0.131 A 
ATOM     79  C   UNL A   1      43.966  33.126  36.409  1.00  0.00     0.055 A 
ATOM     80  C   UNL A   1      42.889  31.476  37.785  1.00  0.00     0.041 A 
ATOM     81  F   UNL A   1      42.169  29.459  36.832  1.00  0.00    -0.206 F 
ATOM     82  C   UNL A   1      43.518  32.711  37.665  1.00  0.00     0.022 A 
BRANCH  79  83
ATOM     83  S   UNL A   1      44.913  34.665  36.245  1.00  0.00     0.124 S 
ATOM     84  O   UNL A   1      45.509  34.506  34.924  1.00  0.00    -0.237 OA
ATOM     85  O   UNL A   1      43.867  35.676  36.362  1.00  0.00    -0.237 OA
ATOM     86  O   UNL A   1      45.849  34.607  37.365  1.00  0.00    -0.744 OA
ENDBRANCH  79  83
ENDBRANCH  52  76
BRANCH  64  87
ATOM     87  C   UNL A   1      47.206  25.945  32.913  1.00  0.00     0.023 A 
ATOM     88  C   UNL A   1      47.323  24.846  33.781  1.00  0.00     0.031 A 
ATOM     89  C   UNL A   1      48.392  26.557  32.463  1.00  0.00     0.131 A 
ATOM     90  C   UNL A   1      48.591  24.436  34.226  1.00  0.00     0.055 A 
ATOM     91  C   UNL A   1      49.652  26.098  32.849  1.00  0.00     0.041 A 
ATOM     92  F   UNL A   1      48.344  27.614  31.636  1.00  0.00    -0.206 F 
ATOM     93  C   UNL A   1      49.756  25.042  33.748  1.00  0.00     0.022 A 
BRANCH  90  94
ATOM     94  S   UNL A   1      48.693  23.176  35.527  1.00  0.00     0.124 S 
ATOM     95  O   UNL A   1      48.833  21.949  34.750  1.00  0.00    -0.237 OA
ATOM     96  O   UNL A   1      49.874  23.595  36.275  1.00  0.00    -0.237 OA
ATOM     97  O   UNL A   1      47.425  23.318  36.241  1.00  0.00    -0.744 OA
ENDBRANCH  90  94
ENDBRANCH  64  87
ENDBRANCH  38  39
ENDBRANCH  31  33
ENDBRANCH  30  31
ENDBRANCH  29  30
ENDBRANCH  28  29
ENDBRANCH  27  28
ENDBRANCH  26  27
ENDBRANCH  25  26
ENDBRANCH  24  25
ENDBRANCH   1  24
TORSDOF 27
ENDMDL
MODEL 3
REMARK VINA RESULT:      -6.4      1.740      2.316
REMARK SMILES Cc1cscc1CNC(=O)CC(C)(C)C(=O)OCCOCCOCCOCCOC(=O)c1ccc(-c2c3nc(c(-c4cc(S(=O)(=O)[O-])ccc4F)c4ccc([nH]4)c(-c4cc(S(=O)(=O)[O-])ccc4F)c4nc(c(-c5cc(S(=O)(=O)[O-])ccc5F)c5ccc2[nH]5)C=C4)C=C3)cc1
REMARK SMILES IDX 22 1 21 2 20 3 19 4 18 5 17 6 15 7 16 8 12 9 13 10 14 11
REMARK SMILES IDX 11 12 9 13 8 14 10 16 7 17 6 18 1 19 2 20 3 21 4 22 5 23
REMARK SMILES IDX 23 24 24 25 25 26 26 27 27 28 28 29 29 30 30 31 31 32 32 33
REMARK SMILES IDX 33 34 94 35 34 36 93 37 35 38 36 39 37 40 87 41 38 42 92 43
REMARK SMILES IDX 86 44 88 45 39 46 91 47 85 48 84 49 40 51 72 52 52 53 71 54
REMARK SMILES IDX 53 55 56 56 70 57 89 58 54 59 55 60 69 62 90 63 57 64 41 65
REMARK SMILES IDX 42 66 50 67 43 68 49 69 51 70 48 71 44 72 45 73 46 74 47 75
REMARK SMILES IDX 73 76 74 77 82 78 75 79 81 80 83 81 80 82 76 83 77 84 78 85
REMARK SMILES IDX 79 86 58 87 59 88 67 89 60 90 66 91 68 92 65 93 61 94 62 95
REMARK SMILES IDX 63 96 64 97
REMARK H PARENT 8 15 88 50 56 61
REMARK Flexibility Score: inf
ROOT
ATOM      1  C   UNL A   1      46.437  25.296  25.286  1.00  0.00     0.188 C 
ENDROOT
BRANCH   1   2
ATOM      2  C   UNL A   1      47.603  26.080  24.686  1.00  0.00     0.188 C 
BRANCH   2   3
ATOM      3  O   UNL A   1      47.352  27.146  23.803  1.00  0.00    -0.376 OA
BRANCH   3   4
ATOM      4  C   UNL A   1      46.703  28.352  24.159  1.00  0.00     0.202 C 
BRANCH   4   5
ATOM      5  C   UNL A   1      46.594  29.033  25.543  1.00  0.00     0.261 C 
BRANCH   5   6
ATOM      6  O   UNL A   1      46.548  30.464  25.652  1.00  0.00    -0.463 OA
BRANCH   6   7
ATOM      7  C   UNL A   1      45.471  30.906  26.338  1.00  0.00     0.312 C 
ATOM      8  O   UNL A   1      44.632  30.121  26.759  1.00  0.00    -0.252 OA
BRANCH   7   9
ATOM      9  C   UNL A   1      45.345  32.441  26.469  1.00  0.00     0.071 C 
ATOM     10  C   UNL A   1      44.832  32.721  27.891  1.00  0.00     0.024 C 
ATOM     11  C   UNL A   1      44.294  33.138  25.566  1.00  0.00     0.024 C 
BRANCH   9  12
ATOM     12  C   UNL A   1      46.733  33.111  26.190  1.00  0.00     0.118 C 
BRANCH  12  13
ATOM     13  C   UNL A   1      47.674  33.419  27.358  1.00  0.00     0.221 C 
ATOM     14  N   UNL A   1      47.970  34.699  27.711  1.00  0.00    -0.352 N 
ATOM     15  H   UNL A   1      48.353  34.814  28.610  1.00  0.00     0.163 HD
ATOM     16  O   UNL A   1      48.193  32.499  27.998  1.00  0.00    -0.275 OA
BRANCH  14  17
ATOM     17  C   UNL A   1      47.802  35.908  26.953  1.00  0.00     0.152 C 
BRANCH  17  18
ATOM     18  C   UNL A   1      49.091  36.625  26.643  1.00  0.00    -0.015 A 
ATOM     19  C   UNL A   1      48.469  38.709  28.065  1.00  0.00     0.045 C 
ATOM     20  C   UNL A   1      49.418  37.906  27.241  1.00  0.00    -0.035 A 
ATOM     21  C   UNL A   1      50.725  38.276  26.980  1.00  0.00     0.068 A 
ATOM     22  S   UNL A   1      51.525  37.181  25.949  1.00  0.00    -0.152 S 
ATOM     23  C   UNL A   1      50.133  36.197  25.839  1.00  0.00     0.070 A 
ENDBRANCH  17  18
ENDBRANCH  14  17
ENDBRANCH  12  13
ENDBRANCH   9  12
ENDBRANCH   7   9
ENDBRANCH   6   7
ENDBRANCH   5   6
ENDBRANCH   4   5
ENDBRANCH   3   4
ENDBRANCH   2   3
ENDBRANCH   1   2
BRANCH   1  24
ATOM     24  O   UNL A   1      46.012  24.131  24.618  1.00  0.00    -0.377 OA
BRANCH  24  25
ATOM     25  C   UNL A   1      46.170  22.864  25.241  1.00  0.00     0.188 C 
BRANCH  25  26
ATOM     26  C   UNL A   1      46.313  21.588  24.391  1.00  0.00     0.188 C 
BRANCH  26  27
ATOM     27  O   UNL A   1      46.487  20.393  25.133  1.00  0.00    -0.376 OA
BRANCH  27  28
ATOM     28  C   UNL A   1      45.478  19.396  25.077  1.00  0.00     0.202 C 
BRANCH  28  29
ATOM     29  C   UNL A   1      44.005  19.838  25.114  1.00  0.00     0.261 C 
BRANCH  29  30
ATOM     30  O   UNL A   1      43.614  20.719  26.179  1.00  0.00    -0.460 OA
BRANCH  30  31
ATOM     31  C   UNL A   1      42.326  21.117  26.229  1.00  0.00     0.338 C 
ATOM     32  O   UNL A   1      41.345  20.453  25.935  1.00  0.00    -0.246 OA
BRANCH  31  33
ATOM     33  C   UNL A   1      42.279  22.431  26.901  1.00  0.00     0.060 A 
ATOM     34  C   UNL A   1      42.261  23.591  26.115  1.00  0.00     0.016 A 
ATOM     35  C   UNL A   1      42.268  22.521  28.294  1.00  0.00     0.016 A 
ATOM     36  C   UNL A   1      42.302  24.845  26.720  1.00  0.00     0.010 A 
ATOM     37  C   UNL A   1      42.332  23.778  28.901  1.00  0.00     0.010 A 
ATOM     38  C   UNL A   1      42.404  24.941  28.113  1.00  0.00    -0.014 A 
BRANCH  38  39
ATOM     39  C   UNL A   1      42.868  26.217  28.713  1.00  0.00     0.031 A 
ATOM     40  C   UNL A   1      41.820  27.169  29.230  1.00  0.00     0.074 A 
ATOM     41  C   UNL A   1      44.174  26.503  28.856  1.00  0.00     0.049 A 
ATOM     42  N   UNL A   1      41.957  28.352  29.769  1.00  0.00    -0.248 NA
ATOM     43  C   UNL A   1      40.425  26.717  29.112  1.00  0.00     0.031 C 
ATOM     44  C   UNL A   1      45.278  25.631  28.463  1.00  0.00     0.029 A 
ATOM     45  N   UNL A   1      44.788  27.613  29.379  1.00  0.00    -0.354 N 
ATOM     46  C   UNL A   1      40.665  28.787  30.053  1.00  0.00     0.074 A 
ATOM     47  C   UNL A   1      39.762  27.764  29.572  1.00  0.00     0.031 C 
ATOM     48  C   UNL A   1      46.439  26.238  28.767  1.00  0.00     0.029 A 
ATOM     49  C   UNL A   1      46.161  27.558  29.333  1.00  0.00     0.049 A 
ATOM     50  H   UNL A   1      44.293  28.377  29.753  1.00  0.00     0.167 HD
ATOM     51  C   UNL A   1      40.268  29.925  30.674  1.00  0.00     0.034 A 
ATOM     52  C   UNL A   1      47.080  28.478  29.692  1.00  0.00     0.034 A 
ATOM     53  C   UNL A   1      41.182  30.943  31.127  1.00  0.00     0.049 A 
ATOM     54  C   UNL A   1      46.613  29.797  30.265  1.00  0.00     0.074 A 
ATOM     55  C   UNL A   1      40.896  32.144  31.753  1.00  0.00     0.029 A 
ATOM     56  N   UNL A   1      42.564  30.888  30.992  1.00  0.00    -0.354 N 
ATOM     57  N   UNL A   1      45.390  30.207  30.515  1.00  0.00    -0.248 NA
ATOM     58  C   UNL A   1      47.655  30.773  30.610  1.00  0.00     0.031 C 
ATOM     59  C   UNL A   1      42.093  32.848  31.918  1.00  0.00     0.029 A 
ATOM     60  C   UNL A   1      43.140  32.047  31.490  1.00  0.00     0.049 A 
ATOM     61  H   UNL A   1      43.063  30.135  30.600  1.00  0.00     0.167 HD
ATOM     62  C   UNL A   1      45.523  31.469  31.094  1.00  0.00     0.074 A 
ATOM     63  C   UNL A   1      46.943  31.746  31.158  1.00  0.00     0.031 C 
ATOM     64  C   UNL A   1      44.560  32.315  31.544  1.00  0.00     0.034 A 
BRANCH  51  65
ATOM     65  C   UNL A   1      38.780  30.138  30.832  1.00  0.00     0.023 A 
ATOM     66  C   UNL A   1      38.010  30.755  29.829  1.00  0.00     0.031 A 
ATOM     67  C   UNL A   1      38.133  29.784  32.029  1.00  0.00     0.131 A 
ATOM     68  C   UNL A   1      36.671  31.090  30.080  1.00  0.00     0.055 A 
ATOM     69  C   UNL A   1      36.774  30.029  32.233  1.00  0.00     0.041 A 
ATOM     70  F   UNL A   1      38.818  29.217  33.035  1.00  0.00    -0.206 F 
ATOM     71  C   UNL A   1      36.039  30.705  31.263  1.00  0.00     0.022 A 
BRANCH  68  72
ATOM     72  S   UNL A   1      35.827  32.203  28.920  1.00  0.00     0.124 S 
ATOM     73  O   UNL A   1      35.896  31.439  27.677  1.00  0.00    -0.237 OA
ATOM     74  O   UNL A   1      34.503  32.335  29.517  1.00  0.00    -0.237 OA
ATOM     75  O   UNL A   1      36.649  33.411  28.947  1.00  0.00    -0.744 OA
ENDBRANCH  68  72
ENDBRANCH  51  65
BRANCH  52  76
ATOM     76  C   UNL A   1      48.537  28.207  29.508  1.00  0.00     0.023 A 
ATOM     77  C   UNL A   1      49.185  28.528  28.305  1.00  0.00     0.031 A 
ATOM     78  C   UNL A   1      49.289  27.565  30.509  1.00  0.00     0.131 A 
ATOM     79  C   UNL A   1      50.527  28.164  28.112  1.00  0.00     0.055 A 
ATOM     80  C   UNL A   1      50.640  27.259  30.336  1.00  0.00     0.041 A 
ATOM     81  F   UNL A   1      48.718  27.228  31.676  1.00  0.00    -0.206 F 
ATOM     82  C   UNL A   1      51.263  27.547  29.126  1.00  0.00     0.022 A 
BRANCH  79  83
ATOM     83  S   UNL A   1      51.271  28.423  26.478  1.00  0.00     0.124 S 
ATOM     84  O   UNL A   1      51.594  27.058  26.080  1.00  0.00    -0.237 OA
ATOM     85  O   UNL A   1      50.182  29.065  25.749  1.00  0.00    -0.237 OA
ATOM     86  O   UNL A   1      52.419  29.281  26.761  1.00  0.00    -0.744 OA
ENDBRANCH  79  83
ENDBRANCH  52  76
BRANCH  64  87
ATOM     87  C   UNL A   1      45.016  33.594  32.210  1.00  0.00     0.023 A 
ATOM     88  C   UNL A   1      45.156  34.800  31.500  1.00  0.00     0.031 A 
ATOM     89  C   UNL A   1      45.328  33.598  33.583  1.00  0.00     0.131 A 
ATOM     90  C   UNL A   1      45.659  35.939  32.149  1.00  0.00     0.055 A 
ATOM     91  C   UNL A   1      45.756  34.753  34.238  1.00  0.00     0.041 A 
ATOM     92  F   UNL A   1      45.218  32.477  34.312  1.00  0.00    -0.206 F 
ATOM     93  C   UNL A   1      45.940  35.928  33.518  1.00  0.00     0.022 A 
BRANCH  90  94
ATOM     94  S   UNL A   1      46.054  37.404  31.154  1.00  0.00     0.124 S 
ATOM     95  O   UNL A   1      47.394  37.738  31.626  1.00  0.00    -0.237 OA
ATOM     96  O   UNL A   1      45.967  36.890  29.792  1.00  0.00    -0.237 OA
ATOM     97  O   UNL A   1      45.011  38.360  31.524  1.00  0.00    -0.744 OA
ENDBRANCH  90  94
ENDBRANCH  64  87
ENDBRANCH  38  39
ENDBRANCH  31  33
ENDBRANCH  30  31
ENDBRANCH  29  30
ENDBRANCH  28  29
ENDBRANCH  27  28
ENDBRANCH  26  27
ENDBRANCH  25  26
ENDBRANCH  24  25
ENDBRANCH   1  24
TORSDOF 27
ENDMDL
