MODEL 1
REMARK VINA RESULT:     -10.8      0.000      0.000
REMARK SMILES O=C(OCCOCCOCCOCCOC(=O)[C@@H]1[C@@H](C(=O)Nc2cccc([N+](=O)[O-])c2)[C@@H]2C=C[C@H]1O2)c1ccc(-c2c3nc(c(-c4cc(S(=O)(=O)[O-])ccc4F)c4ccc([nH]4)c(-c4cc(S(=O)(=O)[O-])ccc4F)c4nc(c(-c5cc(S(=O)(=O)[O-])ccc5F)c5ccc2[nH]5)C=C4)C=C3)cc1
REMARK SMILES IDX 9 1 8 2 7 3 6 4 5 5 4 6 3 7 2 8 1 9 37 10 38 11 99 12 39 13
REMARK SMILES IDX 98 14 40 15 41 16 42 17 92 18 43 19 97 20 91 21 93 22 44 23
REMARK SMILES IDX 96 24 90 25 89 26 45 28 77 29 57 30 76 31 58 32 61 33 75 34
REMARK SMILES IDX 94 35 59 36 60 37 74 39 95 40 62 41 46 42 47 43 55 44 48 45
REMARK SMILES IDX 54 46 56 47 53 48 49 49 50 50 51 51 52 52 78 53 79 54 87 55
REMARK SMILES IDX 80 56 86 57 88 58 85 59 81 60 82 61 83 62 84 63 63 64 64 65
REMARK SMILES IDX 72 66 65 67 71 68 73 69 70 70 66 71 67 72 68 73 69 74 10 75
REMARK SMILES IDX 11 76 12 77 13 78 14 79 15 80 16 81 17 82 18 83 19 84 35 85
REMARK SMILES IDX 32 86 34 87 36 88 33 89 20 90 21 91 22 92 23 94 24 95 31 96
REMARK SMILES IDX 25 97 27 98 26 99 28 100 29 101 30 102
REMARK H PARENT 93 27 61 38 22 93
REMARK Flexibility Score: inf
ROOT
ATOM      1  O   UNL A   1      42.073  19.065  25.461  1.00  0.00    -0.377 OA
ENDROOT
BRANCH   1   2
ATOM      2  C   UNL A   1      43.162  18.438  26.145  1.00  0.00     0.188 C 
BRANCH   2   3
ATOM      3  C   UNL A   1      44.526  18.681  25.498  1.00  0.00     0.188 C 
BRANCH   3   4
ATOM      4  O   UNL A   1      44.538  19.969  24.884  1.00  0.00    -0.376 OA
BRANCH   4   5
ATOM      5  C   UNL A   1      45.757  20.702  25.013  1.00  0.00     0.202 C 
BRANCH   5   6
ATOM      6  C   UNL A   1      45.589  21.988  25.811  1.00  0.00     0.261 C 
BRANCH   6   7
ATOM      7  O   UNL A   1      44.203  22.261  26.057  1.00  0.00    -0.460 OA
BRANCH   7   8
ATOM      8  C   UNL A   1      43.469  23.264  25.512  1.00  0.00     0.338 C 
ATOM      9  O   UNL A   1      43.209  23.207  24.310  1.00  0.00    -0.246 OA
BRANCH   8  10
ATOM     10  C   UNL A   1      42.900  24.410  26.293  1.00  0.00     0.060 A 
ATOM     11  C   UNL A   1      43.133  25.769  26.055  1.00  0.00     0.016 A 
ATOM     12  C   UNL A   1      41.999  24.071  27.315  1.00  0.00     0.016 A 
ATOM     13  C   UNL A   1      42.555  26.762  26.839  1.00  0.00     0.010 A 
ATOM     14  C   UNL A   1      41.408  25.057  28.106  1.00  0.00     0.010 A 
ATOM     15  C   UNL A   1      41.719  26.404  27.888  1.00  0.00    -0.014 A 
BRANCH  15  16
ATOM     16  C   UNL A   1      41.382  27.423  28.895  1.00  0.00     0.031 A 
ATOM     17  C   UNL A   1      42.259  27.490  30.107  1.00  0.00     0.074 A 
ATOM     18  C   UNL A   1      40.386  28.296  28.689  1.00  0.00     0.049 A 
ATOM     19  N   UNL A   1      42.090  28.133  31.226  1.00  0.00    -0.248 NA
ATOM     20  C   UNL A   1      43.504  26.707  30.036  1.00  0.00     0.031 C 
ATOM     21  C   UNL A   1      39.593  28.395  27.464  1.00  0.00     0.029 A 
ATOM     22  N   UNL A   1      39.869  29.264  29.507  1.00  0.00    -0.354 N 
ATOM     23  C   UNL A   1      43.184  27.795  32.016  1.00  0.00     0.074 A 
ATOM     24  C   UNL A   1      44.006  26.891  31.243  1.00  0.00     0.031 C 
ATOM     25  C   UNL A   1      38.667  29.357  27.623  1.00  0.00     0.029 A 
ATOM     26  C   UNL A   1      38.758  29.880  28.983  1.00  0.00     0.049 A 
ATOM     27  H   UNL A   1      40.255  29.496  30.383  1.00  0.00     0.167 HD
ATOM     28  C   UNL A   1      43.450  28.193  33.283  1.00  0.00     0.034 A 
ATOM     29  C   UNL A   1      37.880  30.713  29.575  1.00  0.00     0.034 A 
ATOM     30  C   UNL A   1      42.569  29.072  34.010  1.00  0.00     0.049 A 
ATOM     31  C   UNL A   1      38.123  31.068  31.021  1.00  0.00     0.074 A 
ATOM     32  C   UNL A   1      42.642  29.494  35.322  1.00  0.00     0.029 A 
ATOM     33  N   UNL A   1      41.429  29.657  33.461  1.00  0.00    -0.354 N 
ATOM     34  N   UNL A   1      39.098  30.671  31.812  1.00  0.00    -0.248 NA
ATOM     35  C   UNL A   1      37.154  31.963  31.660  1.00  0.00     0.031 C 
ATOM     36  C   UNL A   1      41.515  30.286  35.583  1.00  0.00     0.029 A 
ATOM     37  C   UNL A   1      40.777  30.419  34.413  1.00  0.00     0.049 A 
ATOM     38  H   UNL A   1      41.130  29.546  32.530  1.00  0.00     0.167 HD
ATOM     39  C   UNL A   1      38.866  31.280  33.041  1.00  0.00     0.074 A 
ATOM     40  C   UNL A   1      37.663  32.076  32.881  1.00  0.00     0.031 C 
ATOM     41  C   UNL A   1      39.576  31.195  34.197  1.00  0.00     0.034 A 
BRANCH  28  42
ATOM     42  C   UNL A   1      44.650  27.560  33.949  1.00  0.00     0.023 A 
ATOM     43  C   UNL A   1      44.527  26.433  34.783  1.00  0.00     0.031 A 
ATOM     44  C   UNL A   1      45.904  28.192  33.881  1.00  0.00     0.131 A 
ATOM     45  C   UNL A   1      45.599  26.053  35.609  1.00  0.00     0.055 A 
ATOM     46  C   UNL A   1      46.995  27.748  34.632  1.00  0.00     0.041 A 
ATOM     47  F   UNL A   1      46.077  29.290  33.128  1.00  0.00    -0.206 F 
ATOM     48  C   UNL A   1      46.840  26.690  35.522  1.00  0.00     0.022 A 
BRANCH  45  49
ATOM     49  S   UNL A   1      45.282  24.872  36.952  1.00  0.00     0.124 S 
ATOM     50  O   UNL A   1      45.800  25.596  38.112  1.00  0.00    -0.237 OA
ATOM     51  O   UNL A   1      43.834  24.710  36.894  1.00  0.00    -0.237 OA
ATOM     52  O   UNL A   1      46.060  23.696  36.567  1.00  0.00    -0.744 OA
ENDBRANCH  45  49
ENDBRANCH  28  42
BRANCH  29  53
ATOM     53  C   UNL A   1      36.664  31.162  28.836  1.00  0.00     0.023 A 
ATOM     54  C   UNL A   1      35.757  30.247  28.279  1.00  0.00     0.031 A 
ATOM     55  C   UNL A   1      36.382  32.535  28.696  1.00  0.00     0.131 A 
ATOM     56  C   UNL A   1      34.616  30.719  27.604  1.00  0.00     0.055 A 
ATOM     57  C   UNL A   1      35.227  32.997  28.063  1.00  0.00     0.041 A 
ATOM     58  F   UNL A   1      37.217  33.454  29.207  1.00  0.00    -0.206 F 
ATOM     59  C   UNL A   1      34.337  32.086  27.507  1.00  0.00     0.022 A 
BRANCH  56  60
ATOM     60  S   UNL A   1      33.504  29.519  26.815  1.00  0.00     0.124 S 
ATOM     61  O   UNL A   1      32.609  29.176  27.914  1.00  0.00    -0.237 OA
ATOM     62  O   UNL A   1      32.923  30.308  25.734  1.00  0.00    -0.237 OA
ATOM     63  O   UNL A   1      34.404  28.450  26.388  1.00  0.00    -0.744 OA
ENDBRANCH  56  60
ENDBRANCH  29  53
BRANCH  41  64
ATOM     64  C   UNL A   1      39.092  32.029  35.350  1.00  0.00     0.023 A 
ATOM     65  C   UNL A   1      38.404  31.459  36.434  1.00  0.00     0.031 A 
ATOM     66  C   UNL A   1      39.374  33.405  35.382  1.00  0.00     0.131 A 
ATOM     67  C   UNL A   1      37.993  32.274  37.497  1.00  0.00     0.055 A 
ATOM     68  C   UNL A   1      39.004  34.202  36.464  1.00  0.00     0.041 A 
ATOM     69  F   UNL A   1      40.033  33.990  34.369  1.00  0.00    -0.206 F 
ATOM     70  C   UNL A   1      38.304  33.637  37.528  1.00  0.00     0.022 A 
BRANCH  67  71
ATOM     71  S   UNL A   1      37.014  31.537  38.833  1.00  0.00     0.124 S 
ATOM     72  O   UNL A   1      37.853  31.796  39.999  1.00  0.00    -0.237 OA
ATOM     73  O   UNL A   1      35.767  32.293  38.764  1.00  0.00    -0.237 OA
ATOM     74  O   UNL A   1      36.906  30.132  38.445  1.00  0.00    -0.744 OA
ENDBRANCH  67  71
ENDBRANCH  41  64
ENDBRANCH  15  16
ENDBRANCH   8  10
ENDBRANCH   7   8
ENDBRANCH   6   7
ENDBRANCH   5   6
ENDBRANCH   4   5
ENDBRANCH   3   4
ENDBRANCH   2   3
ENDBRANCH   1   2
BRANCH   1  75
ATOM     75  C   UNL A   1      41.064  19.668  26.268  1.00  0.00     0.188 C 
BRANCH  75  76
ATOM     76  C   UNL A   1      40.614  21.098  25.920  1.00  0.00     0.188 C 
BRANCH  76  77
ATOM     77  O   UNL A   1      39.252  21.371  26.232  1.00  0.00    -0.376 OA
BRANCH  77  78
ATOM     78  C   UNL A   1      38.830  22.694  25.896  1.00  0.00     0.202 C 
BRANCH  78  79
ATOM     79  C   UNL A   1      37.366  23.012  26.253  1.00  0.00     0.261 C 
BRANCH  79  80
ATOM     80  O   UNL A   1      36.414  22.508  25.300  1.00  0.00    -0.463 OA
BRANCH  80  81
ATOM     81  C   UNL A   1      35.259  23.202  25.142  1.00  0.00     0.312 C 
ATOM     82  O   UNL A   1      35.180  24.410  25.086  1.00  0.00    -0.252 OA
BRANCH  81  83
ATOM     83  C   UNL A   1      34.097  22.271  24.863  1.00  0.00     0.147 C 
ATOM     84  C   UNL A   1      32.844  23.059  24.430  1.00  0.00     0.129 C 
ATOM     85  C   UNL A   1      33.555  21.457  26.042  1.00  0.00     0.157 C 
ATOM     86  C   UNL A   1      31.767  22.482  25.364  1.00  0.00     0.155 C 
ATOM     87  C   UNL A   1      33.120  22.330  27.181  1.00  0.00     0.004 C 
ATOM     88  O   UNL A   1      32.236  21.120  25.510  1.00  0.00    -0.365 OA
ATOM     89  C   UNL A   1      32.015  22.964  26.765  1.00  0.00     0.004 C 
BRANCH  84  90
ATOM     90  C   UNL A   1      32.463  22.838  22.966  1.00  0.00     0.231 C 
ATOM     91  O   UNL A   1      32.375  21.720  22.456  1.00  0.00    -0.274 OA
ATOM     92  N   UNL A   1      32.103  23.925  22.201  1.00  0.00    -0.325 N 
ATOM     93  H   UNL A   1      31.764  23.735  21.296  1.00  0.00     0.169 HD
BRANCH  92  94
ATOM     94  C   UNL A   1      32.167  25.270  22.576  1.00  0.00     0.048 A 
ATOM     95  C   UNL A   1      33.374  25.945  22.399  1.00  0.00     0.026 A 
ATOM     96  C   UNL A   1      31.033  25.960  23.001  1.00  0.00     0.111 A 
ATOM     97  C   UNL A   1      33.402  27.339  22.483  1.00  0.00     0.009 A 
ATOM     98  C   UNL A   1      31.053  27.354  23.032  1.00  0.00     0.271 A 
ATOM     99  C   UNL A   1      32.234  28.051  22.763  1.00  0.00     0.086 A 
BRANCH  98 100
ATOM    100  N   UNL A   1      29.797  28.082  23.239  1.00  0.00     0.062 N 
ATOM    101  O   UNL A   1      29.825  29.314  23.119  1.00  0.00    -0.258 OA
ATOM    102  O   UNL A   1      28.780  27.418  23.479  1.00  0.00    -0.258 OA
ENDBRANCH  98 100
ENDBRANCH  92  94
ENDBRANCH  84  90
ENDBRANCH  81  83
ENDBRANCH  80  81
ENDBRANCH  79  80
ENDBRANCH  78  79
ENDBRANCH  77  78
ENDBRANCH  76  77
ENDBRANCH  75  76
ENDBRANCH   1  75
TORSDOF 26
ENDMDL
MODEL 2
REMARK VINA RESULT:      -9.9      5.206      8.174
REMARK SMILES O=C(OCCOCCOCCOCCOC(=O)[C@@H]1[C@@H](C(=O)Nc2cccc([N+](=O)[O-])c2)[C@@H]2C=C[C@H]1O2)c1ccc(-c2c3nc(c(-c4cc(S(=O)(=O)[O-])ccc4F)c4ccc([nH]4)c(-c4cc(S(=O)(=O)[O-])ccc4F)c4nc(c(-c5cc(S(=O)(=O)[O-])ccc5F)c5ccc2[nH]5)C=C4)C=C3)cc1
REMARK SMILES IDX 9 1 8 2 7 3 6 4 5 5 4 6 3 7 2 8 1 9 37 10 38 11 99 12 39 13
REMARK SMILES IDX 98 14 40 15 41 16 42 17 92 18 43 19 97 20 91 21 93 22 44 23
REMARK SMILES IDX 96 24 90 25 89 26 45 28 77 29 57 30 76 31 58 32 61 33 75 34
REMARK SMILES IDX 94 35 59 36 60 37 74 39 95 40 62 41 46 42 47 43 55 44 48 45
REMARK SMILES IDX 54 46 56 47 53 48 49 49 50 50 51 51 52 52 78 53 79 54 87 55
REMARK SMILES IDX 80 56 86 57 88 58 85 59 81 60 82 61 83 62 84 63 63 64 64 65
REMARK SMILES IDX 72 66 65 67 71 68 73 69 70 70 66 71 67 72 68 73 69 74 10 75
REMARK SMILES IDX 11 76 12 77 13 78 14 79 15 80 16 81 17 82 18 83 19 84 35 85
REMARK SMILES IDX 32 86 34 87 36 88 33 89 20 90 21 91 22 92 23 94 24 95 31 96
REMARK SMILES IDX 25 97 27 98 26 99 28 100 29 101 30 102
REMARK H PARENT 93 27 61 38 22 93
REMARK Flexibility Score: inf
ROOT
ATOM      1  O   UNL A   1      41.607  19.978  26.208  1.00  0.00    -0.377 OA
ENDROOT
BRANCH   1   2
ATOM      2  C   UNL A   1      42.679  19.095  26.553  1.00  0.00     0.188 C 
BRANCH   2   3
ATOM      3  C   UNL A   1      43.480  18.589  25.353  1.00  0.00     0.188 C 
BRANCH   3   4
ATOM      4  O   UNL A   1      44.053  19.697  24.662  1.00  0.00    -0.376 OA
BRANCH   4   5
ATOM      5  C   UNL A   1      45.416  19.984  24.982  1.00  0.00     0.202 C 
BRANCH   5   6
ATOM      6  C   UNL A   1      45.794  21.432  24.701  1.00  0.00     0.261 C 
BRANCH   6   7
ATOM      7  O   UNL A   1      45.093  22.324  25.578  1.00  0.00    -0.460 OA
BRANCH   7   8
ATOM      8  C   UNL A   1      44.115  23.198  25.227  1.00  0.00     0.338 C 
ATOM      9  O   UNL A   1      43.323  22.860  24.348  1.00  0.00    -0.246 OA
BRANCH   8  10
ATOM     10  C   UNL A   1      43.899  24.527  25.886  1.00  0.00     0.060 A 
ATOM     11  C   UNL A   1      43.507  25.710  25.250  1.00  0.00     0.016 A 
ATOM     12  C   UNL A   1      44.045  24.552  27.282  1.00  0.00     0.016 A 
ATOM     13  C   UNL A   1      43.332  26.897  25.952  1.00  0.00     0.010 A 
ATOM     14  C   UNL A   1      43.867  25.735  28.000  1.00  0.00     0.010 A 
ATOM     15  C   UNL A   1      43.546  26.918  27.324  1.00  0.00    -0.014 A 
BRANCH  15  16
ATOM     16  C   UNL A   1      43.677  28.223  27.994  1.00  0.00     0.031 A 
ATOM     17  C   UNL A   1      42.429  28.813  28.572  1.00  0.00     0.074 A 
ATOM     18  C   UNL A   1      44.875  28.806  28.143  1.00  0.00     0.049 A 
ATOM     19  N   UNL A   1      42.204  30.011  29.029  1.00  0.00    -0.248 NA
ATOM     20  C   UNL A   1      41.266  27.911  28.633  1.00  0.00     0.031 C 
ATOM     21  C   UNL A   1      46.153  28.216  27.748  1.00  0.00     0.029 A 
ATOM     22  N   UNL A   1      45.209  30.027  28.663  1.00  0.00    -0.354 N 
ATOM     23  C   UNL A   1      40.861  30.025  29.388  1.00  0.00     0.074 A 
ATOM     24  C   UNL A   1      40.326  28.715  29.095  1.00  0.00     0.031 C 
ATOM     25  C   UNL A   1      47.137  29.093  28.018  1.00  0.00     0.029 A 
ATOM     26  C   UNL A   1      46.544  30.325  28.528  1.00  0.00     0.049 A 
ATOM     27  H   UNL A   1      44.559  30.630  29.092  1.00  0.00     0.167 HD
ATOM     28  C   UNL A   1      40.145  31.059  29.895  1.00  0.00     0.034 A 
ATOM     29  C   UNL A   1      47.186  31.493  28.729  1.00  0.00     0.034 A 
ATOM     30  C   UNL A   1      40.734  32.352  30.133  1.00  0.00     0.049 A 
ATOM     31  C   UNL A   1      46.363  32.671  29.189  1.00  0.00     0.074 A 
ATOM     32  C   UNL A   1      40.133  33.523  30.550  1.00  0.00     0.029 A 
ATOM     33  N   UNL A   1      42.087  32.635  29.956  1.00  0.00    -0.354 N 
ATOM     34  N   UNL A   1      45.071  32.725  29.433  1.00  0.00    -0.248 NA
ATOM     35  C   UNL A   1      47.069  33.940  29.390  1.00  0.00     0.031 C 
ATOM     36  C   UNL A   1      41.111  34.527  30.567  1.00  0.00     0.029 A 
ATOM     37  C   UNL A   1      42.338  33.966  30.234  1.00  0.00     0.049 A 
ATOM     38  H   UNL A   1      42.768  31.982  29.675  1.00  0.00     0.167 HD
ATOM     39  C   UNL A   1      44.809  34.032  29.828  1.00  0.00     0.074 A 
ATOM     40  C   UNL A   1      46.083  34.729  29.797  1.00  0.00     0.031 C 
ATOM     41  C   UNL A   1      43.632  34.609  30.186  1.00  0.00     0.034 A 
BRANCH  28  42
ATOM     42  C   UNL A   1      38.662  30.828  30.069  1.00  0.00     0.023 A 
ATOM     43  C   UNL A   1      37.727  31.249  29.104  1.00  0.00     0.031 A 
ATOM     44  C   UNL A   1      38.167  30.333  31.288  1.00  0.00     0.131 A 
ATOM     45  C   UNL A   1      36.359  31.285  29.424  1.00  0.00     0.055 A 
ATOM     46  C   UNL A   1      36.799  30.280  31.562  1.00  0.00     0.041 A 
ATOM     47  F   UNL A   1      39.008  29.946  32.260  1.00  0.00    -0.206 F 
ATOM     48  C   UNL A   1      35.887  30.783  30.639  1.00  0.00     0.022 A 
BRANCH  45  49
ATOM     49  S   UNL A   1      35.238  32.204  28.330  1.00  0.00     0.124 S 
ATOM     50  O   UNL A   1      34.724  31.138  27.470  1.00  0.00    -0.237 OA
ATOM     51  O   UNL A   1      34.283  32.782  29.269  1.00  0.00    -0.237 OA
ATOM     52  O   UNL A   1      36.116  33.162  27.661  1.00  0.00    -0.744 OA
ENDBRANCH  45  49
ENDBRANCH  28  42
BRANCH  29  53
ATOM     53  C   UNL A   1      48.635  31.614  28.392  1.00  0.00     0.023 A 
ATOM     54  C   UNL A   1      49.077  32.323  27.264  1.00  0.00     0.031 A 
ATOM     55  C   UNL A   1      49.610  31.027  29.223  1.00  0.00     0.131 A 
ATOM     56  C   UNL A   1      50.455  32.422  26.997  1.00  0.00     0.055 A 
ATOM     57  C   UNL A   1      50.977  31.165  28.977  1.00  0.00     0.041 A 
ATOM     58  F   UNL A   1      49.244  30.335  30.314  1.00  0.00    -0.206 F 
ATOM     59  C   UNL A   1      51.407  31.862  27.854  1.00  0.00     0.022 A 
BRANCH  56  60
ATOM     60  S   UNL A   1      50.996  33.268  25.485  1.00  0.00     0.124 S 
ATOM     61  O   UNL A   1      51.315  32.144  24.612  1.00  0.00    -0.237 OA
ATOM     62  O   UNL A   1      49.812  34.043  25.130  1.00  0.00    -0.237 OA
ATOM     63  O   UNL A   1      52.143  34.058  25.928  1.00  0.00    -0.744 OA
ENDBRANCH  56  60
ENDBRANCH  29  53
BRANCH  41  64
ATOM     64  C   UNL A   1      43.690  36.047  30.622  1.00  0.00     0.023 A 
ATOM     65  C   UNL A   1      43.751  36.405  31.978  1.00  0.00     0.031 A 
ATOM     66  C   UNL A   1      43.736  37.067  29.655  1.00  0.00     0.131 A 
ATOM     67  C   UNL A   1      43.827  37.758  32.333  1.00  0.00     0.055 A 
ATOM     68  C   UNL A   1      43.859  38.408  30.013  1.00  0.00     0.041 A 
ATOM     69  F   UNL A   1      43.684  36.768  28.346  1.00  0.00    -0.206 F 
ATOM     70  C   UNL A   1      43.899  38.760  31.360  1.00  0.00     0.022 A 
BRANCH  67  71
ATOM     71  S   UNL A   1      43.797  38.202  34.090  1.00  0.00     0.124 S 
ATOM     72  O   UNL A   1      45.213  38.428  34.368  1.00  0.00    -0.237 OA
ATOM     73  O   UNL A   1      42.948  39.389  34.102  1.00  0.00    -0.237 OA
ATOM     74  O   UNL A   1      43.218  37.023  34.732  1.00  0.00    -0.744 OA
ENDBRANCH  67  71
ENDBRANCH  41  64
ENDBRANCH  15  16
ENDBRANCH   8  10
ENDBRANCH   7   8
ENDBRANCH   6   7
ENDBRANCH   5   6
ENDBRANCH   4   5
ENDBRANCH   3   4
ENDBRANCH   2   3
ENDBRANCH   1   2
BRANCH   1  75
ATOM     75  C   UNL A   1      41.106  20.822  27.242  1.00  0.00     0.188 C 
BRANCH  75  76
ATOM     76  C   UNL A   1      40.792  22.288  26.894  1.00  0.00     0.188 C 
BRANCH  76  77
ATOM     77  O   UNL A   1      39.402  22.592  26.861  1.00  0.00    -0.376 OA
BRANCH  77  78
ATOM     78  C   UNL A   1      38.718  22.072  25.719  1.00  0.00     0.202 C 
BRANCH  78  79
ATOM     79  C   UNL A   1      37.401  22.793  25.376  1.00  0.00     0.261 C 
BRANCH  79  80
ATOM     80  O   UNL A   1      36.516  22.019  24.547  1.00  0.00    -0.463 OA
BRANCH  80  81
ATOM     81  C   UNL A   1      35.437  22.652  24.021  1.00  0.00     0.312 C 
ATOM     82  O   UNL A   1      35.491  23.591  23.256  1.00  0.00    -0.252 OA
BRANCH  81  83
ATOM     83  C   UNL A   1      34.154  21.924  24.365  1.00  0.00     0.147 C 
ATOM     84  C   UNL A   1      32.938  22.868  24.282  1.00  0.00     0.129 C 
ATOM     85  C   UNL A   1      34.022  21.379  25.791  1.00  0.00     0.157 C 
ATOM     86  C   UNL A   1      32.251  22.623  25.635  1.00  0.00     0.155 C 
ATOM     87  C   UNL A   1      34.177  22.454  26.825  1.00  0.00     0.004 C 
ATOM     88  O   UNL A   1      32.570  21.227  25.852  1.00  0.00    -0.365 OA
ATOM     89  C   UNL A   1      33.084  23.223  26.732  1.00  0.00     0.004 C 
BRANCH  84  90
ATOM     90  C   UNL A   1      31.991  22.539  23.128  1.00  0.00     0.231 C 
ATOM     91  O   UNL A   1      31.879  21.407  22.653  1.00  0.00    -0.274 OA
ATOM     92  N   UNL A   1      31.148  23.521  22.659  1.00  0.00    -0.325 N 
ATOM     93  H   UNL A   1      30.481  23.247  21.988  1.00  0.00     0.169 HD
BRANCH  92  94
ATOM     94  C   UNL A   1      31.140  24.867  23.035  1.00  0.00     0.048 A 
ATOM     95  C   UNL A   1      30.381  25.236  24.146  1.00  0.00     0.026 A 
ATOM     96  C   UNL A   1      31.957  25.802  22.402  1.00  0.00     0.111 A 
ATOM     97  C   UNL A   1      30.571  26.493  24.723  1.00  0.00     0.009 A 
ATOM     98  C   UNL A   1      32.184  27.035  23.012  1.00  0.00     0.271 A 
ATOM     99  C   UNL A   1      31.501  27.383  24.180  1.00  0.00     0.086 A 
BRANCH  98 100
ATOM    100  N   UNL A   1      33.227  27.916  22.477  1.00  0.00     0.062 N 
ATOM    101  O   UNL A   1      33.971  27.454  21.601  1.00  0.00    -0.258 OA
ATOM    102  O   UNL A   1      33.273  29.077  22.903  1.00  0.00    -0.258 OA
ENDBRANCH  98 100
ENDBRANCH  92  94
ENDBRANCH  84  90
ENDBRANCH  81  83
ENDBRANCH  80  81
ENDBRANCH  79  80
ENDBRANCH  78  79
ENDBRANCH  77  78
ENDBRANCH  76  77
ENDBRANCH  75  76
ENDBRANCH   1  75
TORSDOF 26
ENDMDL
MODEL 3
REMARK VINA RESULT:      -9.5      5.689      8.043
REMARK SMILES O=C(OCCOCCOCCOCCOC(=O)[C@@H]1[C@@H](C(=O)Nc2cccc([N+](=O)[O-])c2)[C@@H]2C=C[C@H]1O2)c1ccc(-c2c3nc(c(-c4cc(S(=O)(=O)[O-])ccc4F)c4ccc([nH]4)c(-c4cc(S(=O)(=O)[O-])ccc4F)c4nc(c(-c5cc(S(=O)(=O)[O-])ccc5F)c5ccc2[nH]5)C=C4)C=C3)cc1
REMARK SMILES IDX 9 1 8 2 7 3 6 4 5 5 4 6 3 7 2 8 1 9 37 10 38 11 99 12 39 13
REMARK SMILES IDX 98 14 40 15 41 16 42 17 92 18 43 19 97 20 91 21 93 22 44 23
REMARK SMILES IDX 96 24 90 25 89 26 45 28 77 29 57 30 76 31 58 32 61 33 75 34
REMARK SMILES IDX 94 35 59 36 60 37 74 39 95 40 62 41 46 42 47 43 55 44 48 45
REMARK SMILES IDX 54 46 56 47 53 48 49 49 50 50 51 51 52 52 78 53 79 54 87 55
REMARK SMILES IDX 80 56 86 57 88 58 85 59 81 60 82 61 83 62 84 63 63 64 64 65
REMARK SMILES IDX 72 66 65 67 71 68 73 69 70 70 66 71 67 72 68 73 69 74 10 75
REMARK SMILES IDX 11 76 12 77 13 78 14 79 15 80 16 81 17 82 18 83 19 84 35 85
REMARK SMILES IDX 32 86 34 87 36 88 33 89 20 90 21 91 22 92 23 94 24 95 31 96
REMARK SMILES IDX 25 97 27 98 26 99 28 100 29 101 30 102
REMARK H PARENT 93 27 61 38 22 93
REMARK Flexibility Score: inf
ROOT
ATOM      1  O   UNL A   1      39.489  21.664  26.406  1.00  0.00    -0.377 OA
ENDROOT
BRANCH   1   2
ATOM      2  C   UNL A   1      40.371  20.546  26.554  1.00  0.00     0.188 C 
BRANCH   2   3
ATOM      3  C   UNL A   1      41.847  20.887  26.356  1.00  0.00     0.188 C 
BRANCH   3   4
ATOM      4  O   UNL A   1      42.654  19.843  26.900  1.00  0.00    -0.376 OA
BRANCH   4   5
ATOM      5  C   UNL A   1      42.531  18.572  26.259  1.00  0.00     0.202 C 
BRANCH   5   6
ATOM      6  C   UNL A   1      43.873  18.004  25.817  1.00  0.00     0.261 C 
BRANCH   6   7
ATOM      7  O   UNL A   1      44.296  18.592  24.579  1.00  0.00    -0.460 OA
BRANCH   7   8
ATOM      8  C   UNL A   1      45.251  19.544  24.423  1.00  0.00     0.338 C 
ATOM      9  O   UNL A   1      46.328  19.210  23.930  1.00  0.00    -0.246 OA
BRANCH   8  10
ATOM     10  C   UNL A   1      45.057  20.993  24.757  1.00  0.00     0.060 A 
ATOM     11  C   UNL A   1      44.515  21.970  23.914  1.00  0.00     0.016 A 
ATOM     12  C   UNL A   1      45.399  21.374  26.064  1.00  0.00     0.016 A 
ATOM     13  C   UNL A   1      44.377  23.293  24.317  1.00  0.00     0.010 A 
ATOM     14  C   UNL A   1      45.260  22.697  26.484  1.00  0.00     0.010 A 
ATOM     15  C   UNL A   1      44.782  23.664  25.593  1.00  0.00    -0.014 A 
BRANCH  15  16
ATOM     16  C   UNL A   1      44.935  25.098  25.890  1.00  0.00     0.031 A 
ATOM     17  C   UNL A   1      46.297  25.687  25.690  1.00  0.00     0.074 A 
ATOM     18  C   UNL A   1      43.881  25.847  26.243  1.00  0.00     0.049 A 
ATOM     19  N   UNL A   1      46.769  26.844  26.054  1.00  0.00    -0.248 NA
ATOM     20  C   UNL A   1      47.262  24.832  24.978  1.00  0.00     0.031 C 
ATOM     21  C   UNL A   1      42.497  25.379  26.303  1.00  0.00     0.029 A 
ATOM     22  N   UNL A   1      43.812  27.160  26.623  1.00  0.00    -0.354 N 
ATOM     23  C   UNL A   1      48.103  26.841  25.660  1.00  0.00     0.074 A 
ATOM     24  C   UNL A   1      48.359  25.566  25.030  1.00  0.00     0.031 C 
ATOM     25  C   UNL A   1      41.715  26.388  26.725  1.00  0.00     0.029 A 
ATOM     26  C   UNL A   1      42.557  27.540  27.035  1.00  0.00     0.049 A 
ATOM     27  H   UNL A   1      44.584  27.772  26.603  1.00  0.00     0.167 HD
ATOM     28  C   UNL A   1      49.026  27.816  25.839  1.00  0.00     0.034 A 
ATOM     29  C   UNL A   1      42.164  28.667  27.660  1.00  0.00     0.034 A 
ATOM     30  C   UNL A   1      48.711  29.054  26.507  1.00  0.00     0.049 A 
ATOM     31  C   UNL A   1      43.219  29.705  27.954  1.00  0.00     0.074 A 
ATOM     32  C   UNL A   1      49.546  30.098  26.852  1.00  0.00     0.029 A 
ATOM     33  N   UNL A   1      47.433  29.398  26.944  1.00  0.00    -0.354 N 
ATOM     34  N   UNL A   1      44.506  29.669  27.679  1.00  0.00    -0.248 NA
ATOM     35  C   UNL A   1      42.784  30.921  28.647  1.00  0.00     0.031 C 
ATOM     36  C   UNL A   1      48.783  31.047  27.548  1.00  0.00     0.029 A 
ATOM     37  C   UNL A   1      47.459  30.629  27.574  1.00  0.00     0.049 A 
ATOM     38  H   UNL A   1      46.628  28.846  26.821  1.00  0.00     0.167 HD
ATOM     39  C   UNL A   1      45.033  30.864  28.156  1.00  0.00     0.074 A 
ATOM     40  C   UNL A   1      43.921  31.601  28.728  1.00  0.00     0.031 C 
ATOM     41  C   UNL A   1      46.314  31.318  28.127  1.00  0.00     0.034 A 
BRANCH  28  42
ATOM     42  C   UNL A   1      50.441  27.486  25.426  1.00  0.00     0.023 A 
ATOM     43  C   UNL A   1      50.936  27.809  24.148  1.00  0.00     0.031 A 
ATOM     44  C   UNL A   1      51.248  26.692  26.259  1.00  0.00     0.131 A 
ATOM     45  C   UNL A   1      52.137  27.236  23.697  1.00  0.00     0.055 A 
ATOM     46  C   UNL A   1      52.489  26.207  25.839  1.00  0.00     0.041 A 
ATOM     47  F   UNL A   1      50.820  26.324  27.476  1.00  0.00    -0.206 F 
ATOM     48  C   UNL A   1      52.928  26.455  24.542  1.00  0.00     0.022 A 
BRANCH  45  49
ATOM     49  S   UNL A   1      52.535  27.338  21.928  1.00  0.00     0.124 S 
ATOM     50  O   UNL A   1      53.994  27.440  21.957  1.00  0.00    -0.237 OA
ATOM     51  O   UNL A   1      51.992  26.087  21.409  1.00  0.00    -0.237 OA
ATOM     52  O   UNL A   1      51.845  28.549  21.488  1.00  0.00    -0.744 OA
ENDBRANCH  45  49
ENDBRANCH  28  42
BRANCH  29  53
ATOM     53  C   UNL A   1      40.755  28.806  28.129  1.00  0.00     0.023 A 
ATOM     54  C   UNL A   1      40.401  28.627  29.476  1.00  0.00     0.031 A 
ATOM     55  C   UNL A   1      39.732  29.146  27.221  1.00  0.00     0.131 A 
ATOM     56  C   UNL A   1      39.060  28.783  29.873  1.00  0.00     0.055 A 
ATOM     57  C   UNL A   1      38.412  29.342  27.628  1.00  0.00     0.041 A 
ATOM     58  F   UNL A   1      40.012  29.327  25.921  1.00  0.00    -0.206 F 
ATOM     59  C   UNL A   1      38.068  29.155  28.961  1.00  0.00     0.022 A 
BRANCH  56  60
ATOM     60  S   UNL A   1      38.614  28.459  31.603  1.00  0.00     0.124 S 
ATOM     61  O   UNL A   1      38.779  27.013  31.687  1.00  0.00    -0.237 OA
ATOM     62  O   UNL A   1      39.597  29.262  32.325  1.00  0.00    -0.237 OA
ATOM     63  O   UNL A   1      37.237  28.936  31.695  1.00  0.00    -0.744 OA
ENDBRANCH  56  60
ENDBRANCH  29  53
BRANCH  41  64
ATOM     64  C   UNL A   1      46.556  32.694  28.682  1.00  0.00     0.023 A 
ATOM     65  C   UNL A   1      46.331  33.849  27.915  1.00  0.00     0.031 A 
ATOM     66  C   UNL A   1      46.969  32.844  30.017  1.00  0.00     0.131 A 
ATOM     67  C   UNL A   1      46.548  35.110  28.485  1.00  0.00     0.055 A 
ATOM     68  C   UNL A   1      47.138  34.102  30.592  1.00  0.00     0.041 A 
ATOM     69  F   UNL A   1      47.191  31.766  30.787  1.00  0.00    -0.206 F 
ATOM     70  C   UNL A   1      46.933  35.244  29.823  1.00  0.00     0.022 A 
BRANCH  67  71
ATOM     71  S   UNL A   1      46.354  36.582  27.445  1.00  0.00     0.124 S 
ATOM     72  O   UNL A   1      47.481  37.405  27.876  1.00  0.00    -0.237 OA
ATOM     73  O   UNL A   1      46.446  36.031  26.097  1.00  0.00    -0.237 OA
ATOM     74  O   UNL A   1      45.035  37.092  27.815  1.00  0.00    -0.744 OA
ENDBRANCH  67  71
ENDBRANCH  41  64
ENDBRANCH  15  16
ENDBRANCH   8  10
ENDBRANCH   7   8
ENDBRANCH   6   7
ENDBRANCH   5   6
ENDBRANCH   4   5
ENDBRANCH   3   4
ENDBRANCH   2   3
ENDBRANCH   1   2
BRANCH   1  75
ATOM     75  C   UNL A   1      38.256  21.430  25.730  1.00  0.00     0.188 C 
BRANCH  75  76
ATOM     76  C   UNL A   1      37.566  22.623  25.046  1.00  0.00     0.188 C 
BRANCH  76  77
ATOM     77  O   UNL A   1      36.705  22.258  23.972  1.00  0.00    -0.376 OA
BRANCH  77  78
ATOM     78  C   UNL A   1      35.366  22.735  24.109  1.00  0.00     0.202 C 
BRANCH  78  79
ATOM     79  C   UNL A   1      35.206  23.939  25.056  1.00  0.00     0.261 C 
BRANCH  79  80
ATOM     80  O   UNL A   1      34.502  25.048  24.471  1.00  0.00    -0.463 OA
BRANCH  80  81
ATOM     81  C   UNL A   1      33.298  25.376  25.002  1.00  0.00     0.312 C 
ATOM     82  O   UNL A   1      33.139  25.943  26.062  1.00  0.00    -0.252 OA
BRANCH  81  83
ATOM     83  C   UNL A   1      32.176  25.108  24.019  1.00  0.00     0.147 C 
ATOM     84  C   UNL A   1      31.294  26.358  23.825  1.00  0.00     0.129 C 
ATOM     85  C   UNL A   1      31.135  24.057  24.418  1.00  0.00     0.157 C 
ATOM     86  C   UNL A   1      29.883  25.788  24.038  1.00  0.00     0.155 C 
ATOM     87  C   UNL A   1      30.471  24.385  25.723  1.00  0.00     0.004 C 
ATOM     88  O   UNL A   1      30.050  24.447  23.520  1.00  0.00    -0.365 OA
ATOM     89  C   UNL A   1      29.696  25.453  25.491  1.00  0.00     0.004 C 
BRANCH  84  90
ATOM     90  C   UNL A   1      31.421  26.980  22.434  1.00  0.00     0.231 C 
ATOM     91  O   UNL A   1      31.395  26.316  21.396  1.00  0.00    -0.274 OA
ATOM     92  N   UNL A   1      31.466  28.352  22.320  1.00  0.00    -0.325 N 
ATOM     93  H   UNL A   1      31.443  28.720  21.407  1.00  0.00     0.169 HD
BRANCH  92  94
ATOM     94  C   UNL A   1      31.542  29.276  23.367  1.00  0.00     0.048 A 
ATOM     95  C   UNL A   1      30.423  30.065  23.630  1.00  0.00     0.026 A 
ATOM     96  C   UNL A   1      32.653  29.331  24.207  1.00  0.00     0.111 A 
ATOM     97  C   UNL A   1      30.351  30.781  24.826  1.00  0.00     0.009 A 
ATOM     98  C   UNL A   1      32.556  30.004  25.424  1.00  0.00     0.271 A 
ATOM     99  C   UNL A   1      31.401  30.723  25.745  1.00  0.00     0.086 A 
BRANCH  98 100
ATOM    100  N   UNL A   1      33.631  29.857  26.409  1.00  0.00     0.062 N 
ATOM    101  O   UNL A   1      33.596  30.589  27.407  1.00  0.00    -0.258 OA
ATOM    102  O   UNL A   1      34.484  28.983  26.204  1.00  0.00    -0.258 OA
ENDBRANCH  98 100
ENDBRANCH  92  94
ENDBRANCH  84  90
ENDBRANCH  81  83
ENDBRANCH  80  81
ENDBRANCH  79  80
ENDBRANCH  78  79
ENDBRANCH  77  78
ENDBRANCH  76  77
ENDBRANCH  75  76
ENDBRANCH   1  75
TORSDOF 26
ENDMDL
