MODEL 1
REMARK VINA RESULT:      -8.8      0.000      0.000
REMARK SMILES O=C(OCCOCCOCCOCCOC(=O)[C@H]1C[C@@H](O)CN1C(=O)C[C@@H]1CSCC[NH2+]1)c1ccc(-c2c3nc(c(-c4cc(S(=O)(=O)[O-])ccc4F)c4ccc([nH]4)c(-c4cc(S(=O)(=O)[O-])ccc4F)c4nc(c(-c5cc(S(=O)(=O)[O-])ccc5F)c5ccc2[nH]5)C=C4)C=C3)cc1
REMARK SMILES IDX 9 1 8 2 7 3 6 4 5 5 4 6 3 7 2 8 1 9 33 10 34 11 95 12 35 13
REMARK SMILES IDX 94 14 36 15 37 16 38 17 88 18 39 19 93 20 87 21 89 22 40 23
REMARK SMILES IDX 92 24 86 25 85 26 41 28 73 29 53 30 72 31 54 32 57 33 71 34
REMARK SMILES IDX 90 35 55 36 56 37 70 39 91 40 58 41 42 42 43 43 51 44 44 45
REMARK SMILES IDX 50 46 52 47 49 48 45 49 46 50 47 51 48 52 74 53 75 54 83 55
REMARK SMILES IDX 76 56 82 57 84 58 81 59 77 60 78 61 79 62 80 63 59 64 60 65
REMARK SMILES IDX 68 66 61 67 67 68 69 69 66 70 62 71 63 72 64 73 65 74 10 75
REMARK SMILES IDX 11 76 12 77 13 78 14 79 15 80 16 81 17 82 18 83 19 84 23 85
REMARK SMILES IDX 20 86 22 87 24 88 25 89 26 90 27 91 28 92 32 93 29 94 31 95
REMARK SMILES IDX 30 98 21 99
REMARK H PARENT 89 27 57 38 32 96 32 97 21 100
REMARK Flexibility Score: inf
ROOT
ATOM      1  O   UNL A   1      49.740  35.452  27.292  1.00  0.00    -0.377 OA
ENDROOT
BRANCH   1   2
ATOM      2  C   UNL A   1      49.155  36.201  28.351  1.00  0.00     0.188 C 
BRANCH   2   3
ATOM      3  C   UNL A   1      49.363  35.574  29.712  1.00  0.00     0.188 C 
BRANCH   3   4
ATOM      4  O   UNL A   1      48.704  36.348  30.699  1.00  0.00    -0.376 OA
BRANCH   4   5
ATOM      5  C   UNL A   1      48.725  37.762  30.550  1.00  0.00     0.202 C 
BRANCH   5   6
ATOM      6  C   UNL A   1      47.370  38.408  30.302  1.00  0.00     0.261 C 
BRANCH   6   7
ATOM      7  O   UNL A   1      46.267  37.491  30.223  1.00  0.00    -0.460 OA
BRANCH   7   8
ATOM      8  C   UNL A   1      45.574  37.031  29.157  1.00  0.00     0.338 C 
ATOM      9  O   UNL A   1      45.233  37.853  28.304  1.00  0.00    -0.246 OA
BRANCH   8  10
ATOM     10  C   UNL A   1      45.164  35.613  28.934  1.00  0.00     0.060 A 
ATOM     11  C   UNL A   1      44.408  35.135  27.865  1.00  0.00     0.016 A 
ATOM     12  C   UNL A   1      45.694  34.666  29.826  1.00  0.00     0.016 A 
ATOM     13  C   UNL A   1      44.160  33.790  27.672  1.00  0.00     0.010 A 
ATOM     14  C   UNL A   1      45.434  33.304  29.663  1.00  0.00     0.010 A 
ATOM     15  C   UNL A   1      44.642  32.877  28.592  1.00  0.00    -0.014 A 
BRANCH  15  16
ATOM     16  C   UNL A   1      44.045  31.540  28.553  1.00  0.00     0.031 A 
ATOM     17  C   UNL A   1      44.836  30.483  27.854  1.00  0.00     0.074 A 
ATOM     18  C   UNL A   1      42.943  31.268  29.266  1.00  0.00     0.049 A 
ATOM     19  N   UNL A   1      44.494  29.276  27.513  1.00  0.00    -0.248 NA
ATOM     20  C   UNL A   1      46.216  30.850  27.488  1.00  0.00     0.031 C 
ATOM     21  C   UNL A   1      42.259  32.213  30.153  1.00  0.00     0.029 A 
ATOM     22  N   UNL A   1      42.214  30.119  29.369  1.00  0.00    -0.354 N 
ATOM     23  C   UNL A   1      45.593  28.760  26.836  1.00  0.00     0.074 A 
ATOM     24  C   UNL A   1      46.613  29.782  26.822  1.00  0.00     0.031 C 
ATOM     25  C   UNL A   1      41.188  31.608  30.689  1.00  0.00     0.029 A 
ATOM     26  C   UNL A   1      41.064  30.277  30.104  1.00  0.00     0.049 A 
ATOM     27  H   UNL A   1      42.483  29.265  28.960  1.00  0.00     0.167 HD
ATOM     28  C   UNL A   1      45.703  27.541  26.259  1.00  0.00     0.034 A 
ATOM     29  C   UNL A   1      39.998  29.461  30.202  1.00  0.00     0.034 A 
ATOM     30  C   UNL A   1      44.622  26.590  26.305  1.00  0.00     0.049 A 
ATOM     31  C   UNL A   1      40.066  28.163  29.438  1.00  0.00     0.074 A 
ATOM     32  C   UNL A   1      44.522  25.352  25.704  1.00  0.00     0.029 A 
ATOM     33  N   UNL A   1      43.430  26.799  26.999  1.00  0.00    -0.354 N 
ATOM     34  N   UNL A   1      41.044  27.704  28.686  1.00  0.00    -0.248 NA
ATOM     35  C   UNL A   1      38.900  27.282  29.516  1.00  0.00     0.031 C 
ATOM     36  C   UNL A   1      43.241  24.852  25.970  1.00  0.00     0.029 A 
ATOM     37  C   UNL A   1      42.575  25.732  26.816  1.00  0.00     0.049 A 
ATOM     38  H   UNL A   1      43.227  27.596  27.542  1.00  0.00     0.167 HD
ATOM     39  C   UNL A   1      40.623  26.466  28.217  1.00  0.00     0.074 A 
ATOM     40  C   UNL A   1      39.298  26.254  28.777  1.00  0.00     0.031 C 
ATOM     41  C   UNL A   1      41.261  25.581  27.407  1.00  0.00     0.034 A 
BRANCH  28  42
ATOM     42  C   UNL A   1      46.945  27.292  25.436  1.00  0.00     0.023 A 
ATOM     43  C   UNL A   1      47.144  27.891  24.178  1.00  0.00     0.031 A 
ATOM     44  C   UNL A   1      47.861  26.304  25.842  1.00  0.00     0.131 A 
ATOM     45  C   UNL A   1      48.151  27.408  23.325  1.00  0.00     0.055 A 
ATOM     46  C   UNL A   1      48.923  25.903  25.029  1.00  0.00     0.041 A 
ATOM     47  F   UNL A   1      47.705  25.666  27.012  1.00  0.00    -0.206 F 
ATOM     48  C   UNL A   1      49.058  26.437  23.751  1.00  0.00     0.022 A 
BRANCH  45  49
ATOM     49  S   UNL A   1      48.112  27.898  21.575  1.00  0.00     0.124 S 
ATOM     50  O   UNL A   1      46.783  28.495  21.464  1.00  0.00    -0.237 OA
ATOM     51  O   UNL A   1      49.235  28.826  21.482  1.00  0.00    -0.237 OA
ATOM     52  O   UNL A   1      48.283  26.637  20.859  1.00  0.00    -0.744 OA
ENDBRANCH  45  49
ENDBRANCH  28  42
BRANCH  29  53
ATOM     53  C   UNL A   1      38.777  29.909  30.933  1.00  0.00     0.023 A 
ATOM     54  C   UNL A   1      37.884  30.839  30.383  1.00  0.00     0.031 A 
ATOM     55  C   UNL A   1      38.480  29.389  32.209  1.00  0.00     0.131 A 
ATOM     56  C   UNL A   1      36.745  31.229  31.112  1.00  0.00     0.055 A 
ATOM     57  C   UNL A   1      37.324  29.740  32.906  1.00  0.00     0.041 A 
ATOM     58  F   UNL A   1      39.302  28.499  32.790  1.00  0.00    -0.206 F 
ATOM     59  C   UNL A   1      36.451  30.673  32.359  1.00  0.00     0.022 A 
BRANCH  56  60
ATOM     60  S   UNL A   1      35.672  32.523  30.430  1.00  0.00     0.124 S 
ATOM     61  O   UNL A   1      36.428  33.734  30.753  1.00  0.00    -0.237 OA
ATOM     62  O   UNL A   1      35.616  32.161  29.020  1.00  0.00    -0.237 OA
ATOM     63  O   UNL A   1      34.424  32.356  31.168  1.00  0.00    -0.744 OA
ENDBRANCH  56  60
ENDBRANCH  29  53
BRANCH  41  64
ATOM     64  C   UNL A   1      40.556  24.280  27.141  1.00  0.00     0.023 A 
ATOM     65  C   UNL A   1      39.346  24.226  26.433  1.00  0.00     0.031 A 
ATOM     66  C   UNL A   1      41.150  23.074  27.556  1.00  0.00     0.131 A 
ATOM     67  C   UNL A   1      38.750  22.983  26.182  1.00  0.00     0.055 A 
ATOM     68  C   UNL A   1      40.582  21.840  27.250  1.00  0.00     0.041 A 
ATOM     69  F   UNL A   1      42.307  23.082  28.236  1.00  0.00    -0.206 F 
ATOM     70  C   UNL A   1      39.371  21.790  26.565  1.00  0.00     0.022 A 
BRANCH  67  71
ATOM     71  S   UNL A   1      37.117  22.946  25.399  1.00  0.00     0.124 S 
ATOM     72  O   UNL A   1      36.601  24.274  25.714  1.00  0.00    -0.237 OA
ATOM     73  O   UNL A   1      37.446  22.706  23.998  1.00  0.00    -0.237 OA
ATOM     74  O   UNL A   1      36.439  21.841  26.074  1.00  0.00    -0.744 OA
ENDBRANCH  67  71
ENDBRANCH  41  64
ENDBRANCH  15  16
ENDBRANCH   8  10
ENDBRANCH   7   8
ENDBRANCH   6   7
ENDBRANCH   5   6
ENDBRANCH   4   5
ENDBRANCH   3   4
ENDBRANCH   2   3
ENDBRANCH   1   2
BRANCH   1  75
ATOM     75  C   UNL A   1      49.172  35.521  25.985  1.00  0.00     0.188 C 
BRANCH  75  76
ATOM     76  C   UNL A   1      48.120  36.600  25.670  1.00  0.00     0.188 C 
BRANCH  76  77
ATOM     77  O   UNL A   1      48.614  37.915  25.859  1.00  0.00    -0.376 OA
BRANCH  77  78
ATOM     78  C   UNL A   1      47.637  38.944  25.984  1.00  0.00     0.202 C 
BRANCH  78  79
ATOM     79  C   UNL A   1      47.153  39.679  24.712  1.00  0.00     0.261 C 
BRANCH  79  80
ATOM     80  O   UNL A   1      45.847  40.274  24.821  1.00  0.00    -0.462 OA
BRANCH  80  81
ATOM     81  C   UNL A   1      45.757  41.598  24.548  1.00  0.00     0.329 C 
ATOM     82  O   UNL A   1      46.377  42.135  23.633  1.00  0.00    -0.250 OA
BRANCH  81  83
ATOM     83  C   UNL A   1      44.673  42.317  25.403  1.00  0.00     0.197 C 
ATOM     84  C   UNL A   1      45.058  43.278  26.526  1.00  0.00     0.070 C 
ATOM     85  N   UNL A   1      43.970  43.212  24.506  1.00  0.00    -0.326 N 
ATOM     86  C   UNL A   1      45.472  44.529  25.782  1.00  0.00     0.136 C 
ATOM     87  C   UNL A   1      44.448  44.587  24.645  1.00  0.00     0.152 C 
BRANCH  85  88
ATOM     88  C   UNL A   1      43.026  42.682  23.671  1.00  0.00     0.229 C 
ATOM     89  O   UNL A   1      42.302  41.743  24.000  1.00  0.00    -0.275 OA
BRANCH  88  90
ATOM     90  C   UNL A   1      42.867  43.338  22.341  1.00  0.00     0.166 C 
BRANCH  90  91
ATOM     91  C   UNL A   1      43.760  42.725  21.248  1.00  0.00     0.201 C 
ATOM     92  C   UNL A   1      44.935  43.564  20.682  1.00  0.00     0.135 C 
ATOM     93  N   UNL A   1      42.925  42.126  20.180  1.00  0.00    -0.342 N 
ATOM     94  S   UNL A   1      44.476  44.916  19.559  1.00  0.00    -0.150 SA
ATOM     95  C   UNL A   1      42.307  43.168  19.334  1.00  0.00     0.271 C 
ATOM     96  H   UNL A   1      42.188  41.567  20.609  1.00  0.00     0.346 HD
ATOM     97  H   UNL A   1      43.521  41.546  19.590  1.00  0.00     0.346 HD
ATOM     98  C   UNL A   1      43.305  43.997  18.522  1.00  0.00     0.131 C 
ENDBRANCH  90  91
ENDBRANCH  88  90
ENDBRANCH  85  88
BRANCH  86  99
ATOM     99  O   UNL A   1      46.794  44.366  25.272  1.00  0.00    -0.391 OA
ATOM    100  H   UNL A   1      46.900  43.465  24.927  1.00  0.00     0.211 HD
ENDBRANCH  86  99
ENDBRANCH  81  83
ENDBRANCH  80  81
ENDBRANCH  79  80
ENDBRANCH  78  79
ENDBRANCH  77  78
ENDBRANCH  76  77
ENDBRANCH  75  76
ENDBRANCH   1  75
TORSDOF 27
ENDMDL
MODEL 2
REMARK VINA RESULT:      -8.5      5.451     13.270
REMARK SMILES O=C(OCCOCCOCCOCCOC(=O)[C@H]1C[C@@H](O)CN1C(=O)C[C@@H]1CSCC[NH2+]1)c1ccc(-c2c3nc(c(-c4cc(S(=O)(=O)[O-])ccc4F)c4ccc([nH]4)c(-c4cc(S(=O)(=O)[O-])ccc4F)c4nc(c(-c5cc(S(=O)(=O)[O-])ccc5F)c5ccc2[nH]5)C=C4)C=C3)cc1
REMARK SMILES IDX 9 1 8 2 7 3 6 4 5 5 4 6 3 7 2 8 1 9 33 10 34 11 95 12 35 13
REMARK SMILES IDX 94 14 36 15 37 16 38 17 88 18 39 19 93 20 87 21 89 22 40 23
REMARK SMILES IDX 92 24 86 25 85 26 41 28 73 29 53 30 72 31 54 32 57 33 71 34
REMARK SMILES IDX 90 35 55 36 56 37 70 39 91 40 58 41 42 42 43 43 51 44 44 45
REMARK SMILES IDX 50 46 52 47 49 48 45 49 46 50 47 51 48 52 74 53 75 54 83 55
REMARK SMILES IDX 76 56 82 57 84 58 81 59 77 60 78 61 79 62 80 63 59 64 60 65
REMARK SMILES IDX 68 66 61 67 67 68 69 69 66 70 62 71 63 72 64 73 65 74 10 75
REMARK SMILES IDX 11 76 12 77 13 78 14 79 15 80 16 81 17 82 18 83 19 84 23 85
REMARK SMILES IDX 20 86 22 87 24 88 25 89 26 90 27 91 28 92 32 93 29 94 31 95
REMARK SMILES IDX 30 98 21 99
REMARK H PARENT 89 27 57 38 32 96 32 97 21 100
REMARK Flexibility Score: inf
ROOT
ATOM      1  O   UNL A   1      34.191  32.852  28.299  1.00  0.00    -0.377 OA
ENDROOT
BRANCH   1   2
ATOM      2  C   UNL A   1      33.859  33.889  29.215  1.00  0.00     0.188 C 
BRANCH   2   3
ATOM      3  C   UNL A   1      35.059  34.439  29.953  1.00  0.00     0.188 C 
BRANCH   3   4
ATOM      4  O   UNL A   1      34.954  34.129  31.332  1.00  0.00    -0.376 OA
BRANCH   4   5
ATOM      5  C   UNL A   1      36.022  33.404  31.928  1.00  0.00     0.202 C 
BRANCH   5   6
ATOM      6  C   UNL A   1      35.634  32.536  33.116  1.00  0.00     0.261 C 
BRANCH   6   7
ATOM      7  O   UNL A   1      36.469  31.386  33.325  1.00  0.00    -0.460 OA
BRANCH   7   8
ATOM      8  C   UNL A   1      37.074  30.561  32.441  1.00  0.00     0.338 C 
ATOM      9  O   UNL A   1      36.468  29.540  32.111  1.00  0.00    -0.246 OA
BRANCH   8  10
ATOM     10  C   UNL A   1      38.429  30.766  31.847  1.00  0.00     0.060 A 
ATOM     11  C   UNL A   1      39.642  30.714  32.531  1.00  0.00     0.016 A 
ATOM     12  C   UNL A   1      38.478  30.909  30.450  1.00  0.00     0.016 A 
ATOM     13  C   UNL A   1      40.861  30.809  31.889  1.00  0.00     0.010 A 
ATOM     14  C   UNL A   1      39.700  31.032  29.785  1.00  0.00     0.010 A 
ATOM     15  C   UNL A   1      40.890  31.005  30.520  1.00  0.00    -0.014 A 
BRANCH  15  16
ATOM     16  C   UNL A   1      42.160  31.470  29.957  1.00  0.00     0.031 A 
ATOM     17  C   UNL A   1      43.055  30.419  29.388  1.00  0.00     0.074 A 
ATOM     18  C   UNL A   1      42.397  32.782  29.812  1.00  0.00     0.049 A 
ATOM     19  N   UNL A   1      44.290  30.503  28.989  1.00  0.00    -0.248 NA
ATOM     20  C   UNL A   1      42.463  29.076  29.251  1.00  0.00     0.031 C 
ATOM     21  C   UNL A   1      41.452  33.852  30.145  1.00  0.00     0.029 A 
ATOM     22  N   UNL A   1      43.497  33.437  29.336  1.00  0.00    -0.354 N 
ATOM     23  C   UNL A   1      44.643  29.213  28.613  1.00  0.00     0.074 A 
ATOM     24  C   UNL A   1      43.491  28.368  28.824  1.00  0.00     0.031 C 
ATOM     25  C   UNL A   1      42.029  35.036  29.887  1.00  0.00     0.029 A 
ATOM     26  C   UNL A   1      43.407  34.801  29.470  1.00  0.00     0.049 A 
ATOM     27  H   UNL A   1      44.272  32.980  28.938  1.00  0.00     0.167 HD
ATOM     28  C   UNL A   1      45.846  28.791  28.159  1.00  0.00     0.034 A 
ATOM     29  C   UNL A   1      44.373  35.732  29.356  1.00  0.00     0.034 A 
ATOM     30  C   UNL A   1      46.949  29.704  27.999  1.00  0.00     0.049 A 
ATOM     31  C   UNL A   1      45.750  35.238  28.990  1.00  0.00     0.074 A 
ATOM     32  C   UNL A   1      48.255  29.441  27.641  1.00  0.00     0.029 A 
ATOM     33  N   UNL A   1      46.857  31.080  28.210  1.00  0.00    -0.354 N 
ATOM     34  N   UNL A   1      46.142  34.004  28.751  1.00  0.00    -0.248 NA
ATOM     35  C   UNL A   1      46.812  36.240  28.891  1.00  0.00     0.031 C 
ATOM     36  C   UNL A   1      48.966  30.646  27.714  1.00  0.00     0.029 A 
ATOM     37  C   UNL A   1      48.087  31.677  28.024  1.00  0.00     0.049 A 
ATOM     38  H   UNL A   1      46.031  31.558  28.457  1.00  0.00     0.167 HD
ATOM     39  C   UNL A   1      47.496  34.081  28.449  1.00  0.00     0.074 A 
ATOM     40  C   UNL A   1      47.848  35.489  28.536  1.00  0.00     0.031 C 
ATOM     41  C   UNL A   1      48.371  33.093  28.125  1.00  0.00     0.034 A 
BRANCH  28  42
ATOM     42  C   UNL A   1      46.018  27.300  27.984  1.00  0.00     0.023 A 
ATOM     43  C   UNL A   1      45.701  26.645  26.779  1.00  0.00     0.031 A 
ATOM     44  C   UNL A   1      46.342  26.503  29.096  1.00  0.00     0.131 A 
ATOM     45  C   UNL A   1      45.589  25.245  26.753  1.00  0.00     0.055 A 
ATOM     46  C   UNL A   1      46.331  25.108  29.033  1.00  0.00     0.041 A 
ATOM     47  F   UNL A   1      46.616  27.064  30.284  1.00  0.00    -0.206 F 
ATOM     48  C   UNL A   1      45.927  24.470  27.864  1.00  0.00     0.022 A 
BRANCH  45  49
ATOM     49  S   UNL A   1      44.775  24.466  25.326  1.00  0.00     0.124 S 
ATOM     50  O   UNL A   1      43.713  25.426  25.031  1.00  0.00    -0.237 OA
ATOM     51  O   UNL A   1      45.856  24.393  24.347  1.00  0.00    -0.237 OA
ATOM     52  O   UNL A   1      44.317  23.182  25.848  1.00  0.00    -0.744 OA
ENDBRANCH  45  49
ENDBRANCH  28  42
BRANCH  29  53
ATOM     53  C   UNL A   1      44.087  37.153  29.707  1.00  0.00     0.023 A 
ATOM     54  C   UNL A   1      44.114  37.608  31.033  1.00  0.00     0.031 A 
ATOM     55  C   UNL A   1      43.794  38.091  28.697  1.00  0.00     0.131 A 
ATOM     56  C   UNL A   1      43.838  38.959  31.313  1.00  0.00     0.055 A 
ATOM     57  C   UNL A   1      43.573  39.441  28.975  1.00  0.00     0.041 A 
ATOM     58  F   UNL A   1      43.750  37.714  27.408  1.00  0.00    -0.206 F 
ATOM     59  C   UNL A   1      43.587  39.880  30.293  1.00  0.00     0.022 A 
BRANCH  56  60
ATOM     60  S   UNL A   1      43.759  39.494  33.045  1.00  0.00     0.124 S 
ATOM     61  O   UNL A   1      42.675  40.476  33.001  1.00  0.00    -0.237 OA
ATOM     62  O   UNL A   1      43.463  38.246  33.736  1.00  0.00    -0.237 OA
ATOM     63  O   UNL A   1      45.088  40.046  33.293  1.00  0.00    -0.744 OA
ENDBRANCH  56  60
ENDBRANCH  29  53
BRANCH  41  64
ATOM     64  C   UNL A   1      49.770  33.519  27.778  1.00  0.00     0.023 A 
ATOM     65  C   UNL A   1      50.140  33.850  26.465  1.00  0.00     0.031 A 
ATOM     66  C   UNL A   1      50.726  33.652  28.801  1.00  0.00     0.131 A 
ATOM     67  C   UNL A   1      51.449  34.274  26.204  1.00  0.00     0.055 A 
ATOM     68  C   UNL A   1      52.008  34.132  28.543  1.00  0.00     0.041 A 
ATOM     69  F   UNL A   1      50.414  33.345  30.071  1.00  0.00    -0.206 F 
ATOM     70  C   UNL A   1      52.378  34.440  27.237  1.00  0.00     0.022 A 
BRANCH  67  71
ATOM     71  S   UNL A   1      51.945  34.552  24.484  1.00  0.00     0.124 S 
ATOM     72  O   UNL A   1      51.534  33.305  23.847  1.00  0.00    -0.237 OA
ATOM     73  O   UNL A   1      51.175  35.736  24.123  1.00  0.00    -0.237 OA
ATOM     74  O   UNL A   1      53.390  34.756  24.574  1.00  0.00    -0.744 OA
ENDBRANCH  67  71
ENDBRANCH  41  64
ENDBRANCH  15  16
ENDBRANCH   8  10
ENDBRANCH   7   8
ENDBRANCH   6   7
ENDBRANCH   5   6
ENDBRANCH   4   5
ENDBRANCH   3   4
ENDBRANCH   2   3
ENDBRANCH   1   2
BRANCH   1  75
ATOM     75  C   UNL A   1      35.404  32.121  28.474  1.00  0.00     0.188 C 
BRANCH  75  76
ATOM     76  C   UNL A   1      35.553  30.731  27.826  1.00  0.00     0.188 C 
BRANCH  76  77
ATOM     77  O   UNL A   1      34.316  30.203  27.378  1.00  0.00    -0.376 OA
BRANCH  77  78
ATOM     78  C   UNL A   1      34.369  28.934  26.734  1.00  0.00     0.202 C 
BRANCH  78  79
ATOM     79  C   UNL A   1      33.218  28.524  25.786  1.00  0.00     0.261 C 
BRANCH  79  80
ATOM     80  O   UNL A   1      32.801  27.151  25.904  1.00  0.00    -0.462 OA
BRANCH  80  81
ATOM     81  C   UNL A   1      32.679  26.452  24.749  1.00  0.00     0.329 C 
ATOM     82  O   UNL A   1      32.596  25.227  24.716  1.00  0.00    -0.250 OA
BRANCH  81  83
ATOM     83  C   UNL A   1      32.491  27.370  23.507  1.00  0.00     0.197 C 
ATOM     84  C   UNL A   1      33.517  27.394  22.376  1.00  0.00     0.070 C 
ATOM     85  N   UNL A   1      31.322  26.877  22.805  1.00  0.00    -0.326 N 
ATOM     86  C   UNL A   1      33.230  26.114  21.623  1.00  0.00     0.136 C 
ATOM     87  C   UNL A   1      31.701  26.049  21.662  1.00  0.00     0.152 C 
BRANCH  85  88
ATOM     88  C   UNL A   1      30.088  27.206  23.292  1.00  0.00     0.229 C 
ATOM     89  O   UNL A   1      29.273  26.361  23.660  1.00  0.00    -0.275 OA
BRANCH  88  90
ATOM     90  C   UNL A   1      29.785  28.661  23.414  1.00  0.00     0.166 C 
BRANCH  90  91
ATOM     91  C   UNL A   1      28.920  29.203  22.262  1.00  0.00     0.201 C 
ATOM     92  C   UNL A   1      29.376  30.488  21.524  1.00  0.00     0.135 C 
ATOM     93  N   UNL A   1      27.497  29.259  22.671  1.00  0.00    -0.342 N 
ATOM     94  S   UNL A   1      29.155  32.046  22.431  1.00  0.00    -0.150 SA
ATOM     95  C   UNL A   1      27.252  30.373  23.610  1.00  0.00     0.271 C 
ATOM     96  H   UNL A   1      27.248  28.381  23.126  1.00  0.00     0.346 HD
ATOM     97  H   UNL A   1      26.927  29.409  21.839  1.00  0.00     0.346 HD
ATOM     98  C   UNL A   1      27.458  31.765  23.007  1.00  0.00     0.131 C 
ENDBRANCH  90  91
ENDBRANCH  88  90
ENDBRANCH  85  88
BRANCH  86  99
ATOM     99  O   UNL A   1      33.806  25.011  22.318  1.00  0.00    -0.391 OA
ATOM    100  H   UNL A   1      33.969  25.259  23.242  1.00  0.00     0.211 HD
ENDBRANCH  86  99
ENDBRANCH  81  83
ENDBRANCH  80  81
ENDBRANCH  79  80
ENDBRANCH  78  79
ENDBRANCH  77  78
ENDBRANCH  76  77
ENDBRANCH  75  76
ENDBRANCH   1  75
TORSDOF 27
ENDMDL
MODEL 3
REMARK VINA RESULT:      -8.4      8.347     15.678
REMARK SMILES O=C(OCCOCCOCCOCCOC(=O)[C@H]1C[C@@H](O)CN1C(=O)C[C@@H]1CSCC[NH2+]1)c1ccc(-c2c3nc(c(-c4cc(S(=O)(=O)[O-])ccc4F)c4ccc([nH]4)c(-c4cc(S(=O)(=O)[O-])ccc4F)c4nc(c(-c5cc(S(=O)(=O)[O-])ccc5F)c5ccc2[nH]5)C=C4)C=C3)cc1
REMARK SMILES IDX 9 1 8 2 7 3 6 4 5 5 4 6 3 7 2 8 1 9 33 10 34 11 95 12 35 13
REMARK SMILES IDX 94 14 36 15 37 16 38 17 88 18 39 19 93 20 87 21 89 22 40 23
REMARK SMILES IDX 92 24 86 25 85 26 41 28 73 29 53 30 72 31 54 32 57 33 71 34
REMARK SMILES IDX 90 35 55 36 56 37 70 39 91 40 58 41 42 42 43 43 51 44 44 45
REMARK SMILES IDX 50 46 52 47 49 48 45 49 46 50 47 51 48 52 74 53 75 54 83 55
REMARK SMILES IDX 76 56 82 57 84 58 81 59 77 60 78 61 79 62 80 63 59 64 60 65
REMARK SMILES IDX 68 66 61 67 67 68 69 69 66 70 62 71 63 72 64 73 65 74 10 75
REMARK SMILES IDX 11 76 12 77 13 78 14 79 15 80 16 81 17 82 18 83 19 84 23 85
REMARK SMILES IDX 20 86 22 87 24 88 25 89 26 90 27 91 28 92 32 93 29 94 31 95
REMARK SMILES IDX 30 98 21 99
REMARK H PARENT 89 27 57 38 32 96 32 97 21 100
REMARK Flexibility Score: inf
ROOT
ATOM      1  O   UNL A   1      41.377  23.051  27.049  1.00  0.00    -0.377 OA
ENDROOT
BRANCH   1   2
ATOM      2  C   UNL A   1      42.626  22.468  26.694  1.00  0.00     0.188 C 
BRANCH   2   3
ATOM      3  C   UNL A   1      43.778  23.447  26.746  1.00  0.00     0.188 C 
BRANCH   3   4
ATOM      4  O   UNL A   1      44.188  23.771  25.428  1.00  0.00    -0.376 OA
BRANCH   4   5
ATOM      5  C   UNL A   1      44.056  25.123  25.010  1.00  0.00     0.202 C 
BRANCH   5   6
ATOM      6  C   UNL A   1      42.633  25.663  25.001  1.00  0.00     0.261 C 
BRANCH   6   7
ATOM      7  O   UNL A   1      42.528  27.094  24.956  1.00  0.00    -0.460 OA
BRANCH   7   8
ATOM      8  C   UNL A   1      42.530  28.012  25.950  1.00  0.00     0.338 C 
ATOM      9  O   UNL A   1      42.317  29.186  25.638  1.00  0.00    -0.246 OA
BRANCH   8  10
ATOM     10  C   UNL A   1      42.792  27.731  27.392  1.00  0.00     0.060 A 
ATOM     11  C   UNL A   1      41.900  27.147  28.291  1.00  0.00     0.016 A 
ATOM     12  C   UNL A   1      44.101  27.972  27.844  1.00  0.00     0.016 A 
ATOM     13  C   UNL A   1      42.256  26.821  29.584  1.00  0.00     0.010 A 
ATOM     14  C   UNL A   1      44.473  27.674  29.156  1.00  0.00     0.010 A 
ATOM     15  C   UNL A   1      43.531  27.119  30.029  1.00  0.00    -0.014 A 
BRANCH  15  16
ATOM     16  C   UNL A   1      43.733  27.105  31.480  1.00  0.00     0.031 A 
ATOM     17  C   UNL A   1      43.233  28.297  32.228  1.00  0.00     0.074 A 
ATOM     18  C   UNL A   1      44.178  25.998  32.092  1.00  0.00     0.049 A 
ATOM     19  N   UNL A   1      43.421  28.641  33.468  1.00  0.00    -0.248 NA
ATOM     20  C   UNL A   1      42.397  29.235  31.458  1.00  0.00     0.031 C 
ATOM     21  C   UNL A   1      44.465  24.724  31.427  1.00  0.00     0.029 A 
ATOM     22  N   UNL A   1      44.452  25.762  33.409  1.00  0.00    -0.354 N 
ATOM     23  C   UNL A   1      42.781  29.867  33.610  1.00  0.00     0.074 A 
ATOM     24  C   UNL A   1      42.194  30.201  32.334  1.00  0.00     0.031 C 
ATOM     25  C   UNL A   1      44.905  23.847  32.342  1.00  0.00     0.029 A 
ATOM     26  C   UNL A   1      45.021  24.530  33.625  1.00  0.00     0.049 A 
ATOM     27  H   UNL A   1      44.263  26.407  34.127  1.00  0.00     0.167 HD
ATOM     28  C   UNL A   1      42.728  30.641  34.719  1.00  0.00     0.034 A 
ATOM     29  C   UNL A   1      45.647  24.063  34.721  1.00  0.00     0.034 A 
ATOM     30  C   UNL A   1      43.363  30.236  35.946  1.00  0.00     0.049 A 
ATOM     31  C   UNL A   1      45.711  24.989  35.910  1.00  0.00     0.074 A 
ATOM     32  C   UNL A   1      43.490  30.927  37.133  1.00  0.00     0.029 A 
ATOM     33  N   UNL A   1      43.999  29.007  36.125  1.00  0.00    -0.354 N 
ATOM     34  N   UNL A   1      45.223  26.205  36.030  1.00  0.00    -0.248 NA
ATOM     35  C   UNL A   1      46.414  24.500  37.097  1.00  0.00     0.031 C 
ATOM     36  C   UNL A   1      44.270  30.149  37.998  1.00  0.00     0.029 A 
ATOM     37  C   UNL A   1      44.550  28.932  37.389  1.00  0.00     0.049 A 
ATOM     38  H   UNL A   1      44.050  28.295  35.446  1.00  0.00     0.167 HD
ATOM     39  C   UNL A   1      45.538  26.622  37.317  1.00  0.00     0.074 A 
ATOM     40  C   UNL A   1      46.259  25.520  37.933  1.00  0.00     0.031 C 
ATOM     41  C   UNL A   1      45.259  27.796  37.942  1.00  0.00     0.034 A 
BRANCH  28  42
ATOM     42  C   UNL A   1      42.112  32.011  34.558  1.00  0.00     0.023 A 
ATOM     43  C   UNL A   1      40.731  32.236  34.712  1.00  0.00     0.031 A 
ATOM     44  C   UNL A   1      42.898  33.073  34.075  1.00  0.00     0.131 A 
ATOM     45  C   UNL A   1      40.165  33.442  34.266  1.00  0.00     0.055 A 
ATOM     46  C   UNL A   1      42.341  34.307  33.732  1.00  0.00     0.041 A 
ATOM     47  F   UNL A   1      44.214  32.913  33.869  1.00  0.00    -0.206 F 
ATOM     48  C   UNL A   1      40.962  34.489  33.802  1.00  0.00     0.022 A 
BRANCH  45  49
ATOM     49  S   UNL A   1      38.359  33.536  34.083  1.00  0.00     0.124 S 
ATOM     50  O   UNL A   1      38.174  33.051  32.717  1.00  0.00    -0.237 OA
ATOM     51  O   UNL A   1      37.887  32.649  35.142  1.00  0.00    -0.237 OA
ATOM     52  O   UNL A   1      38.066  34.953  34.278  1.00  0.00    -0.744 OA
ENDBRANCH  45  49
ENDBRANCH  28  42
BRANCH  29  53
ATOM     53  C   UNL A   1      46.340  22.743  34.682  1.00  0.00     0.023 A 
ATOM     54  C   UNL A   1      47.734  22.641  34.573  1.00  0.00     0.031 A 
ATOM     55  C   UNL A   1      45.599  21.547  34.769  1.00  0.00     0.131 A 
ATOM     56  C   UNL A   1      48.341  21.373  34.541  1.00  0.00     0.055 A 
ATOM     57  C   UNL A   1      46.210  20.292  34.789  1.00  0.00     0.041 A 
ATOM     58  F   UNL A   1      44.260  21.580  34.870  1.00  0.00    -0.206 F 
ATOM     59  C   UNL A   1      47.592  20.201  34.666  1.00  0.00     0.022 A 
BRANCH  56  60
ATOM     60  S   UNL A   1      50.133  21.269  34.277  1.00  0.00     0.124 S 
ATOM     61  O   UNL A   1      50.288  19.878  33.849  1.00  0.00    -0.237 OA
ATOM     62  O   UNL A   1      50.350  22.281  33.254  1.00  0.00    -0.237 OA
ATOM     63  O   UNL A   1      50.690  21.579  35.591  1.00  0.00    -0.744 OA
ENDBRANCH  56  60
ENDBRANCH  29  53
BRANCH  41  64
ATOM     64  C   UNL A   1      45.680  27.911  39.381  1.00  0.00     0.023 A 
ATOM     65  C   UNL A   1      46.797  28.667  39.768  1.00  0.00     0.031 A 
ATOM     66  C   UNL A   1      44.902  27.298  40.380  1.00  0.00     0.131 A 
ATOM     67  C   UNL A   1      47.123  28.769  41.126  1.00  0.00     0.055 A 
ATOM     68  C   UNL A   1      45.198  27.454  41.732  1.00  0.00     0.041 A 
ATOM     69  F   UNL A   1      43.825  26.566  40.054  1.00  0.00    -0.206 F 
ATOM     70  C   UNL A   1      46.318  28.188  42.111  1.00  0.00     0.022 A 
BRANCH  67  71
ATOM     71  S   UNL A   1      48.652  29.623  41.590  1.00  0.00     0.124 S 
ATOM     72  O   UNL A   1      48.745  30.655  40.561  1.00  0.00    -0.237 OA
ATOM     73  O   UNL A   1      48.352  30.093  42.938  1.00  0.00    -0.237 OA
ATOM     74  O   UNL A   1      49.668  28.575  41.510  1.00  0.00    -0.744 OA
ENDBRANCH  67  71
ENDBRANCH  41  64
ENDBRANCH  15  16
ENDBRANCH   8  10
ENDBRANCH   7   8
ENDBRANCH   6   7
ENDBRANCH   5   6
ENDBRANCH   4   5
ENDBRANCH   3   4
ENDBRANCH   2   3
ENDBRANCH   1   2
BRANCH   1  75
ATOM     75  C   UNL A   1      40.250  22.209  27.288  1.00  0.00     0.188 C 
BRANCH  75  76
ATOM     76  C   UNL A   1      39.601  21.457  26.111  1.00  0.00     0.188 C 
BRANCH  76  77
ATOM     77  O   UNL A   1      38.195  21.632  26.061  1.00  0.00    -0.376 OA
BRANCH  77  78
ATOM     78  C   UNL A   1      37.702  22.481  25.029  1.00  0.00     0.202 C 
BRANCH  78  79
ATOM     79  C   UNL A   1      36.418  23.305  25.283  1.00  0.00     0.261 C 
BRANCH  79  80
ATOM     80  O   UNL A   1      35.777  23.047  26.546  1.00  0.00    -0.462 OA
BRANCH  80  81
ATOM     81  C   UNL A   1      34.651  22.295  26.513  1.00  0.00     0.329 C 
ATOM     82  O   UNL A   1      34.308  21.564  27.438  1.00  0.00    -0.250 OA
BRANCH  81  83
ATOM     83  C   UNL A   1      33.770  22.586  25.262  1.00  0.00     0.197 C 
ATOM     84  C   UNL A   1      33.410  21.480  24.272  1.00  0.00     0.070 C 
ATOM     85  N   UNL A   1      32.457  22.945  25.760  1.00  0.00    -0.326 N 
ATOM     86  C   UNL A   1      32.334  20.704  24.998  1.00  0.00     0.136 C 
ATOM     87  C   UNL A   1      31.531  21.816  25.679  1.00  0.00     0.152 C 
BRANCH  85  88
ATOM     88  C   UNL A   1      32.272  24.211  26.242  1.00  0.00     0.229 C 
ATOM     89  O   UNL A   1      31.515  24.460  27.179  1.00  0.00    -0.275 OA
BRANCH  88  90
ATOM     90  C   UNL A   1      33.081  25.291  25.608  1.00  0.00     0.166 C 
BRANCH  90  91
ATOM     91  C   UNL A   1      32.470  25.827  24.301  1.00  0.00     0.201 C 
ATOM     92  C   UNL A   1      33.281  26.842  23.455  1.00  0.00     0.135 C 
ATOM     93  N   UNL A   1      31.073  26.268  24.531  1.00  0.00    -0.342 N 
ATOM     94  S   UNL A   1      33.369  28.532  24.113  1.00  0.00    -0.150 SA
ATOM     95  C   UNL A   1      31.029  27.542  25.277  1.00  0.00     0.271 C 
ATOM     96  H   UNL A   1      30.584  25.552  25.068  1.00  0.00     0.346 HD
ATOM     97  H   UNL A   1      30.626  26.410  23.626  1.00  0.00     0.346 HD
ATOM     98  C   UNL A   1      31.613  28.737  24.521  1.00  0.00     0.131 C 
ENDBRANCH  90  91
ENDBRANCH  88  90
ENDBRANCH  85  88
BRANCH  86  99
ATOM     99  O   UNL A   1      32.934  19.843  25.964  1.00  0.00    -0.391 OA
ATOM    100  H   UNL A   1      33.751  19.467  25.600  1.00  0.00     0.211 HD
ENDBRANCH  86  99
ENDBRANCH  81  83
ENDBRANCH  80  81
ENDBRANCH  79  80
ENDBRANCH  78  79
ENDBRANCH  77  78
ENDBRANCH  76  77
ENDBRANCH  75  76
ENDBRANCH   1  75
TORSDOF 27
ENDMDL
