MODEL 1
REMARK VINA RESULT:      -9.6      0.000      0.000
REMARK SMILES O=C(OCCOCCOCCOCCOC(=O)c1cc(/C=C/c2cc(O)cc(O)c2)ccc1O)c1ccc(-c2c3nc(c(-c4cc(S(=O)(=O)[O-])ccc4F)c4ccc([nH]4)c(-c4cc(S(=O)(=O)[O-])ccc4F)c4nc(c(-c5cc(S(=O)(=O)[O-])ccc5F)c5ccc2[nH]5)C=C4)C=C3)cc1
REMARK SMILES IDX 9 1 8 2 7 3 6 4 5 5 4 6 3 7 2 8 1 9 35 10 36 11 97 12 37 13
REMARK SMILES IDX 96 14 38 15 39 16 40 17 90 18 41 19 95 20 89 21 91 22 42 23
REMARK SMILES IDX 94 24 88 25 87 26 43 28 75 29 55 30 74 31 56 32 59 33 73 34
REMARK SMILES IDX 92 35 57 36 58 37 72 39 93 40 60 41 44 42 45 43 53 44 46 45
REMARK SMILES IDX 52 46 54 47 51 48 47 49 48 50 49 51 50 52 76 53 77 54 85 55
REMARK SMILES IDX 78 56 84 57 86 58 83 59 79 60 80 61 81 62 82 63 61 64 62 65
REMARK SMILES IDX 70 66 63 67 69 68 71 69 68 70 64 71 65 72 66 73 67 74 10 75
REMARK SMILES IDX 11 76 12 77 13 78 14 79 15 80 16 81 17 82 18 83 19 84 33 85
REMARK SMILES IDX 20 86 32 87 31 88 34 89 21 91 22 92 23 93 24 94 30 95 25 96
REMARK SMILES IDX 28 97 27 98 26 99 29 101
REMARK H PARENT 91 27 59 38 34 90 26 100 29 102
REMARK Flexibility Score: inf
ROOT
ATOM      1  O   UNL A   1      33.286  22.643  22.524  1.00  0.00    -0.377 OA
ENDROOT
BRANCH   1   2
ATOM      2  C   UNL A   1      33.659  23.959  22.930  1.00  0.00     0.188 C 
BRANCH   2   3
ATOM      3  C   UNL A   1      34.999  24.037  23.660  1.00  0.00     0.188 C 
BRANCH   3   4
ATOM      4  O   UNL A   1      35.989  23.306  22.936  1.00  0.00    -0.376 OA
BRANCH   4   5
ATOM      5  C   UNL A   1      36.686  22.311  23.680  1.00  0.00     0.202 C 
BRANCH   5   6
ATOM      6  C   UNL A   1      36.695  22.557  25.189  1.00  0.00     0.261 C 
BRANCH   6   7
ATOM      7  O   UNL A   1      37.549  21.631  25.876  1.00  0.00    -0.460 OA
BRANCH   7   8
ATOM      8  C   UNL A   1      38.879  21.764  26.117  1.00  0.00     0.338 C 
ATOM      9  O   UNL A   1      39.602  20.790  25.903  1.00  0.00    -0.246 OA
BRANCH   8  10
ATOM     10  C   UNL A   1      39.526  23.021  26.612  1.00  0.00     0.060 A 
ATOM     11  C   UNL A   1      39.204  24.318  26.203  1.00  0.00     0.016 A 
ATOM     12  C   UNL A   1      40.478  22.880  27.637  1.00  0.00     0.016 A 
ATOM     13  C   UNL A   1      39.831  25.435  26.744  1.00  0.00     0.010 A 
ATOM     14  C   UNL A   1      41.095  23.999  28.209  1.00  0.00     0.010 A 
ATOM     15  C   UNL A   1      40.779  25.282  27.749  1.00  0.00    -0.014 A 
BRANCH  15  16
ATOM     16  C   UNL A   1      41.508  26.475  28.218  1.00  0.00     0.031 A 
ATOM     17  C   UNL A   1      42.903  26.688  27.716  1.00  0.00     0.074 A 
ATOM     18  C   UNL A   1      40.886  27.382  28.995  1.00  0.00     0.049 A 
ATOM     19  N   UNL A   1      43.778  27.592  28.058  1.00  0.00    -0.248 NA
ATOM     20  C   UNL A   1      43.370  25.758  26.672  1.00  0.00     0.031 C 
ATOM     21  C   UNL A   1      39.484  27.312  29.412  1.00  0.00     0.029 A 
ATOM     22  N   UNL A   1      41.344  28.542  29.563  1.00  0.00    -0.354 N 
ATOM     23  C   UNL A   1      44.912  27.319  27.301  1.00  0.00     0.074 A 
ATOM     24  C   UNL A   1      44.612  26.173  26.474  1.00  0.00     0.031 C 
ATOM     25  C   UNL A   1      39.199  28.380  30.176  1.00  0.00     0.029 A 
ATOM     26  C   UNL A   1      40.415  29.164  30.367  1.00  0.00     0.049 A 
ATOM     27  H   UNL A   1      42.250  28.895  29.412  1.00  0.00     0.167 HD
ATOM     28  C   UNL A   1      46.101  27.965  27.323  1.00  0.00     0.034 A 
ATOM     29  C   UNL A   1      40.562  30.211  31.204  1.00  0.00     0.034 A 
ATOM     30  C   UNL A   1      46.356  29.099  28.173  1.00  0.00     0.049 A 
ATOM     31  C   UNL A   1      41.933  30.839  31.296  1.00  0.00     0.074 A 
ATOM     32  C   UNL A   1      47.523  29.824  28.324  1.00  0.00     0.029 A 
ATOM     33  N   UNL A   1      45.418  29.664  29.031  1.00  0.00    -0.354 N 
ATOM     34  N   UNL A   1      43.020  30.551  30.612  1.00  0.00    -0.248 NA
ATOM     35  C   UNL A   1      42.110  31.915  32.278  1.00  0.00     0.031 C 
ATOM     36  C   UNL A   1      47.310  30.781  29.323  1.00  0.00     0.029 A 
ATOM     37  C   UNL A   1      45.991  30.698  29.747  1.00  0.00     0.049 A 
ATOM     38  H   UNL A   1      44.482  29.368  29.117  1.00  0.00     0.167 HD
ATOM     39  C   UNL A   1      44.005  31.414  31.080  1.00  0.00     0.074 A 
ATOM     40  C   UNL A   1      43.374  32.257  32.075  1.00  0.00     0.031 C 
ATOM     41  C   UNL A   1      45.316  31.504  30.736  1.00  0.00     0.034 A 
BRANCH  28  42
ATOM     42  C   UNL A   1      47.216  27.385  26.495  1.00  0.00     0.023 A 
ATOM     43  C   UNL A   1      47.457  27.788  25.169  1.00  0.00     0.031 A 
ATOM     44  C   UNL A   1      48.016  26.360  27.030  1.00  0.00     0.131 A 
ATOM     45  C   UNL A   1      48.433  27.127  24.406  1.00  0.00     0.055 A 
ATOM     46  C   UNL A   1      49.030  25.753  26.288  1.00  0.00     0.041 A 
ATOM     47  F   UNL A   1      47.807  25.914  28.278  1.00  0.00    -0.206 F 
ATOM     48  C   UNL A   1      49.237  26.129  24.964  1.00  0.00     0.022 A 
BRANCH  45  49
ATOM     49  S   UNL A   1      48.567  27.509  22.637  1.00  0.00     0.124 S 
ATOM     50  O   UNL A   1      48.614  26.172  22.050  1.00  0.00    -0.237 OA
ATOM     51  O   UNL A   1      47.351  28.274  22.385  1.00  0.00    -0.237 OA
ATOM     52  O   UNL A   1      49.812  28.268  22.543  1.00  0.00    -0.744 OA
ENDBRANCH  45  49
ENDBRANCH  28  42
BRANCH  29  53
ATOM     53  C   UNL A   1      39.447  30.654  32.099  1.00  0.00     0.023 A 
ATOM     54  C   UNL A   1      38.570  31.686  31.724  1.00  0.00     0.031 A 
ATOM     55  C   UNL A   1      39.296  30.111  33.390  1.00  0.00     0.131 A 
ATOM     56  C   UNL A   1      37.628  32.178  32.644  1.00  0.00     0.055 A 
ATOM     57  C   UNL A   1      38.313  30.556  34.276  1.00  0.00     0.041 A 
ATOM     58  F   UNL A   1      40.112  29.135  33.818  1.00  0.00    -0.206 F 
ATOM     59  C   UNL A   1      37.483  31.609  33.912  1.00  0.00     0.022 A 
BRANCH  56  60
ATOM     60  S   UNL A   1      36.681  33.666  32.213  1.00  0.00     0.124 S 
ATOM     61  O   UNL A   1      36.636  34.371  33.489  1.00  0.00    -0.237 OA
ATOM     62  O   UNL A   1      37.516  34.265  31.178  1.00  0.00    -0.237 OA
ATOM     63  O   UNL A   1      35.401  33.133  31.750  1.00  0.00    -0.744 OA
ENDBRANCH  56  60
ENDBRANCH  29  53
BRANCH  41  64
ATOM     64  C   UNL A   1      46.124  32.560  31.441  1.00  0.00     0.023 A 
ATOM     65  C   UNL A   1      46.833  32.269  32.618  1.00  0.00     0.031 A 
ATOM     66  C   UNL A   1      46.190  33.865  30.925  1.00  0.00     0.131 A 
ATOM     67  C   UNL A   1      47.543  33.286  33.269  1.00  0.00     0.055 A 
ATOM     68  C   UNL A   1      46.946  34.858  31.545  1.00  0.00     0.041 A 
ATOM     69  F   UNL A   1      45.529  34.190  29.802  1.00  0.00    -0.206 F 
ATOM     70  C   UNL A   1      47.620  34.573  32.730  1.00  0.00     0.022 A 
BRANCH  67  71
ATOM     71  S   UNL A   1      48.312  32.919  34.869  1.00  0.00     0.124 S 
ATOM     72  O   UNL A   1      49.711  32.735  34.497  1.00  0.00    -0.237 OA
ATOM     73  O   UNL A   1      48.012  34.119  35.645  1.00  0.00    -0.237 OA
ATOM     74  O   UNL A   1      47.622  31.710  35.310  1.00  0.00    -0.744 OA
ENDBRANCH  67  71
ENDBRANCH  41  64
ENDBRANCH  15  16
ENDBRANCH   8  10
ENDBRANCH   7   8
ENDBRANCH   6   7
ENDBRANCH   5   6
ENDBRANCH   4   5
ENDBRANCH   3   4
ENDBRANCH   2   3
ENDBRANCH   1   2
BRANCH   1  75
ATOM     75  C   UNL A   1      32.156  22.068  23.173  1.00  0.00     0.188 C 
BRANCH  75  76
ATOM     76  C   UNL A   1      32.374  21.084  24.343  1.00  0.00     0.188 C 
BRANCH  76  77
ATOM     77  O   UNL A   1      33.124  21.602  25.433  1.00  0.00    -0.376 OA
BRANCH  77  78
ATOM     78  C   UNL A   1      32.358  22.269  26.434  1.00  0.00     0.202 C 
BRANCH  78  79
ATOM     79  C   UNL A   1      32.406  23.794  26.317  1.00  0.00     0.261 C 
BRANCH  79  80
ATOM     80  O   UNL A   1      31.470  24.478  27.167  1.00  0.00    -0.460 OA
BRANCH  80  81
ATOM     81  C   UNL A   1      30.280  24.865  26.651  1.00  0.00     0.342 C 
ATOM     82  O   UNL A   1      29.184  24.383  26.879  1.00  0.00    -0.246 OA
BRANCH  81  83
ATOM     83  C   UNL A   1      30.506  26.154  25.959  1.00  0.00     0.102 A 
ATOM     84  C   UNL A   1      31.411  27.072  26.532  1.00  0.00     0.027 A 
ATOM     85  C   UNL A   1      29.986  26.387  24.683  1.00  0.00     0.130 A 
ATOM     86  C   UNL A   1      31.839  28.188  25.801  1.00  0.00    -0.025 A 
ATOM     87  C   UNL A   1      30.371  27.516  23.968  1.00  0.00     0.048 A 
ATOM     88  C   UNL A   1      31.296  28.404  24.524  1.00  0.00     0.012 A 
BRANCH  85  89
ATOM     89  O   UNL A   1      29.097  25.514  24.124  1.00  0.00    -0.507 OA
ATOM     90  H   UNL A   1      29.336  25.028  23.359  1.00  0.00     0.293 HD
ENDBRANCH  85  89
BRANCH  86  91
ATOM     91  C   UNL A   1      32.802  29.180  26.305  1.00  0.00     0.009 C 
ATOM     92  C   UNL A   1      33.688  29.005  27.301  1.00  0.00     0.009 C 
BRANCH  92  93
ATOM     93  C   UNL A   1      34.642  30.064  27.694  1.00  0.00    -0.018 A 
ATOM     94  C   UNL A   1      36.025  29.818  27.736  1.00  0.00     0.054 A 
ATOM     95  C   UNL A   1      34.176  31.351  28.008  1.00  0.00     0.054 A 
ATOM     96  C   UNL A   1      36.907  30.823  28.130  1.00  0.00     0.119 A 
ATOM     97  C   UNL A   1      35.080  32.344  28.397  1.00  0.00     0.119 A 
ATOM     98  C   UNL A   1      36.444  32.083  28.471  1.00  0.00     0.092 A 
BRANCH  96  99
ATOM     99  O   UNL A   1      38.251  30.597  28.189  1.00  0.00    -0.508 OA
ATOM    100  H   UNL A   1      38.818  31.236  28.574  1.00  0.00     0.293 HD
ENDBRANCH  96  99
BRANCH  97 101
ATOM    101  O   UNL A   1      34.665  33.602  28.723  1.00  0.00    -0.508 OA
ATOM    102  H   UNL A   1      33.753  33.812  28.712  1.00  0.00     0.293 HD
ENDBRANCH  97 101
ENDBRANCH  92  93
ENDBRANCH  86  91
ENDBRANCH  81  83
ENDBRANCH  80  81
ENDBRANCH  79  80
ENDBRANCH  78  79
ENDBRANCH  77  78
ENDBRANCH  76  77
ENDBRANCH  75  76
ENDBRANCH   1  75
TORSDOF 28
ENDMDL
MODEL 2
REMARK VINA RESULT:      -9.6      4.383      8.968
REMARK SMILES O=C(OCCOCCOCCOCCOC(=O)c1cc(/C=C/c2cc(O)cc(O)c2)ccc1O)c1ccc(-c2c3nc(c(-c4cc(S(=O)(=O)[O-])ccc4F)c4ccc([nH]4)c(-c4cc(S(=O)(=O)[O-])ccc4F)c4nc(c(-c5cc(S(=O)(=O)[O-])ccc5F)c5ccc2[nH]5)C=C4)C=C3)cc1
REMARK SMILES IDX 9 1 8 2 7 3 6 4 5 5 4 6 3 7 2 8 1 9 35 10 36 11 97 12 37 13
REMARK SMILES IDX 96 14 38 15 39 16 40 17 90 18 41 19 95 20 89 21 91 22 42 23
REMARK SMILES IDX 94 24 88 25 87 26 43 28 75 29 55 30 74 31 56 32 59 33 73 34
REMARK SMILES IDX 92 35 57 36 58 37 72 39 93 40 60 41 44 42 45 43 53 44 46 45
REMARK SMILES IDX 52 46 54 47 51 48 47 49 48 50 49 51 50 52 76 53 77 54 85 55
REMARK SMILES IDX 78 56 84 57 86 58 83 59 79 60 80 61 81 62 82 63 61 64 62 65
REMARK SMILES IDX 70 66 63 67 69 68 71 69 68 70 64 71 65 72 66 73 67 74 10 75
REMARK SMILES IDX 11 76 12 77 13 78 14 79 15 80 16 81 17 82 18 83 19 84 33 85
REMARK SMILES IDX 20 86 32 87 31 88 34 89 21 91 22 92 23 93 24 94 30 95 25 96
REMARK SMILES IDX 28 97 27 98 26 99 29 101
REMARK H PARENT 91 27 59 38 34 90 26 100 29 102
REMARK Flexibility Score: inf
ROOT
ATOM      1  O   UNL A   1      33.700  31.383  27.609  1.00  0.00    -0.377 OA
ENDROOT
BRANCH   1   2
ATOM      2  C   UNL A   1      35.050  31.679  27.962  1.00  0.00     0.188 C 
BRANCH   2   3
ATOM      3  C   UNL A   1      35.268  33.097  28.487  1.00  0.00     0.188 C 
BRANCH   3   4
ATOM      4  O   UNL A   1      34.009  33.751  28.654  1.00  0.00    -0.376 OA
BRANCH   4   5
ATOM      5  C   UNL A   1      34.012  35.157  28.426  1.00  0.00     0.202 C 
BRANCH   5   6
ATOM      6  C   UNL A   1      33.034  35.932  29.311  1.00  0.00     0.261 C 
BRANCH   6   7
ATOM      7  O   UNL A   1      32.508  35.117  30.367  1.00  0.00    -0.460 OA
BRANCH   7   8
ATOM      8  C   UNL A   1      32.951  35.048  31.649  1.00  0.00     0.338 C 
ATOM      9  O   UNL A   1      32.263  35.573  32.525  1.00  0.00    -0.246 OA
BRANCH   8  10
ATOM     10  C   UNL A   1      34.216  34.363  32.070  1.00  0.00     0.060 A 
ATOM     11  C   UNL A   1      34.302  33.087  32.633  1.00  0.00     0.016 A 
ATOM     12  C   UNL A   1      35.420  35.034  31.792  1.00  0.00     0.016 A 
ATOM     13  C   UNL A   1      35.524  32.511  32.960  1.00  0.00     0.010 A 
ATOM     14  C   UNL A   1      36.657  34.451  32.091  1.00  0.00     0.010 A 
ATOM     15  C   UNL A   1      36.708  33.188  32.692  1.00  0.00    -0.014 A 
BRANCH  15  16
ATOM     16  C   UNL A   1      37.978  32.601  33.157  1.00  0.00     0.031 A 
ATOM     17  C   UNL A   1      38.600  31.523  32.325  1.00  0.00     0.074 A 
ATOM     18  C   UNL A   1      38.592  33.102  34.246  1.00  0.00     0.049 A 
ATOM     19  N   UNL A   1      39.646  30.785  32.571  1.00  0.00    -0.248 NA
ATOM     20  C   UNL A   1      37.958  31.249  31.026  1.00  0.00     0.031 C 
ATOM     21  C   UNL A   1      38.116  34.244  35.030  1.00  0.00     0.029 A 
ATOM     22  N   UNL A   1      39.749  32.726  34.876  1.00  0.00    -0.354 N 
ATOM     23  C   UNL A   1      39.768  29.933  31.479  1.00  0.00     0.074 A 
ATOM     24  C   UNL A   1      38.697  30.252  30.563  1.00  0.00     0.031 C 
ATOM     25  C   UNL A   1      38.972  34.470  36.041  1.00  0.00     0.029 A 
ATOM     26  C   UNL A   1      40.008  33.443  36.023  1.00  0.00     0.049 A 
ATOM     27  H   UNL A   1      40.337  32.011  34.542  1.00  0.00     0.167 HD
ATOM     28  C   UNL A   1      40.687  28.959  31.283  1.00  0.00     0.034 A 
ATOM     29  C   UNL A   1      40.944  33.243  36.973  1.00  0.00     0.034 A 
ATOM     30  C   UNL A   1      41.732  28.672  32.231  1.00  0.00     0.049 A 
ATOM     31  C   UNL A   1      41.883  32.074  36.786  1.00  0.00     0.074 A 
ATOM     32  C   UNL A   1      42.705  27.692  32.178  1.00  0.00     0.029 A 
ATOM     33  N   UNL A   1      41.927  29.368  33.419  1.00  0.00    -0.354 N 
ATOM     34  N   UNL A   1      41.969  31.238  35.773  1.00  0.00    -0.248 NA
ATOM     35  C   UNL A   1      42.836  31.804  37.868  1.00  0.00     0.031 C 
ATOM     36  C   UNL A   1      43.442  27.752  33.366  1.00  0.00     0.029 A 
ATOM     37  C   UNL A   1      42.975  28.812  34.129  1.00  0.00     0.049 A 
ATOM     38  H   UNL A   1      41.395  30.144  33.712  1.00  0.00     0.167 HD
ATOM     39  C   UNL A   1      42.988  30.349  36.096  1.00  0.00     0.074 A 
ATOM     40  C   UNL A   1      43.511  30.774  37.380  1.00  0.00     0.031 C 
ATOM     41  C   UNL A   1      43.451  29.271  35.412  1.00  0.00     0.034 A 
BRANCH  28  42
ATOM     42  C   UNL A   1      40.518  28.087  30.068  1.00  0.00     0.023 A 
ATOM     43  C   UNL A   1      41.334  28.215  28.930  1.00  0.00     0.031 A 
ATOM     44  C   UNL A   1      39.473  27.146  30.029  1.00  0.00     0.131 A 
ATOM     45  C   UNL A   1      41.054  27.457  27.782  1.00  0.00     0.055 A 
ATOM     46  C   UNL A   1      39.241  26.348  28.909  1.00  0.00     0.041 A 
ATOM     47  F   UNL A   1      38.644  27.006  31.075  1.00  0.00    -0.206 F 
ATOM     48  C   UNL A   1      40.028  26.508  27.772  1.00  0.00     0.022 A 
BRANCH  45  49
ATOM     49  S   UNL A   1      41.975  27.805  26.258  1.00  0.00     0.124 S 
ATOM     50  O   UNL A   1      43.355  27.615  26.697  1.00  0.00    -0.237 OA
ATOM     51  O   UNL A   1      41.456  26.802  25.336  1.00  0.00    -0.237 OA
ATOM     52  O   UNL A   1      41.612  29.187  25.945  1.00  0.00    -0.744 OA
ENDBRANCH  45  49
ENDBRANCH  28  42
BRANCH  29  53
ATOM     53  C   UNL A   1      40.973  34.066  38.223  1.00  0.00     0.023 A 
ATOM     54  C   UNL A   1      41.874  35.132  38.379  1.00  0.00     0.031 A 
ATOM     55  C   UNL A   1      40.157  33.739  39.324  1.00  0.00     0.131 A 
ATOM     56  C   UNL A   1      41.978  35.791  39.617  1.00  0.00     0.055 A 
ATOM     57  C   UNL A   1      40.215  34.440  40.530  1.00  0.00     0.041 A 
ATOM     58  F   UNL A   1      39.287  32.719  39.247  1.00  0.00    -0.206 F 
ATOM     59  C   UNL A   1      41.143  35.462  40.688  1.00  0.00     0.022 A 
BRANCH  56  60
ATOM     60  S   UNL A   1      43.315  36.996  39.856  1.00  0.00     0.124 S 
ATOM     61  O   UNL A   1      42.650  38.249  39.520  1.00  0.00    -0.237 OA
ATOM     62  O   UNL A   1      43.647  36.801  41.263  1.00  0.00    -0.237 OA
ATOM     63  O   UNL A   1      44.340  36.560  38.909  1.00  0.00    -0.744 OA
ENDBRANCH  56  60
ENDBRANCH  29  53
BRANCH  41  64
ATOM     64  C   UNL A   1      44.580  28.506  36.048  1.00  0.00     0.023 A 
ATOM     65  C   UNL A   1      44.340  27.560  37.058  1.00  0.00     0.031 A 
ATOM     66  C   UNL A   1      45.905  28.721  35.633  1.00  0.00     0.131 A 
ATOM     67  C   UNL A   1      45.418  26.894  37.655  1.00  0.00     0.055 A 
ATOM     68  C   UNL A   1      46.969  28.013  36.190  1.00  0.00     0.041 A 
ATOM     69  F   UNL A   1      46.183  29.616  34.671  1.00  0.00    -0.206 F 
ATOM     70  C   UNL A   1      46.729  27.100  37.215  1.00  0.00     0.022 A 
BRANCH  67  71
ATOM     71  S   UNL A   1      45.091  25.802  39.063  1.00  0.00     0.124 S 
ATOM     72  O   UNL A   1      44.019  26.511  39.754  1.00  0.00    -0.237 OA
ATOM     73  O   UNL A   1      44.710  24.552  38.411  1.00  0.00    -0.237 OA
ATOM     74  O   UNL A   1      46.368  25.764  39.771  1.00  0.00    -0.744 OA
ENDBRANCH  67  71
ENDBRANCH  41  64
ENDBRANCH  15  16
ENDBRANCH   8  10
ENDBRANCH   7   8
ENDBRANCH   6   7
ENDBRANCH   5   6
ENDBRANCH   4   5
ENDBRANCH   3   4
ENDBRANCH   2   3
ENDBRANCH   1   2
BRANCH   1  75
ATOM     75  C   UNL A   1      33.385  30.015  27.366  1.00  0.00     0.188 C 
BRANCH  75  76
ATOM     76  C   UNL A   1      31.927  29.620  27.041  1.00  0.00     0.188 C 
BRANCH  76  77
ATOM     77  O   UNL A   1      31.700  29.210  25.700  1.00  0.00    -0.376 OA
BRANCH  77  78
ATOM     78  C   UNL A   1      32.834  29.297  24.839  1.00  0.00     0.202 C 
BRANCH  78  79
ATOM     79  C   UNL A   1      33.195  27.964  24.179  1.00  0.00     0.261 C 
BRANCH  79  80
ATOM     80  O   UNL A   1      34.010  27.106  24.996  1.00  0.00    -0.460 OA
BRANCH  80  81
ATOM     81  C   UNL A   1      33.459  25.987  25.521  1.00  0.00     0.342 C 
ATOM     82  O   UNL A   1      32.485  25.915  26.251  1.00  0.00    -0.246 OA
BRANCH  81  83
ATOM     83  C   UNL A   1      34.086  24.833  24.839  1.00  0.00     0.102 A 
ATOM     84  C   UNL A   1      35.271  24.296  25.383  1.00  0.00     0.027 A 
ATOM     85  C   UNL A   1      33.433  24.173  23.794  1.00  0.00     0.130 A 
ATOM     86  C   UNL A   1      35.764  23.069  24.921  1.00  0.00    -0.025 A 
ATOM     87  C   UNL A   1      33.941  22.977  23.299  1.00  0.00     0.048 A 
ATOM     88  C   UNL A   1      35.095  22.429  23.865  1.00  0.00     0.012 A 
BRANCH  85  89
ATOM     89  O   UNL A   1      32.294  24.692  23.248  1.00  0.00    -0.507 OA
ATOM     90  H   UNL A   1      32.345  25.240  22.489  1.00  0.00     0.293 HD
ENDBRANCH  85  89
BRANCH  86  91
ATOM     91  C   UNL A   1      36.973  22.417  25.450  1.00  0.00     0.009 C 
ATOM     92  C   UNL A   1      38.115  23.023  25.819  1.00  0.00     0.009 C 
BRANCH  92  93
ATOM     93  C   UNL A   1      39.255  22.267  26.382  1.00  0.00    -0.018 A 
ATOM     94  C   UNL A   1      40.061  22.814  27.394  1.00  0.00     0.054 A 
ATOM     95  C   UNL A   1      39.533  20.968  25.925  1.00  0.00     0.054 A 
ATOM     96  C   UNL A   1      41.144  22.094  27.897  1.00  0.00     0.119 A 
ATOM     97  C   UNL A   1      40.623  20.265  26.446  1.00  0.00     0.119 A 
ATOM     98  C   UNL A   1      41.439  20.826  27.422  1.00  0.00     0.092 A 
BRANCH  96  99
ATOM     99  O   UNL A   1      41.946  22.616  28.871  1.00  0.00    -0.508 OA
ATOM    100  H   UNL A   1      42.818  22.887  28.665  1.00  0.00     0.293 HD
ENDBRANCH  96  99
BRANCH  97 101
ATOM    101  O   UNL A   1      40.934  19.008  26.018  1.00  0.00    -0.508 OA
ATOM    102  H   UNL A   1      41.256  18.372  26.626  1.00  0.00     0.293 HD
ENDBRANCH  97 101
ENDBRANCH  92  93
ENDBRANCH  86  91
ENDBRANCH  81  83
ENDBRANCH  80  81
ENDBRANCH  79  80
ENDBRANCH  78  79
ENDBRANCH  77  78
ENDBRANCH  76  77
ENDBRANCH  75  76
ENDBRANCH   1  75
TORSDOF 28
ENDMDL
MODEL 3
REMARK VINA RESULT:      -9.5      1.949      2.240
REMARK SMILES O=C(OCCOCCOCCOCCOC(=O)c1cc(/C=C/c2cc(O)cc(O)c2)ccc1O)c1ccc(-c2c3nc(c(-c4cc(S(=O)(=O)[O-])ccc4F)c4ccc([nH]4)c(-c4cc(S(=O)(=O)[O-])ccc4F)c4nc(c(-c5cc(S(=O)(=O)[O-])ccc5F)c5ccc2[nH]5)C=C4)C=C3)cc1
REMARK SMILES IDX 9 1 8 2 7 3 6 4 5 5 4 6 3 7 2 8 1 9 35 10 36 11 97 12 37 13
REMARK SMILES IDX 96 14 38 15 39 16 40 17 90 18 41 19 95 20 89 21 91 22 42 23
REMARK SMILES IDX 94 24 88 25 87 26 43 28 75 29 55 30 74 31 56 32 59 33 73 34
REMARK SMILES IDX 92 35 57 36 58 37 72 39 93 40 60 41 44 42 45 43 53 44 46 45
REMARK SMILES IDX 52 46 54 47 51 48 47 49 48 50 49 51 50 52 76 53 77 54 85 55
REMARK SMILES IDX 78 56 84 57 86 58 83 59 79 60 80 61 81 62 82 63 61 64 62 65
REMARK SMILES IDX 70 66 63 67 69 68 71 69 68 70 64 71 65 72 66 73 67 74 10 75
REMARK SMILES IDX 11 76 12 77 13 78 14 79 15 80 16 81 17 82 18 83 19 84 33 85
REMARK SMILES IDX 20 86 32 87 31 88 34 89 21 91 22 92 23 93 24 94 30 95 25 96
REMARK SMILES IDX 28 97 27 98 26 99 29 101
REMARK H PARENT 91 27 59 38 34 90 26 100 29 102
REMARK Flexibility Score: inf
ROOT
ATOM      1  O   UNL A   1      33.679  23.011  22.403  1.00  0.00    -0.377 OA
ENDROOT
BRANCH   1   2
ATOM      2  C   UNL A   1      34.025  24.197  23.115  1.00  0.00     0.188 C 
BRANCH   2   3
ATOM      3  C   UNL A   1      35.336  24.104  23.895  1.00  0.00     0.188 C 
BRANCH   3   4
ATOM      4  O   UNL A   1      36.317  23.422  23.113  1.00  0.00    -0.376 OA
BRANCH   4   5
ATOM      5  C   UNL A   1      36.896  22.270  23.720  1.00  0.00     0.202 C 
BRANCH   5   6
ATOM      6  C   UNL A   1      36.814  22.265  25.247  1.00  0.00     0.261 C 
BRANCH   6   7
ATOM      7  O   UNL A   1      37.702  21.299  25.826  1.00  0.00    -0.460 OA
BRANCH   7   8
ATOM      8  C   UNL A   1      39.014  21.468  26.130  1.00  0.00     0.338 C 
ATOM      9  O   UNL A   1      39.763  20.498  26.008  1.00  0.00    -0.246 OA
BRANCH   8  10
ATOM     10  C   UNL A   1      39.615  22.762  26.589  1.00  0.00     0.060 A 
ATOM     11  C   UNL A   1      39.287  24.030  26.102  1.00  0.00     0.016 A 
ATOM     12  C   UNL A   1      40.522  22.691  27.661  1.00  0.00     0.016 A 
ATOM     13  C   UNL A   1      39.868  25.185  26.614  1.00  0.00     0.010 A 
ATOM     14  C   UNL A   1      41.092  23.850  28.202  1.00  0.00     0.010 A 
ATOM     15  C   UNL A   1      40.773  25.102  27.666  1.00  0.00    -0.014 A 
BRANCH  15  16
ATOM     16  C   UNL A   1      41.458  26.331  28.106  1.00  0.00     0.031 A 
ATOM     17  C   UNL A   1      42.860  26.561  27.635  1.00  0.00     0.074 A 
ATOM     18  C   UNL A   1      40.790  27.252  28.828  1.00  0.00     0.049 A 
ATOM     19  N   UNL A   1      43.702  27.501  27.964  1.00  0.00    -0.248 NA
ATOM     20  C   UNL A   1      43.381  25.603  26.643  1.00  0.00     0.031 C 
ATOM     21  C   UNL A   1      39.379  27.162  29.209  1.00  0.00     0.029 A 
ATOM     22  N   UNL A   1      41.202  28.445  29.361  1.00  0.00    -0.354 N 
ATOM     23  C   UNL A   1      44.864  27.229  27.251  1.00  0.00     0.074 A 
ATOM     24  C   UNL A   1      44.617  26.043  26.463  1.00  0.00     0.031 C 
ATOM     25  C   UNL A   1      39.046  28.251  29.920  1.00  0.00     0.029 A 
ATOM     26  C   UNL A   1      40.235  29.074  30.113  1.00  0.00     0.049 A 
ATOM     27  H   UNL A   1      42.103  28.816  29.221  1.00  0.00     0.167 HD
ATOM     28  C   UNL A   1      46.035  27.906  27.280  1.00  0.00     0.034 A 
ATOM     29  C   UNL A   1      40.331  30.156  30.911  1.00  0.00     0.034 A 
ATOM     30  C   UNL A   1      46.236  29.079  28.090  1.00  0.00     0.049 A 
ATOM     31  C   UNL A   1      41.682  30.824  31.015  1.00  0.00     0.074 A 
ATOM     32  C   UNL A   1      47.379  29.841  28.243  1.00  0.00     0.029 A 
ATOM     33  N   UNL A   1      45.260  29.653  28.898  1.00  0.00    -0.354 N 
ATOM     34  N   UNL A   1      42.796  30.538  30.375  1.00  0.00    -0.248 NA
ATOM     35  C   UNL A   1      41.803  31.943  31.957  1.00  0.00     0.031 C 
ATOM     36  C   UNL A   1      47.113  30.830  29.197  1.00  0.00     0.029 A 
ATOM     37  C   UNL A   1      45.786  30.730  29.587  1.00  0.00     0.049 A 
ATOM     38  H   UNL A   1      44.330  29.336  28.969  1.00  0.00     0.167 HD
ATOM     39  C   UNL A   1      43.745  31.445  30.834  1.00  0.00     0.074 A 
ATOM     40  C   UNL A   1      43.063  32.310  31.776  1.00  0.00     0.031 C 
ATOM     41  C   UNL A   1      45.062  31.556  30.523  1.00  0.00     0.034 A 
BRANCH  28  42
ATOM     42  C   UNL A   1      47.188  27.324  26.507  1.00  0.00     0.023 A 
ATOM     43  C   UNL A   1      48.164  26.512  27.110  1.00  0.00     0.031 A 
ATOM     44  C   UNL A   1      47.342  27.643  25.145  1.00  0.00     0.131 A 
ATOM     45  C   UNL A   1      49.281  26.096  26.366  1.00  0.00     0.055 A 
ATOM     46  C   UNL A   1      48.420  27.171  24.395  1.00  0.00     0.041 A 
ATOM     47  F   UNL A   1      46.457  28.441  24.529  1.00  0.00    -0.206 F 
ATOM     48  C   UNL A   1      49.403  26.401  25.008  1.00  0.00     0.022 A 
BRANCH  45  49
ATOM     49  S   UNL A   1      50.635  25.245  27.225  1.00  0.00     0.124 S 
ATOM     50  O   UNL A   1      49.919  24.177  27.918  1.00  0.00    -0.237 OA
ATOM     51  O   UNL A   1      51.495  24.827  26.125  1.00  0.00    -0.237 OA
ATOM     52  O   UNL A   1      51.193  26.279  28.095  1.00  0.00    -0.744 OA
ENDBRANCH  45  49
ENDBRANCH  28  42
BRANCH  29  53
ATOM     53  C   UNL A   1      39.179  30.606  31.756  1.00  0.00     0.023 A 
ATOM     54  C   UNL A   1      38.282  31.591  31.312  1.00  0.00     0.031 A 
ATOM     55  C   UNL A   1      39.011  30.118  33.067  1.00  0.00     0.131 A 
ATOM     56  C   UNL A   1      37.302  32.095  32.183  1.00  0.00     0.055 A 
ATOM     57  C   UNL A   1      37.991  30.572  33.906  1.00  0.00     0.041 A 
ATOM     58  F   UNL A   1      39.845  29.188  33.560  1.00  0.00    -0.206 F 
ATOM     59  C   UNL A   1      37.140  31.581  33.472  1.00  0.00     0.022 A 
BRANCH  56  60
ATOM     60  S   UNL A   1      36.322  33.531  31.659  1.00  0.00     0.124 S 
ATOM     61  O   UNL A   1      35.037  32.917  31.346  1.00  0.00    -0.237 OA
ATOM     62  O   UNL A   1      36.359  34.372  32.851  1.00  0.00    -0.237 OA
ATOM     63  O   UNL A   1      37.063  34.048  30.510  1.00  0.00    -0.744 OA
ENDBRANCH  56  60
ENDBRANCH  29  53
BRANCH  41  64
ATOM     64  C   UNL A   1      45.822  32.660  31.207  1.00  0.00     0.023 A 
ATOM     65  C   UNL A   1      45.903  33.945  30.645  1.00  0.00     0.031 A 
ATOM     66  C   UNL A   1      46.462  32.426  32.435  1.00  0.00     0.131 A 
ATOM     67  C   UNL A   1      46.651  34.939  31.290  1.00  0.00     0.055 A 
ATOM     68  C   UNL A   1      47.156  33.435  33.102  1.00  0.00     0.041 A 
ATOM     69  F   UNL A   1      46.411  31.214  33.012  1.00  0.00    -0.206 F 
ATOM     70  C   UNL A   1      47.262  34.698  32.523  1.00  0.00     0.022 A 
BRANCH  67  71
ATOM     71  S   UNL A   1      46.871  36.534  30.460  1.00  0.00     0.124 S 
ATOM     72  O   UNL A   1      46.528  37.477  31.519  1.00  0.00    -0.237 OA
ATOM     73  O   UNL A   1      48.277  36.496  30.072  1.00  0.00    -0.237 OA
ATOM     74  O   UNL A   1      45.922  36.476  29.350  1.00  0.00    -0.744 OA
ENDBRANCH  67  71
ENDBRANCH  41  64
ENDBRANCH  15  16
ENDBRANCH   8  10
ENDBRANCH   7   8
ENDBRANCH   6   7
ENDBRANCH   5   6
ENDBRANCH   4   5
ENDBRANCH   3   4
ENDBRANCH   2   3
ENDBRANCH   1   2
BRANCH   1  75
ATOM     75  C   UNL A   1      32.548  22.285  22.877  1.00  0.00     0.188 C 
BRANCH  75  76
ATOM     76  C   UNL A   1      32.754  21.143  23.896  1.00  0.00     0.188 C 
BRANCH  76  77
ATOM     77  O   UNL A   1      33.309  21.542  25.142  1.00  0.00    -0.376 OA
BRANCH  77  78
ATOM     78  C   UNL A   1      32.388  22.137  26.054  1.00  0.00     0.202 C 
BRANCH  78  79
ATOM     79  C   UNL A   1      32.771  23.564  26.454  1.00  0.00     0.261 C 
BRANCH  79  80
ATOM     80  O   UNL A   1      31.776  24.240  27.242  1.00  0.00    -0.460 OA
BRANCH  80  81
ATOM     81  C   UNL A   1      30.540  24.418  26.721  1.00  0.00     0.342 C 
ATOM     82  O   UNL A   1      29.508  23.863  27.057  1.00  0.00    -0.246 OA
BRANCH  81  83
ATOM     83  C   UNL A   1      30.607  25.608  25.842  1.00  0.00     0.102 A 
ATOM     84  C   UNL A   1      31.086  26.817  26.388  1.00  0.00     0.027 A 
ATOM     85  C   UNL A   1      30.382  25.501  24.467  1.00  0.00     0.130 A 
ATOM     86  C   UNL A   1      31.395  27.895  25.548  1.00  0.00    -0.025 A 
ATOM     87  C   UNL A   1      30.643  26.581  23.631  1.00  0.00     0.048 A 
ATOM     88  C   UNL A   1      31.152  27.765  24.170  1.00  0.00     0.012 A 
BRANCH  85  89
ATOM     89  O   UNL A   1      29.903  24.340  23.929  1.00  0.00    -0.507 OA
ATOM     90  H   UNL A   1      29.706  24.294  23.014  1.00  0.00     0.293 HD
ENDBRANCH  85  89
BRANCH  86  91
ATOM     91  C   UNL A   1      31.928  29.181  26.023  1.00  0.00     0.009 C 
ATOM     92  C   UNL A   1      32.929  29.360  26.903  1.00  0.00     0.009 C 
BRANCH  92  93
ATOM     93  C   UNL A   1      33.412  30.707  27.275  1.00  0.00    -0.018 A 
ATOM     94  C   UNL A   1      34.753  30.925  27.633  1.00  0.00     0.054 A 
ATOM     95  C   UNL A   1      32.534  31.802  27.249  1.00  0.00     0.054 A 
ATOM     96  C   UNL A   1      35.185  32.198  28.003  1.00  0.00     0.119 A 
ATOM     97  C   UNL A   1      32.990  33.070  27.621  1.00  0.00     0.119 A 
ATOM     98  C   UNL A   1      34.309  33.273  28.009  1.00  0.00     0.092 A 
BRANCH  96  99
ATOM     99  O   UNL A   1      36.480  32.425  28.366  1.00  0.00    -0.508 OA
ATOM    100  H   UNL A   1      36.879  31.902  29.033  1.00  0.00     0.293 HD
ENDBRANCH  96  99
BRANCH  97 101
ATOM    101  O   UNL A   1      32.164  34.156  27.623  1.00  0.00    -0.508 OA
ATOM    102  H   UNL A   1      32.517  35.013  27.760  1.00  0.00     0.293 HD
ENDBRANCH  97 101
ENDBRANCH  92  93
ENDBRANCH  86  91
ENDBRANCH  81  83
ENDBRANCH  80  81
ENDBRANCH  79  80
ENDBRANCH  78  79
ENDBRANCH  77  78
ENDBRANCH  76  77
ENDBRANCH  75  76
ENDBRANCH   1  75
TORSDOF 28
ENDMDL
