MODEL 1
REMARK VINA RESULT:      -8.8      0.000      0.000
REMARK SMILES Cc1c(Br)c(C)c2c(c1Br)O[C@H](C(F)(F)F)C(C(=O)OCCOCCOCCOCCOC(=O)c1ccc(-c3c4nc(c(-c5cc(S(=O)(=O)[O-])ccc5F)c5ccc([nH]5)c(-c5cc(S(=O)(=O)[O-])ccc5F)c5nc(c(-c6cc(S(=O)(=O)[O-])ccc6F)c6ccc3[nH]6)C=C5)C=C4)cc1)=C2
REMARK SMILES IDX 27 1 26 2 25 3 24 4 23 5 22 6 21 7 20 8 18 9 19 10 17 11
REMARK SMILES IDX 1 12 2 13 3 14 9 15 4 16 5 17 8 18 10 19 6 20 7 21 11 22
REMARK SMILES IDX 98 23 12 24 13 25 14 26 15 27 16 28 28 29 29 30 30 31 31 32
REMARK SMILES IDX 32 33 33 34 34 35 35 36 36 37 97 38 37 39 96 40 38 41 39 42
REMARK SMILES IDX 40 43 90 44 41 45 95 46 89 47 91 48 42 49 94 50 88 51 87 52
REMARK SMILES IDX 43 54 75 55 55 56 74 57 56 58 59 59 73 60 92 61 57 62 58 63
REMARK SMILES IDX 72 65 93 66 60 67 44 68 45 69 53 70 46 71 52 72 54 73 51 74
REMARK SMILES IDX 47 75 48 76 49 77 50 78 76 79 77 80 85 81 78 82 84 83 86 84
REMARK SMILES IDX 83 85 79 86 80 87 81 88 82 89 61 90 62 91 70 92 63 93 69 94
REMARK SMILES IDX 71 95 68 96 64 97 65 98 66 99 67 100
REMARK H PARENT 91 53 59 64
REMARK Flexibility Score: inf
ROOT
ATOM      1  C   UNL A   1      35.808  29.594  28.202  1.00  0.00     0.188 C 
ENDROOT
BRANCH   1   2
ATOM      2  O   UNL A   1      35.107  30.417  27.275  1.00  0.00    -0.377 OA
BRANCH   2   3
ATOM      3  C   UNL A   1      33.806  29.977  26.938  1.00  0.00     0.188 C 
BRANCH   3   4
ATOM      4  C   UNL A   1      33.726  29.242  25.587  1.00  0.00     0.188 C 
BRANCH   4   5
ATOM      5  O   UNL A   1      32.691  29.478  24.643  1.00  0.00    -0.376 OA
BRANCH   5   6
ATOM      6  C   UNL A   1      32.716  28.963  23.321  1.00  0.00     0.202 C 
BRANCH   6   7
ATOM      7  C   UNL A   1      32.615  27.460  23.009  1.00  0.00     0.261 C 
BRANCH   7   8
ATOM      8  O   UNL A   1      33.364  26.587  23.854  1.00  0.00    -0.460 OA
BRANCH   8   9
ATOM      9  C   UNL A   1      32.659  25.919  24.785  1.00  0.00     0.338 C 
ATOM     10  O   UNL A   1      31.638  26.283  25.347  1.00  0.00    -0.246 OA
BRANCH   9  11
ATOM     11  C   UNL A   1      33.242  24.569  24.922  1.00  0.00     0.087 C 
ATOM     12  C   UNL A   1      37.214  19.418  24.925  1.00  0.00     0.047 C 
ATOM     13  C   UNL A   1      36.475  20.708  25.195  1.00  0.00    -0.019 A 
ATOM     14  C   UNL A   1      37.190  21.861  25.608  1.00  0.00     0.025 A 
ATOM     15  C   UNL A   1      35.086  20.827  24.979  1.00  0.00     0.064 A 
ATOM     16  Br  UNL A   1      39.086  21.728  25.887  1.00  0.00    -0.050 Br
ATOM     17  C   UNL A   1      36.547  23.112  25.767  1.00  0.00    -0.026 A 
ATOM     18  C   UNL A   1      34.445  22.075  25.078  1.00  0.00     0.142 A 
ATOM     19  Br  UNL A   1      34.020  19.313  24.487  1.00  0.00    -0.046 Br
ATOM     20  C   UNL A   1      37.265  24.334  26.296  1.00  0.00     0.046 C 
ATOM     21  C   UNL A   1      35.184  23.219  25.405  1.00  0.00     0.022 A 
ATOM     22  O   UNL A   1      33.097  22.103  24.838  1.00  0.00    -0.474 OA
ATOM     23  C   UNL A   1      34.531  24.518  25.274  1.00  0.00     0.027 C 
ATOM     24  C   UNL A   1      32.382  23.358  24.728  1.00  0.00     0.316 C 
BRANCH  24  25
ATOM     25  C   UNL A   1      31.641  23.365  23.385  1.00  0.00     0.430 C 
ATOM     26  F   UNL A   1      30.413  23.926  23.505  1.00  0.00    -0.167 F 
ATOM     27  F   UNL A   1      32.303  24.070  22.440  1.00  0.00    -0.167 F 
ATOM     28  F   UNL A   1      31.466  22.111  22.906  1.00  0.00    -0.167 F 
ENDBRANCH  24  25
ENDBRANCH   9  11
ENDBRANCH   8   9
ENDBRANCH   7   8
ENDBRANCH   6   7
ENDBRANCH   5   6
ENDBRANCH   4   5
ENDBRANCH   3   4
ENDBRANCH   2   3
ENDBRANCH   1   2
BRANCH   1  29
ATOM     29  C   UNL A   1      36.767  30.310  29.170  1.00  0.00     0.188 C 
BRANCH  29  30
ATOM     30  O   UNL A   1      36.086  31.141  30.116  1.00  0.00    -0.376 OA
BRANCH  30  31
ATOM     31  C   UNL A   1      35.908  32.506  29.746  1.00  0.00     0.202 C 
BRANCH  31  32
ATOM     32  C   UNL A   1      34.591  33.126  30.236  1.00  0.00     0.261 C 
BRANCH  32  33
ATOM     33  O   UNL A   1      34.697  34.470  30.734  1.00  0.00    -0.460 OA
BRANCH  33  34
ATOM     34  C   UNL A   1      34.524  34.643  32.062  1.00  0.00     0.338 C 
ATOM     35  O   UNL A   1      33.499  34.974  32.628  1.00  0.00    -0.246 OA
BRANCH  34  36
ATOM     36  C   UNL A   1      35.739  34.161  32.747  1.00  0.00     0.060 A 
ATOM     37  C   UNL A   1      36.968  34.752  32.425  1.00  0.00     0.016 A 
ATOM     38  C   UNL A   1      35.670  33.118  33.675  1.00  0.00     0.016 A 
ATOM     39  C   UNL A   1      38.143  34.261  32.989  1.00  0.00     0.010 A 
ATOM     40  C   UNL A   1      36.850  32.608  34.215  1.00  0.00     0.010 A 
ATOM     41  C   UNL A   1      38.093  33.147  33.838  1.00  0.00    -0.014 A 
BRANCH  41  42
ATOM     42  C   UNL A   1      39.329  32.372  34.093  1.00  0.00     0.031 A 
ATOM     43  C   UNL A   1      39.746  31.370  33.051  1.00  0.00     0.074 A 
ATOM     44  C   UNL A   1      40.076  32.567  35.192  1.00  0.00     0.049 A 
ATOM     45  N   UNL A   1      40.720  30.500  33.075  1.00  0.00    -0.248 NA
ATOM     46  C   UNL A   1      38.952  31.350  31.810  1.00  0.00     0.031 C 
ATOM     47  C   UNL A   1      39.821  33.566  36.227  1.00  0.00     0.029 A 
ATOM     48  N   UNL A   1      41.211  31.923  35.617  1.00  0.00    -0.354 N 
ATOM     49  C   UNL A   1      40.659  29.834  31.856  1.00  0.00     0.074 A 
ATOM     50  C   UNL A   1      39.537  30.380  31.126  1.00  0.00     0.031 C 
ATOM     51  C   UNL A   1      40.773  33.465  37.173  1.00  0.00     0.029 A 
ATOM     52  C   UNL A   1      41.677  32.368  36.831  1.00  0.00     0.049 A 
ATOM     53  H   UNL A   1      41.652  31.211  35.099  1.00  0.00     0.167 HD
ATOM     54  C   UNL A   1      41.468  28.856  31.385  1.00  0.00     0.034 A 
ATOM     55  C   UNL A   1      42.698  31.915  37.588  1.00  0.00     0.034 A 
ATOM     56  C   UNL A   1      42.568  28.303  32.129  1.00  0.00     0.049 A 
ATOM     57  C   UNL A   1      43.508  30.740  37.099  1.00  0.00     0.074 A 
ATOM     58  C   UNL A   1      43.432  27.286  31.761  1.00  0.00     0.029 A 
ATOM     59  N   UNL A   1      42.955  28.717  33.395  1.00  0.00    -0.354 N 
ATOM     60  N   UNL A   1      43.403  30.072  35.972  1.00  0.00    -0.248 NA
ATOM     61  C   UNL A   1      44.568  30.251  37.990  1.00  0.00     0.031 C 
ATOM     62  C   UNL A   1      44.302  27.047  32.830  1.00  0.00     0.029 A 
ATOM     63  C   UNL A   1      44.026  27.960  33.837  1.00  0.00     0.049 A 
ATOM     64  H   UNL A   1      42.529  29.444  33.906  1.00  0.00     0.167 HD
ATOM     65  C   UNL A   1      44.391  29.091  36.017  1.00  0.00     0.074 A 
ATOM     66  C   UNL A   1      45.093  29.267  37.272  1.00  0.00     0.031 C 
ATOM     67  C   UNL A   1      44.693  28.132  35.105  1.00  0.00     0.034 A 
BRANCH  54  68
ATOM     68  C   UNL A   1      41.149  28.292  30.027  1.00  0.00     0.023 A 
ATOM     69  C   UNL A   1      41.970  28.543  28.915  1.00  0.00     0.031 A 
ATOM     70  C   UNL A   1      39.996  27.510  29.840  1.00  0.00     0.131 A 
ATOM     71  C   UNL A   1      41.605  28.049  27.654  1.00  0.00     0.055 A 
ATOM     72  C   UNL A   1      39.671  26.971  28.594  1.00  0.00     0.041 A 
ATOM     73  F   UNL A   1      39.162  27.267  30.863  1.00  0.00    -0.206 F 
ATOM     74  C   UNL A   1      40.474  27.245  27.490  1.00  0.00     0.022 A 
BRANCH  71  75
ATOM     75  S   UNL A   1      42.582  28.543  26.208  1.00  0.00     0.124 S 
ATOM     76  O   UNL A   1      43.828  27.817  26.435  1.00  0.00    -0.237 OA
ATOM     77  O   UNL A   1      41.763  28.074  25.096  1.00  0.00    -0.237 OA
ATOM     78  O   UNL A   1      42.680  29.995  26.340  1.00  0.00    -0.744 OA
ENDBRANCH  71  75
ENDBRANCH  54  68
BRANCH  55  79
ATOM     79  C   UNL A   1      42.982  32.530  38.915  1.00  0.00     0.023 A 
ATOM     80  C   UNL A   1      42.452  31.984  40.094  1.00  0.00     0.031 A 
ATOM     81  C   UNL A   1      43.759  33.697  39.015  1.00  0.00     0.131 A 
ATOM     82  C   UNL A   1      42.684  32.620  41.323  1.00  0.00     0.055 A 
ATOM     83  C   UNL A   1      44.019  34.305  40.245  1.00  0.00     0.041 A 
ATOM     84  F   UNL A   1      44.286  34.259  37.916  1.00  0.00    -0.206 F 
ATOM     85  C   UNL A   1      43.475  33.771  41.408  1.00  0.00     0.022 A 
BRANCH  82  86
ATOM     86  S   UNL A   1      41.908  31.944  42.817  1.00  0.00     0.124 S 
ATOM     87  O   UNL A   1      40.596  32.580  42.784  1.00  0.00    -0.237 OA
ATOM     88  O   UNL A   1      41.934  30.509  42.550  1.00  0.00    -0.237 OA
ATOM     89  O   UNL A   1      42.793  32.388  43.892  1.00  0.00    -0.744 OA
ENDBRANCH  82  86
ENDBRANCH  55  79
BRANCH  67  90
ATOM     90  C   UNL A   1      45.837  27.207  35.433  1.00  0.00     0.023 A 
ATOM     91  C   UNL A   1      45.627  26.001  36.122  1.00  0.00     0.031 A 
ATOM     92  C   UNL A   1      47.148  27.529  35.042  1.00  0.00     0.131 A 
ATOM     93  C   UNL A   1      46.720  25.182  36.444  1.00  0.00     0.055 A 
ATOM     94  C   UNL A   1      48.224  26.684  35.314  1.00  0.00     0.041 A 
ATOM     95  F   UNL A   1      47.402  28.668  34.378  1.00  0.00    -0.206 F 
ATOM     96  C   UNL A   1      48.015  25.507  36.030  1.00  0.00     0.022 A 
BRANCH  93  97
ATOM     97  S   UNL A   1      46.436  23.718  37.476  1.00  0.00     0.124 S 
ATOM     98  O   UNL A   1      47.583  23.756  38.377  1.00  0.00    -0.237 OA
ATOM     99  O   UNL A   1      45.140  24.008  38.081  1.00  0.00    -0.237 OA
ATOM    100  O   UNL A   1      46.438  22.616  36.516  1.00  0.00    -0.744 OA
ENDBRANCH  93  97
ENDBRANCH  67  90
ENDBRANCH  41  42
ENDBRANCH  34  36
ENDBRANCH  33  34
ENDBRANCH  32  33
ENDBRANCH  31  32
ENDBRANCH  30  31
ENDBRANCH  29  30
ENDBRANCH   1  29
TORSDOF 24
ENDMDL
MODEL 2
REMARK VINA RESULT:      -8.8      3.119      8.483
REMARK SMILES Cc1c(Br)c(C)c2c(c1Br)O[C@H](C(F)(F)F)C(C(=O)OCCOCCOCCOCCOC(=O)c1ccc(-c3c4nc(c(-c5cc(S(=O)(=O)[O-])ccc5F)c5ccc([nH]5)c(-c5cc(S(=O)(=O)[O-])ccc5F)c5nc(c(-c6cc(S(=O)(=O)[O-])ccc6F)c6ccc3[nH]6)C=C5)C=C4)cc1)=C2
REMARK SMILES IDX 27 1 26 2 25 3 24 4 23 5 22 6 21 7 20 8 18 9 19 10 17 11
REMARK SMILES IDX 1 12 2 13 3 14 9 15 4 16 5 17 8 18 10 19 6 20 7 21 11 22
REMARK SMILES IDX 98 23 12 24 13 25 14 26 15 27 16 28 28 29 29 30 30 31 31 32
REMARK SMILES IDX 32 33 33 34 34 35 35 36 36 37 97 38 37 39 96 40 38 41 39 42
REMARK SMILES IDX 40 43 90 44 41 45 95 46 89 47 91 48 42 49 94 50 88 51 87 52
REMARK SMILES IDX 43 54 75 55 55 56 74 57 56 58 59 59 73 60 92 61 57 62 58 63
REMARK SMILES IDX 72 65 93 66 60 67 44 68 45 69 53 70 46 71 52 72 54 73 51 74
REMARK SMILES IDX 47 75 48 76 49 77 50 78 76 79 77 80 85 81 78 82 84 83 86 84
REMARK SMILES IDX 83 85 79 86 80 87 81 88 82 89 61 90 62 91 70 92 63 93 69 94
REMARK SMILES IDX 71 95 68 96 64 97 65 98 66 99 67 100
REMARK H PARENT 91 53 59 64
REMARK Flexibility Score: inf
ROOT
ATOM      1  C   UNL A   1      42.266  20.881  27.151  1.00  0.00     0.188 C 
ENDROOT
BRANCH   1   2
ATOM      2  O   UNL A   1      40.889  20.648  27.427  1.00  0.00    -0.377 OA
BRANCH   2   3
ATOM      3  C   UNL A   1      40.022  20.761  26.316  1.00  0.00     0.188 C 
BRANCH   3   4
ATOM      4  C   UNL A   1      39.215  22.072  26.283  1.00  0.00     0.188 C 
BRANCH   4   5
ATOM      5  O   UNL A   1      38.270  22.369  25.265  1.00  0.00    -0.376 OA
BRANCH   5   6
ATOM      6  C   UNL A   1      36.920  21.933  25.308  1.00  0.00     0.202 C 
BRANCH   6   7
ATOM      7  C   UNL A   1      35.835  22.659  26.122  1.00  0.00     0.261 C 
BRANCH   7   8
ATOM      8  O   UNL A   1      34.727  23.172  25.382  1.00  0.00    -0.460 OA
BRANCH   8   9
ATOM      9  C   UNL A   1      33.661  23.558  26.108  1.00  0.00     0.338 C 
ATOM     10  O   UNL A   1      33.288  23.103  27.178  1.00  0.00    -0.246 OA
BRANCH   9  11
ATOM     11  C   UNL A   1      33.079  24.754  25.468  1.00  0.00     0.087 C 
ATOM     12  C   UNL A   1      30.264  30.498  24.285  1.00  0.00     0.047 C 
ATOM     13  C   UNL A   1      31.184  29.355  24.648  1.00  0.00    -0.019 A 
ATOM     14  C   UNL A   1      32.047  29.469  25.768  1.00  0.00     0.025 A 
ATOM     15  C   UNL A   1      31.165  28.133  23.944  1.00  0.00     0.064 A 
ATOM     16  Br  UNL A   1      32.075  31.117  26.754  1.00  0.00    -0.050 Br
ATOM     17  C   UNL A   1      32.844  28.383  26.201  1.00  0.00    -0.026 A 
ATOM     18  C   UNL A   1      31.908  27.028  24.396  1.00  0.00     0.142 A 
ATOM     19  Br  UNL A   1      30.085  27.901  22.378  1.00  0.00    -0.046 Br
ATOM     20  C   UNL A   1      33.842  28.505  27.332  1.00  0.00     0.046 C 
ATOM     21  C   UNL A   1      32.689  27.134  25.554  1.00  0.00     0.022 A 
ATOM     22  O   UNL A   1      31.819  25.876  23.661  1.00  0.00    -0.474 OA
ATOM     23  C   UNL A   1      33.259  25.912  26.113  1.00  0.00     0.027 C 
ATOM     24  C   UNL A   1      32.390  24.635  24.143  1.00  0.00     0.316 C 
BRANCH  24  25
ATOM     25  C   UNL A   1      31.283  23.572  24.144  1.00  0.00     0.430 C 
ATOM     26  F   UNL A   1      30.707  23.464  25.365  1.00  0.00    -0.167 F 
ATOM     27  F   UNL A   1      30.294  23.865  23.269  1.00  0.00    -0.167 F 
ATOM     28  F   UNL A   1      31.765  22.351  23.815  1.00  0.00    -0.167 F 
ENDBRANCH  24  25
ENDBRANCH   9  11
ENDBRANCH   8   9
ENDBRANCH   7   8
ENDBRANCH   6   7
ENDBRANCH   5   6
ENDBRANCH   4   5
ENDBRANCH   3   4
ENDBRANCH   2   3
ENDBRANCH   1   2
BRANCH   1  29
ATOM     29  C   UNL A   1      42.811  20.300  25.833  1.00  0.00     0.188 C 
BRANCH  29  30
ATOM     30  O   UNL A   1      43.333  21.303  24.956  1.00  0.00    -0.376 OA
BRANCH  30  31
ATOM     31  C   UNL A   1      44.030  22.382  25.573  1.00  0.00     0.202 C 
BRANCH  31  32
ATOM     32  C   UNL A   1      43.414  23.764  25.308  1.00  0.00     0.261 C 
BRANCH  32  33
ATOM     33  O   UNL A   1      44.281  24.879  25.568  1.00  0.00    -0.460 OA
BRANCH  33  34
ATOM     34  C   UNL A   1      44.986  24.848  26.721  1.00  0.00     0.338 C 
ATOM     35  O   UNL A   1      46.047  24.284  26.912  1.00  0.00    -0.246 OA
BRANCH  34  36
ATOM     36  C   UNL A   1      44.357  25.790  27.666  1.00  0.00     0.060 A 
ATOM     37  C   UNL A   1      44.905  27.073  27.795  1.00  0.00     0.016 A 
ATOM     38  C   UNL A   1      43.258  25.402  28.436  1.00  0.00     0.016 A 
ATOM     39  C   UNL A   1      44.388  27.956  28.740  1.00  0.00     0.010 A 
ATOM     40  C   UNL A   1      42.761  26.276  29.403  1.00  0.00     0.010 A 
ATOM     41  C   UNL A   1      43.355  27.537  29.589  1.00  0.00    -0.014 A 
BRANCH  41  42
ATOM     42  C   UNL A   1      43.097  28.284  30.843  1.00  0.00     0.031 A 
ATOM     43  C   UNL A   1      42.063  29.376  30.797  1.00  0.00     0.074 A 
ATOM     44  C   UNL A   1      43.729  27.988  31.990  1.00  0.00     0.049 A 
ATOM     45  N   UNL A   1      41.722  30.239  31.717  1.00  0.00    -0.248 NA
ATOM     46  C   UNL A   1      41.310  29.510  29.538  1.00  0.00     0.031 C 
ATOM     47  C   UNL A   1      44.685  26.899  32.177  1.00  0.00     0.029 A 
ATOM     48  N   UNL A   1      43.656  28.589  33.222  1.00  0.00    -0.354 N 
ATOM     49  C   UNL A   1      40.715  31.013  31.151  1.00  0.00     0.074 A 
ATOM     50  C   UNL A   1      40.519  30.538  29.800  1.00  0.00     0.031 C 
ATOM     51  C   UNL A   1      45.114  26.913  33.453  1.00  0.00     0.029 A 
ATOM     52  C   UNL A   1      44.496  28.035  34.158  1.00  0.00     0.049 A 
ATOM     53  H   UNL A   1      43.055  29.345  33.417  1.00  0.00     0.167 HD
ATOM     54  C   UNL A   1      40.015  32.029  31.708  1.00  0.00     0.034 A 
ATOM     55  C   UNL A   1      44.755  28.415  35.426  1.00  0.00     0.034 A 
ATOM     56  C   UNL A   1      40.234  32.510  33.046  1.00  0.00     0.049 A 
ATOM     57  C   UNL A   1      44.053  29.629  35.985  1.00  0.00     0.074 A 
ATOM     58  C   UNL A   1      39.604  33.555  33.700  1.00  0.00     0.029 A 
ATOM     59  N   UNL A   1      41.159  31.981  33.935  1.00  0.00    -0.354 N 
ATOM     60  N   UNL A   1      43.149  30.397  35.420  1.00  0.00    -0.248 NA
ATOM     61  C   UNL A   1      44.417  30.033  37.349  1.00  0.00     0.031 C 
ATOM     62  C   UNL A   1      40.191  33.694  34.962  1.00  0.00     0.029 A 
ATOM     63  C   UNL A   1      41.138  32.694  35.122  1.00  0.00     0.049 A 
ATOM     64  H   UNL A   1      41.744  31.211  33.749  1.00  0.00     0.167 HD
ATOM     65  C   UNL A   1      42.829  31.368  36.366  1.00  0.00     0.074 A 
ATOM     66  C   UNL A   1      43.623  31.077  37.543  1.00  0.00     0.031 C 
ATOM     67  C   UNL A   1      41.959  32.406  36.273  1.00  0.00     0.034 A 
BRANCH  54  68
ATOM     68  C   UNL A   1      38.990  32.714  30.845  1.00  0.00     0.023 A 
ATOM     69  C   UNL A   1      37.645  32.311  30.839  1.00  0.00     0.031 A 
ATOM     70  C   UNL A   1      39.371  33.773  30.002  1.00  0.00     0.131 A 
ATOM     71  C   UNL A   1      36.734  32.937  29.976  1.00  0.00     0.055 A 
ATOM     72  C   UNL A   1      38.447  34.432  29.189  1.00  0.00     0.041 A 
ATOM     73  F   UNL A   1      40.651  34.175  29.947  1.00  0.00    -0.206 F 
ATOM     74  C   UNL A   1      37.121  34.010  29.168  1.00  0.00     0.022 A 
BRANCH  71  75
ATOM     75  S   UNL A   1      35.050  32.274  29.856  1.00  0.00     0.124 S 
ATOM     76  O   UNL A   1      34.628  32.291  31.254  1.00  0.00    -0.237 OA
ATOM     77  O   UNL A   1      34.392  33.235  28.979  1.00  0.00    -0.237 OA
ATOM     78  O   UNL A   1      35.246  30.943  29.285  1.00  0.00    -0.744 OA
ENDBRANCH  71  75
ENDBRANCH  54  68
BRANCH  55  79
ATOM     79  C   UNL A   1      45.762  27.681  36.242  1.00  0.00     0.023 A 
ATOM     80  C   UNL A   1      45.386  26.600  37.054  1.00  0.00     0.031 A 
ATOM     81  C   UNL A   1      47.110  28.078  36.250  1.00  0.00     0.131 A 
ATOM     82  C   UNL A   1      46.344  25.967  37.861  1.00  0.00     0.055 A 
ATOM     83  C   UNL A   1      48.067  27.421  37.025  1.00  0.00     0.041 A 
ATOM     84  F   UNL A   1      47.518  29.109  35.492  1.00  0.00    -0.206 F 
ATOM     85  C   UNL A   1      47.686  26.363  37.843  1.00  0.00     0.022 A 
BRANCH  82  86
ATOM     86  S   UNL A   1      45.810  24.634  38.970  1.00  0.00     0.124 S 
ATOM     87  O   UNL A   1      45.259  25.384  40.093  1.00  0.00    -0.237 OA
ATOM     88  O   UNL A   1      44.845  23.918  38.141  1.00  0.00    -0.237 OA
ATOM     89  O   UNL A   1      47.046  23.906  39.248  1.00  0.00    -0.744 OA
ENDBRANCH  82  86
ENDBRANCH  55  79
BRANCH  67  90
ATOM     90  C   UNL A   1      41.817  33.295  37.482  1.00  0.00     0.023 A 
ATOM     91  C   UNL A   1      40.948  32.963  38.535  1.00  0.00     0.031 A 
ATOM     92  C   UNL A   1      42.566  34.480  37.587  1.00  0.00     0.131 A 
ATOM     93  C   UNL A   1      40.813  33.833  39.628  1.00  0.00     0.055 A 
ATOM     94  C   UNL A   1      42.470  35.313  38.702  1.00  0.00     0.041 A 
ATOM     95  F   UNL A   1      43.413  34.842  36.609  1.00  0.00    -0.206 F 
ATOM     96  C   UNL A   1      41.580  34.997  39.726  1.00  0.00     0.022 A 
BRANCH  93  97
ATOM     97  S   UNL A   1      39.564  33.457  40.888  1.00  0.00     0.124 S 
ATOM     98  O   UNL A   1      39.044  32.175  40.425  1.00  0.00    -0.237 OA
ATOM     99  O   UNL A   1      40.357  33.420  42.113  1.00  0.00    -0.237 OA
ATOM    100  O   UNL A   1      38.629  34.577  40.789  1.00  0.00    -0.744 OA
ENDBRANCH  93  97
ENDBRANCH  67  90
ENDBRANCH  41  42
ENDBRANCH  34  36
ENDBRANCH  33  34
ENDBRANCH  32  33
ENDBRANCH  31  32
ENDBRANCH  30  31
ENDBRANCH  29  30
ENDBRANCH   1  29
TORSDOF 24
ENDMDL
MODEL 3
REMARK VINA RESULT:      -8.7      6.497     12.747
REMARK SMILES Cc1c(Br)c(C)c2c(c1Br)O[C@H](C(F)(F)F)C(C(=O)OCCOCCOCCOCCOC(=O)c1ccc(-c3c4nc(c(-c5cc(S(=O)(=O)[O-])ccc5F)c5ccc([nH]5)c(-c5cc(S(=O)(=O)[O-])ccc5F)c5nc(c(-c6cc(S(=O)(=O)[O-])ccc6F)c6ccc3[nH]6)C=C5)C=C4)cc1)=C2
REMARK SMILES IDX 27 1 26 2 25 3 24 4 23 5 22 6 21 7 20 8 18 9 19 10 17 11
REMARK SMILES IDX 1 12 2 13 3 14 9 15 4 16 5 17 8 18 10 19 6 20 7 21 11 22
REMARK SMILES IDX 98 23 12 24 13 25 14 26 15 27 16 28 28 29 29 30 30 31 31 32
REMARK SMILES IDX 32 33 33 34 34 35 35 36 36 37 97 38 37 39 96 40 38 41 39 42
REMARK SMILES IDX 40 43 90 44 41 45 95 46 89 47 91 48 42 49 94 50 88 51 87 52
REMARK SMILES IDX 43 54 75 55 55 56 74 57 56 58 59 59 73 60 92 61 57 62 58 63
REMARK SMILES IDX 72 65 93 66 60 67 44 68 45 69 53 70 46 71 52 72 54 73 51 74
REMARK SMILES IDX 47 75 48 76 49 77 50 78 76 79 77 80 85 81 78 82 84 83 86 84
REMARK SMILES IDX 83 85 79 86 80 87 81 88 82 89 61 90 62 91 70 92 63 93 69 94
REMARK SMILES IDX 71 95 68 96 64 97 65 98 66 99 67 100
REMARK H PARENT 91 53 59 64
REMARK Flexibility Score: inf
ROOT
ATOM      1  C   UNL A   1      44.288  22.966  27.018  1.00  0.00     0.188 C 
ENDROOT
BRANCH   1   2
ATOM      2  O   UNL A   1      45.670  22.950  26.676  1.00  0.00    -0.377 OA
BRANCH   2   3
ATOM      3  C   UNL A   1      45.950  22.874  25.292  1.00  0.00     0.188 C 
BRANCH   3   4
ATOM      4  C   UNL A   1      47.002  23.891  24.810  1.00  0.00     0.188 C 
BRANCH   4   5
ATOM      5  O   UNL A   1      46.655  25.166  24.287  1.00  0.00    -0.376 OA
BRANCH   5   6
ATOM      6  C   UNL A   1      46.430  26.305  25.103  1.00  0.00     0.202 C 
BRANCH   6   7
ATOM      7  C   UNL A   1      47.572  27.186  25.639  1.00  0.00     0.261 C 
BRANCH   7   8
ATOM      8  O   UNL A   1      47.221  28.132  26.648  1.00  0.00    -0.460 OA
BRANCH   8   9
ATOM      9  C   UNL A   1      47.860  28.004  27.825  1.00  0.00     0.338 C 
ATOM     10  O   UNL A   1      49.023  27.679  28.007  1.00  0.00    -0.246 OA
BRANCH   9  11
ATOM     11  C   UNL A   1      46.955  28.474  28.893  1.00  0.00     0.087 C 
ATOM     12  C   UNL A   1      44.439  31.127  34.273  1.00  0.00     0.047 C 
ATOM     13  C   UNL A   1      45.056  30.835  32.924  1.00  0.00    -0.019 A 
ATOM     14  C   UNL A   1      46.096  31.661  32.426  1.00  0.00     0.025 A 
ATOM     15  C   UNL A   1      44.678  29.710  32.163  1.00  0.00     0.064 A 
ATOM     16  Br  UNL A   1      46.642  33.188  33.457  1.00  0.00    -0.050 Br
ATOM     17  C   UNL A   1      46.769  31.357  31.220  1.00  0.00    -0.026 A 
ATOM     18  C   UNL A   1      45.376  29.363  30.992  1.00  0.00     0.142 A 
ATOM     19  Br  UNL A   1      43.240  28.570  32.715  1.00  0.00    -0.046 Br
ATOM     20  C   UNL A   1      47.815  32.271  30.618  1.00  0.00     0.046 C 
ATOM     21  C   UNL A   1      46.455  30.145  30.561  1.00  0.00     0.022 A 
ATOM     22  O   UNL A   1      44.951  28.246  30.322  1.00  0.00    -0.474 OA
ATOM     23  C   UNL A   1      47.288  29.629  29.480  1.00  0.00     0.027 C 
ATOM     24  C   UNL A   1      45.715  27.700  29.219  1.00  0.00     0.316 C 
BRANCH  24  25
ATOM     25  C   UNL A   1      46.001  26.224  29.526  1.00  0.00     0.430 C 
ATOM     26  F   UNL A   1      44.946  25.638  30.142  1.00  0.00    -0.167 F 
ATOM     27  F   UNL A   1      46.247  25.508  28.405  1.00  0.00    -0.167 F 
ATOM     28  F   UNL A   1      47.073  26.083  30.340  1.00  0.00    -0.167 F 
ENDBRANCH  24  25
ENDBRANCH   9  11
ENDBRANCH   8   9
ENDBRANCH   7   8
ENDBRANCH   6   7
ENDBRANCH   5   6
ENDBRANCH   4   5
ENDBRANCH   3   4
ENDBRANCH   2   3
ENDBRANCH   1   2
BRANCH   1  29
ATOM     29  C   UNL A   1      43.312  22.412  25.964  1.00  0.00     0.188 C 
BRANCH  29  30
ATOM     30  O   UNL A   1      42.130  21.848  26.541  1.00  0.00    -0.376 OA
BRANCH  30  31
ATOM     31  C   UNL A   1      40.911  22.541  26.290  1.00  0.00     0.202 C 
BRANCH  31  32
ATOM     32  C   UNL A   1      40.794  23.894  27.008  1.00  0.00     0.261 C 
BRANCH  32  33
ATOM     33  O   UNL A   1      40.493  25.012  26.158  1.00  0.00    -0.460 OA
BRANCH  33  34
ATOM     34  C   UNL A   1      41.534  25.780  25.769  1.00  0.00     0.338 C 
ATOM     35  O   UNL A   1      42.199  25.650  24.758  1.00  0.00    -0.246 OA
BRANCH  34  36
ATOM     36  C   UNL A   1      41.608  26.941  26.675  1.00  0.00     0.060 A 
ATOM     37  C   UNL A   1      41.124  28.176  26.221  1.00  0.00     0.016 A 
ATOM     38  C   UNL A   1      42.173  26.821  27.947  1.00  0.00     0.016 A 
ATOM     39  C   UNL A   1      41.258  29.310  27.019  1.00  0.00     0.010 A 
ATOM     40  C   UNL A   1      42.334  27.962  28.733  1.00  0.00     0.010 A 
ATOM     41  C   UNL A   1      41.920  29.217  28.251  1.00  0.00    -0.014 A 
BRANCH  41  42
ATOM     42  C   UNL A   1      42.436  30.448  28.894  1.00  0.00     0.031 A 
ATOM     43  C   UNL A   1      41.737  30.925  30.138  1.00  0.00     0.074 A 
ATOM     44  C   UNL A   1      43.504  31.106  28.414  1.00  0.00     0.049 A 
ATOM     45  N   UNL A   1      41.922  32.018  30.830  1.00  0.00    -0.248 NA
ATOM     46  C   UNL A   1      40.684  30.044  30.674  1.00  0.00     0.031 C 
ATOM     47  C   UNL A   1      44.313  30.694  27.270  1.00  0.00     0.029 A 
ATOM     48  N   UNL A   1      44.092  32.271  28.841  1.00  0.00    -0.354 N 
ATOM     49  C   UNL A   1      41.015  31.954  31.882  1.00  0.00     0.074 A 
ATOM     50  C   UNL A   1      40.261  30.730  31.723  1.00  0.00     0.031 C 
ATOM     51  C   UNL A   1      45.292  31.598  27.082  1.00  0.00     0.029 A 
ATOM     52  C   UNL A   1      45.152  32.671  28.064  1.00  0.00     0.049 A 
ATOM     53  H   UNL A   1      43.782  32.771  29.631  1.00  0.00     0.167 HD
ATOM     54  C   UNL A   1      40.827  32.835  32.892  1.00  0.00     0.034 A 
ATOM     55  C   UNL A   1      45.899  33.792  28.127  1.00  0.00     0.034 A 
ATOM     56  C   UNL A   1      41.567  34.062  33.028  1.00  0.00     0.049 A 
ATOM     57  C   UNL A   1      45.590  34.822  29.186  1.00  0.00     0.074 A 
ATOM     58  C   UNL A   1      41.436  35.044  33.994  1.00  0.00     0.029 A 
ATOM     59  N   UNL A   1      42.574  34.478  32.169  1.00  0.00    -0.354 N 
ATOM     60  N   UNL A   1      44.687  34.784  30.139  1.00  0.00    -0.248 NA
ATOM     61  C   UNL A   1      46.396  36.050  29.170  1.00  0.00     0.031 C 
ATOM     62  C   UNL A   1      42.323  36.080  33.684  1.00  0.00     0.029 A 
ATOM     63  C   UNL A   1      43.055  35.714  32.565  1.00  0.00     0.049 A 
ATOM     64  H   UNL A   1      42.899  33.968  31.391  1.00  0.00     0.167 HD
ATOM     65  C   UNL A   1      44.824  35.979  30.841  1.00  0.00     0.074 A 
ATOM     66  C   UNL A   1      45.909  36.706  30.214  1.00  0.00     0.031 C 
ATOM     67  C   UNL A   1      44.118  36.436  31.908  1.00  0.00     0.034 A 
BRANCH  54  68
ATOM     68  C   UNL A   1      39.745  32.521  33.888  1.00  0.00     0.023 A 
ATOM     69  C   UNL A   1      38.463  33.087  33.785  1.00  0.00     0.031 A 
ATOM     70  C   UNL A   1      40.006  31.659  34.967  1.00  0.00     0.131 A 
ATOM     71  C   UNL A   1      37.501  32.815  34.768  1.00  0.00     0.055 A 
ATOM     72  C   UNL A   1      39.025  31.345  35.908  1.00  0.00     0.041 A 
ATOM     73  F   UNL A   1      41.224  31.117  35.128  1.00  0.00    -0.206 F 
ATOM     74  C   UNL A   1      37.765  31.930  35.816  1.00  0.00     0.022 A 
BRANCH  71  75
ATOM     75  S   UNL A   1      35.920  33.703  34.710  1.00  0.00     0.124 S 
ATOM     76  O   UNL A   1      35.088  32.771  33.954  1.00  0.00    -0.237 OA
ATOM     77  O   UNL A   1      35.588  33.854  36.121  1.00  0.00    -0.237 OA
ATOM     78  O   UNL A   1      36.249  34.943  34.011  1.00  0.00    -0.744 OA
ENDBRANCH  71  75
ENDBRANCH  54  68
BRANCH  55  79
ATOM     79  C   UNL A   1      46.976  34.037  27.127  1.00  0.00     0.023 A 
ATOM     80  C   UNL A   1      48.255  33.482  27.291  1.00  0.00     0.031 A 
ATOM     81  C   UNL A   1      46.750  34.862  26.011  1.00  0.00     0.131 A 
ATOM     82  C   UNL A   1      49.269  33.781  26.367  1.00  0.00     0.055 A 
ATOM     83  C   UNL A   1      47.750  35.125  25.074  1.00  0.00     0.041 A 
ATOM     84  F   UNL A   1      45.544  35.418  25.812  1.00  0.00    -0.206 F 
ATOM     85  C   UNL A   1      49.021  34.589  25.252  1.00  0.00     0.022 A 
BRANCH  82  86
ATOM     86  S   UNL A   1      50.936  33.126  26.657  1.00  0.00     0.124 S 
ATOM     87  O   UNL A   1      50.723  32.282  27.827  1.00  0.00    -0.237 OA
ATOM     88  O   UNL A   1      51.211  32.430  25.404  1.00  0.00    -0.237 OA
ATOM     89  O   UNL A   1      51.738  34.325  26.887  1.00  0.00    -0.744 OA
ENDBRANCH  82  86
ENDBRANCH  55  79
BRANCH  67  90
ATOM     90  C   UNL A   1      44.509  37.781  32.466  1.00  0.00     0.023 A 
ATOM     91  C   UNL A   1      43.830  38.953  32.089  1.00  0.00     0.031 A 
ATOM     92  C   UNL A   1      45.561  37.891  33.390  1.00  0.00     0.131 A 
ATOM     93  C   UNL A   1      44.244  40.192  32.598  1.00  0.00     0.055 A 
ATOM     94  C   UNL A   1      45.932  39.120  33.937  1.00  0.00     0.041 A 
ATOM     95  F   UNL A   1      46.240  36.802  33.786  1.00  0.00    -0.206 F 
ATOM     96  C   UNL A   1      45.280  40.282  33.533  1.00  0.00     0.022 A 
BRANCH  93  97
ATOM     97  S   UNL A   1      43.456  41.698  31.967  1.00  0.00     0.124 S 
ATOM     98  O   UNL A   1      43.270  41.373  30.556  1.00  0.00    -0.237 OA
ATOM     99  O   UNL A   1      42.240  41.776  32.769  1.00  0.00    -0.237 OA
ATOM    100  O   UNL A   1      44.444  42.742  32.236  1.00  0.00    -0.744 OA
ENDBRANCH  93  97
ENDBRANCH  67  90
ENDBRANCH  41  42
ENDBRANCH  34  36
ENDBRANCH  33  34
ENDBRANCH  32  33
ENDBRANCH  31  32
ENDBRANCH  30  31
ENDBRANCH  29  30
ENDBRANCH   1  29
TORSDOF 24
ENDMDL
