MODEL 1
REMARK VINA RESULT:     -10.3      0.000      0.000
REMARK SMILES Cc1cc(Cl)c2c(c1)C=C(C(=O)OCCOCCOCCOCCOC(=O)c1ccc(-c3c4nc(c(-c5cc(S(=O)(=O)[O-])ccc5F)c5ccc([nH]5)c(-c5cc(S(=O)(=O)[O-])ccc5F)c5nc(c(-c6cc(S(=O)(=O)[O-])ccc6F)c6ccc3[nH]6)C=C5)C=C4)cc1)[C@@H](C(F)(F)F)O2
REMARK SMILES IDX 20 1 19 2 18 3 17 4 16 5 15 6 14 7 13 8 11 9 12 10 10 11
REMARK SMILES IDX 1 12 2 13 3 14 8 15 4 16 7 17 5 18 6 19 9 20 96 21 91 22
REMARK SMILES IDX 92 23 93 24 94 25 95 26 21 27 22 28 23 29 24 30 25 31 26 32
REMARK SMILES IDX 27 33 28 34 29 35 90 36 30 37 89 38 31 39 32 40 33 41 83 42
REMARK SMILES IDX 34 43 88 44 82 45 84 46 35 47 87 48 81 49 80 50 36 52 68 53
REMARK SMILES IDX 48 54 67 55 49 56 52 57 66 58 85 59 50 60 51 61 65 63 86 64
REMARK SMILES IDX 53 65 37 66 38 67 46 68 39 69 45 70 47 71 44 72 40 73 41 74
REMARK SMILES IDX 42 75 43 76 69 77 70 78 78 79 71 80 77 81 79 82 76 83 72 84
REMARK SMILES IDX 73 85 74 86 75 87 54 88 55 89 63 90 56 91 62 92 64 93 61 94
REMARK SMILES IDX 57 95 58 96 59 97 60 98
REMARK H PARENT 84 51 52 62
REMARK Flexibility Score: inf
ROOT
ATOM      1  C   UNL A   1      38.849  22.080  26.135  1.00  0.00     0.188 C 
ENDROOT
BRANCH   1   2
ATOM      2  O   UNL A   1      38.055  21.354  25.198  1.00  0.00    -0.377 OA
BRANCH   2   3
ATOM      3  C   UNL A   1      36.656  21.579  25.226  1.00  0.00     0.188 C 
BRANCH   3   4
ATOM      4  C   UNL A   1      35.842  20.293  25.001  1.00  0.00     0.188 C 
BRANCH   4   5
ATOM      5  O   UNL A   1      34.446  20.463  24.853  1.00  0.00    -0.376 OA
BRANCH   5   6
ATOM      6  C   UNL A   1      33.860  21.653  24.345  1.00  0.00     0.202 C 
BRANCH   6   7
ATOM      7  C   UNL A   1      32.487  21.795  23.654  1.00  0.00     0.261 C 
BRANCH   7   8
ATOM      8  O   UNL A   1      31.849  23.068  23.676  1.00  0.00    -0.460 OA
BRANCH   8   9
ATOM      9  C   UNL A   1      31.223  23.427  24.808  1.00  0.00     0.338 C 
ATOM     10  O   UNL A   1      30.875  22.700  25.722  1.00  0.00    -0.246 OA
BRANCH   9  11
ATOM     11  C   UNL A   1      31.191  24.906  24.844  1.00  0.00     0.087 C 
ATOM     12  C   UNL A   1      28.523  29.693  22.043  1.00  0.00     0.044 C 
ATOM     13  C   UNL A   1      29.426  28.998  23.019  1.00  0.00    -0.049 A 
ATOM     14  C   UNL A   1      30.298  29.732  23.830  1.00  0.00     0.028 A 
ATOM     15  C   UNL A   1      29.393  27.606  23.145  1.00  0.00     0.015 A 
ATOM     16  C   UNL A   1      31.129  29.078  24.747  1.00  0.00     0.084 A 
ATOM     17  C   UNL A   1      30.260  26.948  24.028  1.00  0.00     0.019 A 
ATOM     18  Cl  UNL A   1      32.196  30.042  25.706  1.00  0.00    -0.080 Cl
ATOM     19  C   UNL A   1      31.114  27.682  24.853  1.00  0.00     0.146 A 
ATOM     20  C   UNL A   1      30.310  25.499  24.030  1.00  0.00     0.027 C 
ATOM     21  O   UNL A   1      31.949  27.097  25.765  1.00  0.00    -0.474 OA
ATOM     22  C   UNL A   1      32.068  25.649  25.817  1.00  0.00     0.316 C 
BRANCH  22  23
ATOM     23  C   UNL A   1      33.549  25.281  25.651  1.00  0.00     0.430 C 
ATOM     24  F   UNL A   1      34.359  26.264  26.107  1.00  0.00    -0.167 F 
ATOM     25  F   UNL A   1      33.873  24.157  26.330  1.00  0.00    -0.167 F 
ATOM     26  F   UNL A   1      33.861  25.068  24.350  1.00  0.00    -0.167 F 
ENDBRANCH  22  23
ENDBRANCH   9  11
ENDBRANCH   8   9
ENDBRANCH   7   8
ENDBRANCH   6   7
ENDBRANCH   5   6
ENDBRANCH   4   5
ENDBRANCH   3   4
ENDBRANCH   2   3
ENDBRANCH   1   2
BRANCH   1  27
ATOM     27  C   UNL A   1      40.368  21.810  26.249  1.00  0.00     0.188 C 
BRANCH  27  28
ATOM     28  O   UNL A   1      40.692  20.611  26.951  1.00  0.00    -0.376 OA
BRANCH  28  29
ATOM     29  C   UNL A   1      40.804  19.416  26.194  1.00  0.00     0.202 C 
BRANCH  29  30
ATOM     30  C   UNL A   1      42.218  18.825  26.101  1.00  0.00     0.261 C 
BRANCH  30  31
ATOM     31  O   UNL A   1      42.911  19.061  24.867  1.00  0.00    -0.460 OA
BRANCH  31  32
ATOM     32  C   UNL A   1      44.151  19.591  24.945  1.00  0.00     0.338 C 
ATOM     33  O   UNL A   1      45.190  19.083  24.563  1.00  0.00    -0.246 OA
BRANCH  32  34
ATOM     34  C   UNL A   1      44.005  20.992  25.392  1.00  0.00     0.060 A 
ATOM     35  C   UNL A   1      43.773  21.990  24.438  1.00  0.00     0.016 A 
ATOM     36  C   UNL A   1      44.085  21.312  26.750  1.00  0.00     0.016 A 
ATOM     37  C   UNL A   1      43.652  23.321  24.838  1.00  0.00     0.010 A 
ATOM     38  C   UNL A   1      43.991  22.647  27.147  1.00  0.00     0.010 A 
ATOM     39  C   UNL A   1      43.810  23.660  26.189  1.00  0.00    -0.014 A 
BRANCH  39  40
ATOM     40  C   UNL A   1      44.031  25.077  26.565  1.00  0.00     0.031 A 
ATOM     41  C   UNL A   1      45.407  25.650  26.349  1.00  0.00     0.074 A 
ATOM     42  C   UNL A   1      43.040  25.849  27.045  1.00  0.00     0.049 A 
ATOM     43  N   UNL A   1      45.870  26.834  26.647  1.00  0.00    -0.248 NA
ATOM     44  C   UNL A   1      46.391  24.762  25.706  1.00  0.00     0.031 C 
ATOM     45  C   UNL A   1      41.653  25.429  27.228  1.00  0.00     0.029 A 
ATOM     46  N   UNL A   1      43.055  27.156  27.463  1.00  0.00    -0.354 N 
ATOM     47  C   UNL A   1      47.194  26.837  26.223  1.00  0.00     0.074 A 
ATOM     48  C   UNL A   1      47.472  25.525  25.682  1.00  0.00     0.031 C 
ATOM     49  C   UNL A   1      40.947  26.464  27.721  1.00  0.00     0.029 A 
ATOM     50  C   UNL A   1      41.840  27.604  27.925  1.00  0.00     0.049 A 
ATOM     51  H   UNL A   1      43.861  27.721  27.435  1.00  0.00     0.167 HD
ATOM     52  C   UNL A   1      48.093  27.847  26.269  1.00  0.00     0.034 A 
ATOM     53  C   UNL A   1      41.498  28.790  28.469  1.00  0.00     0.034 A 
ATOM     54  C   UNL A   1      47.812  29.146  26.819  1.00  0.00     0.049 A 
ATOM     55  C   UNL A   1      42.551  29.860  28.626  1.00  0.00     0.074 A 
ATOM     56  C   UNL A   1      48.659  30.235  26.925  1.00  0.00     0.029 A 
ATOM     57  N   UNL A   1      46.594  29.532  27.360  1.00  0.00    -0.354 N 
ATOM     58  N   UNL A   1      43.812  29.839  28.256  1.00  0.00    -0.248 NA
ATOM     59  C   UNL A   1      42.140  31.110  29.281  1.00  0.00     0.031 C 
ATOM     60  C   UNL A   1      47.974  31.256  27.591  1.00  0.00     0.029 A 
ATOM     61  C   UNL A   1      46.677  30.830  27.833  1.00  0.00     0.049 A 
ATOM     62  H   UNL A   1      45.791  28.965  27.402  1.00  0.00     0.167 HD
ATOM     63  C   UNL A   1      44.336  31.079  28.615  1.00  0.00     0.074 A 
ATOM     64  C   UNL A   1      43.255  31.827  29.222  1.00  0.00     0.031 C 
ATOM     65  C   UNL A   1      45.595  31.557  28.451  1.00  0.00     0.034 A 
BRANCH  52  66
ATOM     66  C   UNL A   1      49.476  27.569  25.742  1.00  0.00     0.023 A 
ATOM     67  C   UNL A   1      49.812  27.811  24.400  1.00  0.00     0.031 A 
ATOM     68  C   UNL A   1      50.471  27.064  26.597  1.00  0.00     0.131 A 
ATOM     69  C   UNL A   1      51.103  27.512  23.941  1.00  0.00     0.055 A 
ATOM     70  C   UNL A   1      51.770  26.827  26.149  1.00  0.00     0.041 A 
ATOM     71  F   UNL A   1      50.193  26.792  27.882  1.00  0.00    -0.206 F 
ATOM     72  C   UNL A   1      52.091  27.045  24.812  1.00  0.00     0.022 A 
BRANCH  69  73
ATOM     73  S   UNL A   1      51.453  27.662  22.169  1.00  0.00     0.124 S 
ATOM     74  O   UNL A   1      50.280  27.018  21.582  1.00  0.00    -0.237 OA
ATOM     75  O   UNL A   1      51.546  29.106  21.985  1.00  0.00    -0.237 OA
ATOM     76  O   UNL A   1      52.707  26.931  22.003  1.00  0.00    -0.744 OA
ENDBRANCH  69  73
ENDBRANCH  52  66
BRANCH  53  77
ATOM     77  C   UNL A   1      40.104  29.025  28.942  1.00  0.00     0.023 A 
ATOM     78  C   UNL A   1      39.777  28.939  30.305  1.00  0.00     0.031 A 
ATOM     79  C   UNL A   1      39.072  29.317  28.032  1.00  0.00     0.131 A 
ATOM     80  C   UNL A   1      38.447  29.122  30.718  1.00  0.00     0.055 A 
ATOM     81  C   UNL A   1      37.759  29.538  28.452  1.00  0.00     0.041 A 
ATOM     82  F   UNL A   1      39.331  29.407  26.718  1.00  0.00    -0.206 F 
ATOM     83  C   UNL A   1      37.439  29.434  29.803  1.00  0.00     0.022 A 
BRANCH  80  84
ATOM     84  S   UNL A   1      38.044  28.911  32.474  1.00  0.00     0.124 S 
ATOM     85  O   UNL A   1      38.249  27.479  32.657  1.00  0.00    -0.237 OA
ATOM     86  O   UNL A   1      39.018  29.788  33.118  1.00  0.00    -0.237 OA
ATOM     87  O   UNL A   1      36.656  29.362  32.560  1.00  0.00    -0.744 OA
ENDBRANCH  80  84
ENDBRANCH  53  77
BRANCH  65  88
ATOM     88  C   UNL A   1      45.877  32.963  28.916  1.00  0.00     0.023 A 
ATOM     89  C   UNL A   1      45.692  34.066  28.067  1.00  0.00     0.031 A 
ATOM     90  C   UNL A   1      46.279  33.203  30.242  1.00  0.00     0.131 A 
ATOM     91  C   UNL A   1      45.936  35.363  28.546  1.00  0.00     0.055 A 
ATOM     92  C   UNL A   1      46.472  34.497  30.727  1.00  0.00     0.041 A 
ATOM     93  F   UNL A   1      46.465  32.183  31.095  1.00  0.00    -0.206 F 
ATOM     94  C   UNL A   1      46.306  35.585  29.875  1.00  0.00     0.022 A 
BRANCH  91  95
ATOM     95  S   UNL A   1      45.800  36.756  27.395  1.00  0.00     0.124 S 
ATOM     96  O   UNL A   1      46.311  36.178  26.157  1.00  0.00    -0.237 OA
ATOM     97  O   UNL A   1      44.370  37.048  27.420  1.00  0.00    -0.237 OA
ATOM     98  O   UNL A   1      46.650  37.783  27.997  1.00  0.00    -0.744 OA
ENDBRANCH  91  95
ENDBRANCH  65  88
ENDBRANCH  39  40
ENDBRANCH  32  34
ENDBRANCH  31  32
ENDBRANCH  30  31
ENDBRANCH  29  30
ENDBRANCH  28  29
ENDBRANCH  27  28
ENDBRANCH   1  27
TORSDOF 24
ENDMDL
MODEL 2
REMARK VINA RESULT:      -9.9      1.871      2.082
REMARK SMILES Cc1cc(Cl)c2c(c1)C=C(C(=O)OCCOCCOCCOCCOC(=O)c1ccc(-c3c4nc(c(-c5cc(S(=O)(=O)[O-])ccc5F)c5ccc([nH]5)c(-c5cc(S(=O)(=O)[O-])ccc5F)c5nc(c(-c6cc(S(=O)(=O)[O-])ccc6F)c6ccc3[nH]6)C=C5)C=C4)cc1)[C@@H](C(F)(F)F)O2
REMARK SMILES IDX 20 1 19 2 18 3 17 4 16 5 15 6 14 7 13 8 11 9 12 10 10 11
REMARK SMILES IDX 1 12 2 13 3 14 8 15 4 16 7 17 5 18 6 19 9 20 96 21 91 22
REMARK SMILES IDX 92 23 93 24 94 25 95 26 21 27 22 28 23 29 24 30 25 31 26 32
REMARK SMILES IDX 27 33 28 34 29 35 90 36 30 37 89 38 31 39 32 40 33 41 83 42
REMARK SMILES IDX 34 43 88 44 82 45 84 46 35 47 87 48 81 49 80 50 36 52 68 53
REMARK SMILES IDX 48 54 67 55 49 56 52 57 66 58 85 59 50 60 51 61 65 63 86 64
REMARK SMILES IDX 53 65 37 66 38 67 46 68 39 69 45 70 47 71 44 72 40 73 41 74
REMARK SMILES IDX 42 75 43 76 69 77 70 78 78 79 71 80 77 81 79 82 76 83 72 84
REMARK SMILES IDX 73 85 74 86 75 87 54 88 55 89 63 90 56 91 62 92 64 93 61 94
REMARK SMILES IDX 57 95 58 96 59 97 60 98
REMARK H PARENT 84 51 52 62
REMARK Flexibility Score: inf
ROOT
ATOM      1  C   UNL A   1      38.959  22.023  26.127  1.00  0.00     0.188 C 
ENDROOT
BRANCH   1   2
ATOM      2  O   UNL A   1      38.161  21.257  25.227  1.00  0.00    -0.377 OA
BRANCH   2   3
ATOM      3  C   UNL A   1      36.768  21.517  25.216  1.00  0.00     0.188 C 
BRANCH   3   4
ATOM      4  C   UNL A   1      35.926  20.243  25.030  1.00  0.00     0.188 C 
BRANCH   4   5
ATOM      5  O   UNL A   1      34.537  20.441  24.855  1.00  0.00    -0.376 OA
BRANCH   5   6
ATOM      6  C   UNL A   1      33.977  21.672  24.423  1.00  0.00     0.202 C 
BRANCH   6   7
ATOM      7  C   UNL A   1      32.630  21.881  23.699  1.00  0.00     0.261 C 
BRANCH   7   8
ATOM      8  O   UNL A   1      32.023  23.168  23.762  1.00  0.00    -0.460 OA
BRANCH   8   9
ATOM      9  C   UNL A   1      31.445  23.523  24.921  1.00  0.00     0.338 C 
ATOM     10  O   UNL A   1      31.184  22.802  25.867  1.00  0.00    -0.246 OA
BRANCH   9  11
ATOM     11  C   UNL A   1      31.343  24.999  24.928  1.00  0.00     0.087 C 
ATOM     12  C   UNL A   1      28.367  29.595  22.119  1.00  0.00     0.044 C 
ATOM     13  C   UNL A   1      29.330  28.964  23.079  1.00  0.00    -0.049 A 
ATOM     14  C   UNL A   1      30.191  29.755  23.848  1.00  0.00     0.028 A 
ATOM     15  C   UNL A   1      29.369  27.575  23.233  1.00  0.00     0.015 A 
ATOM     16  C   UNL A   1      31.079  29.161  24.753  1.00  0.00     0.084 A 
ATOM     17  C   UNL A   1      30.291  26.977  24.102  1.00  0.00     0.019 A 
ATOM     18  Cl  UNL A   1      32.127  30.194  25.659  1.00  0.00    -0.080 Cl
ATOM     19  C   UNL A   1      31.134  27.768  24.886  1.00  0.00     0.146 A 
ATOM     20  C   UNL A   1      30.411  25.533  24.131  1.00  0.00     0.027 C 
ATOM     21  O   UNL A   1      32.023  27.242  25.783  1.00  0.00    -0.474 OA
ATOM     22  C   UNL A   1      32.213  25.803  25.860  1.00  0.00     0.316 C 
BRANCH  22  23
ATOM     23  C   UNL A   1      33.704  25.502  25.655  1.00  0.00     0.430 C 
ATOM     24  F   UNL A   1      34.480  26.518  26.096  1.00  0.00    -0.167 F 
ATOM     25  F   UNL A   1      34.094  24.391  26.320  1.00  0.00    -0.167 F 
ATOM     26  F   UNL A   1      33.993  25.309  24.346  1.00  0.00    -0.167 F 
ENDBRANCH  22  23
ENDBRANCH   9  11
ENDBRANCH   8   9
ENDBRANCH   7   8
ENDBRANCH   6   7
ENDBRANCH   5   6
ENDBRANCH   4   5
ENDBRANCH   3   4
ENDBRANCH   2   3
ENDBRANCH   1   2
BRANCH   1  27
ATOM     27  C   UNL A   1      40.484  21.782  26.222  1.00  0.00     0.188 C 
BRANCH  27  28
ATOM     28  O   UNL A   1      40.841  20.600  26.938  1.00  0.00    -0.376 OA
BRANCH  28  29
ATOM     29  C   UNL A   1      40.999  19.403  26.192  1.00  0.00     0.202 C 
BRANCH  29  30
ATOM     30  C   UNL A   1      42.447  18.927  26.010  1.00  0.00     0.261 C 
BRANCH  30  31
ATOM     31  O   UNL A   1      43.044  19.223  24.739  1.00  0.00    -0.460 OA
BRANCH  31  32
ATOM     32  C   UNL A   1      44.272  19.786  24.750  1.00  0.00     0.338 C 
ATOM     33  O   UNL A   1      45.291  19.327  24.265  1.00  0.00    -0.246 OA
BRANCH  32  34
ATOM     34  C   UNL A   1      44.125  21.158  25.277  1.00  0.00     0.060 A 
ATOM     35  C   UNL A   1      43.757  22.187  24.401  1.00  0.00     0.016 A 
ATOM     36  C   UNL A   1      44.339  21.421  26.632  1.00  0.00     0.016 A 
ATOM     37  C   UNL A   1      43.633  23.493  24.875  1.00  0.00     0.010 A 
ATOM     38  C   UNL A   1      44.240  22.733  27.100  1.00  0.00     0.010 A 
ATOM     39  C   UNL A   1      43.922  23.779  26.216  1.00  0.00    -0.014 A 
BRANCH  39  40
ATOM     40  C   UNL A   1      44.132  25.185  26.634  1.00  0.00     0.031 A 
ATOM     41  C   UNL A   1      45.511  25.765  26.466  1.00  0.00     0.074 A 
ATOM     42  C   UNL A   1      43.129  25.943  27.112  1.00  0.00     0.049 A 
ATOM     43  N   UNL A   1      45.965  26.942  26.806  1.00  0.00    -0.248 NA
ATOM     44  C   UNL A   1      46.512  24.896  25.823  1.00  0.00     0.031 C 
ATOM     45  C   UNL A   1      41.738  25.517  27.252  1.00  0.00     0.029 A 
ATOM     46  N   UNL A   1      43.132  27.239  27.564  1.00  0.00    -0.354 N 
ATOM     47  C   UNL A   1      47.298  26.958  26.413  1.00  0.00     0.074 A 
ATOM     48  C   UNL A   1      47.591  25.660  25.844  1.00  0.00     0.031 C 
ATOM     49  C   UNL A   1      41.019  26.537  27.755  1.00  0.00     0.029 A 
ATOM     50  C   UNL A   1      41.906  27.672  28.010  1.00  0.00     0.049 A 
ATOM     51  H   UNL A   1      43.937  27.805  27.570  1.00  0.00     0.167 HD
ATOM     52  C   UNL A   1      48.195  27.968  26.506  1.00  0.00     0.034 A 
ATOM     53  C   UNL A   1      41.548  28.844  28.576  1.00  0.00     0.034 A 
ATOM     54  C   UNL A   1      47.899  29.251  27.084  1.00  0.00     0.049 A 
ATOM     55  C   UNL A   1      42.596  29.911  28.786  1.00  0.00     0.074 A 
ATOM     56  C   UNL A   1      48.741  30.338  27.238  1.00  0.00     0.029 A 
ATOM     57  N   UNL A   1      46.668  29.621  27.607  1.00  0.00    -0.354 N 
ATOM     58  N   UNL A   1      43.865  29.901  28.445  1.00  0.00    -0.248 NA
ATOM     59  C   UNL A   1      42.167  31.142  29.464  1.00  0.00     0.031 C 
ATOM     60  C   UNL A   1      48.038  31.340  27.914  1.00  0.00     0.029 A 
ATOM     61  C   UNL A   1      46.737  30.906  28.115  1.00  0.00     0.049 A 
ATOM     62  H   UNL A   1      45.865  29.052  27.615  1.00  0.00     0.167 HD
ATOM     63  C   UNL A   1      44.378  31.132  28.849  1.00  0.00     0.074 A 
ATOM     64  C   UNL A   1      43.281  31.862  29.450  1.00  0.00     0.031 C 
ATOM     65  C   UNL A   1      45.640  31.615  28.727  1.00  0.00     0.034 A 
BRANCH  52  66
ATOM     66  C   UNL A   1      49.590  27.705  26.005  1.00  0.00     0.023 A 
ATOM     67  C   UNL A   1      50.652  27.456  26.890  1.00  0.00     0.031 A 
ATOM     68  C   UNL A   1      49.856  27.693  24.625  1.00  0.00     0.131 A 
ATOM     69  C   UNL A   1      51.943  27.244  26.384  1.00  0.00     0.055 A 
ATOM     70  C   UNL A   1      51.130  27.420  24.127  1.00  0.00     0.041 A 
ATOM     71  F   UNL A   1      48.880  27.950  23.739  1.00  0.00    -0.206 F 
ATOM     72  C   UNL A   1      52.184  27.200  25.009  1.00  0.00     0.022 A 
BRANCH  69  73
ATOM     73  S   UNL A   1      53.322  27.108  27.553  1.00  0.00     0.124 S 
ATOM     74  O   UNL A   1      53.734  25.719  27.363  1.00  0.00    -0.237 OA
ATOM     75  O   UNL A   1      54.252  28.121  27.066  1.00  0.00    -0.237 OA
ATOM     76  O   UNL A   1      52.706  27.398  28.846  1.00  0.00    -0.744 OA
ENDBRANCH  69  73
ENDBRANCH  52  66
BRANCH  53  77
ATOM     77  C   UNL A   1      40.143  29.065  29.023  1.00  0.00     0.023 A 
ATOM     78  C   UNL A   1      39.791  28.972  30.379  1.00  0.00     0.031 A 
ATOM     79  C   UNL A   1      39.126  29.348  28.094  1.00  0.00     0.131 A 
ATOM     80  C   UNL A   1      38.452  29.142  30.767  1.00  0.00     0.055 A 
ATOM     81  C   UNL A   1      37.803  29.555  28.489  1.00  0.00     0.041 A 
ATOM     82  F   UNL A   1      39.410  29.443  26.785  1.00  0.00    -0.206 F 
ATOM     83  C   UNL A   1      37.459  29.446  29.833  1.00  0.00     0.022 A 
BRANCH  80  84
ATOM     84  S   UNL A   1      38.017  28.924  32.515  1.00  0.00     0.124 S 
ATOM     85  O   UNL A   1      38.169  27.484  32.682  1.00  0.00    -0.237 OA
ATOM     86  O   UNL A   1      39.013  29.758  33.182  1.00  0.00    -0.237 OA
ATOM     87  O   UNL A   1      36.645  29.423  32.587  1.00  0.00    -0.744 OA
ENDBRANCH  80  84
ENDBRANCH  53  77
BRANCH  65  88
ATOM     88  C   UNL A   1      45.908  33.009  29.236  1.00  0.00     0.023 A 
ATOM     89  C   UNL A   1      46.376  33.234  30.540  1.00  0.00     0.031 A 
ATOM     90  C   UNL A   1      45.750  34.117  28.384  1.00  0.00     0.131 A 
ATOM     91  C   UNL A   1      46.644  34.544  30.968  1.00  0.00     0.055 A 
ATOM     92  C   UNL A   1      46.065  35.411  28.799  1.00  0.00     0.041 A 
ATOM     93  F   UNL A   1      45.311  33.954  27.126  1.00  0.00    -0.206 F 
ATOM     94  C   UNL A   1      46.510  35.630  30.099  1.00  0.00     0.022 A 
BRANCH  91  95
ATOM     95  S   UNL A   1      47.136  34.814  32.691  1.00  0.00     0.124 S 
ATOM     96  O   UNL A   1      48.534  35.208  32.550  1.00  0.00    -0.237 OA
ATOM     97  O   UNL A   1      46.218  35.865  33.120  1.00  0.00    -0.237 OA
ATOM     98  O   UNL A   1      46.920  33.510  33.319  1.00  0.00    -0.744 OA
ENDBRANCH  91  95
ENDBRANCH  65  88
ENDBRANCH  39  40
ENDBRANCH  32  34
ENDBRANCH  31  32
ENDBRANCH  30  31
ENDBRANCH  29  30
ENDBRANCH  28  29
ENDBRANCH  27  28
ENDBRANCH   1  27
TORSDOF 24
ENDMDL
MODEL 3
REMARK VINA RESULT:      -9.8      5.804     10.522
REMARK SMILES Cc1cc(Cl)c2c(c1)C=C(C(=O)OCCOCCOCCOCCOC(=O)c1ccc(-c3c4nc(c(-c5cc(S(=O)(=O)[O-])ccc5F)c5ccc([nH]5)c(-c5cc(S(=O)(=O)[O-])ccc5F)c5nc(c(-c6cc(S(=O)(=O)[O-])ccc6F)c6ccc3[nH]6)C=C5)C=C4)cc1)[C@@H](C(F)(F)F)O2
REMARK SMILES IDX 20 1 19 2 18 3 17 4 16 5 15 6 14 7 13 8 11 9 12 10 10 11
REMARK SMILES IDX 1 12 2 13 3 14 8 15 4 16 7 17 5 18 6 19 9 20 96 21 91 22
REMARK SMILES IDX 92 23 93 24 94 25 95 26 21 27 22 28 23 29 24 30 25 31 26 32
REMARK SMILES IDX 27 33 28 34 29 35 90 36 30 37 89 38 31 39 32 40 33 41 83 42
REMARK SMILES IDX 34 43 88 44 82 45 84 46 35 47 87 48 81 49 80 50 36 52 68 53
REMARK SMILES IDX 48 54 67 55 49 56 52 57 66 58 85 59 50 60 51 61 65 63 86 64
REMARK SMILES IDX 53 65 37 66 38 67 46 68 39 69 45 70 47 71 44 72 40 73 41 74
REMARK SMILES IDX 42 75 43 76 69 77 70 78 78 79 71 80 77 81 79 82 76 83 72 84
REMARK SMILES IDX 73 85 74 86 75 87 54 88 55 89 63 90 56 91 62 92 64 93 61 94
REMARK SMILES IDX 57 95 58 96 59 97 60 98
REMARK H PARENT 84 51 52 62
REMARK Flexibility Score: inf
ROOT
ATOM      1  C   UNL A   1      33.859  29.543  26.429  1.00  0.00     0.188 C 
ENDROOT
BRANCH   1   2
ATOM      2  O   UNL A   1      32.643  30.289  26.377  1.00  0.00    -0.377 OA
BRANCH   2   3
ATOM      3  C   UNL A   1      31.676  29.881  25.424  1.00  0.00     0.188 C 
BRANCH   3   4
ATOM      4  C   UNL A   1      31.507  28.353  25.364  1.00  0.00     0.188 C 
BRANCH   4   5
ATOM      5  O   UNL A   1      32.049  27.716  24.225  1.00  0.00    -0.376 OA
BRANCH   5   6
ATOM      6  C   UNL A   1      31.792  26.358  23.899  1.00  0.00     0.202 C 
BRANCH   6   7
ATOM      7  C   UNL A   1      31.064  25.312  24.768  1.00  0.00     0.261 C 
BRANCH   7   8
ATOM      8  O   UNL A   1      31.208  23.936  24.430  1.00  0.00    -0.460 OA
BRANCH   8   9
ATOM      9  C   UNL A   1      31.205  23.047  25.437  1.00  0.00     0.338 C 
ATOM     10  O   UNL A   1      30.352  22.908  26.296  1.00  0.00    -0.246 OA
BRANCH   9  11
ATOM     11  C   UNL A   1      32.342  22.128  25.217  1.00  0.00     0.087 C 
ATOM     12  C   UNL A   1      33.543  16.180  24.188  1.00  0.00     0.044 C 
ATOM     13  C   UNL A   1      33.860  17.629  24.411  1.00  0.00    -0.049 A 
ATOM     14  C   UNL A   1      35.186  18.057  24.542  1.00  0.00     0.028 A 
ATOM     15  C   UNL A   1      32.833  18.576  24.474  1.00  0.00     0.015 A 
ATOM     16  C   UNL A   1      35.476  19.412  24.738  1.00  0.00     0.084 A 
ATOM     17  C   UNL A   1      33.120  19.926  24.719  1.00  0.00     0.019 A 
ATOM     18  Cl  UNL A   1      37.133  19.871  24.909  1.00  0.00    -0.080 Cl
ATOM     19  C   UNL A   1      34.445  20.355  24.826  1.00  0.00     0.146 A 
ATOM     20  C   UNL A   1      32.031  20.859  24.927  1.00  0.00     0.027 C 
ATOM     21  O   UNL A   1      34.786  21.665  25.021  1.00  0.00    -0.474 OA
ATOM     22  C   UNL A   1      33.751  22.660  25.254  1.00  0.00     0.316 C 
BRANCH  22  23
ATOM     23  C   UNL A   1      34.060  23.375  26.577  1.00  0.00     0.430 C 
ATOM     24  F   UNL A   1      33.623  24.656  26.561  1.00  0.00    -0.167 F 
ATOM     25  F   UNL A   1      33.468  22.770  27.631  1.00  0.00    -0.167 F 
ATOM     26  F   UNL A   1      35.391  23.403  26.824  1.00  0.00    -0.167 F 
ENDBRANCH  22  23
ENDBRANCH   9  11
ENDBRANCH   8   9
ENDBRANCH   7   8
ENDBRANCH   6   7
ENDBRANCH   5   6
ENDBRANCH   4   5
ENDBRANCH   3   4
ENDBRANCH   2   3
ENDBRANCH   1   2
BRANCH   1  27
ATOM     27  C   UNL A   1      34.769  29.617  27.677  1.00  0.00     0.188 C 
BRANCH  27  28
ATOM     28  O   UNL A   1      34.739  30.878  28.344  1.00  0.00    -0.376 OA
BRANCH  28  29
ATOM     29  C   UNL A   1      35.410  31.965  27.724  1.00  0.00     0.202 C 
BRANCH  29  30
ATOM     30  C   UNL A   1      34.717  33.328  27.857  1.00  0.00     0.261 C 
BRANCH  30  31
ATOM     31  O   UNL A   1      33.617  33.380  28.777  1.00  0.00    -0.460 OA
BRANCH  31  32
ATOM     32  C   UNL A   1      33.739  34.205  29.840  1.00  0.00     0.338 C 
ATOM     33  O   UNL A   1      32.957  35.074  30.185  1.00  0.00    -0.246 OA
BRANCH  32  34
ATOM     34  C   UNL A   1      34.892  33.735  30.634  1.00  0.00     0.060 A 
ATOM     35  C   UNL A   1      36.124  34.387  30.497  1.00  0.00     0.016 A 
ATOM     36  C   UNL A   1      34.750  32.664  31.520  1.00  0.00     0.016 A 
ATOM     37  C   UNL A   1      37.229  33.946  31.224  1.00  0.00     0.010 A 
ATOM     38  C   UNL A   1      35.864  32.206  32.226  1.00  0.00     0.010 A 
ATOM     39  C   UNL A   1      37.116  32.823  32.054  1.00  0.00    -0.014 A 
BRANCH  39  40
ATOM     40  C   UNL A   1      38.342  32.149  32.543  1.00  0.00     0.031 A 
ATOM     41  C   UNL A   1      38.928  31.058  31.687  1.00  0.00     0.074 A 
ATOM     42  C   UNL A   1      38.946  32.514  33.688  1.00  0.00     0.049 A 
ATOM     43  N   UNL A   1      39.954  30.282  31.917  1.00  0.00    -0.248 NA
ATOM     44  C   UNL A   1      38.265  30.814  30.395  1.00  0.00     0.031 C 
ATOM     45  C   UNL A   1      38.516  33.603  34.563  1.00  0.00     0.029 A 
ATOM     46  N   UNL A   1      40.059  32.003  34.308  1.00  0.00    -0.354 N 
ATOM     47  C   UNL A   1      40.063  29.464  30.798  1.00  0.00     0.074 A 
ATOM     48  C   UNL A   1      38.977  29.811  29.907  1.00  0.00     0.031 C 
ATOM     49  C   UNL A   1      39.360  33.680  35.608  1.00  0.00     0.029 A 
ATOM     50  C   UNL A   1      40.364  32.622  35.497  1.00  0.00     0.049 A 
ATOM     51  H   UNL A   1      40.590  31.262  33.935  1.00  0.00     0.167 HD
ATOM     52  C   UNL A   1      40.992  28.517  30.531  1.00  0.00     0.034 A 
ATOM     53  C   UNL A   1      41.330  32.350  36.399  1.00  0.00     0.034 A 
ATOM     54  C   UNL A   1      42.062  28.169  31.428  1.00  0.00     0.049 A 
ATOM     55  C   UNL A   1      42.280  31.205  36.139  1.00  0.00     0.074 A 
ATOM     56  C   UNL A   1      43.049  27.215  31.257  1.00  0.00     0.029 A 
ATOM     57  N   UNL A   1      42.284  28.758  32.664  1.00  0.00    -0.354 N 
ATOM     58  N   UNL A   1      42.351  30.412  35.094  1.00  0.00    -0.248 NA
ATOM     59  C   UNL A   1      43.273  30.912  37.182  1.00  0.00     0.031 C 
ATOM     60  C   UNL A   1      43.826  27.181  32.419  1.00  0.00     0.029 A 
ATOM     61  C   UNL A   1      43.370  28.164  33.283  1.00  0.00     0.049 A 
ATOM     62  H   UNL A   1      41.747  29.490  33.045  1.00  0.00     0.167 HD
ATOM     63  C   UNL A   1      43.409  29.542  35.346  1.00  0.00     0.074 A 
ATOM     64  C   UNL A   1      43.952  29.911  36.636  1.00  0.00     0.031 C 
ATOM     65  C   UNL A   1      43.890  28.533  34.577  1.00  0.00     0.034 A 
BRANCH  52  66
ATOM     66  C   UNL A   1      40.865  27.767  29.233  1.00  0.00     0.023 A 
ATOM     67  C   UNL A   1      41.746  27.997  28.163  1.00  0.00     0.031 A 
ATOM     68  C   UNL A   1      39.856  26.803  29.068  1.00  0.00     0.131 A 
ATOM     69  C   UNL A   1      41.576  27.298  26.959  1.00  0.00     0.055 A 
ATOM     70  C   UNL A   1      39.731  26.066  27.890  1.00  0.00     0.041 A 
ATOM     71  F   UNL A   1      38.973  26.563  30.051  1.00  0.00    -0.206 F 
ATOM     72  C   UNL A   1      40.590  26.317  26.824  1.00  0.00     0.022 A 
BRANCH  69  73
ATOM     73  S   UNL A   1      42.610  27.748  25.540  1.00  0.00     0.124 S 
ATOM     74  O   UNL A   1      41.918  28.931  25.033  1.00  0.00    -0.237 OA
ATOM     75  O   UNL A   1      43.910  27.985  26.156  1.00  0.00    -0.237 OA
ATOM     76  O   UNL A   1      42.537  26.572  24.675  1.00  0.00    -0.744 OA
ENDBRANCH  69  73
ENDBRANCH  52  66
BRANCH  53  77
ATOM     77  C   UNL A   1      41.433  33.148  37.653  1.00  0.00     0.023 A 
ATOM     78  C   UNL A   1      40.688  32.807  38.793  1.00  0.00     0.031 A 
ATOM     79  C   UNL A   1      42.263  34.282  37.722  1.00  0.00     0.131 A 
ATOM     80  C   UNL A   1      40.771  33.602  39.947  1.00  0.00     0.055 A 
ATOM     81  C   UNL A   1      42.373  35.046  38.885  1.00  0.00     0.041 A 
ATOM     82  F   UNL A   1      42.994  34.653  36.659  1.00  0.00    -0.206 F 
ATOM     83  C   UNL A   1      41.618  34.710  40.006  1.00  0.00     0.022 A 
BRANCH  80  84
ATOM     84  S   UNL A   1      39.724  33.185  41.369  1.00  0.00     0.124 S 
ATOM     85  O   UNL A   1      38.632  34.139  41.224  1.00  0.00    -0.237 OA
ATOM     86  O   UNL A   1      39.396  31.787  41.107  1.00  0.00    -0.237 OA
ATOM     87  O   UNL A   1      40.604  33.409  42.515  1.00  0.00    -0.744 OA
ENDBRANCH  80  84
ENDBRANCH  53  77
BRANCH  65  88
ATOM     88  C   UNL A   1      45.078  27.762  35.096  1.00  0.00     0.023 A 
ATOM     89  C   UNL A   1      44.919  26.547  35.781  1.00  0.00     0.031 A 
ATOM     90  C   UNL A   1      46.383  28.221  34.849  1.00  0.00     0.131 A 
ATOM     91  C   UNL A   1      46.050  25.842  36.221  1.00  0.00     0.055 A 
ATOM     92  C   UNL A   1      47.505  27.492  35.245  1.00  0.00     0.041 A 
ATOM     93  F   UNL A   1      46.589  29.375  34.193  1.00  0.00    -0.206 F 
ATOM     94  C   UNL A   1      47.341  26.298  35.941  1.00  0.00     0.022 A 
BRANCH  91  95
ATOM     95  S   UNL A   1      45.811  24.336  37.202  1.00  0.00     0.124 S 
ATOM     96  O   UNL A   1      44.623  23.757  36.583  1.00  0.00    -0.237 OA
ATOM     97  O   UNL A   1      47.060  23.615  36.982  1.00  0.00    -0.237 OA
ATOM     98  O   UNL A   1      45.619  24.839  38.562  1.00  0.00    -0.744 OA
ENDBRANCH  91  95
ENDBRANCH  65  88
ENDBRANCH  39  40
ENDBRANCH  32  34
ENDBRANCH  31  32
ENDBRANCH  30  31
ENDBRANCH  29  30
ENDBRANCH  28  29
ENDBRANCH  27  28
ENDBRANCH   1  27
TORSDOF 24
ENDMDL
