MODEL 1
REMARK VINA RESULT:      -9.3      0.000      0.000
REMARK SMILES Cc1ccc(C)c(CC(=O)N(CC(=O)OCCOCCOCCOCCOC(=O)c2ccc(-c3c4nc(c(-c5cc(S(=O)(=O)[O-])ccc5F)c5ccc([nH]5)c(-c5cc(S(=O)(=O)[O-])ccc5F)c5nc(c(-c6cc(S(=O)(=O)[O-])ccc6F)c6ccc3[nH]6)C=C5)C=C4)cc2)CC(F)(F)F)c1
REMARK SMILES IDX 20 1 19 2 18 3 17 4 16 5 15 6 13 7 14 8 12 9 11 10 9 11
REMARK SMILES IDX 10 12 8 13 7 14 1 15 2 16 3 17 98 18 4 19 5 20 6 21 93 22
REMARK SMILES IDX 94 23 95 24 96 25 97 26 21 27 22 28 23 29 24 30 25 31 26 32
REMARK SMILES IDX 27 33 28 34 29 35 30 36 31 37 92 38 32 39 91 40 33 41 34 42
REMARK SMILES IDX 35 43 85 44 36 45 90 46 84 47 86 48 37 49 89 50 83 51 82 52
REMARK SMILES IDX 38 54 70 55 50 56 69 57 51 58 54 59 68 60 87 61 52 62 53 63
REMARK SMILES IDX 67 65 88 66 55 67 39 68 40 69 48 70 41 71 47 72 49 73 46 74
REMARK SMILES IDX 42 75 43 76 44 77 45 78 71 79 72 80 80 81 73 82 79 83 81 84
REMARK SMILES IDX 78 85 74 86 75 87 76 88 77 89 56 90 57 91 65 92 58 93 64 94
REMARK SMILES IDX 66 95 63 96 59 97 60 98 61 99 62 100
REMARK H PARENT 86 53 54 64
REMARK Flexibility Score: inf
ROOT
ATOM      1  C   UNL A   1      36.575  23.943  25.568  1.00  0.00     0.188 C 
ENDROOT
BRANCH   1   2
ATOM      2  C   UNL A   1      35.630  22.778  25.816  1.00  0.00     0.188 C 
BRANCH   2   3
ATOM      3  O   UNL A   1      34.443  23.006  26.544  1.00  0.00    -0.376 OA
BRANCH   3   4
ATOM      4  C   UNL A   1      33.217  22.659  25.921  1.00  0.00     0.202 C 
BRANCH   4   5
ATOM      5  C   UNL A   1      33.133  22.664  24.390  1.00  0.00     0.261 C 
BRANCH   5   6
ATOM      6  O   UNL A   1      33.166  23.998  23.824  1.00  0.00    -0.462 OA
BRANCH   6   7
ATOM      7  C   UNL A   1      31.970  24.653  23.795  1.00  0.00     0.325 C 
ATOM      8  O   UNL A   1      31.057  24.312  23.050  1.00  0.00    -0.250 OA
BRANCH   7   9
ATOM      9  C   UNL A   1      31.777  25.796  24.836  1.00  0.00     0.242 C 
BRANCH   9  10
ATOM     10  N   UNL A   1      31.989  27.267  24.665  1.00  0.00    -0.322 N 
BRANCH  10  11
ATOM     11  C   UNL A   1      32.070  27.880  23.418  1.00  0.00     0.227 C 
ATOM     12  O   UNL A   1      33.038  28.603  23.149  1.00  0.00    -0.275 OA
BRANCH  11  13
ATOM     13  C   UNL A   1      30.959  27.717  22.407  1.00  0.00     0.136 C 
BRANCH  13  14
ATOM     14  C   UNL A   1      29.708  28.538  22.627  1.00  0.00    -0.035 A 
ATOM     15  C   UNL A   1      28.871  32.213  22.078  1.00  0.00     0.044 C 
ATOM     16  C   UNL A   1      28.676  30.751  22.350  1.00  0.00    -0.051 A 
ATOM     17  C   UNL A   1      27.472  30.243  22.825  1.00  0.00     0.004 A 
ATOM     18  C   UNL A   1      29.753  29.879  22.197  1.00  0.00     0.008 A 
ATOM     19  C   UNL A   1      27.401  28.919  23.262  1.00  0.00     0.004 A 
ATOM     20  C   UNL A   1      28.517  28.060  23.199  1.00  0.00    -0.047 A 
ATOM     21  C   UNL A   1      28.368  26.697  23.816  1.00  0.00     0.044 C 
ENDBRANCH  13  14
ENDBRANCH  11  13
ENDBRANCH  10  11
BRANCH  10  22
ATOM     22  C   UNL A   1      31.573  28.169  25.771  1.00  0.00     0.235 C 
BRANCH  22  23
ATOM     23  C   UNL A   1      32.593  29.193  26.346  1.00  0.00     0.406 C 
ATOM     24  F   UNL A   1      32.263  29.618  27.587  1.00  0.00    -0.169 F 
ATOM     25  F   UNL A   1      33.809  28.583  26.488  1.00  0.00    -0.169 F 
ATOM     26  F   UNL A   1      32.810  30.274  25.570  1.00  0.00    -0.169 F 
ENDBRANCH  22  23
ENDBRANCH  10  22
ENDBRANCH   9  10
ENDBRANCH   7   9
ENDBRANCH   6   7
ENDBRANCH   5   6
ENDBRANCH   4   5
ENDBRANCH   3   4
ENDBRANCH   2   3
ENDBRANCH   1   2
BRANCH   1  27
ATOM     27  O   UNL A   1      37.963  23.735  25.405  1.00  0.00    -0.377 OA
BRANCH  27  28
ATOM     28  C   UNL A   1      38.652  23.065  26.444  1.00  0.00     0.188 C 
BRANCH  28  29
ATOM     29  C   UNL A   1      39.203  21.688  26.076  1.00  0.00     0.188 C 
BRANCH  29  30
ATOM     30  O   UNL A   1      40.140  21.255  27.053  1.00  0.00    -0.376 OA
BRANCH  30  31
ATOM     31  C   UNL A   1      40.743  19.999  26.802  1.00  0.00     0.202 C 
BRANCH  31  32
ATOM     32  C   UNL A   1      42.199  20.150  26.363  1.00  0.00     0.261 C 
BRANCH  32  33
ATOM     33  O   UNL A   1      42.557  21.226  25.455  1.00  0.00    -0.460 OA
BRANCH  33  34
ATOM     34  C   UNL A   1      43.501  22.137  25.809  1.00  0.00     0.338 C 
ATOM     35  O   UNL A   1      44.657  22.101  25.436  1.00  0.00    -0.246 OA
BRANCH  34  36
ATOM     36  C   UNL A   1      42.913  23.233  26.627  1.00  0.00     0.060 A 
ATOM     37  C   UNL A   1      42.206  24.226  25.964  1.00  0.00     0.016 A 
ATOM     38  C   UNL A   1      43.236  23.381  27.988  1.00  0.00     0.016 A 
ATOM     39  C   UNL A   1      42.019  25.436  26.614  1.00  0.00     0.010 A 
ATOM     40  C   UNL A   1      43.098  24.618  28.615  1.00  0.00     0.010 A 
ATOM     41  C   UNL A   1      42.578  25.684  27.894  1.00  0.00    -0.014 A 
BRANCH  41  42
ATOM     42  C   UNL A   1      42.411  27.048  28.451  1.00  0.00     0.031 A 
ATOM     43  C   UNL A   1      43.674  27.799  28.280  1.00  0.00     0.074 A 
ATOM     44  C   UNL A   1      41.307  27.597  29.026  1.00  0.00     0.049 A 
ATOM     45  N   UNL A   1      44.413  28.317  29.204  1.00  0.00    -0.248 NA
ATOM     46  C   UNL A   1      44.315  27.745  26.943  1.00  0.00     0.031 C 
ATOM     47  C   UNL A   1      40.014  26.926  29.168  1.00  0.00     0.029 A 
ATOM     48  N   UNL A   1      41.046  28.851  29.566  1.00  0.00    -0.354 N 
ATOM     49  C   UNL A   1      45.413  28.964  28.496  1.00  0.00     0.074 A 
ATOM     50  C   UNL A   1      45.460  28.381  27.179  1.00  0.00     0.031 C 
ATOM     51  C   UNL A   1      39.083  27.813  29.573  1.00  0.00     0.029 A 
ATOM     52  C   UNL A   1      39.678  29.132  29.744  1.00  0.00     0.049 A 
ATOM     53  H   UNL A   1      41.757  29.490  29.802  1.00  0.00     0.167 HD
ATOM     54  C   UNL A   1      45.688  30.250  28.820  1.00  0.00     0.034 A 
ATOM     55  C   UNL A   1      39.036  30.324  29.961  1.00  0.00     0.034 A 
ATOM     56  C   UNL A   1      45.496  30.529  30.212  1.00  0.00     0.049 A 
ATOM     57  C   UNL A   1      40.025  31.290  30.508  1.00  0.00     0.074 A 
ATOM     58  C   UNL A   1      46.082  30.101  31.382  1.00  0.00     0.029 A 
ATOM     59  N   UNL A   1      44.312  31.128  30.543  1.00  0.00    -0.354 N 
ATOM     60  N   UNL A   1      40.483  31.260  31.728  1.00  0.00    -0.248 NA
ATOM     61  C   UNL A   1      40.737  32.175  29.594  1.00  0.00     0.031 C 
ATOM     62  C   UNL A   1      45.162  30.395  32.423  1.00  0.00     0.029 A 
ATOM     63  C   UNL A   1      44.055  31.053  31.889  1.00  0.00     0.049 A 
ATOM     64  H   UNL A   1      43.713  31.561  29.892  1.00  0.00     0.167 HD
ATOM     65  C   UNL A   1      41.736  31.843  31.656  1.00  0.00     0.074 A 
ATOM     66  C   UNL A   1      41.789  32.486  30.351  1.00  0.00     0.031 C 
ATOM     67  C   UNL A   1      42.757  31.418  32.455  1.00  0.00     0.034 A 
BRANCH  54  68
ATOM     68  C   UNL A   1      45.567  31.298  27.748  1.00  0.00     0.023 A 
ATOM     69  C   UNL A   1      46.637  32.155  27.500  1.00  0.00     0.031 A 
ATOM     70  C   UNL A   1      44.334  31.622  27.124  1.00  0.00     0.131 A 
ATOM     71  C   UNL A   1      46.465  33.242  26.625  1.00  0.00     0.055 A 
ATOM     72  C   UNL A   1      44.197  32.629  26.177  1.00  0.00     0.041 A 
ATOM     73  F   UNL A   1      43.182  31.042  27.490  1.00  0.00    -0.206 F 
ATOM     74  C   UNL A   1      45.273  33.455  25.925  1.00  0.00     0.022 A 
BRANCH  71  75
ATOM     75  S   UNL A   1      47.779  34.478  26.530  1.00  0.00     0.124 S 
ATOM     76  O   UNL A   1      48.563  33.987  25.401  1.00  0.00    -0.237 OA
ATOM     77  O   UNL A   1      47.023  35.705  26.305  1.00  0.00    -0.237 OA
ATOM     78  O   UNL A   1      48.431  34.377  27.834  1.00  0.00    -0.744 OA
ENDBRANCH  71  75
ENDBRANCH  54  68
BRANCH  55  79
ATOM     79  C   UNL A   1      37.609  30.756  29.659  1.00  0.00     0.023 A 
ATOM     80  C   UNL A   1      36.849  31.583  30.536  1.00  0.00     0.031 A 
ATOM     81  C   UNL A   1      37.017  30.540  28.393  1.00  0.00     0.131 A 
ATOM     82  C   UNL A   1      35.601  32.136  30.132  1.00  0.00     0.055 A 
ATOM     83  C   UNL A   1      35.772  31.055  28.014  1.00  0.00     0.041 A 
ATOM     84  F   UNL A   1      37.655  29.889  27.413  1.00  0.00    -0.206 F 
ATOM     85  C   UNL A   1      35.064  31.869  28.875  1.00  0.00     0.022 A 
BRANCH  82  86
ATOM     86  S   UNL A   1      34.698  33.355  31.156  1.00  0.00     0.124 S 
ATOM     87  O   UNL A   1      35.779  34.173  31.688  1.00  0.00    -0.237 OA
ATOM     88  O   UNL A   1      33.806  33.991  30.194  1.00  0.00    -0.237 OA
ATOM     89  O   UNL A   1      34.018  32.515  32.147  1.00  0.00    -0.744 OA
ENDBRANCH  82  86
ENDBRANCH  55  79
BRANCH  67  90
ATOM     90  C   UNL A   1      42.507  31.240  33.941  1.00  0.00     0.023 A 
ATOM     91  C   UNL A   1      42.650  32.225  34.939  1.00  0.00     0.031 A 
ATOM     92  C   UNL A   1      42.124  29.951  34.376  1.00  0.00     0.131 A 
ATOM     93  C   UNL A   1      42.405  31.905  36.291  1.00  0.00     0.055 A 
ATOM     94  C   UNL A   1      41.813  29.656  35.703  1.00  0.00     0.041 A 
ATOM     95  F   UNL A   1      42.049  28.925  33.510  1.00  0.00    -0.206 F 
ATOM     96  C   UNL A   1      41.952  30.638  36.668  1.00  0.00     0.022 A 
BRANCH  93  97
ATOM     97  S   UNL A   1      42.696  33.092  37.637  1.00  0.00     0.124 S 
ATOM     98  O   UNL A   1      43.764  32.483  38.422  1.00  0.00    -0.237 OA
ATOM     99  O   UNL A   1      43.091  34.298  36.912  1.00  0.00    -0.237 OA
ATOM    100  O   UNL A   1      41.385  33.169  38.272  1.00  0.00    -0.744 OA
ENDBRANCH  93  97
ENDBRANCH  67  90
ENDBRANCH  41  42
ENDBRANCH  34  36
ENDBRANCH  33  34
ENDBRANCH  32  33
ENDBRANCH  31  32
ENDBRANCH  30  31
ENDBRANCH  29  30
ENDBRANCH  28  29
ENDBRANCH  27  28
ENDBRANCH   1  27
TORSDOF 29
ENDMDL
MODEL 2
REMARK VINA RESULT:      -8.9      1.439      2.262
REMARK SMILES Cc1ccc(C)c(CC(=O)N(CC(=O)OCCOCCOCCOCCOC(=O)c2ccc(-c3c4nc(c(-c5cc(S(=O)(=O)[O-])ccc5F)c5ccc([nH]5)c(-c5cc(S(=O)(=O)[O-])ccc5F)c5nc(c(-c6cc(S(=O)(=O)[O-])ccc6F)c6ccc3[nH]6)C=C5)C=C4)cc2)CC(F)(F)F)c1
REMARK SMILES IDX 20 1 19 2 18 3 17 4 16 5 15 6 13 7 14 8 12 9 11 10 9 11
REMARK SMILES IDX 10 12 8 13 7 14 1 15 2 16 3 17 98 18 4 19 5 20 6 21 93 22
REMARK SMILES IDX 94 23 95 24 96 25 97 26 21 27 22 28 23 29 24 30 25 31 26 32
REMARK SMILES IDX 27 33 28 34 29 35 30 36 31 37 92 38 32 39 91 40 33 41 34 42
REMARK SMILES IDX 35 43 85 44 36 45 90 46 84 47 86 48 37 49 89 50 83 51 82 52
REMARK SMILES IDX 38 54 70 55 50 56 69 57 51 58 54 59 68 60 87 61 52 62 53 63
REMARK SMILES IDX 67 65 88 66 55 67 39 68 40 69 48 70 41 71 47 72 49 73 46 74
REMARK SMILES IDX 42 75 43 76 44 77 45 78 71 79 72 80 80 81 73 82 79 83 81 84
REMARK SMILES IDX 78 85 74 86 75 87 76 88 77 89 56 90 57 91 65 92 58 93 64 94
REMARK SMILES IDX 66 95 63 96 59 97 60 98 61 99 62 100
REMARK H PARENT 86 53 54 64
REMARK Flexibility Score: inf
ROOT
ATOM      1  C   UNL A   1      36.696  23.724  25.755  1.00  0.00     0.188 C 
ENDROOT
BRANCH   1   2
ATOM      2  C   UNL A   1      35.886  22.474  26.060  1.00  0.00     0.188 C 
BRANCH   2   3
ATOM      3  O   UNL A   1      34.911  22.525  27.078  1.00  0.00    -0.376 OA
BRANCH   3   4
ATOM      4  C   UNL A   1      34.015  21.430  27.179  1.00  0.00     0.202 C 
BRANCH   4   5
ATOM      5  C   UNL A   1      33.810  20.521  25.962  1.00  0.00     0.261 C 
BRANCH   5   6
ATOM      6  O   UNL A   1      33.230  21.213  24.828  1.00  0.00    -0.462 OA
BRANCH   6   7
ATOM      7  C   UNL A   1      32.188  22.043  25.117  1.00  0.00     0.325 C 
ATOM      8  O   UNL A   1      31.116  21.623  25.539  1.00  0.00    -0.250 OA
BRANCH   7   9
ATOM      9  C   UNL A   1      32.459  23.572  24.987  1.00  0.00     0.242 C 
BRANCH   9  10
ATOM     10  N   UNL A   1      31.906  24.542  23.991  1.00  0.00    -0.322 N 
BRANCH  10  11
ATOM     11  C   UNL A   1      30.554  24.862  23.917  1.00  0.00     0.227 C 
ATOM     12  O   UNL A   1      29.857  24.390  23.009  1.00  0.00    -0.275 OA
BRANCH  11  13
ATOM     13  C   UNL A   1      29.937  25.827  24.902  1.00  0.00     0.136 C 
BRANCH  13  14
ATOM     14  C   UNL A   1      30.548  27.208  24.983  1.00  0.00    -0.035 A 
ATOM     15  C   UNL A   1      32.703  28.958  27.591  1.00  0.00     0.044 C 
ATOM     16  C   UNL A   1      32.009  28.692  26.288  1.00  0.00    -0.051 A 
ATOM     17  C   UNL A   1      31.892  29.665  25.302  1.00  0.00     0.004 A 
ATOM     18  C   UNL A   1      31.390  27.459  26.083  1.00  0.00     0.008 A 
ATOM     19  C   UNL A   1      31.060  29.443  24.202  1.00  0.00     0.004 A 
ATOM     20  C   UNL A   1      30.356  28.233  24.041  1.00  0.00    -0.047 A 
ATOM     21  C   UNL A   1      29.390  28.151  22.893  1.00  0.00     0.044 C 
ENDBRANCH  13  14
ENDBRANCH  11  13
ENDBRANCH  10  11
BRANCH  10  22
ATOM     22  C   UNL A   1      32.818  25.579  23.442  1.00  0.00     0.235 C 
BRANCH  22  23
ATOM     23  C   UNL A   1      32.834  25.848  21.910  1.00  0.00     0.406 C 
ATOM     24  F   UNL A   1      33.856  26.650  21.531  1.00  0.00    -0.169 F 
ATOM     25  F   UNL A   1      33.040  24.668  21.249  1.00  0.00    -0.169 F 
ATOM     26  F   UNL A   1      31.688  26.356  21.411  1.00  0.00    -0.169 F 
ENDBRANCH  22  23
ENDBRANCH  10  22
ENDBRANCH   9  10
ENDBRANCH   7   9
ENDBRANCH   6   7
ENDBRANCH   5   6
ENDBRANCH   4   5
ENDBRANCH   3   4
ENDBRANCH   2   3
ENDBRANCH   1   2
BRANCH   1  27
ATOM     27  O   UNL A   1      38.088  23.655  25.521  1.00  0.00    -0.377 OA
BRANCH  27  28
ATOM     28  C   UNL A   1      38.879  22.970  26.474  1.00  0.00     0.188 C 
BRANCH  28  29
ATOM     29  C   UNL A   1      39.397  21.603  26.028  1.00  0.00     0.188 C 
BRANCH  29  30
ATOM     30  O   UNL A   1      40.352  21.111  26.957  1.00  0.00    -0.376 OA
BRANCH  30  31
ATOM     31  C   UNL A   1      40.869  19.824  26.673  1.00  0.00     0.202 C 
BRANCH  31  32
ATOM     32  C   UNL A   1      42.287  19.897  26.107  1.00  0.00     0.261 C 
BRANCH  32  33
ATOM     33  O   UNL A   1      42.650  21.010  25.246  1.00  0.00    -0.460 OA
BRANCH  33  34
ATOM     34  C   UNL A   1      43.588  21.908  25.644  1.00  0.00     0.338 C 
ATOM     35  O   UNL A   1      44.760  21.858  25.323  1.00  0.00    -0.246 OA
BRANCH  34  36
ATOM     36  C   UNL A   1      42.979  23.009  26.440  1.00  0.00     0.060 A 
ATOM     37  C   UNL A   1      42.410  24.068  25.746  1.00  0.00     0.016 A 
ATOM     38  C   UNL A   1      43.157  23.088  27.833  1.00  0.00     0.016 A 
ATOM     39  C   UNL A   1      42.223  25.264  26.423  1.00  0.00     0.010 A 
ATOM     40  C   UNL A   1      43.023  24.308  28.493  1.00  0.00     0.010 A 
ATOM     41  C   UNL A   1      42.650  25.430  27.765  1.00  0.00    -0.014 A 
BRANCH  41  42
ATOM     42  C   UNL A   1      42.503  26.781  28.358  1.00  0.00     0.031 A 
ATOM     43  C   UNL A   1      43.777  27.519  28.206  1.00  0.00     0.074 A 
ATOM     44  C   UNL A   1      41.407  27.330  28.949  1.00  0.00     0.049 A 
ATOM     45  N   UNL A   1      44.523  28.001  29.142  1.00  0.00    -0.248 NA
ATOM     46  C   UNL A   1      44.415  27.491  26.867  1.00  0.00     0.031 C 
ATOM     47  C   UNL A   1      40.105  26.674  29.075  1.00  0.00     0.029 A 
ATOM     48  N   UNL A   1      41.164  28.574  29.522  1.00  0.00    -0.354 N 
ATOM     49  C   UNL A   1      45.531  28.653  28.449  1.00  0.00     0.074 A 
ATOM     50  C   UNL A   1      45.569  28.104  27.118  1.00  0.00     0.031 C 
ATOM     51  C   UNL A   1      39.187  27.564  29.505  1.00  0.00     0.029 A 
ATOM     52  C   UNL A   1      39.801  28.868  29.709  1.00  0.00     0.049 A 
ATOM     53  H   UNL A   1      41.885  29.196  29.773  1.00  0.00     0.167 HD
ATOM     54  C   UNL A   1      45.825  29.926  28.807  1.00  0.00     0.034 A 
ATOM     55  C   UNL A   1      39.175  30.063  29.958  1.00  0.00     0.034 A 
ATOM     56  C   UNL A   1      45.639  30.171  30.206  1.00  0.00     0.049 A 
ATOM     57  C   UNL A   1      40.178  31.000  30.529  1.00  0.00     0.074 A 
ATOM     58  C   UNL A   1      46.219  29.704  31.363  1.00  0.00     0.029 A 
ATOM     59  N   UNL A   1      44.463  30.777  30.554  1.00  0.00    -0.354 N 
ATOM     60  N   UNL A   1      40.638  30.933  31.747  1.00  0.00    -0.248 NA
ATOM     61  C   UNL A   1      40.902  31.900  29.637  1.00  0.00     0.031 C 
ATOM     62  C   UNL A   1      45.305  29.984  32.413  1.00  0.00     0.029 A 
ATOM     63  C   UNL A   1      44.206  30.671  31.898  1.00  0.00     0.049 A 
ATOM     64  H   UNL A   1      43.870  31.236  29.915  1.00  0.00     0.167 HD
ATOM     65  C   UNL A   1      41.899  31.499  31.689  1.00  0.00     0.074 A 
ATOM     66  C   UNL A   1      41.959  32.176  30.401  1.00  0.00     0.031 C 
ATOM     67  C   UNL A   1      42.914  31.039  32.475  1.00  0.00     0.034 A 
BRANCH  54  68
ATOM     68  C   UNL A   1      45.718  31.003  27.763  1.00  0.00     0.023 A 
ATOM     69  C   UNL A   1      46.834  31.778  27.457  1.00  0.00     0.031 A 
ATOM     70  C   UNL A   1      44.476  31.437  27.229  1.00  0.00     0.131 A 
ATOM     71  C   UNL A   1      46.692  32.895  26.614  1.00  0.00     0.055 A 
ATOM     72  C   UNL A   1      44.359  32.472  26.310  1.00  0.00     0.041 A 
ATOM     73  F   UNL A   1      43.308  30.942  27.663  1.00  0.00    -0.206 F 
ATOM     74  C   UNL A   1      45.478  33.216  26.000  1.00  0.00     0.022 A 
BRANCH  71  75
ATOM     75  S   UNL A   1      48.093  34.024  26.450  1.00  0.00     0.124 S 
ATOM     76  O   UNL A   1      49.218  33.096  26.422  1.00  0.00    -0.237 OA
ATOM     77  O   UNL A   1      47.786  34.705  25.196  1.00  0.00    -0.237 OA
ATOM     78  O   UNL A   1      47.997  34.855  27.649  1.00  0.00    -0.744 OA
ENDBRANCH  71  75
ENDBRANCH  54  68
BRANCH  55  79
ATOM     79  C   UNL A   1      37.754  30.523  29.669  1.00  0.00     0.023 A 
ATOM     80  C   UNL A   1      37.012  31.349  30.563  1.00  0.00     0.031 A 
ATOM     81  C   UNL A   1      37.154  30.337  28.403  1.00  0.00     0.131 A 
ATOM     82  C   UNL A   1      35.772  31.928  30.173  1.00  0.00     0.055 A 
ATOM     83  C   UNL A   1      35.915  30.878  28.037  1.00  0.00     0.041 A 
ATOM     84  F   UNL A   1      37.777  29.691  27.410  1.00  0.00    -0.206 F 
ATOM     85  C   UNL A   1      35.225  31.690  28.914  1.00  0.00     0.022 A 
BRANCH  82  86
ATOM     86  S   UNL A   1      34.892  33.145  31.220  1.00  0.00     0.124 S 
ATOM     87  O   UNL A   1      34.113  32.287  32.103  1.00  0.00    -0.237 OA
ATOM     88  O   UNL A   1      35.982  33.897  31.830  1.00  0.00    -0.237 OA
ATOM     89  O   UNL A   1      34.102  33.907  30.249  1.00  0.00    -0.744 OA
ENDBRANCH  82  86
ENDBRANCH  55  79
BRANCH  67  90
ATOM     90  C   UNL A   1      42.663  30.826  33.956  1.00  0.00     0.023 A 
ATOM     91  C   UNL A   1      42.658  31.818  34.958  1.00  0.00     0.031 A 
ATOM     92  C   UNL A   1      42.444  29.496  34.384  1.00  0.00     0.131 A 
ATOM     93  C   UNL A   1      42.433  31.464  36.304  1.00  0.00     0.055 A 
ATOM     94  C   UNL A   1      42.150  29.160  35.704  1.00  0.00     0.041 A 
ATOM     95  F   UNL A   1      42.519  28.472  33.516  1.00  0.00    -0.206 F 
ATOM     96  C   UNL A   1      42.142  30.149  36.673  1.00  0.00     0.022 A 
BRANCH  93  97
ATOM     97  S   UNL A   1      42.543  32.675  37.656  1.00  0.00     0.124 S 
ATOM     98  O   UNL A   1      41.733  33.796  37.195  1.00  0.00    -0.237 OA
ATOM     99  O   UNL A   1      41.973  31.940  38.784  1.00  0.00    -0.237 OA
ATOM    100  O   UNL A   1      43.980  32.907  37.749  1.00  0.00    -0.744 OA
ENDBRANCH  93  97
ENDBRANCH  67  90
ENDBRANCH  41  42
ENDBRANCH  34  36
ENDBRANCH  33  34
ENDBRANCH  32  33
ENDBRANCH  31  32
ENDBRANCH  30  31
ENDBRANCH  29  30
ENDBRANCH  28  29
ENDBRANCH  27  28
ENDBRANCH   1  27
TORSDOF 29
ENDMDL
MODEL 3
REMARK VINA RESULT:      -8.6      1.910      2.526
REMARK SMILES Cc1ccc(C)c(CC(=O)N(CC(=O)OCCOCCOCCOCCOC(=O)c2ccc(-c3c4nc(c(-c5cc(S(=O)(=O)[O-])ccc5F)c5ccc([nH]5)c(-c5cc(S(=O)(=O)[O-])ccc5F)c5nc(c(-c6cc(S(=O)(=O)[O-])ccc6F)c6ccc3[nH]6)C=C5)C=C4)cc2)CC(F)(F)F)c1
REMARK SMILES IDX 20 1 19 2 18 3 17 4 16 5 15 6 13 7 14 8 12 9 11 10 9 11
REMARK SMILES IDX 10 12 8 13 7 14 1 15 2 16 3 17 98 18 4 19 5 20 6 21 93 22
REMARK SMILES IDX 94 23 95 24 96 25 97 26 21 27 22 28 23 29 24 30 25 31 26 32
REMARK SMILES IDX 27 33 28 34 29 35 30 36 31 37 92 38 32 39 91 40 33 41 34 42
REMARK SMILES IDX 35 43 85 44 36 45 90 46 84 47 86 48 37 49 89 50 83 51 82 52
REMARK SMILES IDX 38 54 70 55 50 56 69 57 51 58 54 59 68 60 87 61 52 62 53 63
REMARK SMILES IDX 67 65 88 66 55 67 39 68 40 69 48 70 41 71 47 72 49 73 46 74
REMARK SMILES IDX 42 75 43 76 44 77 45 78 71 79 72 80 80 81 73 82 79 83 81 84
REMARK SMILES IDX 78 85 74 86 75 87 76 88 77 89 56 90 57 91 65 92 58 93 64 94
REMARK SMILES IDX 66 95 63 96 59 97 60 98 61 99 62 100
REMARK H PARENT 86 53 54 64
REMARK Flexibility Score: inf
ROOT
ATOM      1  C   UNL A   1      35.694  23.837  24.664  1.00  0.00     0.188 C 
ENDROOT
BRANCH   1   2
ATOM      2  C   UNL A   1      34.599  22.907  25.161  1.00  0.00     0.188 C 
BRANCH   2   3
ATOM      3  O   UNL A   1      33.738  23.354  26.186  1.00  0.00    -0.376 OA
BRANCH   3   4
ATOM      4  C   UNL A   1      32.787  22.430  26.689  1.00  0.00     0.202 C 
BRANCH   4   5
ATOM      5  C   UNL A   1      31.524  22.143  25.870  1.00  0.00     0.261 C 
BRANCH   5   6
ATOM      6  O   UNL A   1      30.847  23.346  25.428  1.00  0.00    -0.462 OA
BRANCH   6   7
ATOM      7  C   UNL A   1      30.326  24.124  26.418  1.00  0.00     0.325 C 
ATOM      8  O   UNL A   1      29.633  23.660  27.318  1.00  0.00    -0.250 OA
BRANCH   7   9
ATOM      9  C   UNL A   1      30.744  25.626  26.417  1.00  0.00     0.242 C 
BRANCH   9  10
ATOM     10  N   UNL A   1      32.027  26.243  25.960  1.00  0.00    -0.322 N 
BRANCH  10  11
ATOM     11  C   UNL A   1      32.434  26.245  24.629  1.00  0.00     0.227 C 
ATOM     12  O   UNL A   1      33.633  26.380  24.351  1.00  0.00    -0.275 OA
BRANCH  11  13
ATOM     13  C   UNL A   1      31.420  26.141  23.515  1.00  0.00     0.136 C 
BRANCH  13  14
ATOM     14  C   UNL A   1      30.699  27.412  23.123  1.00  0.00    -0.035 A 
ATOM     15  C   UNL A   1      27.041  28.469  23.208  1.00  0.00     0.044 C 
ATOM     16  C   UNL A   1      28.533  28.571  23.086  1.00  0.00    -0.051 A 
ATOM     17  C   UNL A   1      29.157  29.710  22.589  1.00  0.00     0.004 A 
ATOM     18  C   UNL A   1      29.321  27.466  23.405  1.00  0.00     0.008 A 
ATOM     19  C   UNL A   1      30.522  29.682  22.297  1.00  0.00     0.004 A 
ATOM     20  C   UNL A   1      31.303  28.533  22.528  1.00  0.00    -0.047 A 
ATOM     21  C   UNL A   1      32.730  28.568  22.056  1.00  0.00     0.044 C 
ENDBRANCH  13  14
ENDBRANCH  11  13
ENDBRANCH  10  11
BRANCH  10  22
ATOM     22  C   UNL A   1      32.620  27.324  26.789  1.00  0.00     0.235 C 
BRANCH  22  23
ATOM     23  C   UNL A   1      32.246  28.806  26.492  1.00  0.00     0.406 C 
ATOM     24  F   UNL A   1      33.100  29.395  25.623  1.00  0.00    -0.169 F 
ATOM     25  F   UNL A   1      31.025  28.845  25.876  1.00  0.00    -0.169 F 
ATOM     26  F   UNL A   1      32.137  29.593  27.581  1.00  0.00    -0.169 F 
ENDBRANCH  22  23
ENDBRANCH  10  22
ENDBRANCH   9  10
ENDBRANCH   7   9
ENDBRANCH   6   7
ENDBRANCH   5   6
ENDBRANCH   4   5
ENDBRANCH   3   4
ENDBRANCH   2   3
ENDBRANCH   1   2
BRANCH   1  27
ATOM     27  O   UNL A   1      37.007  23.365  24.440  1.00  0.00    -0.377 OA
BRANCH  27  28
ATOM     28  C   UNL A   1      37.821  23.126  25.574  1.00  0.00     0.188 C 
BRANCH  28  29
ATOM     29  C   UNL A   1      38.264  21.675  25.760  1.00  0.00     0.188 C 
BRANCH  29  30
ATOM     30  O   UNL A   1      39.466  21.621  26.515  1.00  0.00    -0.376 OA
BRANCH  30  31
ATOM     31  C   UNL A   1      40.595  21.116  25.826  1.00  0.00     0.202 C 
BRANCH  31  32
ATOM     32  C   UNL A   1      41.858  21.909  26.153  1.00  0.00     0.261 C 
BRANCH  32  33
ATOM     33  O   UNL A   1      41.737  23.175  26.858  1.00  0.00    -0.460 OA
BRANCH  33  34
ATOM     34  C   UNL A   1      42.832  23.761  27.409  1.00  0.00     0.338 C 
ATOM     35  O   UNL A   1      43.976  23.407  27.195  1.00  0.00    -0.246 OA
BRANCH  34  36
ATOM     36  C   UNL A   1      42.455  24.946  28.227  1.00  0.00     0.060 A 
ATOM     37  C   UNL A   1      41.477  25.792  27.725  1.00  0.00     0.016 A 
ATOM     38  C   UNL A   1      43.204  25.321  29.357  1.00  0.00     0.016 A 
ATOM     39  C   UNL A   1      41.408  27.081  28.232  1.00  0.00     0.010 A 
ATOM     40  C   UNL A   1      43.171  26.634  29.823  1.00  0.00     0.010 A 
ATOM     41  C   UNL A   1      42.340  27.550  29.192  1.00  0.00    -0.014 A 
BRANCH  41  42
ATOM     42  C   UNL A   1      42.244  28.977  29.584  1.00  0.00     0.031 A 
ATOM     43  C   UNL A   1      43.508  29.662  29.235  1.00  0.00     0.074 A 
ATOM     44  C   UNL A   1      41.197  29.626  30.161  1.00  0.00     0.049 A 
ATOM     45  N   UNL A   1      44.323  30.266  30.035  1.00  0.00    -0.248 NA
ATOM     46  C   UNL A   1      44.050  29.424  27.875  1.00  0.00     0.031 C 
ATOM     47  C   UNL A   1      39.903  29.018  30.474  1.00  0.00     0.029 A 
ATOM     48  N   UNL A   1      41.003  30.945  30.557  1.00  0.00    -0.354 N 
ATOM     49  C   UNL A   1      45.283  30.790  29.184  1.00  0.00     0.074 A 
ATOM     50  C   UNL A   1      45.223  30.048  27.950  1.00  0.00     0.031 C 
ATOM     51  C   UNL A   1      39.023  29.977  30.829  1.00  0.00     0.029 A 
ATOM     52  C   UNL A   1      39.658  31.287  30.792  1.00  0.00     0.049 A 
ATOM     53  H   UNL A   1      41.743  31.586  30.662  1.00  0.00     0.167 HD
ATOM     54  C   UNL A   1      45.609  32.097  29.326  1.00  0.00     0.034 A 
ATOM     55  C   UNL A   1      39.060  32.516  30.903  1.00  0.00     0.034 A 
ATOM     56  C   UNL A   1      45.525  32.551  30.682  1.00  0.00     0.049 A 
ATOM     57  C   UNL A   1      40.107  33.511  31.256  1.00  0.00     0.074 A 
ATOM     58  C   UNL A   1      46.183  32.251  31.853  1.00  0.00     0.029 A 
ATOM     59  N   UNL A   1      44.381  33.222  31.016  1.00  0.00    -0.354 N 
ATOM     60  N   UNL A   1      40.651  33.617  32.435  1.00  0.00    -0.248 NA
ATOM     61  C   UNL A   1      40.771  34.255  30.191  1.00  0.00     0.031 C 
ATOM     62  C   UNL A   1      45.348  32.700  32.910  1.00  0.00     0.029 A 
ATOM     63  C   UNL A   1      44.220  33.321  32.375  1.00  0.00     0.049 A 
ATOM     64  H   UNL A   1      43.747  33.590  30.359  1.00  0.00     0.167 HD
ATOM     65  C   UNL A   1      41.908  34.148  32.205  1.00  0.00     0.074 A 
ATOM     66  C   UNL A   1      41.881  34.624  30.830  1.00  0.00     0.031 C 
ATOM     67  C   UNL A   1      42.975  33.793  32.979  1.00  0.00     0.034 A 
BRANCH  54  68
ATOM     68  C   UNL A   1      45.435  33.008  28.142  1.00  0.00     0.023 A 
ATOM     69  C   UNL A   1      46.538  33.683  27.625  1.00  0.00     0.031 A 
ATOM     70  C   UNL A   1      44.161  33.407  27.659  1.00  0.00     0.131 A 
ATOM     71  C   UNL A   1      46.349  34.665  26.636  1.00  0.00     0.055 A 
ATOM     72  C   UNL A   1      43.987  34.296  26.606  1.00  0.00     0.041 A 
ATOM     73  F   UNL A   1      43.026  33.030  28.264  1.00  0.00    -0.206 F 
ATOM     74  C   UNL A   1      45.092  34.939  26.089  1.00  0.00     0.022 A 
BRANCH  71  75
ATOM     75  S   UNL A   1      47.758  35.700  26.179  1.00  0.00     0.124 S 
ATOM     76  O   UNL A   1      47.105  36.969  25.878  1.00  0.00    -0.237 OA
ATOM     77  O   UNL A   1      48.565  35.662  27.394  1.00  0.00    -0.237 OA
ATOM     78  O   UNL A   1      48.330  35.002  25.029  1.00  0.00    -0.744 OA
ENDBRANCH  71  75
ENDBRANCH  54  68
BRANCH  55  79
ATOM     79  C   UNL A   1      37.625  32.952  30.647  1.00  0.00     0.023 A 
ATOM     80  C   UNL A   1      36.722  33.293  31.696  1.00  0.00     0.031 A 
ATOM     81  C   UNL A   1      37.156  33.249  29.348  1.00  0.00     0.131 A 
ATOM     82  C   UNL A   1      35.461  33.891  31.418  1.00  0.00     0.055 A 
ATOM     83  C   UNL A   1      35.899  33.803  29.076  1.00  0.00     0.041 A 
ATOM     84  F   UNL A   1      37.928  33.104  28.264  1.00  0.00    -0.206 F 
ATOM     85  C   UNL A   1      35.051  34.142  30.111  1.00  0.00     0.022 A 
BRANCH  82  86
ATOM     86  S   UNL A   1      34.366  34.518  32.744  1.00  0.00     0.124 S 
ATOM     87  O   UNL A   1      35.311  35.159  33.649  1.00  0.00    -0.237 OA
ATOM     88  O   UNL A   1      33.451  35.394  32.023  1.00  0.00    -0.237 OA
ATOM     89  O   UNL A   1      33.747  33.297  33.267  1.00  0.00    -0.744 OA
ENDBRANCH  82  86
ENDBRANCH  55  79
BRANCH  67  90
ATOM     90  C   UNL A   1      42.828  33.806  34.489  1.00  0.00     0.023 A 
ATOM     91  C   UNL A   1      42.972  32.703  35.356  1.00  0.00     0.031 A 
ATOM     92  C   UNL A   1      42.481  35.038  35.089  1.00  0.00     0.131 A 
ATOM     93  C   UNL A   1      42.781  32.863  36.744  1.00  0.00     0.055 A 
ATOM     94  C   UNL A   1      42.364  35.209  36.467  1.00  0.00     0.041 A 
ATOM     95  F   UNL A   1      42.235  36.125  34.336  1.00  0.00    -0.206 F 
ATOM     96  C   UNL A   1      42.516  34.116  37.303  1.00  0.00     0.022 A 
BRANCH  93  97
ATOM     97  S   UNL A   1      42.824  31.458  37.897  1.00  0.00     0.124 S 
ATOM     98  O   UNL A   1      44.236  31.318  38.233  1.00  0.00    -0.237 OA
ATOM     99  O   UNL A   1      41.983  31.928  38.996  1.00  0.00    -0.237 OA
ATOM    100  O   UNL A   1      42.236  30.385  37.101  1.00  0.00    -0.744 OA
ENDBRANCH  93  97
ENDBRANCH  67  90
ENDBRANCH  41  42
ENDBRANCH  34  36
ENDBRANCH  33  34
ENDBRANCH  32  33
ENDBRANCH  31  32
ENDBRANCH  30  31
ENDBRANCH  29  30
ENDBRANCH  28  29
ENDBRANCH  27  28
ENDBRANCH   1  27
TORSDOF 29
ENDMDL
