MODEL 1
REMARK VINA RESULT:      -9.2      0.000      0.000
REMARK SMILES Cc1ccc(Nc2c(C)cccc2Cl)c(CC(=O)OCCOCCOCCOCCOC(=O)c2ccc(-c3c4nc(c(-c5cc(S(=O)(=O)[O-])ccc5F)c5ccc([nH]5)c(-c5cc(S(=O)(=O)[O-])ccc5F)c5nc(c(-c6cc(S(=O)(=O)[O-])ccc6F)c6ccc3[nH]6)C=C5)C=C4)cc2)c1
REMARK SMILES IDX 25 1 24 2 23 3 22 4 21 5 20 6 19 7 17 8 18 9 16 10 15 11
REMARK SMILES IDX 1 12 2 13 3 14 97 15 4 16 5 17 6 18 7 20 8 21 13 22 9 23
REMARK SMILES IDX 10 24 12 25 14 26 11 27 26 28 27 29 28 30 29 31 30 32 31 33
REMARK SMILES IDX 32 34 33 35 34 36 35 37 96 38 36 39 95 40 37 41 38 42 39 43
REMARK SMILES IDX 89 44 40 45 94 46 88 47 90 48 41 49 93 50 87 51 86 52 42 54
REMARK SMILES IDX 74 55 54 56 73 57 55 58 58 59 72 60 91 61 56 62 57 63 71 65
REMARK SMILES IDX 92 66 59 67 43 68 44 69 52 70 45 71 51 72 53 73 50 74 46 75
REMARK SMILES IDX 47 76 48 77 49 78 75 79 76 80 84 81 77 82 83 83 85 84 82 85
REMARK SMILES IDX 78 86 79 87 80 88 81 89 60 90 61 91 69 92 62 93 68 94 70 95
REMARK SMILES IDX 67 96 63 97 64 98 65 99 66 100
REMARK H PARENT 6 19 90 53 58 64
REMARK Flexibility Score: inf
ROOT
ATOM      1  O   UNL A   1      35.911  34.213  30.605  1.00  0.00    -0.377 OA
ENDROOT
BRANCH   1   2
ATOM      2  C   UNL A   1      35.661  34.070  29.206  1.00  0.00     0.188 C 
BRANCH   2   3
ATOM      3  C   UNL A   1      34.821  32.845  28.945  1.00  0.00     0.188 C 
BRANCH   3   4
ATOM      4  O   UNL A   1      35.026  31.978  27.859  1.00  0.00    -0.376 OA
BRANCH   4   5
ATOM      5  C   UNL A   1      35.151  30.648  28.287  1.00  0.00     0.202 C 
BRANCH   5   6
ATOM      6  C   UNL A   1      35.046  29.486  27.272  1.00  0.00     0.261 C 
BRANCH   6   7
ATOM      7  O   UNL A   1      33.913  28.622  27.411  1.00  0.00    -0.463 OA
BRANCH   7   8
ATOM      8  C   UNL A   1      32.847  29.002  26.669  1.00  0.00     0.310 C 
ATOM      9  O   UNL A   1      31.942  29.753  27.065  1.00  0.00    -0.252 OA
BRANCH   8  10
ATOM     10  C   UNL A   1      32.806  28.420  25.287  1.00  0.00     0.160 C 
BRANCH  10  11
ATOM     11  C   UNL A   1      31.483  27.929  24.719  1.00  0.00    -0.013 A 
ATOM     12  C   UNL A   1      28.840  29.674  22.523  1.00  0.00     0.044 C 
ATOM     13  C   UNL A   1      29.552  28.636  23.341  1.00  0.00    -0.051 A 
ATOM     14  C   UNL A   1      29.057  27.342  23.425  1.00  0.00     0.005 A 
ATOM     15  C   UNL A   1      30.745  28.922  24.007  1.00  0.00     0.009 A 
ATOM     16  C   UNL A   1      29.730  26.367  24.180  1.00  0.00     0.026 A 
ATOM     17  C   UNL A   1      30.960  26.603  24.839  1.00  0.00     0.042 A 
BRANCH  17  18
ATOM     18  N   UNL A   1      31.602  25.538  25.597  1.00  0.00    -0.354 N 
ATOM     19  H   UNL A   1      31.696  25.694  26.564  1.00  0.00     0.167 HD
BRANCH  18  20
ATOM     20  C   UNL A   1      32.122  24.280  25.105  1.00  0.00     0.060 A 
ATOM     21  C   UNL A   1      31.835  23.098  25.808  1.00  0.00    -0.026 A 
ATOM     22  C   UNL A   1      33.079  24.147  24.058  1.00  0.00     0.064 A 
ATOM     23  C   UNL A   1      30.557  22.983  26.588  1.00  0.00     0.046 C 
ATOM     24  C   UNL A   1      32.659  21.960  25.681  1.00  0.00     0.005 A 
ATOM     25  C   UNL A   1      33.947  23.041  23.987  1.00  0.00     0.023 A 
ATOM     26  Cl  UNL A   1      33.108  25.164  22.646  1.00  0.00    -0.082 Cl
ATOM     27  C   UNL A   1      33.759  21.959  24.831  1.00  0.00     0.002 A 
ENDBRANCH  18  20
ENDBRANCH  17  18
ENDBRANCH  10  11
ENDBRANCH   8  10
ENDBRANCH   7   8
ENDBRANCH   6   7
ENDBRANCH   5   6
ENDBRANCH   4   5
ENDBRANCH   3   4
ENDBRANCH   2   3
ENDBRANCH   1   2
BRANCH   1  28
ATOM     28  C   UNL A   1      36.949  33.372  31.095  1.00  0.00     0.188 C 
BRANCH  28  29
ATOM     29  C   UNL A   1      36.542  32.122  31.853  1.00  0.00     0.188 C 
BRANCH  29  30
ATOM     30  O   UNL A   1      37.068  30.980  31.197  1.00  0.00    -0.376 OA
BRANCH  30  31
ATOM     31  C   UNL A   1      37.054  29.797  31.942  1.00  0.00     0.202 C 
BRANCH  31  32
ATOM     32  C   UNL A   1      37.921  29.919  33.187  1.00  0.00     0.261 C 
BRANCH  32  33
ATOM     33  O   UNL A   1      38.944  28.942  33.576  1.00  0.00    -0.460 OA
BRANCH  33  34
ATOM     34  C   UNL A   1      40.295  28.962  33.709  1.00  0.00     0.338 C 
ATOM     35  O   UNL A   1      40.822  28.655  34.779  1.00  0.00    -0.246 OA
BRANCH  34  36
ATOM     36  C   UNL A   1      41.187  29.001  32.523  1.00  0.00     0.060 A 
ATOM     37  C   UNL A   1      40.683  28.625  31.261  1.00  0.00     0.016 A 
ATOM     38  C   UNL A   1      42.483  29.489  32.607  1.00  0.00     0.016 A 
ATOM     39  C   UNL A   1      41.524  28.546  30.137  1.00  0.00     0.010 A 
ATOM     40  C   UNL A   1      43.312  29.403  31.486  1.00  0.00     0.010 A 
ATOM     41  C   UNL A   1      42.879  28.836  30.266  1.00  0.00    -0.014 A 
BRANCH  41  42
ATOM     42  C   UNL A   1      43.935  28.369  29.311  1.00  0.00     0.031 A 
ATOM     43  C   UNL A   1      44.176  26.895  29.123  1.00  0.00     0.074 A 
ATOM     44  C   UNL A   1      44.400  29.276  28.404  1.00  0.00     0.049 A 
ATOM     45  N   UNL A   1      44.999  26.363  28.278  1.00  0.00    -0.248 NA
ATOM     46  C   UNL A   1      43.536  25.873  29.958  1.00  0.00     0.031 C 
ATOM     47  C   UNL A   1      44.650  29.101  26.970  1.00  0.00     0.029 A 
ATOM     48  N   UNL A   1      44.598  30.639  28.532  1.00  0.00    -0.354 N 
ATOM     49  C   UNL A   1      44.750  24.993  28.219  1.00  0.00     0.074 A 
ATOM     50  C   UNL A   1      43.936  24.734  29.378  1.00  0.00     0.031 C 
ATOM     51  C   UNL A   1      44.967  30.253  26.367  1.00  0.00     0.029 A 
ATOM     52  C   UNL A   1      45.274  31.164  27.416  1.00  0.00     0.049 A 
ATOM     53  H   UNL A   1      44.301  31.174  29.305  1.00  0.00     0.167 HD
ATOM     54  C   UNL A   1      45.099  24.272  27.099  1.00  0.00     0.034 A 
ATOM     55  C   UNL A   1      46.526  31.677  27.574  1.00  0.00     0.034 A 
ATOM     56  C   UNL A   1      45.953  25.054  26.163  1.00  0.00     0.049 A 
ATOM     57  C   UNL A   1      47.622  30.648  27.204  1.00  0.00     0.074 A 
ATOM     58  C   UNL A   1      46.100  25.151  24.787  1.00  0.00     0.029 A 
ATOM     59  N   UNL A   1      46.816  26.026  26.671  1.00  0.00    -0.354 N 
ATOM     60  N   UNL A   1      47.401  29.434  26.731  1.00  0.00    -0.248 NA
ATOM     61  C   UNL A   1      49.053  30.909  27.308  1.00  0.00     0.031 C 
ATOM     62  C   UNL A   1      47.019  26.204  24.493  1.00  0.00     0.029 A 
ATOM     63  C   UNL A   1      47.489  26.711  25.691  1.00  0.00     0.049 A 
ATOM     64  H   UNL A   1      46.930  26.201  27.634  1.00  0.00     0.167 HD
ATOM     65  C   UNL A   1      48.578  28.754  26.528  1.00  0.00     0.074 A 
ATOM     66  C   UNL A   1      49.586  29.731  26.927  1.00  0.00     0.031 C 
ATOM     67  C   UNL A   1      48.673  27.461  26.065  1.00  0.00     0.034 A 
BRANCH  54  68
ATOM     68  C   UNL A   1      44.463  22.920  26.664  1.00  0.00     0.023 A 
ATOM     69  C   UNL A   1      45.305  21.885  26.178  1.00  0.00     0.031 A 
ATOM     70  C   UNL A   1      43.083  22.637  26.526  1.00  0.00     0.131 A 
ATOM     71  C   UNL A   1      44.800  20.736  25.522  1.00  0.00     0.055 A 
ATOM     72  C   UNL A   1      42.580  21.446  25.963  1.00  0.00     0.041 A 
ATOM     73  F   UNL A   1      42.129  23.509  26.873  1.00  0.00    -0.206 F 
ATOM     74  C   UNL A   1      43.437  20.497  25.433  1.00  0.00     0.022 A 
BRANCH  71  75
ATOM     75  S   UNL A   1      45.954  19.581  24.715  1.00  0.00     0.124 S 
ATOM     76  O   UNL A   1      45.204  19.180  23.530  1.00  0.00    -0.237 OA
ATOM     77  O   UNL A   1      47.127  20.414  24.482  1.00  0.00    -0.237 OA
ATOM     78  O   UNL A   1      46.137  18.529  25.715  1.00  0.00    -0.744 OA
ENDBRANCH  71  75
ENDBRANCH  54  68
BRANCH  55  79
ATOM     79  C   UNL A   1      46.398  32.759  28.622  1.00  0.00     0.023 A 
ATOM     80  C   UNL A   1      45.775  33.943  28.113  1.00  0.00     0.031 A 
ATOM     81  C   UNL A   1      46.097  32.398  29.947  1.00  0.00     0.131 A 
ATOM     82  C   UNL A   1      44.664  34.501  28.777  1.00  0.00     0.055 A 
ATOM     83  C   UNL A   1      45.036  33.016  30.636  1.00  0.00     0.041 A 
ATOM     84  F   UNL A   1      46.633  31.294  30.486  1.00  0.00    -0.206 F 
ATOM     85  C   UNL A   1      44.273  34.017  30.026  1.00  0.00     0.022 A 
BRANCH  82  86
ATOM     86  S   UNL A   1      43.531  35.598  27.844  1.00  0.00     0.124 S 
ATOM     87  O   UNL A   1      42.388  35.697  28.742  1.00  0.00    -0.237 OA
ATOM     88  O   UNL A   1      44.322  36.814  27.678  1.00  0.00    -0.237 OA
ATOM     89  O   UNL A   1      43.294  34.866  26.601  1.00  0.00    -0.744 OA
ENDBRANCH  82  86
ENDBRANCH  55  79
BRANCH  67  90
ATOM     90  C   UNL A   1      49.960  26.666  25.972  1.00  0.00     0.023 A 
ATOM     91  C   UNL A   1      50.813  26.770  24.880  1.00  0.00     0.031 A 
ATOM     92  C   UNL A   1      50.363  25.758  26.992  1.00  0.00     0.131 A 
ATOM     93  C   UNL A   1      52.084  26.180  24.921  1.00  0.00     0.055 A 
ATOM     94  C   UNL A   1      51.571  25.061  26.962  1.00  0.00     0.041 A 
ATOM     95  F   UNL A   1      49.627  25.533  28.089  1.00  0.00    -0.206 F 
ATOM     96  C   UNL A   1      52.467  25.310  25.940  1.00  0.00     0.022 A 
BRANCH  93  97
ATOM     97  S   UNL A   1      53.282  26.741  23.695  1.00  0.00     0.124 S 
ATOM     98  O   UNL A   1      52.685  26.289  22.442  1.00  0.00    -0.237 OA
ATOM     99  O   UNL A   1      53.266  28.185  23.916  1.00  0.00    -0.237 OA
ATOM    100  O   UNL A   1      54.516  26.066  24.083  1.00  0.00    -0.744 OA
ENDBRANCH  93  97
ENDBRANCH  67  90
ENDBRANCH  41  42
ENDBRANCH  34  36
ENDBRANCH  33  34
ENDBRANCH  32  33
ENDBRANCH  31  32
ENDBRANCH  30  31
ENDBRANCH  29  30
ENDBRANCH  28  29
ENDBRANCH   1  28
TORSDOF 26
ENDMDL
MODEL 2
REMARK VINA RESULT:      -9.1      4.388      6.185
REMARK SMILES Cc1ccc(Nc2c(C)cccc2Cl)c(CC(=O)OCCOCCOCCOCCOC(=O)c2ccc(-c3c4nc(c(-c5cc(S(=O)(=O)[O-])ccc5F)c5ccc([nH]5)c(-c5cc(S(=O)(=O)[O-])ccc5F)c5nc(c(-c6cc(S(=O)(=O)[O-])ccc6F)c6ccc3[nH]6)C=C5)C=C4)cc2)c1
REMARK SMILES IDX 25 1 24 2 23 3 22 4 21 5 20 6 19 7 17 8 18 9 16 10 15 11
REMARK SMILES IDX 1 12 2 13 3 14 97 15 4 16 5 17 6 18 7 20 8 21 13 22 9 23
REMARK SMILES IDX 10 24 12 25 14 26 11 27 26 28 27 29 28 30 29 31 30 32 31 33
REMARK SMILES IDX 32 34 33 35 34 36 35 37 96 38 36 39 95 40 37 41 38 42 39 43
REMARK SMILES IDX 89 44 40 45 94 46 88 47 90 48 41 49 93 50 87 51 86 52 42 54
REMARK SMILES IDX 74 55 54 56 73 57 55 58 58 59 72 60 91 61 56 62 57 63 71 65
REMARK SMILES IDX 92 66 59 67 43 68 44 69 52 70 45 71 51 72 53 73 50 74 46 75
REMARK SMILES IDX 47 76 48 77 49 78 75 79 76 80 84 81 77 82 83 83 85 84 82 85
REMARK SMILES IDX 78 86 79 87 80 88 81 89 60 90 61 91 69 92 62 93 68 94 70 95
REMARK SMILES IDX 67 96 63 97 64 98 65 99 66 100
REMARK H PARENT 6 19 90 53 58 64
REMARK Flexibility Score: inf
ROOT
ATOM      1  O   UNL A   1      43.816  31.569  34.209  1.00  0.00    -0.377 OA
ENDROOT
BRANCH   1   2
ATOM      2  C   UNL A   1      43.875  32.592  33.213  1.00  0.00     0.188 C 
BRANCH   2   3
ATOM      3  C   UNL A   1      43.317  33.884  33.755  1.00  0.00     0.188 C 
BRANCH   3   4
ATOM      4  O   UNL A   1      42.065  34.405  33.386  1.00  0.00    -0.376 OA
BRANCH   4   5
ATOM      5  C   UNL A   1      41.989  34.612  32.001  1.00  0.00     0.202 C 
BRANCH   5   6
ATOM      6  C   UNL A   1      40.712  34.219  31.221  1.00  0.00     0.261 C 
BRANCH   6   7
ATOM      7  O   UNL A   1      39.464  34.587  31.819  1.00  0.00    -0.463 OA
BRANCH   7   8
ATOM      8  C   UNL A   1      38.478  33.684  31.613  1.00  0.00     0.310 C 
ATOM      9  O   UNL A   1      37.954  32.994  32.502  1.00  0.00    -0.252 OA
BRANCH   8  10
ATOM     10  C   UNL A   1      38.050  33.538  30.183  1.00  0.00     0.160 C 
BRANCH  10  11
ATOM     11  C   UNL A   1      37.460  32.220  29.706  1.00  0.00    -0.013 A 
ATOM     12  C   UNL A   1      38.947  29.379  27.567  1.00  0.00     0.044 C 
ATOM     13  C   UNL A   1      37.988  30.192  28.389  1.00  0.00    -0.051 A 
ATOM     14  C   UNL A   1      36.750  29.676  28.742  1.00  0.00     0.005 A 
ATOM     15  C   UNL A   1      38.321  31.465  28.853  1.00  0.00     0.009 A 
ATOM     16  C   UNL A   1      35.857  30.431  29.522  1.00  0.00     0.026 A 
ATOM     17  C   UNL A   1      36.168  31.709  30.045  1.00  0.00     0.042 A 
BRANCH  17  18
ATOM     18  N   UNL A   1      35.192  32.427  30.853  1.00  0.00    -0.354 N 
ATOM     19  H   UNL A   1      34.865  31.956  31.653  1.00  0.00     0.167 HD
BRANCH  18  20
ATOM     20  C   UNL A   1      34.641  33.746  30.625  1.00  0.00     0.060 A 
ATOM     21  C   UNL A   1      34.316  34.553  31.727  1.00  0.00    -0.026 A 
ATOM     22  C   UNL A   1      34.208  34.241  29.361  1.00  0.00     0.064 A 
ATOM     23  C   UNL A   1      35.082  34.411  33.011  1.00  0.00     0.046 C 
ATOM     24  C   UNL A   1      33.374  35.597  31.610  1.00  0.00     0.005 A 
ATOM     25  C   UNL A   1      33.212  35.231  29.257  1.00  0.00     0.023 A 
ATOM     26  Cl  UNL A   1      35.016  33.887  27.861  1.00  0.00    -0.082 Cl
ATOM     27  C   UNL A   1      32.765  35.884  30.394  1.00  0.00     0.002 A 
ENDBRANCH  18  20
ENDBRANCH  17  18
ENDBRANCH  10  11
ENDBRANCH   8  10
ENDBRANCH   7   8
ENDBRANCH   6   7
ENDBRANCH   5   6
ENDBRANCH   4   5
ENDBRANCH   3   4
ENDBRANCH   2   3
ENDBRANCH   1   2
BRANCH   1  28
ATOM     28  C   UNL A   1      43.485  32.048  35.508  1.00  0.00     0.188 C 
BRANCH  28  29
ATOM     29  C   UNL A   1      42.813  31.079  36.464  1.00  0.00     0.188 C 
BRANCH  29  30
ATOM     30  O   UNL A   1      42.109  30.097  35.721  1.00  0.00    -0.376 OA
BRANCH  30  31
ATOM     31  C   UNL A   1      40.717  30.131  35.845  1.00  0.00     0.202 C 
BRANCH  31  32
ATOM     32  C   UNL A   1      40.096  31.083  34.832  1.00  0.00     0.261 C 
BRANCH  32  33
ATOM     33  O   UNL A   1      39.635  30.680  33.499  1.00  0.00    -0.460 OA
BRANCH  33  34
ATOM     34  C   UNL A   1      39.311  29.502  32.907  1.00  0.00     0.338 C 
ATOM     35  O   UNL A   1      38.131  29.181  32.760  1.00  0.00    -0.246 OA
BRANCH  34  36
ATOM     36  C   UNL A   1      40.305  28.739  32.113  1.00  0.00     0.060 A 
ATOM     37  C   UNL A   1      41.540  28.388  32.695  1.00  0.00     0.016 A 
ATOM     38  C   UNL A   1      40.015  28.277  30.837  1.00  0.00     0.016 A 
ATOM     39  C   UNL A   1      42.548  27.761  31.942  1.00  0.00     0.010 A 
ATOM     40  C   UNL A   1      41.022  27.659  30.095  1.00  0.00     0.010 A 
ATOM     41  C   UNL A   1      42.333  27.484  30.595  1.00  0.00    -0.014 A 
BRANCH  41  42
ATOM     42  C   UNL A   1      43.426  27.254  29.597  1.00  0.00     0.031 A 
ATOM     43  C   UNL A   1      43.788  25.850  29.191  1.00  0.00     0.074 A 
ATOM     44  C   UNL A   1      43.817  28.323  28.844  1.00  0.00     0.049 A 
ATOM     45  N   UNL A   1      44.654  25.521  28.288  1.00  0.00    -0.248 NA
ATOM     46  C   UNL A   1      43.232  24.664  29.852  1.00  0.00     0.031 C 
ATOM     47  C   UNL A   1      44.084  28.389  27.404  1.00  0.00     0.029 A 
ATOM     48  N   UNL A   1      43.902  29.663  29.180  1.00  0.00    -0.354 N 
ATOM     49  C   UNL A   1      44.518  24.160  28.018  1.00  0.00     0.074 A 
ATOM     50  C   UNL A   1      43.725  23.663  29.113  1.00  0.00     0.031 C 
ATOM     51  C   UNL A   1      44.307  29.641  26.987  1.00  0.00     0.029 A 
ATOM     52  C   UNL A   1      44.535  30.404  28.167  1.00  0.00     0.049 A 
ATOM     53  H   UNL A   1      43.560  30.047  30.020  1.00  0.00     0.167 HD
ATOM     54  C   UNL A   1      44.928  23.649  26.808  1.00  0.00     0.034 A 
ATOM     55  C   UNL A   1      45.741  30.986  28.420  1.00  0.00     0.034 A 
ATOM     56  C   UNL A   1      45.717  24.631  26.014  1.00  0.00     0.049 A 
ATOM     57  C   UNL A   1      46.919  30.117  27.914  1.00  0.00     0.074 A 
ATOM     58  C   UNL A   1      45.859  24.948  24.671  1.00  0.00     0.029 A 
ATOM     59  N   UNL A   1      46.496  25.581  26.676  1.00  0.00    -0.354 N 
ATOM     60  N   UNL A   1      46.799  28.975  27.260  1.00  0.00    -0.248 NA
ATOM     61  C   UNL A   1      48.323  30.474  28.078  1.00  0.00     0.031 C 
ATOM     62  C   UNL A   1      46.690  26.104  24.553  1.00  0.00     0.029 A 
ATOM     63  C   UNL A   1      47.113  26.459  25.821  1.00  0.00     0.049 A 
ATOM     64  H   UNL A   1      46.594  25.616  27.655  1.00  0.00     0.167 HD
ATOM     65  C   UNL A   1      48.029  28.433  26.974  1.00  0.00     0.074 A 
ATOM     66  C   UNL A   1      48.952  29.415  27.531  1.00  0.00     0.031 C 
ATOM     67  C   UNL A   1      48.231  27.236  26.322  1.00  0.00     0.034 A 
BRANCH  54  68
ATOM     68  C   UNL A   1      44.407  22.332  26.163  1.00  0.00     0.023 A 
ATOM     69  C   UNL A   1      43.047  21.966  26.340  1.00  0.00     0.031 A 
ATOM     70  C   UNL A   1      45.186  21.327  25.541  1.00  0.00     0.131 A 
ATOM     71  C   UNL A   1      42.555  20.678  26.021  1.00  0.00     0.055 A 
ATOM     72  C   UNL A   1      44.671  20.079  25.130  1.00  0.00     0.041 A 
ATOM     73  F   UNL A   1      46.501  21.456  25.334  1.00  0.00    -0.206 F 
ATOM     74  C   UNL A   1      43.356  19.736  25.392  1.00  0.00     0.022 A 
BRANCH  71  75
ATOM     75  S   UNL A   1      40.862  20.214  26.506  1.00  0.00     0.124 S 
ATOM     76  O   UNL A   1      41.029  19.885  27.917  1.00  0.00    -0.237 OA
ATOM     77  O   UNL A   1      40.105  21.425  26.212  1.00  0.00    -0.237 OA
ATOM     78  O   UNL A   1      40.559  19.076  25.638  1.00  0.00    -0.744 OA
ENDBRANCH  71  75
ENDBRANCH  54  68
BRANCH  55  79
ATOM     79  C   UNL A   1      45.522  31.883  29.617  1.00  0.00     0.023 A 
ATOM     80  C   UNL A   1      46.600  31.813  30.558  1.00  0.00     0.031 A 
ATOM     81  C   UNL A   1      44.915  33.137  29.433  1.00  0.00     0.131 A 
ATOM     82  C   UNL A   1      47.235  32.993  30.995  1.00  0.00     0.055 A 
ATOM     83  C   UNL A   1      45.512  34.306  29.942  1.00  0.00     0.041 A 
ATOM     84  F   UNL A   1      43.909  33.280  28.558  1.00  0.00    -0.206 F 
ATOM     85  C   UNL A   1      46.710  34.242  30.661  1.00  0.00     0.022 A 
BRANCH  82  86
ATOM     86  S   UNL A   1      48.931  32.885  31.683  1.00  0.00     0.124 S 
ATOM     87  O   UNL A   1      48.730  33.302  33.064  1.00  0.00    -0.237 OA
ATOM     88  O   UNL A   1      49.272  31.481  31.480  1.00  0.00    -0.237 OA
ATOM     89  O   UNL A   1      49.695  33.811  30.850  1.00  0.00    -0.744 OA
ENDBRANCH  82  86
ENDBRANCH  55  79
BRANCH  67  90
ATOM     90  C   UNL A   1      49.579  26.571  26.128  1.00  0.00     0.023 A 
ATOM     91  C   UNL A   1      50.320  26.732  24.964  1.00  0.00     0.031 A 
ATOM     92  C   UNL A   1      50.158  25.735  27.124  1.00  0.00     0.131 A 
ATOM     93  C   UNL A   1      51.642  26.273  24.902  1.00  0.00     0.055 A 
ATOM     94  C   UNL A   1      51.423  25.161  26.999  1.00  0.00     0.041 A 
ATOM     95  F   UNL A   1      49.547  25.466  28.286  1.00  0.00    -0.206 F 
ATOM     96  C   UNL A   1      52.198  25.472  25.899  1.00  0.00     0.022 A 
BRANCH  93  97
ATOM     97  S   UNL A   1      52.667  26.919  23.566  1.00  0.00     0.124 S 
ATOM     98  O   UNL A   1      52.935  28.284  24.006  1.00  0.00    -0.237 OA
ATOM     99  O   UNL A   1      53.808  26.006  23.611  1.00  0.00    -0.237 OA
ATOM    100  O   UNL A   1      51.816  26.794  22.386  1.00  0.00    -0.744 OA
ENDBRANCH  93  97
ENDBRANCH  67  90
ENDBRANCH  41  42
ENDBRANCH  34  36
ENDBRANCH  33  34
ENDBRANCH  32  33
ENDBRANCH  31  32
ENDBRANCH  30  31
ENDBRANCH  29  30
ENDBRANCH  28  29
ENDBRANCH   1  28
TORSDOF 26
ENDMDL
MODEL 3
REMARK VINA RESULT:      -9.0      5.322      8.302
REMARK SMILES Cc1ccc(Nc2c(C)cccc2Cl)c(CC(=O)OCCOCCOCCOCCOC(=O)c2ccc(-c3c4nc(c(-c5cc(S(=O)(=O)[O-])ccc5F)c5ccc([nH]5)c(-c5cc(S(=O)(=O)[O-])ccc5F)c5nc(c(-c6cc(S(=O)(=O)[O-])ccc6F)c6ccc3[nH]6)C=C5)C=C4)cc2)c1
REMARK SMILES IDX 25 1 24 2 23 3 22 4 21 5 20 6 19 7 17 8 18 9 16 10 15 11
REMARK SMILES IDX 1 12 2 13 3 14 97 15 4 16 5 17 6 18 7 20 8 21 13 22 9 23
REMARK SMILES IDX 10 24 12 25 14 26 11 27 26 28 27 29 28 30 29 31 30 32 31 33
REMARK SMILES IDX 32 34 33 35 34 36 35 37 96 38 36 39 95 40 37 41 38 42 39 43
REMARK SMILES IDX 89 44 40 45 94 46 88 47 90 48 41 49 93 50 87 51 86 52 42 54
REMARK SMILES IDX 74 55 54 56 73 57 55 58 58 59 72 60 91 61 56 62 57 63 71 65
REMARK SMILES IDX 92 66 59 67 43 68 44 69 52 70 45 71 51 72 53 73 50 74 46 75
REMARK SMILES IDX 47 76 48 77 49 78 75 79 76 80 84 81 77 82 83 83 85 84 82 85
REMARK SMILES IDX 78 86 79 87 80 88 81 89 60 90 61 91 69 92 62 93 68 94 70 95
REMARK SMILES IDX 67 96 63 97 64 98 65 99 66 100
REMARK H PARENT 6 19 90 53 58 64
REMARK Flexibility Score: inf
ROOT
ATOM      1  O   UNL A   1      39.100  30.545  32.459  1.00  0.00    -0.377 OA
ENDROOT
BRANCH   1   2
ATOM      2  C   UNL A   1      40.089  29.543  32.701  1.00  0.00     0.188 C 
BRANCH   2   3
ATOM      3  C   UNL A   1      40.670  29.054  31.399  1.00  0.00     0.188 C 
BRANCH   3   4
ATOM      4  O   UNL A   1      40.197  29.453  30.138  1.00  0.00    -0.376 OA
BRANCH   4   5
ATOM      5  C   UNL A   1      41.192  29.322  29.157  1.00  0.00     0.202 C 
BRANCH   5   6
ATOM      6  C   UNL A   1      40.989  28.365  27.959  1.00  0.00     0.261 C 
BRANCH   6   7
ATOM      7  O   UNL A   1      41.062  28.955  26.656  1.00  0.00    -0.463 OA
BRANCH   7   8
ATOM      8  C   UNL A   1      41.786  28.230  25.773  1.00  0.00     0.310 C 
ATOM      9  O   UNL A   1      42.078  28.601  24.625  1.00  0.00    -0.252 OA
BRANCH   8  10
ATOM     10  C   UNL A   1      42.215  26.881  26.271  1.00  0.00     0.160 C 
BRANCH  10  11
ATOM     11  C   UNL A   1      43.521  26.280  25.778  1.00  0.00    -0.013 A 
ATOM     12  C   UNL A   1      47.064  27.766  25.471  1.00  0.00     0.044 C 
ATOM     13  C   UNL A   1      45.912  26.805  25.409  1.00  0.00    -0.051 A 
ATOM     14  C   UNL A   1      46.116  25.482  25.045  1.00  0.00     0.005 A 
ATOM     15  C   UNL A   1      44.616  27.196  25.748  1.00  0.00     0.009 A 
ATOM     16  C   UNL A   1      45.040  24.580  24.999  1.00  0.00     0.026 A 
ATOM     17  C   UNL A   1      43.719  24.923  25.371  1.00  0.00     0.042 A 
BRANCH  17  18
ATOM     18  N   UNL A   1      42.657  23.929  25.304  1.00  0.00    -0.354 N 
ATOM     19  H   UNL A   1      42.038  24.010  24.542  1.00  0.00     0.167 HD
BRANCH  18  20
ATOM     20  C   UNL A   1      42.395  22.838  26.218  1.00  0.00     0.060 A 
ATOM     21  C   UNL A   1      42.850  21.549  25.896  1.00  0.00    -0.026 A 
ATOM     22  C   UNL A   1      41.532  22.912  27.349  1.00  0.00     0.064 A 
ATOM     23  C   UNL A   1      44.086  21.379  25.060  1.00  0.00     0.046 C 
ATOM     24  C   UNL A   1      42.248  20.404  26.461  1.00  0.00     0.005 A 
ATOM     25  C   UNL A   1      40.879  21.773  27.857  1.00  0.00     0.023 A 
ATOM     26  Cl  UNL A   1      41.396  24.319  28.365  1.00  0.00    -0.082 Cl
ATOM     27  C   UNL A   1      41.212  20.515  27.380  1.00  0.00     0.002 A 
ENDBRANCH  18  20
ENDBRANCH  17  18
ENDBRANCH  10  11
ENDBRANCH   8  10
ENDBRANCH   7   8
ENDBRANCH   6   7
ENDBRANCH   5   6
ENDBRANCH   4   5
ENDBRANCH   3   4
ENDBRANCH   2   3
ENDBRANCH   1   2
BRANCH   1  28
ATOM     28  C   UNL A   1      37.775  30.137  32.782  1.00  0.00     0.188 C 
BRANCH  28  29
ATOM     29  C   UNL A   1      36.637  30.757  31.993  1.00  0.00     0.188 C 
BRANCH  29  30
ATOM     30  O   UNL A   1      35.915  31.648  32.827  1.00  0.00    -0.376 OA
BRANCH  30  31
ATOM     31  C   UNL A   1      34.867  32.335  32.211  1.00  0.00     0.202 C 
BRANCH  31  32
ATOM     32  C   UNL A   1      35.376  33.226  31.086  1.00  0.00     0.261 C 
BRANCH  32  33
ATOM     33  O   UNL A   1      36.297  34.351  31.281  1.00  0.00    -0.460 OA
BRANCH  33  34
ATOM     34  C   UNL A   1      37.372  34.592  32.074  1.00  0.00     0.338 C 
ATOM     35  O   UNL A   1      37.218  34.948  33.243  1.00  0.00    -0.246 OA
BRANCH  34  36
ATOM     36  C   UNL A   1      38.726  34.111  31.705  1.00  0.00     0.060 A 
ATOM     37  C   UNL A   1      39.820  34.396  32.547  1.00  0.00     0.016 A 
ATOM     38  C   UNL A   1      38.932  33.305  30.594  1.00  0.00     0.016 A 
ATOM     39  C   UNL A   1      41.132  34.051  32.179  1.00  0.00     0.010 A 
ATOM     40  C   UNL A   1      40.238  32.970  30.233  1.00  0.00     0.010 A 
ATOM     41  C   UNL A   1      41.364  33.424  30.958  1.00  0.00    -0.014 A 
BRANCH  41  42
ATOM     42  C   UNL A   1      42.686  33.415  30.253  1.00  0.00     0.031 A 
ATOM     43  C   UNL A   1      43.672  32.309  30.522  1.00  0.00     0.074 A 
ATOM     44  C   UNL A   1      42.809  34.210  29.151  1.00  0.00     0.049 A 
ATOM     45  N   UNL A   1      44.808  32.144  29.925  1.00  0.00    -0.248 NA
ATOM     46  C   UNL A   1      43.475  31.310  31.578  1.00  0.00     0.031 C 
ATOM     47  C   UNL A   1      43.411  33.897  27.850  1.00  0.00     0.029 A 
ATOM     48  N   UNL A   1      42.259  35.451  28.884  1.00  0.00    -0.354 N 
ATOM     49  C   UNL A   1      45.303  30.884  30.256  1.00  0.00     0.074 A 
ATOM     50  C   UNL A   1      44.507  30.479  31.386  1.00  0.00     0.031 C 
ATOM     51  C   UNL A   1      43.223  34.876  26.957  1.00  0.00     0.029 A 
ATOM     52  C   UNL A   1      42.797  36.006  27.710  1.00  0.00     0.049 A 
ATOM     53  H   UNL A   1      41.578  35.889  29.445  1.00  0.00     0.167 HD
ATOM     54  C   UNL A   1      46.197  30.250  29.423  1.00  0.00     0.034 A 
ATOM     55  C   UNL A   1      43.553  37.137  27.790  1.00  0.00     0.034 A 
ATOM     56  C   UNL A   1      46.715  31.149  28.355  1.00  0.00     0.049 A 
ATOM     57  C   UNL A   1      45.068  36.818  27.809  1.00  0.00     0.074 A 
ATOM     58  C   UNL A   1      47.081  31.013  27.024  1.00  0.00     0.029 A 
ATOM     59  N   UNL A   1      46.839  32.516  28.609  1.00  0.00    -0.354 N 
ATOM     60  N   UNL A   1      45.595  35.612  27.702  1.00  0.00    -0.248 NA
ATOM     61  C   UNL A   1      46.111  37.831  27.924  1.00  0.00     0.031 C 
ATOM     62  C   UNL A   1      47.381  32.305  26.492  1.00  0.00     0.029 A 
ATOM     63  C   UNL A   1      47.264  33.228  27.516  1.00  0.00     0.049 A 
ATOM     64  H   UNL A   1      46.642  32.926  29.483  1.00  0.00     0.167 HD
ATOM     65  C   UNL A   1      46.966  35.657  27.783  1.00  0.00     0.074 A 
ATOM     66  C   UNL A   1      47.232  37.083  27.941  1.00  0.00     0.031 C 
ATOM     67  C   UNL A   1      47.797  34.560  27.728  1.00  0.00     0.034 A 
BRANCH  54  68
ATOM     68  C   UNL A   1      46.440  28.714  29.365  1.00  0.00     0.023 A 
ATOM     69  C   UNL A   1      47.770  28.227  29.281  1.00  0.00     0.031 A 
ATOM     70  C   UNL A   1      45.459  27.705  29.209  1.00  0.00     0.131 A 
ATOM     71  C   UNL A   1      48.072  26.881  28.962  1.00  0.00     0.055 A 
ATOM     72  C   UNL A   1      45.761  26.345  28.992  1.00  0.00     0.041 A 
ATOM     73  F   UNL A   1      44.147  27.969  29.202  1.00  0.00    -0.206 F 
ATOM     74  C   UNL A   1      47.072  25.927  28.841  1.00  0.00     0.022 A 
BRANCH  71  75
ATOM     75  S   UNL A   1      49.796  26.398  28.633  1.00  0.00     0.124 S 
ATOM     76  O   UNL A   1      49.652  25.001  28.238  1.00  0.00    -0.237 OA
ATOM     77  O   UNL A   1      50.192  27.326  27.581  1.00  0.00    -0.237 OA
ATOM     78  O   UNL A   1      50.461  26.610  29.919  1.00  0.00    -0.744 OA
ENDBRANCH  71  75
ENDBRANCH  54  68
BRANCH  55  79
ATOM     79  C   UNL A   1      42.677  38.170  28.462  1.00  0.00     0.023 A 
ATOM     80  C   UNL A   1      43.222  38.623  29.707  1.00  0.00     0.031 A 
ATOM     81  C   UNL A   1      42.009  39.122  27.673  1.00  0.00     0.131 A 
ATOM     82  C   UNL A   1      43.386  40.002  29.947  1.00  0.00     0.055 A 
ATOM     83  C   UNL A   1      42.111  40.496  27.965  1.00  0.00     0.041 A 
ATOM     84  F   UNL A   1      41.486  38.772  26.489  1.00  0.00    -0.206 F 
ATOM     85  C   UNL A   1      42.858  40.941  29.060  1.00  0.00     0.022 A 
BRANCH  82  86
ATOM     86  S   UNL A   1      44.594  40.544  31.215  1.00  0.00     0.124 S 
ATOM     87  O   UNL A   1      45.710  39.636  30.985  1.00  0.00    -0.237 OA
ATOM     88  O   UNL A   1      44.823  41.942  30.866  1.00  0.00    -0.237 OA
ATOM     89  O   UNL A   1      43.876  40.353  32.474  1.00  0.00    -0.744 OA
ENDBRANCH  82  86
ENDBRANCH  55  79
BRANCH  67  90
ATOM     90  C   UNL A   1      49.296  34.595  27.956  1.00  0.00     0.023 A 
ATOM     91  C   UNL A   1      50.194  34.799  26.916  1.00  0.00     0.031 A 
ATOM     92  C   UNL A   1      49.868  34.408  29.246  1.00  0.00     0.131 A 
ATOM     93  C   UNL A   1      51.549  35.028  27.191  1.00  0.00     0.055 A 
ATOM     94  C   UNL A   1      51.238  34.497  29.494  1.00  0.00     0.041 A 
ATOM     95  F   UNL A   1      49.127  34.173  30.337  1.00  0.00    -0.206 F 
ATOM     96  C   UNL A   1      52.086  34.860  28.467  1.00  0.00     0.022 A 
BRANCH  93  97
ATOM     97  S   UNL A   1      52.542  35.736  25.863  1.00  0.00     0.124 S 
ATOM     98  O   UNL A   1      53.609  36.413  26.593  1.00  0.00    -0.237 OA
ATOM     99  O   UNL A   1      52.942  34.535  25.131  1.00  0.00    -0.237 OA
ATOM    100  O   UNL A   1      51.608  36.610  25.160  1.00  0.00    -0.744 OA
ENDBRANCH  93  97
ENDBRANCH  67  90
ENDBRANCH  41  42
ENDBRANCH  34  36
ENDBRANCH  33  34
ENDBRANCH  32  33
ENDBRANCH  31  32
ENDBRANCH  30  31
ENDBRANCH  29  30
ENDBRANCH  28  29
ENDBRANCH   1  28
TORSDOF 26
ENDMDL
