MODEL 1
REMARK VINA RESULT:     -10.2      0.000      0.000
REMARK SMILES Cc1ccc(N2CCC[C@@H](Cn3cc(C(=O)OCCOCCOCCOCCOC(=O)c4ccc(-c5c6nc(c(-c7cc(S(=O)(=O)[O-])ccc7F)c7ccc([nH]7)c(-c7cc(S(=O)(=O)[O-])ccc7F)c7nc(c(-c8cc(S(=O)(=O)[O-])ccc8F)c8ccc5[nH]8)C=C7)C=C6)cc4)nn3)C2)nn1
REMARK SMILES IDX 23 1 22 2 21 3 20 4 19 5 18 6 17 7 15 8 16 9 14 10 12 11
REMARK SMILES IDX 13 12 96 13 95 14 11 15 10 16 6 17 7 18 97 19 8 20 9 21 5 22
REMARK SMILES IDX 1 23 2 24 3 25 99 26 4 27 98 28 24 29 25 30 26 31 27 32
REMARK SMILES IDX 28 33 29 34 30 35 31 36 32 37 33 38 94 39 34 40 93 41 35 42
REMARK SMILES IDX 36 43 37 44 87 45 38 46 92 47 86 48 88 49 39 50 91 51 85 52
REMARK SMILES IDX 84 53 40 55 72 56 52 57 71 58 53 59 56 60 70 61 89 62 54 63
REMARK SMILES IDX 55 64 69 66 90 67 57 68 41 69 42 70 50 71 43 72 49 73 51 74
REMARK SMILES IDX 48 75 44 76 45 77 46 78 47 79 73 80 74 81 82 82 75 83 81 84
REMARK SMILES IDX 83 85 80 86 76 87 77 88 78 89 79 90 58 91 59 92 67 93 60 94
REMARK SMILES IDX 66 95 68 96 65 97 61 98 62 99 63 100 64 101
REMARK H PARENT 88 54 56 65
REMARK Flexibility Score: inf
ROOT
ATOM      1  O   UNL A   1      46.788  24.065  24.106  1.00  0.00    -0.377 OA
ENDROOT
BRANCH   1   2
ATOM      2  C   UNL A   1      46.287  22.753  24.258  1.00  0.00     0.188 C 
BRANCH   2   3
ATOM      3  C   UNL A   1      44.799  22.591  23.876  1.00  0.00     0.188 C 
BRANCH   3   4
ATOM      4  O   UNL A   1      44.026  21.450  24.238  1.00  0.00    -0.376 OA
BRANCH   4   5
ATOM      5  C   UNL A   1      43.899  20.982  25.571  1.00  0.00     0.202 C 
BRANCH   5   6
ATOM      6  C   UNL A   1      42.541  20.611  26.182  1.00  0.00     0.261 C 
BRANCH   6   7
ATOM      7  O   UNL A   1      41.480  21.518  25.903  1.00  0.00    -0.458 OA
BRANCH   7   8
ATOM      8  C   UNL A   1      40.525  21.606  26.873  1.00  0.00     0.360 C 
ATOM      9  O   UNL A   1      40.711  21.383  28.056  1.00  0.00    -0.244 OA
BRANCH   8  10
ATOM     10  C   UNL A   1      39.271  22.100  26.327  1.00  0.00     0.190 A 
ATOM     11  N   UNL A   1      37.340  22.302  25.399  1.00  0.00    -0.251 N 
ATOM     12  C   UNL A   1      38.440  21.500  25.402  1.00  0.00     0.146 A 
ATOM     13  N   UNL A   1      37.608  23.483  25.987  1.00  0.00    -0.067 NA
ATOM     14  N   UNL A   1      38.761  23.343  26.628  1.00  0.00    -0.123 NA
BRANCH  11  15
ATOM     15  C   UNL A   1      35.965  21.856  25.294  1.00  0.00     0.151 C 
BRANCH  15  16
ATOM     16  C   UNL A   1      35.025  22.591  26.281  1.00  0.00     0.030 C 
ATOM     17  N   UNL A   1      33.287  24.281  26.531  1.00  0.00    -0.355 N 
ATOM     18  C   UNL A   1      32.284  23.352  27.038  1.00  0.00     0.118 C 
ATOM     19  C   UNL A   1      34.218  23.699  25.574  1.00  0.00     0.123 C 
ATOM     20  C   UNL A   1      33.024  22.323  27.888  1.00  0.00     0.022 C 
ATOM     21  C   UNL A   1      34.109  21.621  27.072  1.00  0.00     0.009 C 
BRANCH  17  22
ATOM     22  C   UNL A   1      32.779  25.521  26.145  1.00  0.00     0.151 A 
ATOM     23  C   UNL A   1      31.200  29.181  24.747  1.00  0.00     0.069 C 
ATOM     24  C   UNL A   1      31.803  27.910  25.251  1.00  0.00     0.060 A 
ATOM     25  C   UNL A   1      33.019  27.464  24.764  1.00  0.00     0.029 A 
ATOM     26  N   UNL A   1      31.104  27.187  26.152  1.00  0.00    -0.154 NA
ATOM     27  C   UNL A   1      33.516  26.256  25.231  1.00  0.00     0.051 A 
ATOM     28  N   UNL A   1      31.595  25.982  26.597  1.00  0.00    -0.133 NA
ENDBRANCH  17  22
ENDBRANCH  15  16
ENDBRANCH  11  15
ENDBRANCH   8  10
ENDBRANCH   7   8
ENDBRANCH   6   7
ENDBRANCH   5   6
ENDBRANCH   4   5
ENDBRANCH   3   4
ENDBRANCH   2   3
ENDBRANCH   1   2
BRANCH   1  29
ATOM     29  C   UNL A   1      46.832  24.846  25.299  1.00  0.00     0.188 C 
BRANCH  29  30
ATOM     30  C   UNL A   1      45.521  25.520  25.797  1.00  0.00     0.188 C 
BRANCH  30  31
ATOM     31  O   UNL A   1      45.706  26.686  26.592  1.00  0.00    -0.376 OA
BRANCH  31  32
ATOM     32  C   UNL A   1      44.781  27.762  26.607  1.00  0.00     0.202 C 
BRANCH  32  33
ATOM     33  C   UNL A   1      43.390  27.545  26.004  1.00  0.00     0.261 C 
BRANCH  33  34
ATOM     34  O   UNL A   1      42.567  26.699  26.779  1.00  0.00    -0.460 OA
BRANCH  34  35
ATOM     35  C   UNL A   1      41.342  26.519  26.247  1.00  0.00     0.338 C 
ATOM     36  O   UNL A   1      41.073  25.960  25.201  1.00  0.00    -0.246 OA
BRANCH  35  37
ATOM     37  C   UNL A   1      40.357  27.168  27.116  1.00  0.00     0.060 A 
ATOM     38  C   UNL A   1      40.201  28.529  26.872  1.00  0.00     0.016 A 
ATOM     39  C   UNL A   1      40.133  26.579  28.370  1.00  0.00     0.016 A 
ATOM     40  C   UNL A   1      40.262  29.343  27.968  1.00  0.00     0.010 A 
ATOM     41  C   UNL A   1      40.194  27.396  29.464  1.00  0.00     0.010 A 
ATOM     42  C   UNL A   1      40.401  28.747  29.231  1.00  0.00    -0.014 A 
BRANCH  42  43
ATOM     43  C   UNL A   1      40.756  29.615  30.318  1.00  0.00     0.031 A 
ATOM     44  C   UNL A   1      39.591  30.345  30.828  1.00  0.00     0.074 A 
ATOM     45  C   UNL A   1      42.012  29.763  30.767  1.00  0.00     0.049 A 
ATOM     46  N   UNL A   1      39.220  31.530  30.481  1.00  0.00    -0.248 NA
ATOM     47  C   UNL A   1      38.597  29.580  31.587  1.00  0.00     0.031 C 
ATOM     48  C   UNL A   1      43.209  28.954  30.533  1.00  0.00     0.029 A 
ATOM     49  N   UNL A   1      42.453  30.724  31.611  1.00  0.00    -0.354 N 
ATOM     50  C   UNL A   1      38.032  31.747  31.155  1.00  0.00     0.074 A 
ATOM     51  C   UNL A   1      37.595  30.457  31.633  1.00  0.00     0.031 C 
ATOM     52  C   UNL A   1      44.178  29.338  31.401  1.00  0.00     0.029 A 
ATOM     53  C   UNL A   1      43.720  30.515  32.121  1.00  0.00     0.049 A 
ATOM     54  H   UNL A   1      41.912  31.513  31.844  1.00  0.00     0.167 HD
ATOM     55  C   UNL A   1      37.624  33.002  31.478  1.00  0.00     0.034 A 
ATOM     56  C   UNL A   1      44.284  31.237  33.124  1.00  0.00     0.034 A 
ATOM     57  C   UNL A   1      38.383  34.005  30.781  1.00  0.00     0.049 A 
ATOM     58  C   UNL A   1      43.568  32.543  33.174  1.00  0.00     0.074 A 
ATOM     59  C   UNL A   1      38.517  34.371  29.457  1.00  0.00     0.029 A 
ATOM     60  N   UNL A   1      39.470  34.534  31.437  1.00  0.00    -0.354 N 
ATOM     61  N   UNL A   1      43.652  33.443  32.231  1.00  0.00    -0.248 NA
ATOM     62  C   UNL A   1      42.391  32.641  34.027  1.00  0.00     0.031 C 
ATOM     63  C   UNL A   1      39.891  34.714  29.303  1.00  0.00     0.029 A 
ATOM     64  C   UNL A   1      40.513  34.587  30.547  1.00  0.00     0.049 A 
ATOM     65  H   UNL A   1      39.496  34.823  32.377  1.00  0.00     0.167 HD
ATOM     66  C   UNL A   1      42.361  33.937  32.098  1.00  0.00     0.074 A 
ATOM     67  C   UNL A   1      41.646  33.464  33.283  1.00  0.00     0.031 C 
ATOM     68  C   UNL A   1      41.909  34.436  30.911  1.00  0.00     0.034 A 
BRANCH  55  69
ATOM     69  C   UNL A   1      36.798  33.295  32.695  1.00  0.00     0.023 A 
ATOM     70  C   UNL A   1      37.292  33.095  33.999  1.00  0.00     0.031 A 
ATOM     71  C   UNL A   1      35.582  33.986  32.589  1.00  0.00     0.131 A 
ATOM     72  C   UNL A   1      36.586  33.521  35.125  1.00  0.00     0.055 A 
ATOM     73  C   UNL A   1      34.908  34.478  33.712  1.00  0.00     0.041 A 
ATOM     74  F   UNL A   1      35.043  34.250  31.387  1.00  0.00    -0.206 F 
ATOM     75  C   UNL A   1      35.406  34.242  34.989  1.00  0.00     0.022 A 
BRANCH  72  76
ATOM     76  S   UNL A   1      37.221  33.159  36.784  1.00  0.00     0.124 S 
ATOM     77  O   UNL A   1      37.634  31.766  36.650  1.00  0.00    -0.237 OA
ATOM     78  O   UNL A   1      38.303  34.134  36.902  1.00  0.00    -0.237 OA
ATOM     79  O   UNL A   1      36.074  33.403  37.651  1.00  0.00    -0.744 OA
ENDBRANCH  72  76
ENDBRANCH  55  69
BRANCH  56  80
ATOM     80  C   UNL A   1      44.910  30.652  34.336  1.00  0.00     0.023 A 
ATOM     81  C   UNL A   1      44.392  29.470  34.899  1.00  0.00     0.031 A 
ATOM     82  C   UNL A   1      45.799  31.405  35.122  1.00  0.00     0.131 A 
ATOM     83  C   UNL A   1      44.710  29.108  36.215  1.00  0.00     0.055 A 
ATOM     84  C   UNL A   1      46.127  31.034  36.432  1.00  0.00     0.041 A 
ATOM     85  F   UNL A   1      46.306  32.559  34.658  1.00  0.00    -0.206 F 
ATOM     86  C   UNL A   1      45.569  29.888  36.991  1.00  0.00     0.022 A 
BRANCH  83  87
ATOM     87  S   UNL A   1      43.950  27.640  36.963  1.00  0.00     0.124 S 
ATOM     88  O   UNL A   1      44.561  27.615  38.292  1.00  0.00    -0.237 OA
ATOM     89  O   UNL A   1      42.534  27.985  36.929  1.00  0.00    -0.237 OA
ATOM     90  O   UNL A   1      44.363  26.554  36.078  1.00  0.00    -0.744 OA
ENDBRANCH  83  87
ENDBRANCH  56  80
BRANCH  68  91
ATOM     91  C   UNL A   1      42.902  34.633  29.789  1.00  0.00     0.023 A 
ATOM     92  C   UNL A   1      43.260  35.952  29.476  1.00  0.00     0.031 A 
ATOM     93  C   UNL A   1      43.291  33.619  28.893  1.00  0.00     0.131 A 
ATOM     94  C   UNL A   1      43.931  36.237  28.281  1.00  0.00     0.055 A 
ATOM     95  C   UNL A   1      44.017  33.900  27.729  1.00  0.00     0.041 A 
ATOM     96  F   UNL A   1      42.906  32.348  29.069  1.00  0.00    -0.206 F 
ATOM     97  C   UNL A   1      44.325  35.218  27.410  1.00  0.00     0.022 A 
BRANCH  94  98
ATOM     98  S   UNL A   1      44.189  37.954  27.774  1.00  0.00     0.124 S 
ATOM     99  O   UNL A   1      43.163  38.134  26.750  1.00  0.00    -0.237 OA
ATOM    100  O   UNL A   1      43.960  38.679  29.022  1.00  0.00    -0.237 OA
ATOM    101  O   UNL A   1      45.564  37.977  27.287  1.00  0.00    -0.744 OA
ENDBRANCH  94  98
ENDBRANCH  68  91
ENDBRANCH  42  43
ENDBRANCH  35  37
ENDBRANCH  34  35
ENDBRANCH  33  34
ENDBRANCH  32  33
ENDBRANCH  31  32
ENDBRANCH  30  31
ENDBRANCH  29  30
ENDBRANCH   1  29
TORSDOF 26
ENDMDL
MODEL 2
REMARK VINA RESULT:      -9.7      1.808      2.174
REMARK SMILES Cc1ccc(N2CCC[C@@H](Cn3cc(C(=O)OCCOCCOCCOCCOC(=O)c4ccc(-c5c6nc(c(-c7cc(S(=O)(=O)[O-])ccc7F)c7ccc([nH]7)c(-c7cc(S(=O)(=O)[O-])ccc7F)c7nc(c(-c8cc(S(=O)(=O)[O-])ccc8F)c8ccc5[nH]8)C=C7)C=C6)cc4)nn3)C2)nn1
REMARK SMILES IDX 23 1 22 2 21 3 20 4 19 5 18 6 17 7 15 8 16 9 14 10 12 11
REMARK SMILES IDX 13 12 96 13 95 14 11 15 10 16 6 17 7 18 97 19 8 20 9 21 5 22
REMARK SMILES IDX 1 23 2 24 3 25 99 26 4 27 98 28 24 29 25 30 26 31 27 32
REMARK SMILES IDX 28 33 29 34 30 35 31 36 32 37 33 38 94 39 34 40 93 41 35 42
REMARK SMILES IDX 36 43 37 44 87 45 38 46 92 47 86 48 88 49 39 50 91 51 85 52
REMARK SMILES IDX 84 53 40 55 72 56 52 57 71 58 53 59 56 60 70 61 89 62 54 63
REMARK SMILES IDX 55 64 69 66 90 67 57 68 41 69 42 70 50 71 43 72 49 73 51 74
REMARK SMILES IDX 48 75 44 76 45 77 46 78 47 79 73 80 74 81 82 82 75 83 81 84
REMARK SMILES IDX 83 85 80 86 76 87 77 88 78 89 79 90 58 91 59 92 67 93 60 94
REMARK SMILES IDX 66 95 68 96 65 97 61 98 62 99 63 100 64 101
REMARK H PARENT 88 54 56 65
REMARK Flexibility Score: inf
ROOT
ATOM      1  O   UNL A   1      46.978  24.132  24.107  1.00  0.00    -0.377 OA
ENDROOT
BRANCH   1   2
ATOM      2  C   UNL A   1      46.428  22.834  24.210  1.00  0.00     0.188 C 
BRANCH   2   3
ATOM      3  C   UNL A   1      44.971  22.718  23.709  1.00  0.00     0.188 C 
BRANCH   3   4
ATOM      4  O   UNL A   1      44.108  21.646  24.078  1.00  0.00    -0.376 OA
BRANCH   4   5
ATOM      5  C   UNL A   1      44.046  21.108  25.389  1.00  0.00     0.202 C 
BRANCH   5   6
ATOM      6  C   UNL A   1      42.717  20.709  26.048  1.00  0.00     0.261 C 
BRANCH   6   7
ATOM      7  O   UNL A   1      41.629  21.593  25.806  1.00  0.00    -0.458 OA
BRANCH   7   8
ATOM      8  C   UNL A   1      40.761  21.740  26.848  1.00  0.00     0.360 C 
ATOM      9  O   UNL A   1      41.071  21.684  28.025  1.00  0.00    -0.244 OA
BRANCH   8  10
ATOM     10  C   UNL A   1      39.428  22.075  26.374  1.00  0.00     0.190 A 
ATOM     11  N   UNL A   1      37.372  22.033  25.740  1.00  0.00    -0.251 N 
ATOM     12  C   UNL A   1      38.474  21.238  25.829  1.00  0.00     0.146 A 
ATOM     13  N   UNL A   1      37.706  23.329  25.872  1.00  0.00    -0.067 NA
ATOM     14  N   UNL A   1      38.947  23.364  26.338  1.00  0.00    -0.123 NA
BRANCH  11  15
ATOM     15  C   UNL A   1      36.006  21.620  25.997  1.00  0.00     0.151 C 
BRANCH  15  16
ATOM     16  C   UNL A   1      34.990  22.770  25.791  1.00  0.00     0.030 C 
ATOM     17  N   UNL A   1      33.443  23.840  24.241  1.00  0.00    -0.355 N 
ATOM     18  C   UNL A   1      32.262  23.606  25.063  1.00  0.00     0.118 C 
ATOM     19  C   UNL A   1      34.463  22.806  24.342  1.00  0.00     0.123 C 
ATOM     20  C   UNL A   1      32.706  23.725  26.518  1.00  0.00     0.022 C 
ATOM     21  C   UNL A   1      33.836  22.744  26.827  1.00  0.00     0.009 C 
BRANCH  17  22
ATOM     22  C   UNL A   1      33.164  24.235  22.933  1.00  0.00     0.151 A 
ATOM     23  C   UNL A   1      32.496  25.606  18.994  1.00  0.00     0.069 C 
ATOM     24  C   UNL A   1      32.683  25.133  20.400  1.00  0.00     0.060 A 
ATOM     25  C   UNL A   1      32.341  25.943  21.468  1.00  0.00     0.029 A 
ATOM     26  N   UNL A   1      33.244  23.920  20.593  1.00  0.00    -0.154 NA
ATOM     27  C   UNL A   1      32.575  25.477  22.753  1.00  0.00     0.051 A 
ATOM     28  N   UNL A   1      33.489  23.473  21.870  1.00  0.00    -0.133 NA
ENDBRANCH  17  22
ENDBRANCH  15  16
ENDBRANCH  11  15
ENDBRANCH   8  10
ENDBRANCH   7   8
ENDBRANCH   6   7
ENDBRANCH   5   6
ENDBRANCH   4   5
ENDBRANCH   3   4
ENDBRANCH   2   3
ENDBRANCH   1   2
BRANCH   1  29
ATOM     29  C   UNL A   1      46.948  24.907  25.304  1.00  0.00     0.188 C 
BRANCH  29  30
ATOM     30  C   UNL A   1      45.658  25.710  25.640  1.00  0.00     0.188 C 
BRANCH  30  31
ATOM     31  O   UNL A   1      45.793  26.655  26.695  1.00  0.00    -0.376 OA
BRANCH  31  32
ATOM     32  C   UNL A   1      44.937  27.778  26.838  1.00  0.00     0.202 C 
BRANCH  32  33
ATOM     33  C   UNL A   1      43.527  27.706  26.244  1.00  0.00     0.261 C 
BRANCH  33  34
ATOM     34  O   UNL A   1      42.786  26.589  26.686  1.00  0.00    -0.460 OA
BRANCH  34  35
ATOM     35  C   UNL A   1      41.552  26.525  26.149  1.00  0.00     0.338 C 
ATOM     36  O   UNL A   1      41.258  26.146  25.031  1.00  0.00    -0.246 OA
BRANCH  35  37
ATOM     37  C   UNL A   1      40.593  27.050  27.124  1.00  0.00     0.060 A 
ATOM     38  C   UNL A   1      40.212  28.366  26.886  1.00  0.00     0.016 A 
ATOM     39  C   UNL A   1      40.607  26.470  28.402  1.00  0.00     0.016 A 
ATOM     40  C   UNL A   1      40.282  29.211  27.958  1.00  0.00     0.010 A 
ATOM     41  C   UNL A   1      40.677  27.318  29.472  1.00  0.00     0.010 A 
ATOM     42  C   UNL A   1      40.655  28.678  29.201  1.00  0.00    -0.014 A 
BRANCH  42  43
ATOM     43  C   UNL A   1      41.005  29.618  30.228  1.00  0.00     0.031 A 
ATOM     44  C   UNL A   1      39.822  30.301  30.760  1.00  0.00     0.074 A 
ATOM     45  C   UNL A   1      42.269  29.863  30.606  1.00  0.00     0.049 A 
ATOM     46  N   UNL A   1      39.363  31.443  30.376  1.00  0.00    -0.248 NA
ATOM     47  C   UNL A   1      38.914  29.517  31.602  1.00  0.00     0.031 C 
ATOM     48  C   UNL A   1      43.502  29.116  30.352  1.00  0.00     0.029 A 
ATOM     49  N   UNL A   1      42.688  30.889  31.382  1.00  0.00    -0.354 N 
ATOM     50  C   UNL A   1      38.196  31.622  31.097  1.00  0.00     0.074 A 
ATOM     51  C   UNL A   1      37.863  30.333  31.656  1.00  0.00     0.031 C 
ATOM     52  C   UNL A   1      44.484  29.600  31.152  1.00  0.00     0.029 A 
ATOM     53  C   UNL A   1      43.988  30.782  31.839  1.00  0.00     0.049 A 
ATOM     54  H   UNL A   1      42.111  31.655  31.604  1.00  0.00     0.167 HD
ATOM     55  C   UNL A   1      37.726  32.865  31.381  1.00  0.00     0.034 A 
ATOM     56  C   UNL A   1      44.552  31.585  32.778  1.00  0.00     0.034 A 
ATOM     57  C   UNL A   1      38.388  33.876  30.602  1.00  0.00     0.049 A 
ATOM     58  C   UNL A   1      43.759  32.847  32.802  1.00  0.00     0.074 A 
ATOM     59  C   UNL A   1      38.438  34.183  29.257  1.00  0.00     0.029 A 
ATOM     60  N   UNL A   1      39.470  34.501  31.178  1.00  0.00    -0.354 N 
ATOM     61  N   UNL A   1      43.743  33.702  31.815  1.00  0.00    -0.248 NA
ATOM     62  C   UNL A   1      42.619  32.917  33.707  1.00  0.00     0.031 C 
ATOM     63  C   UNL A   1      39.779  34.599  29.020  1.00  0.00     0.029 A 
ATOM     64  C   UNL A   1      40.465  34.572  30.236  1.00  0.00     0.049 A 
ATOM     65  H   UNL A   1      39.521  34.837  32.101  1.00  0.00     0.167 HD
ATOM     66  C   UNL A   1      42.419  34.111  31.723  1.00  0.00     0.074 A 
ATOM     67  C   UNL A   1      41.791  33.655  32.962  1.00  0.00     0.031 C 
ATOM     68  C   UNL A   1      41.883  34.523  30.538  1.00  0.00     0.034 A 
BRANCH  55  69
ATOM     69  C   UNL A   1      36.941  33.168  32.622  1.00  0.00     0.023 A 
ATOM     70  C   UNL A   1      37.459  32.930  33.910  1.00  0.00     0.031 A 
ATOM     71  C   UNL A   1      35.748  33.903  32.556  1.00  0.00     0.131 A 
ATOM     72  C   UNL A   1      36.796  33.363  35.060  1.00  0.00     0.055 A 
ATOM     73  C   UNL A   1      35.119  34.401  33.703  1.00  0.00     0.041 A 
ATOM     74  F   UNL A   1      35.189  34.205  31.372  1.00  0.00    -0.206 F 
ATOM     75  C   UNL A   1      35.640  34.127  34.964  1.00  0.00     0.022 A 
BRANCH  72  76
ATOM     76  S   UNL A   1      37.458  32.954  36.697  1.00  0.00     0.124 S 
ATOM     77  O   UNL A   1      36.423  33.483  37.579  1.00  0.00    -0.237 OA
ATOM     78  O   UNL A   1      37.547  31.498  36.621  1.00  0.00    -0.237 OA
ATOM     79  O   UNL A   1      38.740  33.650  36.731  1.00  0.00    -0.744 OA
ENDBRANCH  72  76
ENDBRANCH  55  69
BRANCH  56  80
ATOM     80  C   UNL A   1      45.269  31.099  33.983  1.00  0.00     0.023 A 
ATOM     81  C   UNL A   1      44.692  30.104  34.795  1.00  0.00     0.031 A 
ATOM     82  C   UNL A   1      46.351  31.821  34.517  1.00  0.00     0.131 A 
ATOM     83  C   UNL A   1      45.150  29.897  36.103  1.00  0.00     0.055 A 
ATOM     84  C   UNL A   1      46.817  31.602  35.819  1.00  0.00     0.041 A 
ATOM     85  F   UNL A   1      46.927  32.804  33.808  1.00  0.00    -0.206 F 
ATOM     86  C   UNL A   1      46.205  30.647  36.626  1.00  0.00     0.022 A 
BRANCH  83  87
ATOM     87  S   UNL A   1      44.327  28.685  37.174  1.00  0.00     0.124 S 
ATOM     88  O   UNL A   1      44.926  28.963  38.479  1.00  0.00    -0.237 OA
ATOM     89  O   UNL A   1      42.926  29.063  37.033  1.00  0.00    -0.237 OA
ATOM     90  O   UNL A   1      44.703  27.402  36.587  1.00  0.00    -0.744 OA
ENDBRANCH  83  87
ENDBRANCH  56  80
BRANCH  68  91
ATOM     91  C   UNL A   1      42.809  34.723  29.360  1.00  0.00     0.023 A 
ATOM     92  C   UNL A   1      43.268  33.570  28.705  1.00  0.00     0.031 A 
ATOM     93  C   UNL A   1      43.426  35.947  29.041  1.00  0.00     0.131 A 
ATOM     94  C   UNL A   1      44.341  33.648  27.810  1.00  0.00     0.055 A 
ATOM     95  C   UNL A   1      44.458  36.031  28.099  1.00  0.00     0.041 A 
ATOM     96  F   UNL A   1      43.114  37.075  29.692  1.00  0.00    -0.206 F 
ATOM     97  C   UNL A   1      44.932  34.874  27.491  1.00  0.00     0.022 A 
BRANCH  94  98
ATOM     98  S   UNL A   1      45.075  32.136  27.142  1.00  0.00     0.124 S 
ATOM     99  O   UNL A   1      43.961  31.193  27.206  1.00  0.00    -0.237 OA
ATOM    100  O   UNL A   1      45.464  32.554  25.796  1.00  0.00    -0.237 OA
ATOM    101  O   UNL A   1      46.184  31.850  28.046  1.00  0.00    -0.744 OA
ENDBRANCH  94  98
ENDBRANCH  68  91
ENDBRANCH  42  43
ENDBRANCH  35  37
ENDBRANCH  34  35
ENDBRANCH  33  34
ENDBRANCH  32  33
ENDBRANCH  31  32
ENDBRANCH  30  31
ENDBRANCH  29  30
ENDBRANCH   1  29
TORSDOF 26
ENDMDL
MODEL 3
REMARK VINA RESULT:      -9.2      3.137      8.145
REMARK SMILES Cc1ccc(N2CCC[C@@H](Cn3cc(C(=O)OCCOCCOCCOCCOC(=O)c4ccc(-c5c6nc(c(-c7cc(S(=O)(=O)[O-])ccc7F)c7ccc([nH]7)c(-c7cc(S(=O)(=O)[O-])ccc7F)c7nc(c(-c8cc(S(=O)(=O)[O-])ccc8F)c8ccc5[nH]8)C=C7)C=C6)cc4)nn3)C2)nn1
REMARK SMILES IDX 23 1 22 2 21 3 20 4 19 5 18 6 17 7 15 8 16 9 14 10 12 11
REMARK SMILES IDX 13 12 96 13 95 14 11 15 10 16 6 17 7 18 97 19 8 20 9 21 5 22
REMARK SMILES IDX 1 23 2 24 3 25 99 26 4 27 98 28 24 29 25 30 26 31 27 32
REMARK SMILES IDX 28 33 29 34 30 35 31 36 32 37 33 38 94 39 34 40 93 41 35 42
REMARK SMILES IDX 36 43 37 44 87 45 38 46 92 47 86 48 88 49 39 50 91 51 85 52
REMARK SMILES IDX 84 53 40 55 72 56 52 57 71 58 53 59 56 60 70 61 89 62 54 63
REMARK SMILES IDX 55 64 69 66 90 67 57 68 41 69 42 70 50 71 43 72 49 73 51 74
REMARK SMILES IDX 48 75 44 76 45 77 46 78 47 79 73 80 74 81 82 82 75 83 81 84
REMARK SMILES IDX 83 85 80 86 76 87 77 88 78 89 79 90 58 91 59 92 67 93 60 94
REMARK SMILES IDX 66 95 68 96 65 97 61 98 62 99 63 100 64 101
REMARK H PARENT 88 54 56 65
REMARK Flexibility Score: inf
ROOT
ATOM      1  O   UNL A   1      42.225  26.672  25.060  1.00  0.00    -0.377 OA
ENDROOT
BRANCH   1   2
ATOM      2  C   UNL A   1      41.717  25.494  25.653  1.00  0.00     0.188 C 
BRANCH   2   3
ATOM      3  C   UNL A   1      40.388  25.688  26.418  1.00  0.00     0.188 C 
BRANCH   3   4
ATOM      4  O   UNL A   1      39.695  24.615  27.050  1.00  0.00    -0.376 OA
BRANCH   4   5
ATOM      5  C   UNL A   1      39.201  23.483  26.351  1.00  0.00     0.202 C 
BRANCH   5   6
ATOM      6  C   UNL A   1      37.708  23.295  26.051  1.00  0.00     0.261 C 
BRANCH   6   7
ATOM      7  O   UNL A   1      37.412  22.511  24.900  1.00  0.00    -0.458 OA
BRANCH   7   8
ATOM      8  C   UNL A   1      36.475  23.043  24.064  1.00  0.00     0.360 C 
ATOM      9  O   UNL A   1      36.650  23.280  22.882  1.00  0.00    -0.244 OA
BRANCH   8  10
ATOM     10  C   UNL A   1      35.199  23.199  24.744  1.00  0.00     0.190 A 
ATOM     11  N   UNL A   1      33.430  23.964  25.703  1.00  0.00    -0.251 N 
ATOM     12  C   UNL A   1      34.727  24.291  25.446  1.00  0.00     0.146 A 
ATOM     13  N   UNL A   1      33.220  22.650  25.502  1.00  0.00    -0.067 NA
ATOM     14  N   UNL A   1      34.273  22.186  24.842  1.00  0.00    -0.123 NA
BRANCH  11  15
ATOM     15  C   UNL A   1      32.305  24.877  25.675  1.00  0.00     0.151 C 
BRANCH  15  16
ATOM     16  C   UNL A   1      32.676  26.259  25.083  1.00  0.00     0.030 C 
ATOM     17  N   UNL A   1      31.831  28.380  24.230  1.00  0.00    -0.355 N 
ATOM     18  C   UNL A   1      32.483  29.192  25.250  1.00  0.00     0.118 C 
ATOM     19  C   UNL A   1      31.419  27.059  24.684  1.00  0.00     0.123 C 
ATOM     20  C   UNL A   1      33.819  28.523  25.560  1.00  0.00     0.022 C 
ATOM     21  C   UNL A   1      33.613  27.077  26.009  1.00  0.00     0.009 C 
BRANCH  17  22
ATOM     22  C   UNL A   1      30.858  29.055  23.493  1.00  0.00     0.151 A 
ATOM     23  C   UNL A   1      28.060  31.303  21.265  1.00  0.00     0.069 C 
ATOM     24  C   UNL A   1      29.015  30.502  22.091  1.00  0.00     0.060 A 
ATOM     25  C   UNL A   1      29.251  30.830  23.414  1.00  0.00     0.029 A 
ATOM     26  N   UNL A   1      29.676  29.487  21.493  1.00  0.00    -0.154 NA
ATOM     27  C   UNL A   1      30.178  30.084  24.126  1.00  0.00     0.051 A 
ATOM     28  N   UNL A   1      30.608  28.764  22.201  1.00  0.00    -0.133 NA
ENDBRANCH  17  22
ENDBRANCH  15  16
ENDBRANCH  11  15
ENDBRANCH   8  10
ENDBRANCH   7   8
ENDBRANCH   6   7
ENDBRANCH   5   6
ENDBRANCH   4   5
ENDBRANCH   3   4
ENDBRANCH   2   3
ENDBRANCH   1   2
BRANCH   1  29
ATOM     29  C   UNL A   1      43.398  27.208  25.670  1.00  0.00     0.188 C 
BRANCH  29  30
ATOM     30  C   UNL A   1      44.609  26.262  25.913  1.00  0.00     0.188 C 
BRANCH  30  31
ATOM     31  O   UNL A   1      45.867  26.914  26.047  1.00  0.00    -0.376 OA
BRANCH  31  32
ATOM     32  C   UNL A   1      46.586  26.958  27.270  1.00  0.00     0.202 C 
BRANCH  32  33
ATOM     33  C   UNL A   1      45.865  27.450  28.529  1.00  0.00     0.261 C 
BRANCH  33  34
ATOM     34  O   UNL A   1      46.017  26.588  29.637  1.00  0.00    -0.460 OA
BRANCH  34  35
ATOM     35  C   UNL A   1      45.100  25.601  29.671  1.00  0.00     0.338 C 
ATOM     36  O   UNL A   1      45.219  24.475  29.226  1.00  0.00    -0.246 OA
BRANCH  35  37
ATOM     37  C   UNL A   1      43.880  26.122  30.292  1.00  0.00     0.060 A 
ATOM     38  C   UNL A   1      42.795  26.196  29.426  1.00  0.00     0.016 A 
ATOM     39  C   UNL A   1      44.045  26.973  31.396  1.00  0.00     0.016 A 
ATOM     40  C   UNL A   1      42.127  27.388  29.404  1.00  0.00     0.010 A 
ATOM     41  C   UNL A   1      43.375  28.164  31.371  1.00  0.00     0.010 A 
ATOM     42  C   UNL A   1      42.538  28.395  30.290  1.00  0.00    -0.014 A 
BRANCH  42  43
ATOM     43  C   UNL A   1      42.028  29.715  30.048  1.00  0.00     0.031 A 
ATOM     44  C   UNL A   1      43.061  30.601  29.504  1.00  0.00     0.074 A 
ATOM     45  C   UNL A   1      40.770  30.085  30.335  1.00  0.00     0.049 A 
ATOM     46  N   UNL A   1      43.807  31.407  30.178  1.00  0.00    -0.248 NA
ATOM     47  C   UNL A   1      43.488  30.368  28.121  1.00  0.00     0.031 C 
ATOM     48  C   UNL A   1      39.588  29.282  30.646  1.00  0.00     0.029 A 
ATOM     49  N   UNL A   1      40.294  31.352  30.359  1.00  0.00    -0.354 N 
ATOM     50  C   UNL A   1      44.677  31.952  29.251  1.00  0.00     0.074 A 
ATOM     51  C   UNL A   1      44.582  31.127  28.070  1.00  0.00     0.031 C 
ATOM     52  C   UNL A   1      38.490  30.078  30.606  1.00  0.00     0.029 A 
ATOM     53  C   UNL A   1      38.918  31.457  30.432  1.00  0.00     0.049 A 
ATOM     54  H   UNL A   1      40.884  32.140  30.328  1.00  0.00     0.167 HD
ATOM     55  C   UNL A   1      45.227  33.181  29.436  1.00  0.00     0.034 A 
ATOM     56  C   UNL A   1      38.216  32.607  30.274  1.00  0.00     0.034 A 
ATOM     57  C   UNL A   1      45.045  33.648  30.784  1.00  0.00     0.049 A 
ATOM     58  C   UNL A   1      39.155  33.731  30.555  1.00  0.00     0.074 A 
ATOM     59  C   UNL A   1      45.502  33.238  32.020  1.00  0.00     0.029 A 
ATOM     60  N   UNL A   1      43.955  34.451  31.026  1.00  0.00    -0.354 N 
ATOM     61  N   UNL A   1      39.645  33.976  31.741  1.00  0.00    -0.248 NA
ATOM     62  C   UNL A   1      39.920  34.273  29.440  1.00  0.00     0.031 C 
ATOM     63  C   UNL A   1      44.408  33.446  32.909  1.00  0.00     0.029 A 
ATOM     64  C   UNL A   1      43.360  34.016  32.183  1.00  0.00     0.049 A 
ATOM     65  H   UNL A   1      43.654  35.203  30.468  1.00  0.00     0.167 HD
ATOM     66  C   UNL A   1      40.972  34.315  31.511  1.00  0.00     0.074 A 
ATOM     67  C   UNL A   1      41.062  34.558  30.073  1.00  0.00     0.031 C 
ATOM     68  C   UNL A   1      41.936  34.089  32.451  1.00  0.00     0.034 A 
BRANCH  55  69
ATOM     69  C   UNL A   1      45.589  34.085  28.296  1.00  0.00     0.023 A 
ATOM     70  C   UNL A   1      46.922  34.269  27.882  1.00  0.00     0.031 A 
ATOM     71  C   UNL A   1      44.597  34.612  27.455  1.00  0.00     0.131 A 
ATOM     72  C   UNL A   1      47.240  34.979  26.723  1.00  0.00     0.055 A 
ATOM     73  C   UNL A   1      44.910  35.261  26.255  1.00  0.00     0.041 A 
ATOM     74  F   UNL A   1      43.294  34.465  27.749  1.00  0.00    -0.206 F 
ATOM     75  C   UNL A   1      46.237  35.452  25.886  1.00  0.00     0.022 A 
BRANCH  72  76
ATOM     76  S   UNL A   1      48.975  35.265  26.282  1.00  0.00     0.124 S 
ATOM     77  O   UNL A   1      49.673  34.447  27.268  1.00  0.00    -0.237 OA
ATOM     78  O   UNL A   1      49.012  34.776  24.907  1.00  0.00    -0.237 OA
ATOM     79  O   UNL A   1      49.132  36.709  26.428  1.00  0.00    -0.744 OA
ENDBRANCH  72  76
ENDBRANCH  55  69
BRANCH  56  80
ATOM     80  C   UNL A   1      37.065  32.775  29.352  1.00  0.00     0.023 A 
ATOM     81  C   UNL A   1      36.074  33.737  29.626  1.00  0.00     0.031 A 
ATOM     82  C   UNL A   1      36.765  31.796  28.389  1.00  0.00     0.131 A 
ATOM     83  C   UNL A   1      34.822  33.669  29.003  1.00  0.00     0.055 A 
ATOM     84  C   UNL A   1      35.517  31.738  27.755  1.00  0.00     0.041 A 
ATOM     85  F   UNL A   1      37.653  30.832  28.101  1.00  0.00    -0.206 F 
ATOM     86  C   UNL A   1      34.532  32.668  28.073  1.00  0.00     0.022 A 
BRANCH  83  87
ATOM     87  S   UNL A   1      33.519  34.851  29.446  1.00  0.00     0.124 S 
ATOM     88  O   UNL A   1      32.371  34.349  28.692  1.00  0.00    -0.237 OA
ATOM     89  O   UNL A   1      33.442  34.684  30.892  1.00  0.00    -0.237 OA
ATOM     90  O   UNL A   1      34.047  36.130  28.980  1.00  0.00    -0.744 OA
ENDBRANCH  83  87
ENDBRANCH  56  80
BRANCH  68  91
ATOM     91  C   UNL A   1      41.507  33.649  33.831  1.00  0.00     0.023 A 
ATOM     92  C   UNL A   1      40.781  32.452  33.923  1.00  0.00     0.031 A 
ATOM     93  C   UNL A   1      41.568  34.468  34.974  1.00  0.00     0.131 A 
ATOM     94  C   UNL A   1      40.102  32.128  35.103  1.00  0.00     0.055 A 
ATOM     95  C   UNL A   1      40.938  34.111  36.173  1.00  0.00     0.041 A 
ATOM     96  F   UNL A   1      42.156  35.670  34.940  1.00  0.00    -0.206 F 
ATOM     97  C   UNL A   1      40.185  32.943  36.235  1.00  0.00     0.022 A 
BRANCH  94  98
ATOM     98  S   UNL A   1      38.988  30.704  35.145  1.00  0.00     0.124 S 
ATOM     99  O   UNL A   1      38.995  30.260  33.754  1.00  0.00    -0.237 OA
ATOM    100  O   UNL A   1      39.664  29.815  36.089  1.00  0.00    -0.237 OA
ATOM    101  O   UNL A   1      37.721  31.258  35.614  1.00  0.00    -0.744 OA
ENDBRANCH  94  98
ENDBRANCH  68  91
ENDBRANCH  42  43
ENDBRANCH  35  37
ENDBRANCH  34  35
ENDBRANCH  33  34
ENDBRANCH  32  33
ENDBRANCH  31  32
ENDBRANCH  30  31
ENDBRANCH  29  30
ENDBRANCH   1  29
TORSDOF 26
ENDMDL
