MODEL 1
REMARK VINA RESULT:      -9.2      0.000      0.000
REMARK SMILES CCCC[C@H]1C(=S)c2cc(C(=O)OCCOCCOCCOCCOC(=O)c3ccc(-c4c5nc(c(-c6cc(S(=O)(=O)[O-])ccc6F)c6ccc([nH]6)c(-c6cc(S(=O)(=O)[O-])ccc6F)c6nc(c(-c7cc(S(=O)(=O)[O-])ccc7F)c7ccc4[nH]7)C=C6)C=C5)cc3)ccc2N=C1C
REMARK SMILES IDX 19 1 18 2 17 3 16 4 15 5 14 6 13 7 11 8 12 9 10 10 5 11 6 12
REMARK SMILES IDX 95 13 7 14 8 15 94 16 96 17 9 18 93 19 92 20 91 21 4 22 3 23
REMARK SMILES IDX 2 24 1 25 20 26 21 27 22 28 23 29 24 30 25 31 26 32 27 33
REMARK SMILES IDX 28 34 29 35 90 36 30 37 89 38 31 39 32 40 33 41 83 42 34 43
REMARK SMILES IDX 88 44 82 45 84 46 35 47 87 48 81 49 80 50 36 52 68 53 48 54
REMARK SMILES IDX 67 55 49 56 52 57 66 58 85 59 50 60 51 61 65 63 86 64 53 65
REMARK SMILES IDX 37 66 38 67 46 68 39 69 45 70 47 71 44 72 40 73 41 74 42 75
REMARK SMILES IDX 43 76 69 77 70 78 78 79 71 80 77 81 79 82 76 83 72 84 73 85
REMARK SMILES IDX 74 86 75 87 54 88 55 89 63 90 56 91 62 92 64 93 61 94 57 95
REMARK SMILES IDX 58 96 59 97 60 98
REMARK H PARENT 84 51 52 62
REMARK Flexibility Score: inf
ROOT
ATOM      1  O   UNL A   1      35.846  30.560  28.042  1.00  0.00    -0.377 OA
ENDROOT
BRANCH   1   2
ATOM      2  C   UNL A   1      35.622  29.351  27.344  1.00  0.00     0.188 C 
BRANCH   2   3
ATOM      3  C   UNL A   1      34.217  29.200  26.735  1.00  0.00     0.188 C 
BRANCH   3   4
ATOM      4  O   UNL A   1      33.174  29.339  27.693  1.00  0.00    -0.376 OA
BRANCH   4   5
ATOM      5  C   UNL A   1      31.840  29.366  27.204  1.00  0.00     0.202 C 
BRANCH   5   6
ATOM      6  C   UNL A   1      31.490  30.400  26.122  1.00  0.00     0.261 C 
BRANCH   6   7
ATOM      7  O   UNL A   1      31.741  29.999  24.768  1.00  0.00    -0.460 OA
BRANCH   7   8
ATOM      8  C   UNL A   1      30.750  29.363  24.119  1.00  0.00     0.338 C 
ATOM      9  O   UNL A   1      29.672  29.817  23.778  1.00  0.00    -0.246 OA
BRANCH   8  10
ATOM     10  C   UNL A   1      31.273  28.056  23.669  1.00  0.00     0.060 A 
ATOM     11  C   UNL A   1      33.810  24.094  24.891  1.00  0.00     0.075 C 
ATOM     12  C   UNL A   1      32.568  24.882  25.260  1.00  0.00     0.033 C 
ATOM     13  C   UNL A   1      33.907  23.855  23.392  1.00  0.00     0.024 C 
ATOM     14  S   UNL A   1      31.729  24.546  26.684  1.00  0.00    -0.083 S 
ATOM     15  C   UNL A   1      32.144  25.884  24.267  1.00  0.00     0.016 A 
ATOM     16  N   UNL A   1      33.249  24.543  22.510  1.00  0.00    -0.257 NA
ATOM     17  C   UNL A   1      34.842  22.782  22.896  1.00  0.00     0.062 C 
ATOM     18  C   UNL A   1      31.576  27.104  24.647  1.00  0.00     0.027 A 
ATOM     19  C   UNL A   1      32.461  25.627  22.927  1.00  0.00     0.071 A 
ATOM     20  C   UNL A   1      32.049  26.545  21.954  1.00  0.00     0.030 A 
ATOM     21  C   UNL A   1      31.450  27.757  22.316  1.00  0.00     0.018 A 
BRANCH  11  22
ATOM     22  C   UNL A   1      35.104  24.662  25.509  1.00  0.00     0.015 C 
BRANCH  22  23
ATOM     23  C   UNL A   1      36.147  23.699  26.102  1.00  0.00     0.001 C 
BRANCH  23  24
ATOM     24  C   UNL A   1      37.571  23.700  25.537  1.00  0.00    -0.003 C 
ATOM     25  C   UNL A   1      38.586  22.846  26.276  1.00  0.00     0.004 C 
ENDBRANCH  23  24
ENDBRANCH  22  23
ENDBRANCH  11  22
ENDBRANCH   8  10
ENDBRANCH   7   8
ENDBRANCH   6   7
ENDBRANCH   5   6
ENDBRANCH   4   5
ENDBRANCH   3   4
ENDBRANCH   2   3
ENDBRANCH   1   2
BRANCH   1  26
ATOM     26  C   UNL A   1      35.124  31.726  27.651  1.00  0.00     0.188 C 
BRANCH  26  27
ATOM     27  C   UNL A   1      35.544  33.157  28.068  1.00  0.00     0.188 C 
BRANCH  27  28
ATOM     28  O   UNL A   1      34.677  34.198  27.630  1.00  0.00    -0.376 OA
BRANCH  28  29
ATOM     29  C   UNL A   1      33.342  34.164  28.109  1.00  0.00     0.202 C 
BRANCH  29  30
ATOM     30  C   UNL A   1      32.952  35.368  28.972  1.00  0.00     0.261 C 
BRANCH  30  31
ATOM     31  O   UNL A   1      32.503  35.053  30.297  1.00  0.00    -0.460 OA
BRANCH  31  32
ATOM     32  C   UNL A   1      33.148  35.632  31.336  1.00  0.00     0.338 C 
ATOM     33  O   UNL A   1      32.784  36.602  31.977  1.00  0.00    -0.246 OA
BRANCH  32  34
ATOM     34  C   UNL A   1      34.283  34.751  31.686  1.00  0.00     0.060 A 
ATOM     35  C   UNL A   1      35.569  35.056  31.233  1.00  0.00     0.016 A 
ATOM     36  C   UNL A   1      34.044  33.581  32.418  1.00  0.00     0.016 A 
ATOM     37  C   UNL A   1      36.625  34.196  31.534  1.00  0.00     0.010 A 
ATOM     38  C   UNL A   1      35.104  32.718  32.713  1.00  0.00     0.010 A 
ATOM     39  C   UNL A   1      36.406  33.032  32.292  1.00  0.00    -0.014 A 
BRANCH  39  40
ATOM     40  C   UNL A   1      37.572  32.276  32.809  1.00  0.00     0.031 A 
ATOM     41  C   UNL A   1      38.193  31.140  32.060  1.00  0.00     0.074 A 
ATOM     42  C   UNL A   1      38.072  32.659  34.000  1.00  0.00     0.049 A 
ATOM     43  N   UNL A   1      39.287  30.481  32.342  1.00  0.00    -0.248 NA
ATOM     44  C   UNL A   1      37.502  30.674  30.850  1.00  0.00     0.031 C 
ATOM     45  C   UNL A   1      37.511  33.727  34.829  1.00  0.00     0.029 A 
ATOM     46  N   UNL A   1      39.153  32.212  34.716  1.00  0.00    -0.354 N 
ATOM     47  C   UNL A   1      39.437  29.535  31.335  1.00  0.00     0.074 A 
ATOM     48  C   UNL A   1      38.288  29.674  30.462  1.00  0.00     0.031 C 
ATOM     49  C   UNL A   1      38.267  33.871  35.925  1.00  0.00     0.029 A 
ATOM     50  C   UNL A   1      39.349  32.891  35.895  1.00  0.00     0.049 A 
ATOM     51  H   UNL A   1      39.734  31.476  34.414  1.00  0.00     0.167 HD
ATOM     52  C   UNL A   1      40.451  28.652  31.157  1.00  0.00     0.034 A 
ATOM     53  C   UNL A   1      40.296  32.752  36.844  1.00  0.00     0.034 A 
ATOM     54  C   UNL A   1      41.576  28.526  32.053  1.00  0.00     0.049 A 
ATOM     55  C   UNL A   1      41.405  31.758  36.625  1.00  0.00     0.074 A 
ATOM     56  C   UNL A   1      42.681  27.700  31.924  1.00  0.00     0.029 A 
ATOM     57  N   UNL A   1      41.743  29.223  33.242  1.00  0.00    -0.354 N 
ATOM     58  N   UNL A   1      41.602  30.958  35.602  1.00  0.00    -0.248 NA
ATOM     59  C   UNL A   1      42.434  31.660  37.667  1.00  0.00     0.031 C 
ATOM     60  C   UNL A   1      43.472  27.841  33.064  1.00  0.00     0.029 A 
ATOM     61  C   UNL A   1      42.912  28.819  33.870  1.00  0.00     0.049 A 
ATOM     62  H   UNL A   1      41.124  29.905  33.588  1.00  0.00     0.167 HD
ATOM     63  C   UNL A   1      42.791  30.283  35.867  1.00  0.00     0.074 A 
ATOM     64  C   UNL A   1      43.281  30.789  37.131  1.00  0.00     0.031 C 
ATOM     65  C   UNL A   1      43.412  29.331  35.126  1.00  0.00     0.034 A 
BRANCH  52  66
ATOM     66  C   UNL A   1      40.440  27.762  29.936  1.00  0.00     0.023 A 
ATOM     67  C   UNL A   1      41.290  28.040  28.848  1.00  0.00     0.031 A 
ATOM     68  C   UNL A   1      39.470  26.757  29.778  1.00  0.00     0.131 A 
ATOM     69  C   UNL A   1      41.120  27.356  27.637  1.00  0.00     0.055 A 
ATOM     70  C   UNL A   1      39.333  26.048  28.583  1.00  0.00     0.041 A 
ATOM     71  F   UNL A   1      38.627  26.458  30.781  1.00  0.00    -0.206 F 
ATOM     72  C   UNL A   1      40.151  26.358  27.501  1.00  0.00     0.022 A 
BRANCH  69  73
ATOM     73  S   UNL A   1      42.092  27.789  26.166  1.00  0.00     0.124 S 
ATOM     74  O   UNL A   1      41.688  29.175  25.938  1.00  0.00    -0.237 OA
ATOM     75  O   UNL A   1      43.460  27.607  26.639  1.00  0.00    -0.237 OA
ATOM     76  O   UNL A   1      41.640  26.838  25.156  1.00  0.00    -0.744 OA
ENDBRANCH  69  73
ENDBRANCH  52  66
BRANCH  53  77
ATOM     77  C   UNL A   1      40.258  33.652  38.034  1.00  0.00     0.023 A 
ATOM     78  C   UNL A   1      39.474  33.326  39.157  1.00  0.00     0.031 A 
ATOM     79  C   UNL A   1      40.899  34.901  38.014  1.00  0.00     0.131 A 
ATOM     80  C   UNL A   1      39.296  34.268  40.177  1.00  0.00     0.055 A 
ATOM     81  C   UNL A   1      40.778  35.806  39.069  1.00  0.00     0.041 A 
ATOM     82  F   UNL A   1      41.640  35.264  36.955  1.00  0.00    -0.206 F 
ATOM     83  C   UNL A   1      39.958  35.499  40.150  1.00  0.00     0.022 A 
BRANCH  80  84
ATOM     84  S   UNL A   1      38.083  33.987  41.498  1.00  0.00     0.124 S 
ATOM     85  O   UNL A   1      38.914  33.434  42.562  1.00  0.00    -0.237 OA
ATOM     86  O   UNL A   1      37.575  35.338  41.729  1.00  0.00    -0.237 OA
ATOM     87  O   UNL A   1      37.127  33.062  40.896  1.00  0.00    -0.744 OA
ENDBRANCH  80  84
ENDBRANCH  53  77
BRANCH  65  88
ATOM     88  C   UNL A   1      44.711  28.748  35.637  1.00  0.00     0.023 A 
ATOM     89  C   UNL A   1      44.692  27.626  36.490  1.00  0.00     0.031 A 
ATOM     90  C   UNL A   1      45.943  29.383  35.408  1.00  0.00     0.131 A 
ATOM     91  C   UNL A   1      45.872  27.203  37.115  1.00  0.00     0.055 A 
ATOM     92  C   UNL A   1      47.126  28.924  35.990  1.00  0.00     0.041 A 
ATOM     93  F   UNL A   1      46.017  30.464  34.614  1.00  0.00    -0.206 F 
ATOM     94  C   UNL A   1      47.091  27.840  36.862  1.00  0.00     0.022 A 
BRANCH  91  95
ATOM     95  S   UNL A   1      45.855  25.876  38.352  1.00  0.00     0.124 S 
ATOM     96  O   UNL A   1      46.944  25.019  37.891  1.00  0.00    -0.237 OA
ATOM     97  O   UNL A   1      46.118  26.606  39.590  1.00  0.00    -0.237 OA
ATOM     98  O   UNL A   1      44.519  25.301  38.234  1.00  0.00    -0.744 OA
ENDBRANCH  91  95
ENDBRANCH  65  88
ENDBRANCH  39  40
ENDBRANCH  32  34
ENDBRANCH  31  32
ENDBRANCH  30  31
ENDBRANCH  29  30
ENDBRANCH  28  29
ENDBRANCH  27  28
ENDBRANCH  26  27
ENDBRANCH   1  26
TORSDOF 26
ENDMDL
MODEL 2
REMARK VINA RESULT:      -8.7      5.480     10.911
REMARK SMILES CCCC[C@H]1C(=S)c2cc(C(=O)OCCOCCOCCOCCOC(=O)c3ccc(-c4c5nc(c(-c6cc(S(=O)(=O)[O-])ccc6F)c6ccc([nH]6)c(-c6cc(S(=O)(=O)[O-])ccc6F)c6nc(c(-c7cc(S(=O)(=O)[O-])ccc7F)c7ccc4[nH]7)C=C6)C=C5)cc3)ccc2N=C1C
REMARK SMILES IDX 19 1 18 2 17 3 16 4 15 5 14 6 13 7 11 8 12 9 10 10 5 11 6 12
REMARK SMILES IDX 95 13 7 14 8 15 94 16 96 17 9 18 93 19 92 20 91 21 4 22 3 23
REMARK SMILES IDX 2 24 1 25 20 26 21 27 22 28 23 29 24 30 25 31 26 32 27 33
REMARK SMILES IDX 28 34 29 35 90 36 30 37 89 38 31 39 32 40 33 41 83 42 34 43
REMARK SMILES IDX 88 44 82 45 84 46 35 47 87 48 81 49 80 50 36 52 68 53 48 54
REMARK SMILES IDX 67 55 49 56 52 57 66 58 85 59 50 60 51 61 65 63 86 64 53 65
REMARK SMILES IDX 37 66 38 67 46 68 39 69 45 70 47 71 44 72 40 73 41 74 42 75
REMARK SMILES IDX 43 76 69 77 70 78 78 79 71 80 77 81 79 82 76 83 72 84 73 85
REMARK SMILES IDX 74 86 75 87 54 88 55 89 63 90 56 91 62 92 64 93 61 94 57 95
REMARK SMILES IDX 58 96 59 97 60 98
REMARK H PARENT 84 51 52 62
REMARK Flexibility Score: inf
ROOT
ATOM      1  O   UNL A   1      32.465  23.470  23.757  1.00  0.00    -0.377 OA
ENDROOT
BRANCH   1   2
ATOM      2  C   UNL A   1      31.082  23.648  23.518  1.00  0.00     0.188 C 
BRANCH   2   3
ATOM      3  C   UNL A   1      30.570  25.088  23.693  1.00  0.00     0.188 C 
BRANCH   3   4
ATOM      4  O   UNL A   1      31.359  26.051  23.003  1.00  0.00    -0.376 OA
BRANCH   4   5
ATOM      5  C   UNL A   1      31.968  27.074  23.780  1.00  0.00     0.202 C 
BRANCH   5   6
ATOM      6  C   UNL A   1      33.365  26.801  24.361  1.00  0.00     0.261 C 
BRANCH   6   7
ATOM      7  O   UNL A   1      33.441  26.705  25.789  1.00  0.00    -0.460 OA
BRANCH   7   8
ATOM      8  C   UNL A   1      32.449  27.269  26.500  1.00  0.00     0.338 C 
ATOM      9  O   UNL A   1      31.481  26.717  26.994  1.00  0.00    -0.246 OA
BRANCH   8  10
ATOM     10  C   UNL A   1      32.838  28.664  26.790  1.00  0.00     0.060 A 
ATOM     11  C   UNL A   1      35.946  31.575  29.134  1.00  0.00     0.075 C 
ATOM     12  C   UNL A   1      35.887  30.490  28.077  1.00  0.00     0.033 C 
ATOM     13  C   UNL A   1      34.906  32.659  28.895  1.00  0.00     0.024 C 
ATOM     14  S   UNL A   1      37.299  29.752  27.522  1.00  0.00    -0.083 S 
ATOM     15  C   UNL A   1      34.541  30.197  27.554  1.00  0.00     0.016 A 
ATOM     16  N   UNL A   1      33.864  32.501  28.138  1.00  0.00    -0.257 NA
ATOM     17  C   UNL A   1      35.072  33.981  29.600  1.00  0.00     0.062 C 
ATOM     18  C   UNL A   1      34.155  28.902  27.197  1.00  0.00     0.027 A 
ATOM     19  C   UNL A   1      33.612  31.246  27.560  1.00  0.00     0.071 A 
ATOM     20  C   UNL A   1      32.333  31.011  27.046  1.00  0.00     0.030 A 
ATOM     21  C   UNL A   1      31.941  29.726  26.654  1.00  0.00     0.018 A 
BRANCH  11  22
ATOM     22  C   UNL A   1      35.946  31.028  30.576  1.00  0.00     0.015 C 
BRANCH  22  23
ATOM     23  C   UNL A   1      37.164  30.241  31.089  1.00  0.00     0.001 C 
BRANCH  23  24
ATOM     24  C   UNL A   1      36.943  29.039  32.010  1.00  0.00    -0.003 C 
ATOM     25  C   UNL A   1      38.166  28.189  32.310  1.00  0.00     0.004 C 
ENDBRANCH  23  24
ENDBRANCH  22  23
ENDBRANCH  11  22
ENDBRANCH   8  10
ENDBRANCH   7   8
ENDBRANCH   6   7
ENDBRANCH   5   6
ENDBRANCH   4   5
ENDBRANCH   3   4
ENDBRANCH   2   3
ENDBRANCH   1   2
BRANCH   1  26
ATOM     26  C   UNL A   1      32.903  23.171  25.080  1.00  0.00     0.188 C 
BRANCH  26  27
ATOM     27  C   UNL A   1      34.379  22.863  25.432  1.00  0.00     0.188 C 
BRANCH  27  28
ATOM     28  O   UNL A   1      34.899  21.659  24.880  1.00  0.00    -0.376 OA
BRANCH  28  29
ATOM     29  C   UNL A   1      36.196  21.269  25.301  1.00  0.00     0.202 C 
BRANCH  29  30
ATOM     30  C   UNL A   1      37.265  22.354  25.135  1.00  0.00     0.261 C 
BRANCH  30  31
ATOM     31  O   UNL A   1      37.944  22.735  26.339  1.00  0.00    -0.460 OA
BRANCH  31  32
ATOM     32  C   UNL A   1      39.249  22.399  26.460  1.00  0.00     0.338 C 
ATOM     33  O   UNL A   1      39.768  21.343  26.145  1.00  0.00    -0.246 OA
BRANCH  32  34
ATOM     34  C   UNL A   1      39.974  23.625  26.858  1.00  0.00     0.060 A 
ATOM     35  C   UNL A   1      40.839  23.600  27.955  1.00  0.00     0.016 A 
ATOM     36  C   UNL A   1      39.737  24.820  26.165  1.00  0.00     0.016 A 
ATOM     37  C   UNL A   1      41.486  24.771  28.346  1.00  0.00     0.010 A 
ATOM     38  C   UNL A   1      40.384  25.993  26.564  1.00  0.00     0.010 A 
ATOM     39  C   UNL A   1      41.280  25.972  27.644  1.00  0.00    -0.014 A 
BRANCH  39  40
ATOM     40  C   UNL A   1      42.164  27.130  27.918  1.00  0.00     0.031 A 
ATOM     41  C   UNL A   1      41.742  28.281  28.777  1.00  0.00     0.074 A 
ATOM     42  C   UNL A   1      43.391  27.112  27.363  1.00  0.00     0.049 A 
ATOM     43  N   UNL A   1      42.461  29.291  29.195  1.00  0.00    -0.248 NA
ATOM     44  C   UNL A   1      40.341  28.314  29.218  1.00  0.00     0.031 C 
ATOM     45  C   UNL A   1      43.881  26.056  26.475  1.00  0.00     0.029 A 
ATOM     46  N   UNL A   1      44.444  27.984  27.461  1.00  0.00    -0.354 N 
ATOM     47  C   UNL A   1      41.612  30.073  29.969  1.00  0.00     0.074 A 
ATOM     48  C   UNL A   1      40.308  29.443  29.919  1.00  0.00     0.031 C 
ATOM     49  C   UNL A   1      45.147  26.329  26.131  1.00  0.00     0.029 A 
ATOM     50  C   UNL A   1      45.552  27.588  26.749  1.00  0.00     0.049 A 
ATOM     51  H   UNL A   1      44.411  28.813  27.991  1.00  0.00     0.167 HD
ATOM     52  C   UNL A   1      41.910  31.197  30.666  1.00  0.00     0.034 A 
ATOM     53  C   UNL A   1      46.763  28.164  26.613  1.00  0.00     0.034 A 
ATOM     54  C   UNL A   1      43.217  31.811  30.685  1.00  0.00     0.049 A 
ATOM     55  C   UNL A   1      47.063  29.418  27.391  1.00  0.00     0.074 A 
ATOM     56  C   UNL A   1      43.628  32.919  31.407  1.00  0.00     0.029 A 
ATOM     57  N   UNL A   1      44.317  31.391  29.949  1.00  0.00    -0.354 N 
ATOM     58  N   UNL A   1      46.288  30.076  28.222  1.00  0.00    -0.248 NA
ATOM     59  C   UNL A   1      48.404  29.996  27.240  1.00  0.00     0.031 C 
ATOM     60  C   UNL A   1      44.945  33.212  31.053  1.00  0.00     0.029 A 
ATOM     61  C   UNL A   1      45.391  32.238  30.174  1.00  0.00     0.049 A 
ATOM     62  H   UNL A   1      44.332  30.606  29.356  1.00  0.00     0.167 HD
ATOM     63  C   UNL A   1      47.057  31.129  28.711  1.00  0.00     0.074 A 
ATOM     64  C   UNL A   1      48.365  31.002  28.105  1.00  0.00     0.031 C 
ATOM     65  C   UNL A   1      46.704  32.108  29.581  1.00  0.00     0.034 A 
BRANCH  52  66
ATOM     66  C   UNL A   1      40.834  31.844  31.507  1.00  0.00     0.023 A 
ATOM     67  C   UNL A   1      40.600  31.400  32.823  1.00  0.00     0.031 A 
ATOM     68  C   UNL A   1      39.930  32.764  30.948  1.00  0.00     0.131 A 
ATOM     69  C   UNL A   1      39.464  31.840  33.516  1.00  0.00     0.055 A 
ATOM     70  C   UNL A   1      38.824  33.233  31.659  1.00  0.00     0.041 A 
ATOM     71  F   UNL A   1      40.101  33.213  29.693  1.00  0.00    -0.206 F 
ATOM     72  C   UNL A   1      38.579  32.758  32.944  1.00  0.00     0.022 A 
BRANCH  69  73
ATOM     73  S   UNL A   1      39.045  31.178  35.154  1.00  0.00     0.124 S 
ATOM     74  O   UNL A   1      39.771  32.087  36.038  1.00  0.00    -0.237 OA
ATOM     75  O   UNL A   1      37.592  31.315  35.176  1.00  0.00    -0.237 OA
ATOM     76  O   UNL A   1      39.551  29.811  35.119  1.00  0.00    -0.744 OA
ENDBRANCH  69  73
ENDBRANCH  52  66
BRANCH  53  77
ATOM     77  C   UNL A   1      47.789  27.489  25.765  1.00  0.00     0.023 A 
ATOM     78  C   UNL A   1      48.865  26.797  26.352  1.00  0.00     0.031 A 
ATOM     79  C   UNL A   1      47.776  27.632  24.369  1.00  0.00     0.131 A 
ATOM     80  C   UNL A   1      49.917  26.340  25.550  1.00  0.00     0.055 A 
ATOM     81  C   UNL A   1      48.791  27.108  23.567  1.00  0.00     0.041 A 
ATOM     82  F   UNL A   1      46.781  28.302  23.766  1.00  0.00    -0.206 F 
ATOM     83  C   UNL A   1      49.879  26.474  24.159  1.00  0.00     0.022 A 
BRANCH  80  84
ATOM     84  S   UNL A   1      51.438  25.690  26.298  1.00  0.00     0.124 S 
ATOM     85  O   UNL A   1      52.043  26.895  26.856  1.00  0.00    -0.237 OA
ATOM     86  O   UNL A   1      50.909  24.739  27.272  1.00  0.00    -0.237 OA
ATOM     87  O   UNL A   1      52.147  25.092  25.170  1.00  0.00    -0.744 OA
ENDBRANCH  80  84
ENDBRANCH  53  77
BRANCH  65  88
ATOM     88  C   UNL A   1      47.734  33.147  29.962  1.00  0.00     0.023 A 
ATOM     89  C   UNL A   1      48.509  32.978  31.127  1.00  0.00     0.031 A 
ATOM     90  C   UNL A   1      47.845  34.363  29.265  1.00  0.00     0.131 A 
ATOM     91  C   UNL A   1      49.322  34.023  31.584  1.00  0.00     0.055 A 
ATOM     92  C   UNL A   1      48.699  35.381  29.694  1.00  0.00     0.041 A 
ATOM     93  F   UNL A   1      47.121  34.583  28.155  1.00  0.00    -0.206 F 
ATOM     94  C   UNL A   1      49.430  35.220  30.868  1.00  0.00     0.022 A 
BRANCH  91  95
ATOM     95  S   UNL A   1      50.194  33.908  33.171  1.00  0.00     0.124 S 
ATOM     96  O   UNL A   1      51.562  34.252  32.789  1.00  0.00    -0.237 OA
ATOM     97  O   UNL A   1      49.502  34.911  33.976  1.00  0.00    -0.237 OA
ATOM     98  O   UNL A   1      49.994  32.524  33.584  1.00  0.00    -0.744 OA
ENDBRANCH  91  95
ENDBRANCH  65  88
ENDBRANCH  39  40
ENDBRANCH  32  34
ENDBRANCH  31  32
ENDBRANCH  30  31
ENDBRANCH  29  30
ENDBRANCH  28  29
ENDBRANCH  27  28
ENDBRANCH  26  27
ENDBRANCH   1  26
TORSDOF 26
ENDMDL
MODEL 3
REMARK VINA RESULT:      -8.7      5.496     11.363
REMARK SMILES CCCC[C@H]1C(=S)c2cc(C(=O)OCCOCCOCCOCCOC(=O)c3ccc(-c4c5nc(c(-c6cc(S(=O)(=O)[O-])ccc6F)c6ccc([nH]6)c(-c6cc(S(=O)(=O)[O-])ccc6F)c6nc(c(-c7cc(S(=O)(=O)[O-])ccc7F)c7ccc4[nH]7)C=C6)C=C5)cc3)ccc2N=C1C
REMARK SMILES IDX 19 1 18 2 17 3 16 4 15 5 14 6 13 7 11 8 12 9 10 10 5 11 6 12
REMARK SMILES IDX 95 13 7 14 8 15 94 16 96 17 9 18 93 19 92 20 91 21 4 22 3 23
REMARK SMILES IDX 2 24 1 25 20 26 21 27 22 28 23 29 24 30 25 31 26 32 27 33
REMARK SMILES IDX 28 34 29 35 90 36 30 37 89 38 31 39 32 40 33 41 83 42 34 43
REMARK SMILES IDX 88 44 82 45 84 46 35 47 87 48 81 49 80 50 36 52 68 53 48 54
REMARK SMILES IDX 67 55 49 56 52 57 66 58 85 59 50 60 51 61 65 63 86 64 53 65
REMARK SMILES IDX 37 66 38 67 46 68 39 69 45 70 47 71 44 72 40 73 41 74 42 75
REMARK SMILES IDX 43 76 69 77 70 78 78 79 71 80 77 81 79 82 76 83 72 84 73 85
REMARK SMILES IDX 74 86 75 87 54 88 55 89 63 90 56 91 62 92 64 93 61 94 57 95
REMARK SMILES IDX 58 96 59 97 60 98
REMARK H PARENT 84 51 52 62
REMARK Flexibility Score: inf
ROOT
ATOM      1  O   UNL A   1      32.439  23.551  23.780  1.00  0.00    -0.377 OA
ENDROOT
BRANCH   1   2
ATOM      2  C   UNL A   1      31.056  23.684  23.518  1.00  0.00     0.188 C 
BRANCH   2   3
ATOM      3  C   UNL A   1      30.478  25.089  23.762  1.00  0.00     0.188 C 
BRANCH   3   4
ATOM      4  O   UNL A   1      31.221  26.119  23.121  1.00  0.00    -0.376 OA
BRANCH   4   5
ATOM      5  C   UNL A   1      31.826  27.101  23.952  1.00  0.00     0.202 C 
BRANCH   5   6
ATOM      6  C   UNL A   1      33.240  26.818  24.487  1.00  0.00     0.261 C 
BRANCH   6   7
ATOM      7  O   UNL A   1      33.373  26.782  25.915  1.00  0.00    -0.460 OA
BRANCH   7   8
ATOM      8  C   UNL A   1      32.411  27.380  26.640  1.00  0.00     0.338 C 
ATOM      9  O   UNL A   1      31.455  26.856  27.183  1.00  0.00    -0.246 OA
BRANCH   8  10
ATOM     10  C   UNL A   1      32.827  28.778  26.874  1.00  0.00     0.060 A 
ATOM     11  C   UNL A   1      35.928  31.729  29.177  1.00  0.00     0.075 C 
ATOM     12  C   UNL A   1      35.876  30.593  28.173  1.00  0.00     0.033 C 
ATOM     13  C   UNL A   1      34.924  32.823  28.848  1.00  0.00     0.024 C 
ATOM     14  S   UNL A   1      37.287  29.795  27.705  1.00  0.00    -0.083 S 
ATOM     15  C   UNL A   1      34.541  30.307  27.619  1.00  0.00     0.016 A 
ATOM     16  N   UNL A   1      33.905  32.653  28.064  1.00  0.00    -0.257 NA
ATOM     17  C   UNL A   1      35.100  34.175  29.493  1.00  0.00     0.062 C 
ATOM     18  C   UNL A   1      34.134  29.005  27.313  1.00  0.00     0.027 A 
ATOM     19  C   UNL A   1      33.640  31.377  27.541  1.00  0.00     0.071 A 
ATOM     20  C   UNL A   1      32.373  31.146  26.995  1.00  0.00     0.030 A 
ATOM     21  C   UNL A   1      31.962  29.853  26.654  1.00  0.00     0.018 A 
BRANCH  11  22
ATOM     22  C   UNL A   1      35.865  31.256  30.644  1.00  0.00     0.015 C 
BRANCH  22  23
ATOM     23  C   UNL A   1      37.053  30.483  31.242  1.00  0.00     0.001 C 
BRANCH  23  24
ATOM     24  C   UNL A   1      37.000  28.953  31.291  1.00  0.00    -0.003 C 
ATOM     25  C   UNL A   1      38.183  28.261  31.946  1.00  0.00     0.004 C 
ENDBRANCH  23  24
ENDBRANCH  22  23
ENDBRANCH  11  22
ENDBRANCH   8  10
ENDBRANCH   7   8
ENDBRANCH   6   7
ENDBRANCH   5   6
ENDBRANCH   4   5
ENDBRANCH   3   4
ENDBRANCH   2   3
ENDBRANCH   1   2
BRANCH   1  26
ATOM     26  C   UNL A   1      32.862  23.215  25.100  1.00  0.00     0.188 C 
BRANCH  26  27
ATOM     27  C   UNL A   1      34.344  22.976  25.476  1.00  0.00     0.188 C 
BRANCH  27  28
ATOM     28  O   UNL A   1      34.955  21.847  24.861  1.00  0.00    -0.376 OA
BRANCH  28  29
ATOM     29  C   UNL A   1      36.271  21.522  25.281  1.00  0.00     0.202 C 
BRANCH  29  30
ATOM     30  C   UNL A   1      37.255  22.696  25.231  1.00  0.00     0.261 C 
BRANCH  30  31
ATOM     31  O   UNL A   1      37.939  22.973  26.460  1.00  0.00    -0.460 OA
BRANCH  31  32
ATOM     32  C   UNL A   1      39.255  22.663  26.533  1.00  0.00     0.338 C 
ATOM     33  O   UNL A   1      39.779  21.610  26.216  1.00  0.00    -0.246 OA
BRANCH  32  34
ATOM     34  C   UNL A   1      39.973  23.907  26.878  1.00  0.00     0.060 A 
ATOM     35  C   UNL A   1      40.818  23.941  27.990  1.00  0.00     0.016 A 
ATOM     36  C   UNL A   1      39.749  25.064  26.120  1.00  0.00     0.016 A 
ATOM     37  C   UNL A   1      41.459  25.131  28.331  1.00  0.00     0.010 A 
ATOM     38  C   UNL A   1      40.389  26.257  26.468  1.00  0.00     0.010 A 
ATOM     39  C   UNL A   1      41.266  26.293  27.563  1.00  0.00    -0.014 A 
BRANCH  39  40
ATOM     40  C   UNL A   1      42.145  27.465  27.791  1.00  0.00     0.031 A 
ATOM     41  C   UNL A   1      41.738  28.624  28.646  1.00  0.00     0.074 A 
ATOM     42  C   UNL A   1      43.354  27.451  27.197  1.00  0.00     0.049 A 
ATOM     43  N   UNL A   1      42.459  29.648  29.025  1.00  0.00    -0.248 NA
ATOM     44  C   UNL A   1      40.351  28.649  29.130  1.00  0.00     0.031 C 
ATOM     45  C   UNL A   1      43.828  26.387  26.310  1.00  0.00     0.029 A 
ATOM     46  N   UNL A   1      44.400  28.336  27.248  1.00  0.00    -0.354 N 
ATOM     47  C   UNL A   1      41.627  30.433  29.813  1.00  0.00     0.074 A 
ATOM     48  C   UNL A   1      40.329  29.789  29.815  1.00  0.00     0.031 C 
ATOM     49  C   UNL A   1      45.079  26.667  25.922  1.00  0.00     0.029 A 
ATOM     50  C   UNL A   1      45.489  27.940  26.507  1.00  0.00     0.049 A 
ATOM     51  H   UNL A   1      44.375  29.172  27.766  1.00  0.00     0.167 HD
ATOM     52  C   UNL A   1      41.934  31.571  30.484  1.00  0.00     0.034 A 
ATOM     53  C   UNL A   1      46.689  28.527  26.324  1.00  0.00     0.034 A 
ATOM     54  C   UNL A   1      43.235  32.199  30.452  1.00  0.00     0.049 A 
ATOM     55  C   UNL A   1      47.000  29.795  27.073  1.00  0.00     0.074 A 
ATOM     56  C   UNL A   1      43.656  33.322  31.144  1.00  0.00     0.029 A 
ATOM     57  N   UNL A   1      44.315  31.778  29.688  1.00  0.00    -0.354 N 
ATOM     58  N   UNL A   1      46.245  30.458  27.918  1.00  0.00    -0.248 NA
ATOM     59  C   UNL A   1      48.329  30.385  26.870  1.00  0.00     0.031 C 
ATOM     60  C   UNL A   1      44.958  33.623  30.743  1.00  0.00     0.029 A 
ATOM     61  C   UNL A   1      45.387  32.640  29.865  1.00  0.00     0.049 A 
ATOM     62  H   UNL A   1      44.320  30.985  29.106  1.00  0.00     0.167 HD
ATOM     63  C   UNL A   1      47.017  31.526  28.367  1.00  0.00     0.074 A 
ATOM     64  C   UNL A   1      48.307  31.404  27.721  1.00  0.00     0.031 C 
ATOM     65  C   UNL A   1      46.681  32.515  29.233  1.00  0.00     0.034 A 
BRANCH  52  66
ATOM     66  C   UNL A   1      40.879  32.219  31.349  1.00  0.00     0.023 A 
ATOM     67  C   UNL A   1      40.625  31.729  32.645  1.00  0.00     0.031 A 
ATOM     68  C   UNL A   1      40.009  33.193  30.827  1.00  0.00     0.131 A 
ATOM     69  C   UNL A   1      39.503  32.179  33.354  1.00  0.00     0.055 A 
ATOM     70  C   UNL A   1      38.918  33.670  31.555  1.00  0.00     0.041 A 
ATOM     71  F   UNL A   1      40.200  33.687  29.593  1.00  0.00    -0.206 F 
ATOM     72  C   UNL A   1      38.652  33.151  32.818  1.00  0.00     0.022 A 
BRANCH  69  73
ATOM     73  S   UNL A   1      39.055  31.465  34.961  1.00  0.00     0.124 S 
ATOM     74  O   UNL A   1      37.937  32.316  35.365  1.00  0.00    -0.237 OA
ATOM     75  O   UNL A   1      38.699  30.097  34.599  1.00  0.00    -0.237 OA
ATOM     76  O   UNL A   1      40.266  31.613  35.761  1.00  0.00    -0.744 OA
ENDBRANCH  69  73
ENDBRANCH  52  66
BRANCH  53  77
ATOM     77  C   UNL A   1      47.694  27.849  25.454  1.00  0.00     0.023 A 
ATOM     78  C   UNL A   1      47.761  28.131  24.077  1.00  0.00     0.031 A 
ATOM     79  C   UNL A   1      48.512  26.826  25.960  1.00  0.00     0.131 A 
ATOM     80  C   UNL A   1      48.571  27.350  23.245  1.00  0.00     0.055 A 
ATOM     81  C   UNL A   1      49.374  26.099  25.138  1.00  0.00     0.041 A 
ATOM     82  F   UNL A   1      48.468  26.507  27.263  1.00  0.00    -0.206 F 
ATOM     83  C   UNL A   1      49.393  26.347  23.769  1.00  0.00     0.022 A 
BRANCH  80  84
ATOM     84  S   UNL A   1      48.474  27.508  21.440  1.00  0.00     0.124 S 
ATOM     85  O   UNL A   1      47.161  28.118  21.258  1.00  0.00    -0.237 OA
ATOM     86  O   UNL A   1      49.618  28.371  21.154  1.00  0.00    -0.237 OA
ATOM     87  O   UNL A   1      48.603  26.133  20.966  1.00  0.00    -0.744 OA
ENDBRANCH  80  84
ENDBRANCH  53  77
BRANCH  65  88
ATOM     88  C   UNL A   1      47.712  33.570  29.564  1.00  0.00     0.023 A 
ATOM     89  C   UNL A   1      47.866  34.693  28.726  1.00  0.00     0.031 A 
ATOM     90  C   UNL A   1      48.636  33.395  30.609  1.00  0.00     0.131 A 
ATOM     91  C   UNL A   1      48.941  35.569  28.921  1.00  0.00     0.055 A 
ATOM     92  C   UNL A   1      49.674  34.301  30.832  1.00  0.00     0.041 A 
ATOM     93  F   UNL A   1      48.544  32.335  31.431  1.00  0.00    -0.206 F 
ATOM     94  C   UNL A   1      49.840  35.385  29.976  1.00  0.00     0.022 A 
BRANCH  91  95
ATOM     95  S   UNL A   1      49.272  36.922  27.757  1.00  0.00     0.124 S 
ATOM     96  O   UNL A   1      50.731  36.988  27.778  1.00  0.00    -0.237 OA
ATOM     97  O   UNL A   1      48.689  36.412  26.519  1.00  0.00    -0.237 OA
ATOM     98  O   UNL A   1      48.589  38.069  28.346  1.00  0.00    -0.744 OA
ENDBRANCH  91  95
ENDBRANCH  65  88
ENDBRANCH  39  40
ENDBRANCH  32  34
ENDBRANCH  31  32
ENDBRANCH  30  31
ENDBRANCH  29  30
ENDBRANCH  28  29
ENDBRANCH  27  28
ENDBRANCH  26  27
ENDBRANCH   1  26
TORSDOF 26
ENDMDL
