MODEL 1
REMARK VINA RESULT:      -8.4      0.000      0.000
REMARK SMILES O=C(CCCNS(=O)(=O)c1ccc2c3c(cccc13)C(=O)N2)OCCOCCOCCOCCOC(=O)c1ccc(-c2c3nc(c(-c4cc(S(=O)(=O)[O-])ccc4F)c4ccc([nH]4)c(-c4cc(S(=O)(=O)[O-])ccc4F)c4nc(c(-c5cc(S(=O)(=O)[O-])ccc5F)c5ccc2[nH]5)C=C4)C=C3)cc1
REMARK SMILES IDX 28 1 27 2 26 3 25 4 24 5 23 6 2 7 1 8 3 9 4 10 5 11 6 12
REMARK SMILES IDX 7 14 8 15 9 16 10 17 11 18 19 19 12 20 14 21 18 22 13 23
REMARK SMILES IDX 15 24 17 25 22 26 16 27 20 28 21 30 29 31 30 32 31 33 32 34
REMARK SMILES IDX 33 35 34 36 35 37 36 38 37 39 38 40 39 41 100 42 40 43 99 44
REMARK SMILES IDX 41 45 42 46 43 47 93 48 44 49 98 50 92 51 94 52 45 53 97 54
REMARK SMILES IDX 91 55 90 56 46 58 78 59 58 60 77 61 59 62 62 63 76 64 95 65
REMARK SMILES IDX 60 66 61 67 75 69 96 70 63 71 47 72 48 73 56 74 49 75 55 76
REMARK SMILES IDX 57 77 54 78 50 79 51 80 52 81 53 82 79 83 80 84 88 85 81 86
REMARK SMILES IDX 87 87 89 88 86 89 82 90 83 91 84 92 85 93 64 94 65 95 73 96
REMARK SMILES IDX 66 97 72 98 74 99 71 100 67 101 68 102 69 103 70 104
REMARK H PARENT 6 13 22 29 94 57 62 68
REMARK Flexibility Score: inf
ROOT
ATOM      1  C   UNL A   1      41.322  34.055  32.138  1.00  0.00     0.188 C 
ENDROOT
BRANCH   1   2
ATOM      2  C   UNL A   1      41.609  35.011  33.289  1.00  0.00     0.188 C 
BRANCH   2   3
ATOM      3  O   UNL A   1      42.394  36.155  32.965  1.00  0.00    -0.376 OA
BRANCH   3   4
ATOM      4  C   UNL A   1      43.092  36.794  34.008  1.00  0.00     0.202 C 
BRANCH   4   5
ATOM      5  C   UNL A   1      43.688  38.144  33.635  1.00  0.00     0.261 C 
BRANCH   5   6
ATOM      6  O   UNL A   1      42.878  39.332  33.508  1.00  0.00    -0.463 OA
BRANCH   6   7
ATOM      7  C   UNL A   1      43.156  40.323  32.643  1.00  0.00     0.305 C 
ATOM      8  O   UNL A   1      42.265  40.991  32.122  1.00  0.00    -0.252 OA
BRANCH   7   9
ATOM      9  C   UNL A   1      44.622  40.681  32.456  1.00  0.00     0.124 C 
BRANCH   9  10
ATOM     10  C   UNL A   1      45.214  40.736  31.056  1.00  0.00     0.028 C 
BRANCH  10  11
ATOM     11  C   UNL A   1      45.531  42.087  30.420  1.00  0.00     0.099 C 
BRANCH  11  12
ATOM     12  N   UNL A   1      45.021  42.225  29.051  1.00  0.00    -0.211 NA
ATOM     13  H   UNL A   1      44.549  43.129  29.005  1.00  0.00     0.141 HD
BRANCH  12  14
ATOM     14  S   UNL A   1      46.079  42.162  27.721  1.00  0.00     0.241 S 
ATOM     15  O   UNL A   1      47.264  42.929  28.021  1.00  0.00    -0.207 OA
ATOM     16  O   UNL A   1      46.176  40.753  27.401  1.00  0.00    -0.207 OA
BRANCH  14  17
ATOM     17  C   UNL A   1      45.194  42.969  26.405  1.00  0.00     0.090 A 
ATOM     18  C   UNL A   1      45.770  44.135  25.838  1.00  0.00     0.024 A 
ATOM     19  C   UNL A   1      43.987  42.407  25.882  1.00  0.00     0.005 A 
ATOM     20  C   UNL A   1      45.222  44.744  24.694  1.00  0.00     0.028 A 
ATOM     21  C   UNL A   1      43.543  43.011  24.744  1.00  0.00     0.019 A 
ATOM     22  C   UNL A   1      43.177  41.316  26.301  1.00  0.00     0.010 A 
ATOM     23  C   UNL A   1      44.114  44.118  24.157  1.00  0.00     0.050 A 
ATOM     24  C   UNL A   1      42.468  42.609  23.964  1.00  0.00     0.050 A 
ATOM     25  C   UNL A   1      42.076  40.874  25.539  1.00  0.00     0.002 A 
ATOM     26  N   UNL A   1      43.385  44.399  23.017  1.00  0.00    -0.321 N 
ATOM     27  C   UNL A   1      41.711  41.504  24.342  1.00  0.00     0.014 A 
ATOM     28  C   UNL A   1      42.338  43.486  22.816  1.00  0.00     0.256 C 
ATOM     29  H   UNL A   1      43.579  45.154  22.415  1.00  0.00     0.170 HD
ATOM     30  O   UNL A   1      41.578  43.503  21.865  1.00  0.00    -0.269 OA
ENDBRANCH  14  17
ENDBRANCH  12  14
ENDBRANCH  11  12
ENDBRANCH  10  11
ENDBRANCH   9  10
ENDBRANCH   7   9
ENDBRANCH   6   7
ENDBRANCH   5   6
ENDBRANCH   4   5
ENDBRANCH   3   4
ENDBRANCH   2   3
ENDBRANCH   1   2
BRANCH   1  31
ATOM     31  O   UNL A   1      39.990  33.580  32.002  1.00  0.00    -0.377 OA
BRANCH  31  32
ATOM     32  C   UNL A   1      39.064  34.224  31.139  1.00  0.00     0.188 C 
BRANCH  32  33
ATOM     33  C   UNL A   1      37.697  34.431  31.804  1.00  0.00     0.188 C 
BRANCH  33  34
ATOM     34  O   UNL A   1      36.632  33.611  31.326  1.00  0.00    -0.376 OA
BRANCH  34  35
ATOM     35  C   UNL A   1      35.812  34.150  30.287  1.00  0.00     0.202 C 
BRANCH  35  36
ATOM     36  C   UNL A   1      34.377  33.600  30.101  1.00  0.00     0.261 C 
BRANCH  36  37
ATOM     37  O   UNL A   1      34.271  32.270  29.551  1.00  0.00    -0.460 OA
BRANCH  37  38
ATOM     38  C   UNL A   1      34.800  32.063  28.321  1.00  0.00     0.338 C 
ATOM     39  O   UNL A   1      34.472  32.612  27.283  1.00  0.00    -0.246 OA
BRANCH  38  40
ATOM     40  C   UNL A   1      35.980  31.170  28.416  1.00  0.00     0.060 A 
ATOM     41  C   UNL A   1      35.810  29.844  28.845  1.00  0.00     0.016 A 
ATOM     42  C   UNL A   1      37.265  31.675  28.213  1.00  0.00     0.016 A 
ATOM     43  C   UNL A   1      36.918  29.026  29.082  1.00  0.00     0.010 A 
ATOM     44  C   UNL A   1      38.377  30.866  28.488  1.00  0.00     0.010 A 
ATOM     45  C   UNL A   1      38.209  29.550  28.958  1.00  0.00    -0.014 A 
BRANCH  45  46
ATOM     46  C   UNL A   1      39.355  28.820  29.560  1.00  0.00     0.031 A 
ATOM     47  C   UNL A   1      39.845  29.266  30.913  1.00  0.00     0.074 A 
ATOM     48  C   UNL A   1      39.944  27.778  28.947  1.00  0.00     0.049 A 
ATOM     49  N   UNL A   1      40.825  28.794  31.637  1.00  0.00    -0.248 NA
ATOM     50  C   UNL A   1      39.131  30.397  31.530  1.00  0.00     0.031 C 
ATOM     51  C   UNL A   1      39.543  27.221  27.660  1.00  0.00     0.029 A 
ATOM     52  N   UNL A   1      41.015  27.006  29.332  1.00  0.00    -0.354 N 
ATOM     53  C   UNL A   1      40.840  29.561  32.796  1.00  0.00     0.074 A 
ATOM     54  C   UNL A   1      39.800  30.556  32.661  1.00  0.00     0.031 C 
ATOM     55  C   UNL A   1      40.368  26.204  27.351  1.00  0.00     0.029 A 
ATOM     56  C   UNL A   1      41.369  26.050  28.410  1.00  0.00     0.049 A 
ATOM     57  H   UNL A   1      41.486  27.128  30.188  1.00  0.00     0.167 HD
ATOM     58  C   UNL A   1      41.636  29.439  33.883  1.00  0.00     0.034 A 
ATOM     59  C   UNL A   1      42.382  25.156  28.414  1.00  0.00     0.034 A 
ATOM     60  C   UNL A   1      42.685  28.464  34.008  1.00  0.00     0.049 A 
ATOM     61  C   UNL A   1      43.306  25.080  29.608  1.00  0.00     0.074 A 
ATOM     62  C   UNL A   1      43.545  28.268  35.075  1.00  0.00     0.029 A 
ATOM     63  N   UNL A   1      43.020  27.525  33.046  1.00  0.00    -0.354 N 
ATOM     64  N   UNL A   1      43.285  25.786  30.714  1.00  0.00    -0.248 NA
ATOM     65  C   UNL A   1      44.380  24.075  29.566  1.00  0.00     0.031 C 
ATOM     66  C   UNL A   1      44.439  27.253  34.733  1.00  0.00     0.029 A 
ATOM     67  C   UNL A   1      44.085  26.758  33.489  1.00  0.00     0.049 A 
ATOM     68  H   UNL A   1      42.570  27.420  32.176  1.00  0.00     0.167 HD
ATOM     69  C   UNL A   1      44.305  25.278  31.516  1.00  0.00     0.074 A 
ATOM     70  C   UNL A   1      44.927  24.206  30.768  1.00  0.00     0.031 C 
ATOM     71  C   UNL A   1      44.681  25.662  32.761  1.00  0.00     0.034 A 
BRANCH  58  72
ATOM     72  C   UNL A   1      41.411  30.377  35.040  1.00  0.00     0.023 A 
ATOM     73  C   UNL A   1      40.142  30.464  35.639  1.00  0.00     0.031 A 
ATOM     74  C   UNL A   1      42.415  31.265  35.466  1.00  0.00     0.131 A 
ATOM     75  C   UNL A   1      39.897  31.447  36.605  1.00  0.00     0.055 A 
ATOM     76  C   UNL A   1      42.177  32.215  36.459  1.00  0.00     0.041 A 
ATOM     77  F   UNL A   1      43.644  31.213  34.929  1.00  0.00    -0.206 F 
ATOM     78  C   UNL A   1      40.909  32.317  37.023  1.00  0.00     0.022 A 
BRANCH  75  79
ATOM     79  S   UNL A   1      38.244  31.663  37.317  1.00  0.00     0.124 S 
ATOM     80  O   UNL A   1      38.550  32.268  38.611  1.00  0.00    -0.237 OA
ATOM     81  O   UNL A   1      37.610  32.552  36.347  1.00  0.00    -0.237 OA
ATOM     82  O   UNL A   1      37.707  30.308  37.378  1.00  0.00    -0.744 OA
ENDBRANCH  75  79
ENDBRANCH  58  72
BRANCH  59  83
ATOM     83  C   UNL A   1      42.528  24.219  27.264  1.00  0.00     0.023 A 
ATOM     84  C   UNL A   1      41.917  22.952  27.281  1.00  0.00     0.031 A 
ATOM     85  C   UNL A   1      43.350  24.543  26.171  1.00  0.00     0.131 A 
ATOM     86  C   UNL A   1      42.189  22.035  26.257  1.00  0.00     0.055 A 
ATOM     87  C   UNL A   1      43.569  23.649  25.122  1.00  0.00     0.041 A 
ATOM     88  F   UNL A   1      43.955  25.739  26.114  1.00  0.00    -0.206 F 
ATOM     89  C   UNL A   1      42.998  22.380  25.171  1.00  0.00     0.022 A 
BRANCH  86  90
ATOM     90  S   UNL A   1      41.575  20.331  26.350  1.00  0.00     0.124 S 
ATOM     91  O   UNL A   1      42.335  19.670  25.294  1.00  0.00    -0.237 OA
ATOM     92  O   UNL A   1      41.941  19.964  27.716  1.00  0.00    -0.237 OA
ATOM     93  O   UNL A   1      40.144  20.466  26.102  1.00  0.00    -0.744 OA
ENDBRANCH  86  90
ENDBRANCH  59  83
BRANCH  71  94
ATOM     94  C   UNL A   1      45.784  24.908  33.467  1.00  0.00     0.023 A 
ATOM     95  C   UNL A   1      47.127  25.256  33.218  1.00  0.00     0.031 A 
ATOM     96  C   UNL A   1      45.528  23.762  34.238  1.00  0.00     0.131 A 
ATOM     97  C   UNL A   1      48.162  24.443  33.695  1.00  0.00     0.055 A 
ATOM     98  C   UNL A   1      46.565  22.981  34.753  1.00  0.00     0.041 A 
ATOM     99  F   UNL A   1      44.266  23.379  34.493  1.00  0.00    -0.206 F 
ATOM    100  C   UNL A   1      47.887  23.311  34.469  1.00  0.00     0.022 A 
BRANCH  97 101
ATOM    101  S   UNL A   1      49.891  24.778  33.264  1.00  0.00     0.124 S 
ATOM    102  O   UNL A   1      49.752  25.765  32.196  1.00  0.00    -0.237 OA
ATOM    103  O   UNL A   1      50.426  25.293  34.522  1.00  0.00    -0.237 OA
ATOM    104  O   UNL A   1      50.409  23.480  32.845  1.00  0.00    -0.744 OA
ENDBRANCH  97 101
ENDBRANCH  71  94
ENDBRANCH  45  46
ENDBRANCH  38  40
ENDBRANCH  37  38
ENDBRANCH  36  37
ENDBRANCH  35  36
ENDBRANCH  34  35
ENDBRANCH  33  34
ENDBRANCH  32  33
ENDBRANCH  31  32
ENDBRANCH   1  31
TORSDOF 28
ENDMDL
MODEL 2
REMARK VINA RESULT:      -7.9      4.773     11.415
REMARK SMILES O=C(CCCNS(=O)(=O)c1ccc2c3c(cccc13)C(=O)N2)OCCOCCOCCOCCOC(=O)c1ccc(-c2c3nc(c(-c4cc(S(=O)(=O)[O-])ccc4F)c4ccc([nH]4)c(-c4cc(S(=O)(=O)[O-])ccc4F)c4nc(c(-c5cc(S(=O)(=O)[O-])ccc5F)c5ccc2[nH]5)C=C4)C=C3)cc1
REMARK SMILES IDX 28 1 27 2 26 3 25 4 24 5 23 6 2 7 1 8 3 9 4 10 5 11 6 12
REMARK SMILES IDX 7 14 8 15 9 16 10 17 11 18 19 19 12 20 14 21 18 22 13 23
REMARK SMILES IDX 15 24 17 25 22 26 16 27 20 28 21 30 29 31 30 32 31 33 32 34
REMARK SMILES IDX 33 35 34 36 35 37 36 38 37 39 38 40 39 41 100 42 40 43 99 44
REMARK SMILES IDX 41 45 42 46 43 47 93 48 44 49 98 50 92 51 94 52 45 53 97 54
REMARK SMILES IDX 91 55 90 56 46 58 78 59 58 60 77 61 59 62 62 63 76 64 95 65
REMARK SMILES IDX 60 66 61 67 75 69 96 70 63 71 47 72 48 73 56 74 49 75 55 76
REMARK SMILES IDX 57 77 54 78 50 79 51 80 52 81 53 82 79 83 80 84 88 85 81 86
REMARK SMILES IDX 87 87 89 88 86 89 82 90 83 91 84 92 85 93 64 94 65 95 73 96
REMARK SMILES IDX 66 97 72 98 74 99 71 100 67 101 68 102 69 103 70 104
REMARK H PARENT 6 13 22 29 94 57 62 68
REMARK Flexibility Score: inf
ROOT
ATOM      1  C   UNL A   1      42.127  28.279  27.816  1.00  0.00     0.188 C 
ENDROOT
BRANCH   1   2
ATOM      2  C   UNL A   1      41.485  27.021  28.391  1.00  0.00     0.188 C 
BRANCH   2   3
ATOM      3  O   UNL A   1      40.116  26.815  28.058  1.00  0.00    -0.376 OA
BRANCH   3   4
ATOM      4  C   UNL A   1      39.193  26.673  29.112  1.00  0.00     0.202 C 
BRANCH   4   5
ATOM      5  C   UNL A   1      39.171  27.834  30.094  1.00  0.00     0.261 C 
BRANCH   5   6
ATOM      6  O   UNL A   1      38.375  29.017  29.867  1.00  0.00    -0.463 OA
BRANCH   6   7
ATOM      7  C   UNL A   1      38.803  30.259  30.157  1.00  0.00     0.305 C 
ATOM      8  O   UNL A   1      38.472  31.228  29.477  1.00  0.00    -0.252 OA
BRANCH   7   9
ATOM      9  C   UNL A   1      39.588  30.431  31.448  1.00  0.00     0.124 C 
BRANCH   9  10
ATOM     10  C   UNL A   1      38.848  30.536  32.773  1.00  0.00     0.028 C 
BRANCH  10  11
ATOM     11  C   UNL A   1      38.643  31.903  33.420  1.00  0.00     0.099 C 
BRANCH  11  12
ATOM     12  N   UNL A   1      37.361  32.034  34.121  1.00  0.00    -0.211 NA
ATOM     13  H   UNL A   1      37.511  31.689  35.070  1.00  0.00     0.141 HD
BRANCH  12  14
ATOM     14  S   UNL A   1      36.605  33.551  34.270  1.00  0.00     0.241 S 
ATOM     15  O   UNL A   1      35.544  33.458  35.244  1.00  0.00    -0.207 OA
ATOM     16  O   UNL A   1      37.696  34.484  34.458  1.00  0.00    -0.207 OA
BRANCH  14  17
ATOM     17  C   UNL A   1      35.887  33.853  32.670  1.00  0.00     0.090 A 
ATOM     18  C   UNL A   1      36.095  32.881  31.657  1.00  0.00     0.024 A 
ATOM     19  C   UNL A   1      35.056  34.995  32.444  1.00  0.00     0.005 A 
ATOM     20  C   UNL A   1      35.436  32.959  30.417  1.00  0.00     0.028 A 
ATOM     21  C   UNL A   1      34.407  34.979  31.246  1.00  0.00     0.019 A 
ATOM     22  C   UNL A   1      34.749  36.130  33.243  1.00  0.00     0.010 A 
ATOM     23  C   UNL A   1      34.565  34.021  30.269  1.00  0.00     0.050 A 
ATOM     24  C   UNL A   1      33.460  35.894  30.811  1.00  0.00     0.050 A 
ATOM     25  C   UNL A   1      33.792  37.084  32.840  1.00  0.00     0.002 A 
ATOM     26  N   UNL A   1      33.718  34.352  29.230  1.00  0.00    -0.321 N 
ATOM     27  C   UNL A   1      33.114  36.973  31.619  1.00  0.00     0.014 A 
ATOM     28  C   UNL A   1      32.974  35.512  29.498  1.00  0.00     0.256 C 
ATOM     29  H   UNL A   1      33.643  33.833  28.396  1.00  0.00     0.170 HD
ATOM     30  O   UNL A   1      32.136  35.986  28.752  1.00  0.00    -0.269 OA
ENDBRANCH  14  17
ENDBRANCH  12  14
ENDBRANCH  11  12
ENDBRANCH  10  11
ENDBRANCH   9  10
ENDBRANCH   7   9
ENDBRANCH   6   7
ENDBRANCH   5   6
ENDBRANCH   4   5
ENDBRANCH   3   4
ENDBRANCH   2   3
ENDBRANCH   1   2
BRANCH   1  31
ATOM     31  O   UNL A   1      42.884  28.137  26.623  1.00  0.00    -0.377 OA
BRANCH  31  32
ATOM     32  C   UNL A   1      42.324  27.539  25.464  1.00  0.00     0.188 C 
BRANCH  32  33
ATOM     33  C   UNL A   1      43.102  26.294  25.018  1.00  0.00     0.188 C 
BRANCH  33  34
ATOM     34  O   UNL A   1      42.370  25.070  24.989  1.00  0.00    -0.376 OA
BRANCH  34  35
ATOM     35  C   UNL A   1      43.020  23.911  25.515  1.00  0.00     0.202 C 
BRANCH  35  36
ATOM     36  C   UNL A   1      44.400  23.499  24.946  1.00  0.00     0.261 C 
BRANCH  36  37
ATOM     37  O   UNL A   1      45.506  23.531  25.874  1.00  0.00    -0.460 OA
BRANCH  37  38
ATOM     38  C   UNL A   1      46.289  24.636  25.869  1.00  0.00     0.338 C 
ATOM     39  O   UNL A   1      46.931  25.072  24.928  1.00  0.00    -0.246 OA
BRANCH  38  40
ATOM     40  C   UNL A   1      46.142  25.372  27.148  1.00  0.00     0.060 A 
ATOM     41  C   UNL A   1      44.933  25.293  27.856  1.00  0.00     0.016 A 
ATOM     42  C   UNL A   1      47.144  26.240  27.581  1.00  0.00     0.016 A 
ATOM     43  C   UNL A   1      44.715  26.087  28.985  1.00  0.00     0.010 A 
ATOM     44  C   UNL A   1      46.912  27.065  28.691  1.00  0.00     0.010 A 
ATOM     45  C   UNL A   1      45.683  27.018  29.376  1.00  0.00    -0.014 A 
BRANCH  45  46
ATOM     46  C   UNL A   1      45.312  28.104  30.321  1.00  0.00     0.031 A 
ATOM     47  C   UNL A   1      45.145  27.747  31.776  1.00  0.00     0.074 A 
ATOM     48  C   UNL A   1      45.143  29.376  29.922  1.00  0.00     0.049 A 
ATOM     49  N   UNL A   1      44.821  28.512  32.785  1.00  0.00    -0.248 NA
ATOM     50  C   UNL A   1      45.372  26.337  32.136  1.00  0.00     0.031 C 
ATOM     51  C   UNL A   1      45.314  29.861  28.557  1.00  0.00     0.029 A 
ATOM     52  N   UNL A   1      44.781  30.494  30.637  1.00  0.00    -0.354 N 
ATOM     53  C   UNL A   1      44.817  27.682  33.899  1.00  0.00     0.074 A 
ATOM     54  C   UNL A   1      45.127  26.348  33.437  1.00  0.00     0.031 C 
ATOM     55  C   UNL A   1      45.043  31.178  28.528  1.00  0.00     0.029 A 
ATOM     56  C   UNL A   1      44.659  31.628  29.868  1.00  0.00     0.049 A 
ATOM     57  H   UNL A   1      44.623  30.484  31.608  1.00  0.00     0.167 HD
ATOM     58  C   UNL A   1      44.592  28.002  35.195  1.00  0.00     0.034 A 
ATOM     59  C   UNL A   1      44.278  32.880  30.202  1.00  0.00     0.034 A 
ATOM     60  C   UNL A   1      44.262  29.326  35.651  1.00  0.00     0.049 A 
ATOM     61  C   UNL A   1      43.962  33.205  31.644  1.00  0.00     0.074 A 
ATOM     62  C   UNL A   1      44.015  29.743  36.947  1.00  0.00     0.029 A 
ATOM     63  N   UNL A   1      44.132  30.441  34.839  1.00  0.00    -0.354 N 
ATOM     64  N   UNL A   1      43.999  32.419  32.694  1.00  0.00    -0.248 NA
ATOM     65  C   UNL A   1      43.571  34.590  31.952  1.00  0.00     0.031 C 
ATOM     66  C   UNL A   1      43.675  31.097  36.911  1.00  0.00     0.029 A 
ATOM     67  C   UNL A   1      43.793  31.543  35.605  1.00  0.00     0.049 A 
ATOM     68  H   UNL A   1      44.261  30.448  33.862  1.00  0.00     0.167 HD
ATOM     69  C   UNL A   1      43.687  33.223  33.789  1.00  0.00     0.074 A 
ATOM     70  C   UNL A   1      43.462  34.557  33.275  1.00  0.00     0.031 C 
ATOM     71  C   UNL A   1      43.606  32.883  35.100  1.00  0.00     0.034 A 
BRANCH  58  72
ATOM     72  C   UNL A   1      44.697  26.912  36.227  1.00  0.00     0.023 A 
ATOM     73  C   UNL A   1      45.939  26.620  36.819  1.00  0.00     0.031 A 
ATOM     74  C   UNL A   1      43.600  26.088  36.535  1.00  0.00     0.131 A 
ATOM     75  C   UNL A   1      46.063  25.506  37.657  1.00  0.00     0.055 A 
ATOM     76  C   UNL A   1      43.719  25.004  37.403  1.00  0.00     0.041 A 
ATOM     77  F   UNL A   1      42.393  26.333  36.000  1.00  0.00    -0.206 F 
ATOM     78  C   UNL A   1      44.959  24.701  37.958  1.00  0.00     0.022 A 
BRANCH  75  79
ATOM     79  S   UNL A   1      47.671  25.032  38.347  1.00  0.00     0.124 S 
ATOM     80  O   UNL A   1      47.522  25.416  39.749  1.00  0.00    -0.237 OA
ATOM     81  O   UNL A   1      47.698  23.594  38.093  1.00  0.00    -0.237 OA
ATOM     82  O   UNL A   1      48.629  25.828  37.586  1.00  0.00    -0.744 OA
ENDBRANCH  75  79
ENDBRANCH  58  72
BRANCH  59  83
ATOM     83  C   UNL A   1      44.238  33.933  29.147  1.00  0.00     0.023 A 
ATOM     84  C   UNL A   1      45.413  34.586  28.733  1.00  0.00     0.031 A 
ATOM     85  C   UNL A   1      43.016  34.359  28.601  1.00  0.00     0.131 A 
ATOM     86  C   UNL A   1      45.331  35.670  27.849  1.00  0.00     0.055 A 
ATOM     87  C   UNL A   1      42.945  35.399  27.674  1.00  0.00     0.041 A 
ATOM     88  F   UNL A   1      41.870  33.766  28.969  1.00  0.00    -0.206 F 
ATOM     89  C   UNL A   1      44.107  36.071  27.305  1.00  0.00     0.022 A 
BRANCH  86  90
ATOM     90  S   UNL A   1      46.801  36.654  27.449  1.00  0.00     0.124 S 
ATOM     91  O   UNL A   1      46.221  37.826  26.800  1.00  0.00    -0.237 OA
ATOM     92  O   UNL A   1      47.368  36.883  28.775  1.00  0.00    -0.237 OA
ATOM     93  O   UNL A   1      47.577  35.777  26.580  1.00  0.00    -0.744 OA
ENDBRANCH  86  90
ENDBRANCH  59  83
BRANCH  71  94
ATOM     94  C   UNL A   1      43.317  33.953  36.126  1.00  0.00     0.023 A 
ATOM     95  C   UNL A   1      41.984  34.358  36.343  1.00  0.00     0.031 A 
ATOM     96  C   UNL A   1      44.341  34.680  36.754  1.00  0.00     0.131 A 
ATOM     97  C   UNL A   1      41.713  35.484  37.130  1.00  0.00     0.055 A 
ATOM     98  C   UNL A   1      44.063  35.773  37.578  1.00  0.00     0.041 A 
ATOM     99  F   UNL A   1      45.628  34.344  36.570  1.00  0.00    -0.206 F 
ATOM    100  C   UNL A   1      42.746  36.188  37.756  1.00  0.00     0.022 A 
BRANCH  97 101
ATOM    101  S   UNL A   1      40.023  36.120  37.305  1.00  0.00     0.124 S 
ATOM    102  O   UNL A   1      39.307  34.946  37.799  1.00  0.00    -0.237 OA
ATOM    103  O   UNL A   1      40.200  37.196  38.277  1.00  0.00    -0.237 OA
ATOM    104  O   UNL A   1      39.664  36.544  35.956  1.00  0.00    -0.744 OA
ENDBRANCH  97 101
ENDBRANCH  71  94
ENDBRANCH  45  46
ENDBRANCH  38  40
ENDBRANCH  37  38
ENDBRANCH  36  37
ENDBRANCH  35  36
ENDBRANCH  34  35
ENDBRANCH  33  34
ENDBRANCH  32  33
ENDBRANCH  31  32
ENDBRANCH   1  31
TORSDOF 28
ENDMDL
MODEL 3
REMARK VINA RESULT:      -7.9      6.012     13.928
REMARK SMILES O=C(CCCNS(=O)(=O)c1ccc2c3c(cccc13)C(=O)N2)OCCOCCOCCOCCOC(=O)c1ccc(-c2c3nc(c(-c4cc(S(=O)(=O)[O-])ccc4F)c4ccc([nH]4)c(-c4cc(S(=O)(=O)[O-])ccc4F)c4nc(c(-c5cc(S(=O)(=O)[O-])ccc5F)c5ccc2[nH]5)C=C4)C=C3)cc1
REMARK SMILES IDX 28 1 27 2 26 3 25 4 24 5 23 6 2 7 1 8 3 9 4 10 5 11 6 12
REMARK SMILES IDX 7 14 8 15 9 16 10 17 11 18 19 19 12 20 14 21 18 22 13 23
REMARK SMILES IDX 15 24 17 25 22 26 16 27 20 28 21 30 29 31 30 32 31 33 32 34
REMARK SMILES IDX 33 35 34 36 35 37 36 38 37 39 38 40 39 41 100 42 40 43 99 44
REMARK SMILES IDX 41 45 42 46 43 47 93 48 44 49 98 50 92 51 94 52 45 53 97 54
REMARK SMILES IDX 91 55 90 56 46 58 78 59 58 60 77 61 59 62 62 63 76 64 95 65
REMARK SMILES IDX 60 66 61 67 75 69 96 70 63 71 47 72 48 73 56 74 49 75 55 76
REMARK SMILES IDX 57 77 54 78 50 79 51 80 52 81 53 82 79 83 80 84 88 85 81 86
REMARK SMILES IDX 87 87 89 88 86 89 82 90 83 91 84 92 85 93 64 94 65 95 73 96
REMARK SMILES IDX 66 97 72 98 74 99 71 100 67 101 68 102 69 103 70 104
REMARK H PARENT 6 13 22 29 94 57 62 68
REMARK Flexibility Score: inf
ROOT
ATOM      1  C   UNL A   1      42.396  28.294  27.282  1.00  0.00     0.188 C 
ENDROOT
BRANCH   1   2
ATOM      2  C   UNL A   1      42.391  27.454  28.554  1.00  0.00     0.188 C 
BRANCH   2   3
ATOM      3  O   UNL A   1      41.110  27.043  29.021  1.00  0.00    -0.376 OA
BRANCH   3   4
ATOM      4  C   UNL A   1      40.452  27.866  29.956  1.00  0.00     0.202 C 
BRANCH   4   5
ATOM      5  C   UNL A   1      39.216  28.571  29.418  1.00  0.00     0.261 C 
BRANCH   5   6
ATOM      6  O   UNL A   1      38.006  28.698  30.195  1.00  0.00    -0.463 OA
BRANCH   6   7
ATOM      7  C   UNL A   1      36.946  29.422  29.792  1.00  0.00     0.305 C 
ATOM      8  O   UNL A   1      36.135  29.877  30.597  1.00  0.00    -0.252 OA
BRANCH   7   9
ATOM      9  C   UNL A   1      36.879  29.780  28.316  1.00  0.00     0.124 C 
BRANCH   9  10
ATOM     10  C   UNL A   1      35.579  30.303  27.724  1.00  0.00     0.028 C 
BRANCH  10  11
ATOM     11  C   UNL A   1      34.724  29.390  26.849  1.00  0.00     0.099 C 
BRANCH  11  12
ATOM     12  N   UNL A   1      33.701  28.650  27.596  1.00  0.00    -0.211 NA
ATOM     13  H   UNL A   1      33.804  28.918  28.576  1.00  0.00     0.141 HD
BRANCH  12  14
ATOM     14  S   UNL A   1      32.052  28.827  27.216  1.00  0.00     0.241 S 
ATOM     15  O   UNL A   1      31.273  27.973  28.080  1.00  0.00    -0.207 OA
ATOM     16  O   UNL A   1      31.833  30.258  27.205  1.00  0.00    -0.207 OA
BRANCH  14  17
ATOM     17  C   UNL A   1      31.912  28.231  25.545  1.00  0.00     0.090 A 
ATOM     18  C   UNL A   1      31.210  29.037  24.612  1.00  0.00     0.024 A 
ATOM     19  C   UNL A   1      32.562  27.022  25.141  1.00  0.00     0.005 A 
ATOM     20  C   UNL A   1      31.185  28.722  23.241  1.00  0.00     0.028 A 
ATOM     21  C   UNL A   1      32.547  26.808  23.796  1.00  0.00     0.019 A 
ATOM     22  C   UNL A   1      33.252  26.015  25.871  1.00  0.00     0.010 A 
ATOM     23  C   UNL A   1      31.906  27.603  22.872  1.00  0.00     0.050 A 
ATOM     24  C   UNL A   1      33.191  25.783  23.118  1.00  0.00     0.050 A 
ATOM     25  C   UNL A   1      33.921  24.957  25.222  1.00  0.00     0.002 A 
ATOM     26  N   UNL A   1      32.152  27.062  21.625  1.00  0.00    -0.321 N 
ATOM     27  C   UNL A   1      33.917  24.832  23.827  1.00  0.00     0.014 A 
ATOM     28  C   UNL A   1      32.967  25.920  21.692  1.00  0.00     0.256 C 
ATOM     29  H   UNL A   1      31.797  27.435  20.785  1.00  0.00     0.170 HD
ATOM     30  O   UNL A   1      33.351  25.287  20.725  1.00  0.00    -0.269 OA
ENDBRANCH  14  17
ENDBRANCH  12  14
ENDBRANCH  11  12
ENDBRANCH  10  11
ENDBRANCH   9  10
ENDBRANCH   7   9
ENDBRANCH   6   7
ENDBRANCH   5   6
ENDBRANCH   4   5
ENDBRANCH   3   4
ENDBRANCH   2   3
ENDBRANCH   1   2
BRANCH   1  31
ATOM     31  O   UNL A   1      42.595  27.612  26.052  1.00  0.00    -0.377 OA
BRANCH  31  32
ATOM     32  C   UNL A   1      41.812  26.479  25.705  1.00  0.00     0.188 C 
BRANCH  32  33
ATOM     33  C   UNL A   1      42.675  25.288  25.269  1.00  0.00     0.188 C 
BRANCH  33  34
ATOM     34  O   UNL A   1      43.161  24.445  26.312  1.00  0.00    -0.376 OA
BRANCH  34  35
ATOM     35  C   UNL A   1      44.473  24.714  26.809  1.00  0.00     0.202 C 
BRANCH  35  36
ATOM     36  C   UNL A   1      45.681  24.589  25.848  1.00  0.00     0.261 C 
BRANCH  36  37
ATOM     37  O   UNL A   1      46.962  24.991  26.381  1.00  0.00    -0.460 OA
BRANCH  37  38
ATOM     38  C   UNL A   1      47.545  26.085  25.836  1.00  0.00     0.338 C 
ATOM     39  O   UNL A   1      48.229  26.122  24.826  1.00  0.00    -0.246 OA
BRANCH  38  40
ATOM     40  C   UNL A   1      47.106  27.307  26.551  1.00  0.00     0.060 A 
ATOM     41  C   UNL A   1      46.237  28.206  25.912  1.00  0.00     0.016 A 
ATOM     42  C   UNL A   1      47.651  27.633  27.793  1.00  0.00     0.016 A 
ATOM     43  C   UNL A   1      45.922  29.433  26.503  1.00  0.00     0.010 A 
ATOM     44  C   UNL A   1      47.366  28.879  28.367  1.00  0.00     0.010 A 
ATOM     45  C   UNL A   1      46.529  29.800  27.709  1.00  0.00    -0.014 A 
BRANCH  45  46
ATOM     46  C   UNL A   1      46.495  31.221  28.141  1.00  0.00     0.031 A 
ATOM     47  C   UNL A   1      45.400  31.647  29.084  1.00  0.00     0.074 A 
ATOM     48  C   UNL A   1      47.411  32.117  27.733  1.00  0.00     0.049 A 
ATOM     49  N   UNL A   1      45.158  32.825  29.596  1.00  0.00    -0.248 NA
ATOM     50  C   UNL A   1      44.452  30.601  29.504  1.00  0.00     0.031 C 
ATOM     51  C   UNL A   1      48.541  31.829  26.857  1.00  0.00     0.029 A 
ATOM     52  N   UNL A   1      47.525  33.461  28.003  1.00  0.00    -0.354 N 
ATOM     53  C   UNL A   1      44.040  32.661  30.404  1.00  0.00     0.074 A 
ATOM     54  C   UNL A   1      43.625  31.281  30.282  1.00  0.00     0.031 C 
ATOM     55  C   UNL A   1      49.229  32.966  26.648  1.00  0.00     0.029 A 
ATOM     56  C   UNL A   1      48.577  34.068  27.358  1.00  0.00     0.049 A 
ATOM     57  H   UNL A   1      46.911  33.944  28.601  1.00  0.00     0.167 HD
ATOM     58  C   UNL A   1      43.422  33.571  31.192  1.00  0.00     0.034 A 
ATOM     59  C   UNL A   1      48.968  35.361  27.339  1.00  0.00     0.034 A 
ATOM     60  C   UNL A   1      43.821  34.948  31.296  1.00  0.00     0.049 A 
ATOM     61  C   UNL A   1      48.224  36.380  28.171  1.00  0.00     0.074 A 
ATOM     62  C   UNL A   1      43.251  35.945  32.069  1.00  0.00     0.029 A 
ATOM     63  N   UNL A   1      44.881  35.526  30.615  1.00  0.00    -0.354 N 
ATOM     64  N   UNL A   1      47.191  36.204  28.961  1.00  0.00    -0.248 NA
ATOM     65  C   UNL A   1      48.706  37.770  28.125  1.00  0.00     0.031 C 
ATOM     66  C   UNL A   1      43.927  37.138  31.808  1.00  0.00     0.029 A 
ATOM     67  C   UNL A   1      44.971  36.870  30.938  1.00  0.00     0.049 A 
ATOM     68  H   UNL A   1      45.479  35.052  29.993  1.00  0.00     0.167 HD
ATOM     69  C   UNL A   1      46.934  37.444  29.543  1.00  0.00     0.074 A 
ATOM     70  C   UNL A   1      47.918  38.363  29.013  1.00  0.00     0.031 C 
ATOM     71  C   UNL A   1      45.975  37.780  30.441  1.00  0.00     0.034 A 
BRANCH  58  72
ATOM     72  C   UNL A   1      42.246  33.119  32.017  1.00  0.00     0.023 A 
ATOM     73  C   UNL A   1      40.944  33.209  31.494  1.00  0.00     0.031 A 
ATOM     74  C   UNL A   1      42.404  32.715  33.354  1.00  0.00     0.131 A 
ATOM     75  C   UNL A   1      39.846  32.938  32.319  1.00  0.00     0.055 A 
ATOM     76  C   UNL A   1      41.308  32.406  34.159  1.00  0.00     0.041 A 
ATOM     77  F   UNL A   1      43.629  32.607  33.893  1.00  0.00    -0.206 F 
ATOM     78  C   UNL A   1      40.021  32.529  33.645  1.00  0.00     0.022 A 
BRANCH  75  79
ATOM     79  S   UNL A   1      38.150  33.153  31.715  1.00  0.00     0.124 S 
ATOM     80  O   UNL A   1      38.272  32.738  30.319  1.00  0.00    -0.237 OA
ATOM     81  O   UNL A   1      37.404  32.238  32.575  1.00  0.00    -0.237 OA
ATOM     82  O   UNL A   1      37.881  34.572  31.917  1.00  0.00    -0.744 OA
ENDBRANCH  75  79
ENDBRANCH  58  72
BRANCH  59  83
ATOM     83  C   UNL A   1      50.170  35.744  26.543  1.00  0.00     0.023 A 
ATOM     84  C   UNL A   1      51.439  35.827  27.143  1.00  0.00     0.031 A 
ATOM     85  C   UNL A   1      50.050  36.115  25.193  1.00  0.00     0.131 A 
ATOM     86  C   UNL A   1      52.522  36.330  26.411  1.00  0.00     0.055 A 
ATOM     87  C   UNL A   1      51.146  36.557  24.450  1.00  0.00     0.041 A 
ATOM     88  F   UNL A   1      48.858  36.055  24.580  1.00  0.00    -0.206 F 
ATOM     89  C   UNL A   1      52.388  36.680  25.065  1.00  0.00     0.022 A 
BRANCH  86  90
ATOM     90  S   UNL A   1      54.122  36.631  27.211  1.00  0.00     0.124 S 
ATOM     91  O   UNL A   1      54.780  37.523  26.261  1.00  0.00    -0.237 OA
ATOM     92  O   UNL A   1      53.707  37.246  28.470  1.00  0.00    -0.237 OA
ATOM     93  O   UNL A   1      54.706  35.299  27.329  1.00  0.00    -0.744 OA
ENDBRANCH  86  90
ENDBRANCH  59  83
BRANCH  71  94
ATOM     94  C   UNL A   1      45.935  39.188  30.988  1.00  0.00     0.023 A 
ATOM     95  C   UNL A   1      46.532  39.461  32.235  1.00  0.00     0.031 A 
ATOM     96  C   UNL A   1      45.180  40.204  30.378  1.00  0.00     0.131 A 
ATOM     97  C   UNL A   1      46.328  40.701  32.854  1.00  0.00     0.055 A 
ATOM     98  C   UNL A   1      45.020  41.456  30.976  1.00  0.00     0.041 A 
ATOM     99  F   UNL A   1      44.579  39.991  29.196  1.00  0.00    -0.206 F 
ATOM    100  C   UNL A   1      45.582  41.703  32.226  1.00  0.00     0.022 A 
BRANCH  97 101
ATOM    101  S   UNL A   1      46.955  41.028  34.524  1.00  0.00     0.124 S 
ATOM    102  O   UNL A   1      47.330  39.690  34.975  1.00  0.00    -0.237 OA
ATOM    103  O   UNL A   1      48.072  41.932  34.260  1.00  0.00    -0.237 OA
ATOM    104  O   UNL A   1      45.816  41.620  35.219  1.00  0.00    -0.744 OA
ENDBRANCH  97 101
ENDBRANCH  71  94
ENDBRANCH  45  46
ENDBRANCH  38  40
ENDBRANCH  37  38
ENDBRANCH  36  37
ENDBRANCH  35  36
ENDBRANCH  34  35
ENDBRANCH  33  34
ENDBRANCH  32  33
ENDBRANCH  31  32
ENDBRANCH   1  31
TORSDOF 28
ENDMDL
