MODEL 1
REMARK VINA RESULT:     -10.6      0.000      0.000
REMARK SMILES Cc1ccc2nc(C(=O)OCCOCCOCCOCCOC(=O)c3ccc(-c4c5nc(c(-c6cc(S(=O)(=O)[O-])ccc6F)c6ccc([nH]6)c(-c6cc(S(=O)(=O)[O-])ccc6F)c6nc(c(-c7cc(S(=O)(=O)[O-])ccc7F)c7ccc4[nH]7)C=C6)C=C5)cc3)cc(N3CCOCC3)c2c1
REMARK SMILES IDX 17 1 16 2 15 3 14 4 13 5 12 6 11 7 10 8 8 9 9 10 7 11 1 12
REMARK SMILES IDX 2 13 3 14 97 15 4 16 96 17 5 18 89 19 6 20 88 21 90 22 91 23
REMARK SMILES IDX 95 24 92 25 94 26 93 27 18 28 19 29 20 30 21 31 22 32 23 33
REMARK SMILES IDX 24 34 25 35 26 36 87 37 27 38 86 39 28 40 29 41 30 42 80 43
REMARK SMILES IDX 31 44 85 45 79 46 81 47 32 48 84 49 78 50 77 51 33 53 65 54
REMARK SMILES IDX 45 55 64 56 46 57 49 58 63 59 82 60 47 61 48 62 62 64 83 65
REMARK SMILES IDX 50 66 34 67 35 68 43 69 36 70 42 71 44 72 41 73 37 74 38 75
REMARK SMILES IDX 39 76 40 77 66 78 67 79 75 80 68 81 74 82 76 83 73 84 69 85
REMARK SMILES IDX 70 86 71 87 72 88 51 89 52 90 60 91 53 92 59 93 61 94 58 95
REMARK SMILES IDX 54 96 55 97 56 98 57 99
REMARK H PARENT 81 52 49 63
REMARK Flexibility Score: inf
ROOT
ATOM      1  C   UNL A   1      33.214  27.150  24.164  1.00  0.00     0.188 C 
ENDROOT
BRANCH   1   2
ATOM      2  O   UNL A   1      33.404  26.135  25.153  1.00  0.00    -0.377 OA
BRANCH   2   3
ATOM      3  C   UNL A   1      32.922  26.339  26.472  1.00  0.00     0.188 C 
BRANCH   3   4
ATOM      4  C   UNL A   1      31.437  26.733  26.604  1.00  0.00     0.188 C 
BRANCH   4   5
ATOM      5  O   UNL A   1      30.547  25.694  26.238  1.00  0.00    -0.376 OA
BRANCH   5   6
ATOM      6  C   UNL A   1      29.794  25.782  25.043  1.00  0.00     0.202 C 
BRANCH   6   7
ATOM      7  C   UNL A   1      30.169  24.995  23.773  1.00  0.00     0.261 C 
BRANCH   7   8
ATOM      8  O   UNL A   1      31.005  23.848  23.943  1.00  0.00    -0.459 OA
BRANCH   8   9
ATOM      9  C   UNL A   1      32.058  23.727  23.103  1.00  0.00     0.357 C 
ATOM     10  O   UNL A   1      32.294  24.434  22.137  1.00  0.00    -0.244 OA
BRANCH   9  11
ATOM     11  C   UNL A   1      32.979  22.693  23.665  1.00  0.00     0.151 A 
ATOM     12  C   UNL A   1      38.363  19.593  25.263  1.00  0.00     0.044 C 
ATOM     13  C   UNL A   1      37.213  20.540  25.106  1.00  0.00    -0.050 A 
ATOM     14  C   UNL A   1      37.377  21.915  25.228  1.00  0.00     0.005 A 
ATOM     15  C   UNL A   1      35.946  20.047  24.780  1.00  0.00     0.016 A 
ATOM     16  C   UNL A   1      36.314  22.767  24.922  1.00  0.00     0.029 A 
ATOM     17  C   UNL A   1      34.838  20.893  24.534  1.00  0.00     0.024 A 
ATOM     18  C   UNL A   1      35.078  22.284  24.517  1.00  0.00     0.073 A 
ATOM     19  C   UNL A   1      33.523  20.424  24.236  1.00  0.00     0.049 A 
ATOM     20  N   UNL A   1      34.178  23.168  24.083  1.00  0.00    -0.241 NA
ATOM     21  C   UNL A   1      32.594  21.365  23.778  1.00  0.00     0.062 A 
BRANCH  19  22
ATOM     22  N   UNL A   1      33.178  19.083  24.351  1.00  0.00    -0.366 N 
ATOM     23  C   UNL A   1      32.898  18.473  25.667  1.00  0.00     0.145 C 
ATOM     24  C   UNL A   1      32.581  18.323  23.242  1.00  0.00     0.145 C 
ATOM     25  C   UNL A   1      33.428  17.027  25.653  1.00  0.00     0.181 C 
ATOM     26  C   UNL A   1      33.103  16.875  23.311  1.00  0.00     0.181 C 
ATOM     27  O   UNL A   1      32.840  16.262  24.587  1.00  0.00    -0.378 OA
ENDBRANCH  19  22
ENDBRANCH   9  11
ENDBRANCH   8   9
ENDBRANCH   7   8
ENDBRANCH   6   7
ENDBRANCH   5   6
ENDBRANCH   4   5
ENDBRANCH   3   4
ENDBRANCH   2   3
ENDBRANCH   1   2
BRANCH   1  28
ATOM     28  C   UNL A   1      34.027  28.469  24.137  1.00  0.00     0.188 C 
BRANCH  28  29
ATOM     29  O   UNL A   1      33.246  29.654  24.142  1.00  0.00    -0.376 OA
BRANCH  29  30
ATOM     30  C   UNL A   1      31.906  29.563  24.590  1.00  0.00     0.202 C 
BRANCH  30  31
ATOM     31  C   UNL A   1      31.492  30.526  25.709  1.00  0.00     0.261 C 
BRANCH  31  32
ATOM     32  O   UNL A   1      32.331  30.538  26.874  1.00  0.00    -0.460 OA
BRANCH  32  33
ATOM     33  C   UNL A   1      32.955  31.700  27.170  1.00  0.00     0.338 C 
ATOM     34  O   UNL A   1      32.473  32.820  27.122  1.00  0.00    -0.246 OA
BRANCH  33  35
ATOM     35  C   UNL A   1      34.272  31.364  27.747  1.00  0.00     0.060 A 
ATOM     36  C   UNL A   1      34.597  30.020  27.977  1.00  0.00     0.016 A 
ATOM     37  C   UNL A   1      35.190  32.375  28.041  1.00  0.00     0.016 A 
ATOM     38  C   UNL A   1      35.833  29.688  28.536  1.00  0.00     0.010 A 
ATOM     39  C   UNL A   1      36.418  32.042  28.617  1.00  0.00     0.010 A 
ATOM     40  C   UNL A   1      36.733  30.699  28.896  1.00  0.00    -0.014 A 
BRANCH  40  41
ATOM     41  C   UNL A   1      37.909  30.377  29.744  1.00  0.00     0.031 A 
ATOM     42  C   UNL A   1      38.953  29.448  29.189  1.00  0.00     0.074 A 
ATOM     43  C   UNL A   1      38.058  30.905  30.972  1.00  0.00     0.049 A 
ATOM     44  N   UNL A   1      40.028  28.965  29.755  1.00  0.00    -0.248 NA
ATOM     45  C   UNL A   1      38.747  29.000  27.803  1.00  0.00     0.031 C 
ATOM     46  C   UNL A   1      37.142  31.856  31.599  1.00  0.00     0.029 A 
ATOM     47  N   UNL A   1      39.036  30.707  31.916  1.00  0.00    -0.354 N 
ATOM     48  C   UNL A   1      40.624  28.149  28.798  1.00  0.00     0.074 A 
ATOM     49  C   UNL A   1      39.765  28.171  27.633  1.00  0.00     0.031 C 
ATOM     50  C   UNL A   1      37.599  32.154  32.828  1.00  0.00     0.029 A 
ATOM     51  C   UNL A   1      38.813  31.381  33.093  1.00  0.00     0.049 A 
ATOM     52  H   UNL A   1      39.823  30.136  31.763  1.00  0.00     0.167 HD
ATOM     53  C   UNL A   1      41.786  27.454  28.881  1.00  0.00     0.034 A 
ATOM     54  C   UNL A   1      39.493  31.354  34.258  1.00  0.00     0.034 A 
ATOM     55  C   UNL A   1      42.620  27.429  30.058  1.00  0.00     0.049 A 
ATOM     56  C   UNL A   1      40.727  30.487  34.367  1.00  0.00     0.074 A 
ATOM     57  C   UNL A   1      43.821  26.769  30.248  1.00  0.00     0.029 A 
ATOM     58  N   UNL A   1      42.331  28.078  31.253  1.00  0.00    -0.354 N 
ATOM     59  N   UNL A   1      41.287  29.723  33.455  1.00  0.00    -0.248 NA
ATOM     60  C   UNL A   1      41.423  30.483  35.660  1.00  0.00     0.031 C 
ATOM     61  C   UNL A   1      44.212  26.946  31.580  1.00  0.00     0.029 A 
ATOM     62  C   UNL A   1      43.310  27.798  32.196  1.00  0.00     0.049 A 
ATOM     63  H   UNL A   1      41.548  28.654  31.407  1.00  0.00     0.167 HD
ATOM     64  C   UNL A   1      42.421  29.179  34.058  1.00  0.00     0.074 A 
ATOM     65  C   UNL A   1      42.468  29.710  35.404  1.00  0.00     0.031 C 
ATOM     66  C   UNL A   1      43.342  28.324  33.542  1.00  0.00     0.034 A 
BRANCH  53  67
ATOM     67  C   UNL A   1      42.177  26.617  27.686  1.00  0.00     0.023 A 
ATOM     68  C   UNL A   1      41.870  25.248  27.605  1.00  0.00     0.031 A 
ATOM     69  C   UNL A   1      42.908  27.189  26.629  1.00  0.00     0.131 A 
ATOM     70  C   UNL A   1      42.365  24.480  26.539  1.00  0.00     0.055 A 
ATOM     71  C   UNL A   1      43.318  26.439  25.525  1.00  0.00     0.041 A 
ATOM     72  F   UNL A   1      43.255  28.486  26.660  1.00  0.00    -0.206 F 
ATOM     73  C   UNL A   1      43.062  25.072  25.484  1.00  0.00     0.022 A 
BRANCH  70  74
ATOM     74  S   UNL A   1      42.232  22.674  26.638  1.00  0.00     0.124 S 
ATOM     75  O   UNL A   1      42.297  22.296  25.228  1.00  0.00    -0.237 OA
ATOM     76  O   UNL A   1      43.388  22.315  27.451  1.00  0.00    -0.237 OA
ATOM     77  O   UNL A   1      40.932  22.461  27.273  1.00  0.00    -0.744 OA
ENDBRANCH  70  74
ENDBRANCH  53  67
BRANCH  54  78
ATOM     78  C   UNL A   1      39.010  32.134  35.436  1.00  0.00     0.023 A 
ATOM     79  C   UNL A   1      38.405  31.498  36.532  1.00  0.00     0.031 A 
ATOM     80  C   UNL A   1      39.097  33.538  35.456  1.00  0.00     0.131 A 
ATOM     81  C   UNL A   1      37.874  32.265  37.581  1.00  0.00     0.055 A 
ATOM     82  C   UNL A   1      38.619  34.292  36.529  1.00  0.00     0.041 A 
ATOM     83  F   UNL A   1      39.658  34.200  34.431  1.00  0.00    -0.206 F 
ATOM     84  C   UNL A   1      37.991  33.657  37.594  1.00  0.00     0.022 A 
BRANCH  81  85
ATOM     85  S   UNL A   1      36.944  31.422  38.891  1.00  0.00     0.124 S 
ATOM     86  O   UNL A   1      36.841  30.069  38.357  1.00  0.00    -0.237 OA
ATOM     87  O   UNL A   1      37.821  31.593  40.043  1.00  0.00    -0.237 OA
ATOM     88  O   UNL A   1      35.688  32.168  38.950  1.00  0.00    -0.744 OA
ENDBRANCH  81  85
ENDBRANCH  54  78
BRANCH  66  89
ATOM     89  C   UNL A   1      44.511  27.949  34.423  1.00  0.00     0.023 A 
ATOM     90  C   UNL A   1      44.369  27.095  35.531  1.00  0.00     0.031 A 
ATOM     91  C   UNL A   1      45.794  28.462  34.150  1.00  0.00     0.131 A 
ATOM     92  C   UNL A   1      45.473  26.827  36.356  1.00  0.00     0.055 A 
ATOM     93  C   UNL A   1      46.902  28.135  34.932  1.00  0.00     0.041 A 
ATOM     94  F   UNL A   1      45.992  29.287  33.109  1.00  0.00    -0.206 F 
ATOM     95  C   UNL A   1      46.743  27.324  36.051  1.00  0.00     0.022 A 
BRANCH  92  96
ATOM     96  S   UNL A   1      45.208  25.905  37.895  1.00  0.00     0.124 S 
ATOM     97  O   UNL A   1      45.233  24.522  37.429  1.00  0.00    -0.237 OA
ATOM     98  O   UNL A   1      46.344  26.324  38.710  1.00  0.00    -0.237 OA
ATOM     99  O   UNL A   1      43.905  26.380  38.359  1.00  0.00    -0.744 OA
ENDBRANCH  92  96
ENDBRANCH  66  89
ENDBRANCH  40  41
ENDBRANCH  33  35
ENDBRANCH  32  33
ENDBRANCH  31  32
ENDBRANCH  30  31
ENDBRANCH  29  30
ENDBRANCH  28  29
ENDBRANCH   1  28
TORSDOF 24
ENDMDL
MODEL 2
REMARK VINA RESULT:     -10.0      2.315      7.609
REMARK SMILES Cc1ccc2nc(C(=O)OCCOCCOCCOCCOC(=O)c3ccc(-c4c5nc(c(-c6cc(S(=O)(=O)[O-])ccc6F)c6ccc([nH]6)c(-c6cc(S(=O)(=O)[O-])ccc6F)c6nc(c(-c7cc(S(=O)(=O)[O-])ccc7F)c7ccc4[nH]7)C=C6)C=C5)cc3)cc(N3CCOCC3)c2c1
REMARK SMILES IDX 17 1 16 2 15 3 14 4 13 5 12 6 11 7 10 8 8 9 9 10 7 11 1 12
REMARK SMILES IDX 2 13 3 14 97 15 4 16 96 17 5 18 89 19 6 20 88 21 90 22 91 23
REMARK SMILES IDX 95 24 92 25 94 26 93 27 18 28 19 29 20 30 21 31 22 32 23 33
REMARK SMILES IDX 24 34 25 35 26 36 87 37 27 38 86 39 28 40 29 41 30 42 80 43
REMARK SMILES IDX 31 44 85 45 79 46 81 47 32 48 84 49 78 50 77 51 33 53 65 54
REMARK SMILES IDX 45 55 64 56 46 57 49 58 63 59 82 60 47 61 48 62 62 64 83 65
REMARK SMILES IDX 50 66 34 67 35 68 43 69 36 70 42 71 44 72 41 73 37 74 38 75
REMARK SMILES IDX 39 76 40 77 66 78 67 79 75 80 68 81 74 82 76 83 73 84 69 85
REMARK SMILES IDX 70 86 71 87 72 88 51 89 52 90 60 91 53 92 59 93 61 94 58 95
REMARK SMILES IDX 54 96 55 97 56 98 57 99
REMARK H PARENT 81 52 49 63
REMARK Flexibility Score: inf
ROOT
ATOM      1  C   UNL A   1      32.493  27.190  22.990  1.00  0.00     0.188 C 
ENDROOT
BRANCH   1   2
ATOM      2  O   UNL A   1      32.865  25.813  22.901  1.00  0.00    -0.377 OA
BRANCH   2   3
ATOM      3  C   UNL A   1      33.804  25.276  23.819  1.00  0.00     0.188 C 
BRANCH   3   4
ATOM      4  C   UNL A   1      33.907  25.986  25.184  1.00  0.00     0.188 C 
BRANCH   4   5
ATOM      5  O   UNL A   1      33.047  25.439  26.167  1.00  0.00    -0.376 OA
BRANCH   5   6
ATOM      6  C   UNL A   1      31.687  25.828  26.227  1.00  0.00     0.202 C 
BRANCH   6   7
ATOM      7  C   UNL A   1      30.563  24.998  25.580  1.00  0.00     0.261 C 
BRANCH   7   8
ATOM      8  O   UNL A   1      30.929  23.735  25.019  1.00  0.00    -0.459 OA
BRANCH   8   9
ATOM      9  C   UNL A   1      30.795  22.649  25.813  1.00  0.00     0.357 C 
ATOM     10  O   UNL A   1      29.787  22.316  26.413  1.00  0.00    -0.244 OA
BRANCH   9  11
ATOM     11  C   UNL A   1      32.038  21.829  25.688  1.00  0.00     0.151 A 
ATOM     12  C   UNL A   1      38.162  20.214  24.666  1.00  0.00     0.044 C 
ATOM     13  C   UNL A   1      36.855  20.750  25.164  1.00  0.00    -0.050 A 
ATOM     14  C   UNL A   1      36.766  21.983  25.800  1.00  0.00     0.005 A 
ATOM     15  C   UNL A   1      35.678  20.026  24.948  1.00  0.00     0.016 A 
ATOM     16  C   UNL A   1      35.511  22.512  26.108  1.00  0.00     0.029 A 
ATOM     17  C   UNL A   1      34.402  20.516  25.317  1.00  0.00     0.024 A 
ATOM     18  C   UNL A   1      34.336  21.833  25.819  1.00  0.00     0.073 A 
ATOM     19  C   UNL A   1      33.186  19.789  25.146  1.00  0.00     0.049 A 
ATOM     20  N   UNL A   1      33.184  22.484  25.993  1.00  0.00    -0.241 NA
ATOM     21  C   UNL A   1      31.988  20.490  25.327  1.00  0.00     0.062 A 
BRANCH  19  22
ATOM     22  N   UNL A   1      33.176  18.451  24.773  1.00  0.00    -0.366 N 
ATOM     23  C   UNL A   1      32.794  17.391  25.729  1.00  0.00     0.145 C 
ATOM     24  C   UNL A   1      33.034  18.021  23.374  1.00  0.00     0.145 C 
ATOM     25  C   UNL A   1      33.664  16.151  25.451  1.00  0.00     0.181 C 
ATOM     26  C   UNL A   1      33.880  16.750  23.169  1.00  0.00     0.181 C 
ATOM     27  O   UNL A   1      33.523  15.704  24.092  1.00  0.00    -0.378 OA
ENDBRANCH  19  22
ENDBRANCH   9  11
ENDBRANCH   8   9
ENDBRANCH   7   8
ENDBRANCH   6   7
ENDBRANCH   5   6
ENDBRANCH   4   5
ENDBRANCH   3   4
ENDBRANCH   2   3
ENDBRANCH   1   2
BRANCH   1  28
ATOM     28  C   UNL A   1      33.484  28.354  22.736  1.00  0.00     0.188 C 
BRANCH  28  29
ATOM     29  O   UNL A   1      33.455  29.388  23.708  1.00  0.00    -0.376 OA
BRANCH  29  30
ATOM     30  C   UNL A   1      32.510  29.284  24.758  1.00  0.00     0.202 C 
BRANCH  30  31
ATOM     31  C   UNL A   1      33.066  29.349  26.186  1.00  0.00     0.261 C 
BRANCH  31  32
ATOM     32  O   UNL A   1      34.365  29.941  26.332  1.00  0.00    -0.460 OA
BRANCH  32  33
ATOM     33  C   UNL A   1      34.555  30.755  27.393  1.00  0.00     0.338 C 
ATOM     34  O   UNL A   1      33.795  31.622  27.794  1.00  0.00    -0.246 OA
BRANCH  33  35
ATOM     35  C   UNL A   1      35.763  30.289  28.103  1.00  0.00     0.060 A 
ATOM     36  C   UNL A   1      35.620  29.538  29.278  1.00  0.00     0.016 A 
ATOM     37  C   UNL A   1      37.032  30.579  27.597  1.00  0.00     0.016 A 
ATOM     38  C   UNL A   1      36.754  29.103  29.968  1.00  0.00     0.010 A 
ATOM     39  C   UNL A   1      38.164  30.158  28.300  1.00  0.00     0.010 A 
ATOM     40  C   UNL A   1      38.030  29.446  29.506  1.00  0.00    -0.014 A 
BRANCH  40  41
ATOM     41  C   UNL A   1      39.215  29.239  30.377  1.00  0.00     0.031 A 
ATOM     42  C   UNL A   1      39.283  29.996  31.675  1.00  0.00     0.074 A 
ATOM     43  C   UNL A   1      40.202  28.393  30.035  1.00  0.00     0.049 A 
ATOM     44  N   UNL A   1      40.236  30.038  32.568  1.00  0.00    -0.248 NA
ATOM     45  C   UNL A   1      38.111  30.824  32.003  1.00  0.00     0.031 C 
ATOM     46  C   UNL A   1      40.226  27.566  28.830  1.00  0.00     0.029 A 
ATOM     47  N   UNL A   1      41.382  28.095  30.672  1.00  0.00    -0.354 N 
ATOM     48  C   UNL A   1      39.785  30.902  33.562  1.00  0.00     0.074 A 
ATOM     49  C   UNL A   1      38.491  31.393  33.135  1.00  0.00     0.031 C 
ATOM     50  C   UNL A   1      41.369  26.858  28.811  1.00  0.00     0.029 A 
ATOM     51  C   UNL A   1      42.178  27.215  29.977  1.00  0.00     0.049 A 
ATOM     52  H   UNL A   1      41.634  28.475  31.544  1.00  0.00     0.167 HD
ATOM     53  C   UNL A   1      40.390  31.246  34.726  1.00  0.00     0.034 A 
ATOM     54  C   UNL A   1      43.426  26.773  30.238  1.00  0.00     0.034 A 
ATOM     55  C   UNL A   1      41.688  30.761  35.126  1.00  0.00     0.049 A 
ATOM     56  C   UNL A   1      44.129  27.253  31.487  1.00  0.00     0.074 A 
ATOM     57  C   UNL A   1      42.389  31.035  36.287  1.00  0.00     0.029 A 
ATOM     58  N   UNL A   1      42.490  29.917  34.368  1.00  0.00    -0.354 N 
ATOM     59  N   UNL A   1      43.692  28.065  32.424  1.00  0.00    -0.248 NA
ATOM     60  C   UNL A   1      45.490  26.753  31.717  1.00  0.00     0.031 C 
ATOM     61  C   UNL A   1      43.647  30.430  36.191  1.00  0.00     0.029 A 
ATOM     62  C   UNL A   1      43.697  29.696  35.018  1.00  0.00     0.049 A 
ATOM     63  H   UNL A   1      42.239  29.530  33.498  1.00  0.00     0.167 HD
ATOM     64  C   UNL A   1      44.713  28.142  33.370  1.00  0.00     0.074 A 
ATOM     65  C   UNL A   1      45.780  27.285  32.895  1.00  0.00     0.031 C 
ATOM     66  C   UNL A   1      44.762  28.848  34.529  1.00  0.00     0.034 A 
BRANCH  53  67
ATOM     67  C   UNL A   1      39.673  32.241  35.609  1.00  0.00     0.023 A 
ATOM     68  C   UNL A   1      40.043  33.597  35.651  1.00  0.00     0.031 A 
ATOM     69  C   UNL A   1      38.632  31.818  36.455  1.00  0.00     0.131 A 
ATOM     70  C   UNL A   1      39.438  34.459  36.580  1.00  0.00     0.055 A 
ATOM     71  C   UNL A   1      37.972  32.702  37.310  1.00  0.00     0.041 A 
ATOM     72  F   UNL A   1      38.252  30.531  36.479  1.00  0.00    -0.206 F 
ATOM     73  C   UNL A   1      38.386  34.028  37.389  1.00  0.00     0.022 A 
BRANCH  70  74
ATOM     74  S   UNL A   1      40.163  36.103  36.833  1.00  0.00     0.124 S 
ATOM     75  O   UNL A   1      39.811  36.775  35.584  1.00  0.00    -0.237 OA
ATOM     76  O   UNL A   1      39.471  36.573  38.028  1.00  0.00    -0.237 OA
ATOM     77  O   UNL A   1      41.588  35.827  37.004  1.00  0.00    -0.744 OA
ENDBRANCH  70  74
ENDBRANCH  53  67
BRANCH  54  78
ATOM     78  C   UNL A   1      44.120  25.858  29.283  1.00  0.00     0.023 A 
ATOM     79  C   UNL A   1      44.717  26.347  28.110  1.00  0.00     0.031 A 
ATOM     80  C   UNL A   1      44.147  24.469  29.506  1.00  0.00     0.131 A 
ATOM     81  C   UNL A   1      45.278  25.451  27.185  1.00  0.00     0.055 A 
ATOM     82  C   UNL A   1      44.757  23.589  28.611  1.00  0.00     0.041 A 
ATOM     83  F   UNL A   1      43.585  23.945  30.608  1.00  0.00    -0.206 F 
ATOM     84  C   UNL A   1      45.316  24.078  27.435  1.00  0.00     0.022 A 
BRANCH  81  85
ATOM     85  S   UNL A   1      45.879  26.101  25.601  1.00  0.00     0.124 S 
ATOM     86  O   UNL A   1      45.070  27.304  25.448  1.00  0.00    -0.237 OA
ATOM     87  O   UNL A   1      47.296  26.310  25.878  1.00  0.00    -0.237 OA
ATOM     88  O   UNL A   1      45.582  25.024  24.658  1.00  0.00    -0.744 OA
ENDBRANCH  81  85
ENDBRANCH  54  78
BRANCH  66  89
ATOM     89  C   UNL A   1      45.992  28.685  35.392  1.00  0.00     0.023 A 
ATOM     90  C   UNL A   1      46.083  27.690  36.383  1.00  0.00     0.031 A 
ATOM     91  C   UNL A   1      47.094  29.544  35.221  1.00  0.00     0.131 A 
ATOM     92  C   UNL A   1      47.222  27.618  37.200  1.00  0.00     0.055 A 
ATOM     93  C   UNL A   1      48.251  29.422  35.989  1.00  0.00     0.041 A 
ATOM     94  F   UNL A   1      47.064  30.516  34.295  1.00  0.00    -0.206 F 
ATOM     95  C   UNL A   1      48.315  28.464  36.995  1.00  0.00     0.022 A 
BRANCH  92  96
ATOM     96  S   UNL A   1      47.213  26.474  38.607  1.00  0.00     0.124 S 
ATOM     97  O   UNL A   1      47.326  25.178  37.945  1.00  0.00    -0.237 OA
ATOM     98  O   UNL A   1      48.382  26.904  39.367  1.00  0.00    -0.237 OA
ATOM     99  O   UNL A   1      45.926  26.731  39.251  1.00  0.00    -0.744 OA
ENDBRANCH  92  96
ENDBRANCH  66  89
ENDBRANCH  40  41
ENDBRANCH  33  35
ENDBRANCH  32  33
ENDBRANCH  31  32
ENDBRANCH  30  31
ENDBRANCH  29  30
ENDBRANCH  28  29
ENDBRANCH   1  28
TORSDOF 24
ENDMDL
MODEL 3
REMARK VINA RESULT:      -8.7      7.110      8.343
REMARK SMILES Cc1ccc2nc(C(=O)OCCOCCOCCOCCOC(=O)c3ccc(-c4c5nc(c(-c6cc(S(=O)(=O)[O-])ccc6F)c6ccc([nH]6)c(-c6cc(S(=O)(=O)[O-])ccc6F)c6nc(c(-c7cc(S(=O)(=O)[O-])ccc7F)c7ccc4[nH]7)C=C6)C=C5)cc3)cc(N3CCOCC3)c2c1
REMARK SMILES IDX 17 1 16 2 15 3 14 4 13 5 12 6 11 7 10 8 8 9 9 10 7 11 1 12
REMARK SMILES IDX 2 13 3 14 97 15 4 16 96 17 5 18 89 19 6 20 88 21 90 22 91 23
REMARK SMILES IDX 95 24 92 25 94 26 93 27 18 28 19 29 20 30 21 31 22 32 23 33
REMARK SMILES IDX 24 34 25 35 26 36 87 37 27 38 86 39 28 40 29 41 30 42 80 43
REMARK SMILES IDX 31 44 85 45 79 46 81 47 32 48 84 49 78 50 77 51 33 53 65 54
REMARK SMILES IDX 45 55 64 56 46 57 49 58 63 59 82 60 47 61 48 62 62 64 83 65
REMARK SMILES IDX 50 66 34 67 35 68 43 69 36 70 42 71 44 72 41 73 37 74 38 75
REMARK SMILES IDX 39 76 40 77 66 78 67 79 75 80 68 81 74 82 76 83 73 84 69 85
REMARK SMILES IDX 70 86 71 87 72 88 51 89 52 90 60 91 53 92 59 93 61 94 58 95
REMARK SMILES IDX 54 96 55 97 56 98 57 99
REMARK H PARENT 81 52 49 63
REMARK Flexibility Score: inf
ROOT
ATOM      1  C   UNL A   1      34.369  29.900  27.297  1.00  0.00     0.188 C 
ENDROOT
BRANCH   1   2
ATOM      2  O   UNL A   1      33.536  28.740  27.365  1.00  0.00    -0.377 OA
BRANCH   2   3
ATOM      3  C   UNL A   1      32.939  28.232  26.182  1.00  0.00     0.188 C 
BRANCH   3   4
ATOM      4  C   UNL A   1      33.590  26.973  25.575  1.00  0.00     0.188 C 
BRANCH   4   5
ATOM      5  O   UNL A   1      33.602  26.976  24.158  1.00  0.00    -0.376 OA
BRANCH   5   6
ATOM      6  C   UNL A   1      32.397  27.131  23.431  1.00  0.00     0.202 C 
BRANCH   6   7
ATOM      7  C   UNL A   1      31.722  25.958  22.696  1.00  0.00     0.261 C 
BRANCH   7   8
ATOM      8  O   UNL A   1      32.347  24.677  22.806  1.00  0.00    -0.459 OA
BRANCH   8   9
ATOM      9  C   UNL A   1      31.692  23.734  23.520  1.00  0.00     0.357 C 
ATOM     10  O   UNL A   1      30.483  23.645  23.656  1.00  0.00    -0.244 OA
BRANCH   9  11
ATOM     11  C   UNL A   1      32.691  22.717  23.966  1.00  0.00     0.151 A 
ATOM     12  C   UNL A   1      38.297  19.811  25.102  1.00  0.00     0.044 C 
ATOM     13  C   UNL A   1      37.094  20.703  25.063  1.00  0.00    -0.050 A 
ATOM     14  C   UNL A   1      37.193  22.073  25.273  1.00  0.00     0.005 A 
ATOM     15  C   UNL A   1      35.839  20.165  24.760  1.00  0.00     0.016 A 
ATOM     16  C   UNL A   1      36.075  22.885  25.075  1.00  0.00     0.029 A 
ATOM     17  C   UNL A   1      34.679  20.965  24.624  1.00  0.00     0.024 A 
ATOM     18  C   UNL A   1      34.847  22.364  24.693  1.00  0.00     0.073 A 
ATOM     19  C   UNL A   1      33.377  20.447  24.353  1.00  0.00     0.049 A 
ATOM     20  N   UNL A   1      33.883  23.226  24.363  1.00  0.00    -0.241 NA
ATOM     21  C   UNL A   1      32.380  21.365  24.003  1.00  0.00     0.062 A 
BRANCH  19  22
ATOM     22  N   UNL A   1      33.106  19.085  24.389  1.00  0.00    -0.366 N 
ATOM     23  C   UNL A   1      32.640  18.428  25.627  1.00  0.00     0.145 C 
ATOM     24  C   UNL A   1      32.765  18.314  23.183  1.00  0.00     0.145 C 
ATOM     25  C   UNL A   1      33.258  17.019  25.691  1.00  0.00     0.181 C 
ATOM     26  C   UNL A   1      33.361  16.901  23.326  1.00  0.00     0.181 C 
ATOM     27  O   UNL A   1      32.919  16.243  24.528  1.00  0.00    -0.378 OA
ENDBRANCH  19  22
ENDBRANCH   9  11
ENDBRANCH   8   9
ENDBRANCH   7   8
ENDBRANCH   6   7
ENDBRANCH   5   6
ENDBRANCH   4   5
ENDBRANCH   3   4
ENDBRANCH   2   3
ENDBRANCH   1   2
BRANCH   1  28
ATOM     28  C   UNL A   1      33.840  31.338  27.528  1.00  0.00     0.188 C 
BRANCH  28  29
ATOM     29  O   UNL A   1      34.833  32.294  27.863  1.00  0.00    -0.376 OA
BRANCH  29  30
ATOM     30  C   UNL A   1      34.617  33.101  29.007  1.00  0.00     0.202 C 
BRANCH  30  31
ATOM     31  C   UNL A   1      34.860  32.436  30.368  1.00  0.00     0.261 C 
BRANCH  31  32
ATOM     32  O   UNL A   1      36.161  32.629  30.941  1.00  0.00    -0.460 OA
BRANCH  32  33
ATOM     33  C   UNL A   1      36.528  33.900  31.220  1.00  0.00     0.338 C 
ATOM     34  O   UNL A   1      35.869  34.737  31.816  1.00  0.00    -0.246 OA
BRANCH  33  35
ATOM     35  C   UNL A   1      37.948  34.047  30.842  1.00  0.00     0.060 A 
ATOM     36  C   UNL A   1      38.293  34.100  29.484  1.00  0.00     0.016 A 
ATOM     37  C   UNL A   1      38.932  34.150  31.827  1.00  0.00     0.016 A 
ATOM     38  C   UNL A   1      39.633  34.224  29.111  1.00  0.00     0.010 A 
ATOM     39  C   UNL A   1      40.273  34.256  31.450  1.00  0.00     0.010 A 
ATOM     40  C   UNL A   1      40.633  34.261  30.090  1.00  0.00    -0.014 A 
BRANCH  40  41
ATOM     41  C   UNL A   1      42.057  34.101  29.702  1.00  0.00     0.031 A 
ATOM     42  C   UNL A   1      42.659  32.723  29.759  1.00  0.00     0.074 A 
ATOM     43  C   UNL A   1      42.799  35.147  29.297  1.00  0.00     0.049 A 
ATOM     44  N   UNL A   1      43.889  32.340  29.537  1.00  0.00    -0.248 NA
ATOM     45  C   UNL A   1      41.743  31.632  30.123  1.00  0.00     0.031 C 
ATOM     46  C   UNL A   1      42.315  36.519  29.151  1.00  0.00     0.029 A 
ATOM     47  N   UNL A   1      44.123  35.216  28.939  1.00  0.00    -0.354 N 
ATOM     48  C   UNL A   1      43.897  30.963  29.742  1.00  0.00     0.074 A 
ATOM     49  C   UNL A   1      42.559  30.591  30.148  1.00  0.00     0.031 C 
ATOM     50  C   UNL A   1      43.332  37.297  28.740  1.00  0.00     0.029 A 
ATOM     51  C   UNL A   1      44.548  36.489  28.638  1.00  0.00     0.049 A 
ATOM     52  H   UNL A   1      44.712  34.429  28.901  1.00  0.00     0.167 HD
ATOM     53  C   UNL A   1      44.925  30.090  29.595  1.00  0.00     0.034 A 
ATOM     54  C   UNL A   1      45.781  36.952  28.344  1.00  0.00     0.034 A 
ATOM     55  C   UNL A   1      46.258  30.483  29.206  1.00  0.00     0.049 A 
ATOM     56  C   UNL A   1      46.937  35.978  28.291  1.00  0.00     0.074 A 
ATOM     57  C   UNL A   1      47.370  29.681  29.017  1.00  0.00     0.029 A 
ATOM     58  N   UNL A   1      46.665  31.789  28.967  1.00  0.00    -0.354 N 
ATOM     59  N   UNL A   1      46.935  34.677  28.481  1.00  0.00    -0.248 NA
ATOM     60  C   UNL A   1      48.260  36.535  27.980  1.00  0.00     0.031 C 
ATOM     61  C   UNL A   1      48.466  30.510  28.750  1.00  0.00     0.029 A 
ATOM     62  C   UNL A   1      48.021  31.820  28.674  1.00  0.00     0.049 A 
ATOM     63  H   UNL A   1      46.077  32.579  28.999  1.00  0.00     0.167 HD
ATOM     64  C   UNL A   1      48.249  34.259  28.275  1.00  0.00     0.074 A 
ATOM     65  C   UNL A   1      49.010  35.444  27.937  1.00  0.00     0.031 C 
ATOM     66  C   UNL A   1      48.776  33.010  28.350  1.00  0.00     0.034 A 
BRANCH  53  67
ATOM     67  C   UNL A   1      44.651  28.641  29.920  1.00  0.00     0.023 A 
ATOM     68  C   UNL A   1      44.208  27.731  28.944  1.00  0.00     0.031 A 
ATOM     69  C   UNL A   1      44.793  28.171  31.238  1.00  0.00     0.131 A 
ATOM     70  C   UNL A   1      43.841  26.428  29.316  1.00  0.00     0.055 A 
ATOM     71  C   UNL A   1      44.515  26.847  31.583  1.00  0.00     0.041 A 
ATOM     72  F   UNL A   1      45.187  28.997  32.220  1.00  0.00    -0.206 F 
ATOM     73  C   UNL A   1      44.018  25.971  30.623  1.00  0.00     0.022 A 
BRANCH  70  74
ATOM     74  S   UNL A   1      42.969  25.396  28.104  1.00  0.00     0.124 S 
ATOM     75  O   UNL A   1      41.586  25.506  28.564  1.00  0.00    -0.237 OA
ATOM     76  O   UNL A   1      43.279  26.060  26.843  1.00  0.00    -0.237 OA
ATOM     77  O   UNL A   1      43.573  24.077  28.281  1.00  0.00    -0.744 OA
ENDBRANCH  70  74
ENDBRANCH  53  67
BRANCH  54  78
ATOM     78  C   UNL A   1      46.009  38.410  28.117  1.00  0.00     0.023 A 
ATOM     79  C   UNL A   1      45.877  38.976  26.838  1.00  0.00     0.031 A 
ATOM     80  C   UNL A   1      46.415  39.249  29.170  1.00  0.00     0.131 A 
ATOM     81  C   UNL A   1      46.191  40.330  26.638  1.00  0.00     0.055 A 
ATOM     82  C   UNL A   1      46.669  40.608  28.976  1.00  0.00     0.041 A 
ATOM     83  F   UNL A   1      46.564  38.760  30.412  1.00  0.00    -0.206 F 
ATOM     84  C   UNL A   1      46.569  41.153  27.701  1.00  0.00     0.022 A 
BRANCH  81  85
ATOM     85  S   UNL A   1      46.183  40.983  24.945  1.00  0.00     0.124 S 
ATOM     86  O   UNL A   1      44.762  41.235  24.731  1.00  0.00    -0.237 OA
ATOM     87  O   UNL A   1      47.033  42.161  25.071  1.00  0.00    -0.237 OA
ATOM     88  O   UNL A   1      46.749  39.889  24.157  1.00  0.00    -0.744 OA
ENDBRANCH  81  85
ENDBRANCH  54  78
BRANCH  66  89
ATOM     89  C   UNL A   1      50.240  32.852  28.011  1.00  0.00     0.023 A 
ATOM     90  C   UNL A   1      50.681  32.609  26.697  1.00  0.00     0.031 A 
ATOM     91  C   UNL A   1      51.214  32.943  29.024  1.00  0.00     0.131 A 
ATOM     92  C   UNL A   1      52.047  32.408  26.443  1.00  0.00     0.055 A 
ATOM     93  C   UNL A   1      52.576  32.813  28.753  1.00  0.00     0.041 A 
ATOM     94  F   UNL A   1      50.854  33.169  30.298  1.00  0.00    -0.206 F 
ATOM     95  C   UNL A   1      52.999  32.530  27.459  1.00  0.00     0.022 A 
BRANCH  92  96
ATOM     96  S   UNL A   1      52.556  31.878  24.785  1.00  0.00     0.124 S 
ATOM     97  O   UNL A   1      51.505  32.450  23.948  1.00  0.00    -0.237 OA
ATOM     98  O   UNL A   1      53.876  32.485  24.654  1.00  0.00    -0.237 OA
ATOM     99  O   UNL A   1      52.551  30.418  24.874  1.00  0.00    -0.744 OA
ENDBRANCH  92  96
ENDBRANCH  66  89
ENDBRANCH  40  41
ENDBRANCH  33  35
ENDBRANCH  32  33
ENDBRANCH  31  32
ENDBRANCH  30  31
ENDBRANCH  29  30
ENDBRANCH  28  29
ENDBRANCH   1  28
TORSDOF 24
ENDMDL
