MODEL 1
REMARK VINA RESULT:      -5.7      0.000      0.000
REMARK SMILES C[NH+](C)[C@@H]1CC[N@@H+](Cc2ccc(C(=O)OCCOCCOCCOCCOC(=O)c3ccc(-c4c5nc(c(-c6cc(S(=O)(=O)[O-])ccc6F)c6ccc([nH]6)c(-c6cc(S(=O)(=O)[O-])ccc6F)c6nc(c(-c7cc(S(=O)(=O)[O-])ccc7F)c7ccc4[nH]7)C=C6)C=C5)cc3)cn2)C1
REMARK SMILES IDX 21 1 20 2 19 3 18 4 17 5 16 6 15 7 13 8 14 9 12 10 9 11
REMARK SMILES IDX 10 12 94 13 11 14 93 15 8 16 7 17 4 18 5 19 95 20 6 21 2 23
REMARK SMILES IDX 1 24 3 25 22 27 23 28 24 29 25 30 26 31 27 32 28 33 29 34
REMARK SMILES IDX 30 35 31 36 92 37 32 38 91 39 33 40 34 41 35 42 85 43 36 44
REMARK SMILES IDX 90 45 84 46 86 47 37 48 89 49 83 50 82 51 38 53 70 54 50 55
REMARK SMILES IDX 69 56 51 57 54 58 68 59 87 60 52 61 53 62 67 64 88 65 55 66
REMARK SMILES IDX 39 67 40 68 48 69 41 70 47 71 49 72 46 73 42 74 43 75 44 76
REMARK SMILES IDX 45 77 71 78 72 79 80 80 73 81 79 82 81 83 78 84 74 85 75 86
REMARK SMILES IDX 76 87 77 88 56 89 57 90 65 91 58 92 64 93 66 94 63 95 59 96
REMARK SMILES IDX 60 97 61 98 62 99
REMARK H PARENT 7 22 2 26 86 52 54 63
REMARK Flexibility Score: inf
ROOT
ATOM      1  O   UNL A   1      48.604  30.743  26.814  1.00  0.00    -0.377 OA
ENDROOT
BRANCH   1   2
ATOM      2  C   UNL A   1      47.539  31.670  26.826  1.00  0.00     0.188 C 
BRANCH   2   3
ATOM      3  C   UNL A   1      46.173  31.064  26.448  1.00  0.00     0.188 C 
BRANCH   3   4
ATOM      4  O   UNL A   1      45.368  31.739  25.504  1.00  0.00    -0.376 OA
BRANCH   4   5
ATOM      5  C   UNL A   1      44.394  32.719  25.831  1.00  0.00     0.202 C 
BRANCH   5   6
ATOM      6  C   UNL A   1      43.940  33.928  24.989  1.00  0.00     0.261 C 
BRANCH   6   7
ATOM      7  O   UNL A   1      43.155  34.917  25.633  1.00  0.00    -0.460 OA
BRANCH   7   8
ATOM      8  C   UNL A   1      43.710  35.486  26.719  1.00  0.00     0.339 C 
ATOM      9  O   UNL A   1      44.686  36.214  26.763  1.00  0.00    -0.246 OA
BRANCH   8  10
ATOM     10  C   UNL A   1      42.793  35.276  27.846  1.00  0.00     0.078 A 
ATOM     11  C   UNL A   1      41.221  34.626  29.974  1.00  0.00     0.095 A 
ATOM     12  C   UNL A   1      40.667  35.392  28.948  1.00  0.00     0.031 A 
ATOM     13  N   UNL A   1      42.552  34.352  30.054  1.00  0.00    -0.254 NA
ATOM     14  C   UNL A   1      41.468  35.714  27.857  1.00  0.00     0.019 A 
ATOM     15  C   UNL A   1      43.306  34.666  28.980  1.00  0.00     0.127 A 
BRANCH  11  16
ATOM     16  C   UNL A   1      40.317  33.782  30.855  1.00  0.00     0.319 C 
BRANCH  16  17
ATOM     17  N   UNL A   1      39.476  32.782  30.146  1.00  0.00    -0.325 N 
ATOM     18  C   UNL A   1      39.083  30.610  31.233  1.00  0.00     0.245 C 
ATOM     19  C   UNL A   1      38.015  31.616  31.661  1.00  0.00     0.132 C 
ATOM     20  C   UNL A   1      39.956  31.392  30.210  1.00  0.00     0.328 C 
ATOM     21  C   UNL A   1      38.085  32.726  30.623  1.00  0.00     0.269 C 
ATOM     22  H   UNL A   1      39.537  33.133  29.191  1.00  0.00     0.348 HD
BRANCH  18  23
ATOM     23  N   UNL A   1      38.528  29.300  30.840  1.00  0.00    -0.333 N 
ATOM     24  C   UNL A   1      39.210  28.149  31.423  1.00  0.00     0.332 C 
ATOM     25  C   UNL A   1      37.087  29.215  31.069  1.00  0.00     0.332 C 
ATOM     26  H   UNL A   1      38.701  29.253  29.836  1.00  0.00     0.348 HD
ENDBRANCH  18  23
ENDBRANCH  16  17
ENDBRANCH  11  16
ENDBRANCH   8  10
ENDBRANCH   7   8
ENDBRANCH   6   7
ENDBRANCH   5   6
ENDBRANCH   4   5
ENDBRANCH   3   4
ENDBRANCH   2   3
ENDBRANCH   1   2
BRANCH   1  27
ATOM     27  C   UNL A   1      48.277  29.357  26.859  1.00  0.00     0.188 C 
BRANCH  27  28
ATOM     28  C   UNL A   1      48.571  28.501  28.115  1.00  0.00     0.188 C 
BRANCH  28  29
ATOM     29  O   UNL A   1      48.774  27.116  27.872  1.00  0.00    -0.376 OA
BRANCH  29  30
ATOM     30  C   UNL A   1      47.646  26.283  27.662  1.00  0.00     0.202 C 
BRANCH  30  31
ATOM     31  C   UNL A   1      47.020  25.622  28.898  1.00  0.00     0.261 C 
BRANCH  31  32
ATOM     32  O   UNL A   1      45.613  25.831  29.080  1.00  0.00    -0.460 OA
BRANCH  32  33
ATOM     33  C   UNL A   1      45.131  25.703  30.335  1.00  0.00     0.338 C 
ATOM     34  O   UNL A   1      45.113  24.689  31.012  1.00  0.00    -0.246 OA
BRANCH  33  35
ATOM     35  C   UNL A   1      44.806  27.057  30.826  1.00  0.00     0.060 A 
ATOM     36  C   UNL A   1      43.872  27.831  30.124  1.00  0.00     0.016 A 
ATOM     37  C   UNL A   1      45.408  27.552  31.985  1.00  0.00     0.016 A 
ATOM     38  C   UNL A   1      43.564  29.120  30.562  1.00  0.00     0.010 A 
ATOM     39  C   UNL A   1      45.113  28.849  32.410  1.00  0.00     0.010 A 
ATOM     40  C   UNL A   1      44.216  29.652  31.682  1.00  0.00    -0.014 A 
BRANCH  40  41
ATOM     41  C   UNL A   1      44.129  31.105  31.968  1.00  0.00     0.031 A 
ATOM     42  C   UNL A   1      45.144  32.014  31.331  1.00  0.00     0.074 A 
ATOM     43  C   UNL A   1      43.163  31.612  32.753  1.00  0.00     0.049 A 
ATOM     44  N   UNL A   1      45.319  33.302  31.473  1.00  0.00    -0.248 NA
ATOM     45  C   UNL A   1      46.097  31.373  30.411  1.00  0.00     0.031 C 
ATOM     46  C   UNL A   1      42.087  30.843  33.374  1.00  0.00     0.029 A 
ATOM     47  N   UNL A   1      42.935  32.903  33.161  1.00  0.00    -0.354 N 
ATOM     48  C   UNL A   1      46.402  33.627  30.662  1.00  0.00     0.074 A 
ATOM     49  C   UNL A   1      46.873  32.391  30.076  1.00  0.00     0.031 C 
ATOM     50  C   UNL A   1      41.312  31.679  34.087  1.00  0.00     0.029 A 
ATOM     51  C   UNL A   1      41.862  33.032  34.011  1.00  0.00     0.049 A 
ATOM     52  H   UNL A   1      43.488  33.664  32.873  1.00  0.00     0.167 HD
ATOM     53  C   UNL A   1      46.944  34.846  30.418  1.00  0.00     0.034 A 
ATOM     54  C   UNL A   1      41.396  34.114  34.668  1.00  0.00     0.034 A 
ATOM     55  C   UNL A   1      46.477  36.065  31.032  1.00  0.00     0.049 A 
ATOM     56  C   UNL A   1      42.097  35.442  34.486  1.00  0.00     0.074 A 
ATOM     57  C   UNL A   1      46.954  37.353  30.864  1.00  0.00     0.029 A 
ATOM     58  N   UNL A   1      45.433  36.146  31.946  1.00  0.00    -0.354 N 
ATOM     59  N   UNL A   1      43.124  35.740  33.721  1.00  0.00    -0.248 NA
ATOM     60  C   UNL A   1      41.571  36.579  35.252  1.00  0.00     0.031 C 
ATOM     61  C   UNL A   1      46.258  38.196  31.737  1.00  0.00     0.029 A 
ATOM     62  C   UNL A   1      45.279  37.454  32.380  1.00  0.00     0.049 A 
ATOM     63  H   UNL A   1      44.883  35.386  32.243  1.00  0.00     0.167 HD
ATOM     64  C   UNL A   1      43.337  37.108  33.886  1.00  0.00     0.074 A 
ATOM     65  C   UNL A   1      42.328  37.574  34.814  1.00  0.00     0.031 C 
ATOM     66  C   UNL A   1      44.274  37.909  33.314  1.00  0.00     0.034 A 
BRANCH  53  67
ATOM     67  C   UNL A   1      48.137  34.894  29.493  1.00  0.00     0.023 A 
ATOM     68  C   UNL A   1      47.996  35.168  28.120  1.00  0.00     0.031 A 
ATOM     69  C   UNL A   1      49.426  34.604  29.975  1.00  0.00     0.131 A 
ATOM     70  C   UNL A   1      49.103  35.050  27.266  1.00  0.00     0.055 A 
ATOM     71  C   UNL A   1      50.540  34.585  29.135  1.00  0.00     0.041 A 
ATOM     72  F   UNL A   1      49.621  34.308  31.270  1.00  0.00    -0.206 F 
ATOM     73  C   UNL A   1      50.380  34.790  27.768  1.00  0.00     0.022 A 
BRANCH  70  74
ATOM     74  S   UNL A   1      48.815  35.059  25.475  1.00  0.00     0.124 S 
ATOM     75  O   UNL A   1      49.851  34.142  25.006  1.00  0.00    -0.237 OA
ATOM     76  O   UNL A   1      47.442  34.577  25.374  1.00  0.00    -0.237 OA
ATOM     77  O   UNL A   1      49.017  36.457  25.102  1.00  0.00    -0.744 OA
ENDBRANCH  70  74
ENDBRANCH  53  67
BRANCH  54  78
ATOM     78  C   UNL A   1      40.224  34.001  35.584  1.00  0.00     0.023 A 
ATOM     79  C   UNL A   1      40.402  33.837  36.967  1.00  0.00     0.031 A 
ATOM     80  C   UNL A   1      38.909  33.992  35.086  1.00  0.00     0.131 A 
ATOM     81  C   UNL A   1      39.291  33.622  37.797  1.00  0.00     0.055 A 
ATOM     82  C   UNL A   1      37.802  33.838  35.923  1.00  0.00     0.041 A 
ATOM     83  F   UNL A   1      38.679  34.137  33.771  1.00  0.00    -0.206 F 
ATOM     84  C   UNL A   1      37.991  33.638  37.287  1.00  0.00     0.022 A 
BRANCH  81  85
ATOM     85  S   UNL A   1      39.577  33.225  39.544  1.00  0.00     0.124 S 
ATOM     86  O   UNL A   1      40.702  32.302  39.455  1.00  0.00    -0.237 OA
ATOM     87  O   UNL A   1      39.866  34.538  40.109  1.00  0.00    -0.237 OA
ATOM     88  O   UNL A   1      38.312  32.630  39.968  1.00  0.00    -0.744 OA
ENDBRANCH  81  85
ENDBRANCH  54  78
BRANCH  66  89
ATOM     89  C   UNL A   1      44.215  39.386  33.634  1.00  0.00     0.023 A 
ATOM     90  C   UNL A   1      44.797  39.922  34.795  1.00  0.00     0.031 A 
ATOM     91  C   UNL A   1      43.556  40.269  32.758  1.00  0.00     0.131 A 
ATOM     92  C   UNL A   1      44.659  41.290  35.079  1.00  0.00     0.055 A 
ATOM     93  C   UNL A   1      43.484  41.640  33.011  1.00  0.00     0.041 A 
ATOM     94  F   UNL A   1      42.976  39.815  31.636  1.00  0.00    -0.206 F 
ATOM     95  C   UNL A   1      44.024  42.155  34.185  1.00  0.00     0.022 A 
BRANCH  92  96
ATOM     96  S   UNL A   1      45.227  41.908  36.687  1.00  0.00     0.124 S 
ATOM     97  O   UNL A   1      44.192  41.411  37.587  1.00  0.00    -0.237 OA
ATOM     98  O   UNL A   1      46.539  41.280  36.817  1.00  0.00    -0.237 OA
ATOM     99  O   UNL A   1      45.251  43.359  36.509  1.00  0.00    -0.744 OA
ENDBRANCH  92  96
ENDBRANCH  66  89
ENDBRANCH  40  41
ENDBRANCH  33  35
ENDBRANCH  32  33
ENDBRANCH  31  32
ENDBRANCH  30  31
ENDBRANCH  29  30
ENDBRANCH  28  29
ENDBRANCH  27  28
ENDBRANCH   1  27
TORSDOF 26
ENDMDL
MODEL 2
REMARK VINA RESULT:      -5.7      5.663     10.644
REMARK SMILES C[NH+](C)[C@@H]1CC[N@@H+](Cc2ccc(C(=O)OCCOCCOCCOCCOC(=O)c3ccc(-c4c5nc(c(-c6cc(S(=O)(=O)[O-])ccc6F)c6ccc([nH]6)c(-c6cc(S(=O)(=O)[O-])ccc6F)c6nc(c(-c7cc(S(=O)(=O)[O-])ccc7F)c7ccc4[nH]7)C=C6)C=C5)cc3)cn2)C1
REMARK SMILES IDX 21 1 20 2 19 3 18 4 17 5 16 6 15 7 13 8 14 9 12 10 9 11
REMARK SMILES IDX 10 12 94 13 11 14 93 15 8 16 7 17 4 18 5 19 95 20 6 21 2 23
REMARK SMILES IDX 1 24 3 25 22 27 23 28 24 29 25 30 26 31 27 32 28 33 29 34
REMARK SMILES IDX 30 35 31 36 92 37 32 38 91 39 33 40 34 41 35 42 85 43 36 44
REMARK SMILES IDX 90 45 84 46 86 47 37 48 89 49 83 50 82 51 38 53 70 54 50 55
REMARK SMILES IDX 69 56 51 57 54 58 68 59 87 60 52 61 53 62 67 64 88 65 55 66
REMARK SMILES IDX 39 67 40 68 48 69 41 70 47 71 49 72 46 73 42 74 43 75 44 76
REMARK SMILES IDX 45 77 71 78 72 79 80 80 73 81 79 82 81 83 78 84 74 85 75 86
REMARK SMILES IDX 76 87 77 88 56 89 57 90 65 91 58 92 64 93 66 94 63 95 59 96
REMARK SMILES IDX 60 97 61 98 62 99
REMARK H PARENT 7 22 2 26 86 52 54 63
REMARK Flexibility Score: inf
ROOT
ATOM      1  O   UNL A   1      40.529  27.669  28.131  1.00  0.00    -0.377 OA
ENDROOT
BRANCH   1   2
ATOM      2  C   UNL A   1      41.194  26.482  28.510  1.00  0.00     0.188 C 
BRANCH   2   3
ATOM      3  C   UNL A   1      40.359  25.202  28.308  1.00  0.00     0.188 C 
BRANCH   3   4
ATOM      4  O   UNL A   1      39.435  25.154  27.241  1.00  0.00    -0.376 OA
BRANCH   4   5
ATOM      5  C   UNL A   1      39.415  24.147  26.240  1.00  0.00     0.202 C 
BRANCH   5   6
ATOM      6  C   UNL A   1      39.419  22.617  26.427  1.00  0.00     0.261 C 
BRANCH   6   7
ATOM      7  O   UNL A   1      38.165  21.954  26.429  1.00  0.00    -0.460 OA
BRANCH   7   8
ATOM      8  C   UNL A   1      37.733  21.520  25.232  1.00  0.00     0.339 C 
ATOM      9  O   UNL A   1      38.031  20.484  24.662  1.00  0.00    -0.246 OA
BRANCH   8  10
ATOM     10  C   UNL A   1      36.637  22.400  24.810  1.00  0.00     0.078 A 
ATOM     11  C   UNL A   1      34.441  23.910  24.242  1.00  0.00     0.095 A 
ATOM     12  C   UNL A   1      35.268  23.516  23.189  1.00  0.00     0.031 A 
ATOM     13  N   UNL A   1      34.780  23.740  25.550  1.00  0.00    -0.254 NA
ATOM     14  C   UNL A   1      36.383  22.737  23.479  1.00  0.00     0.019 A 
ATOM     15  C   UNL A   1      35.860  22.972  25.806  1.00  0.00     0.127 A 
BRANCH  11  16
ATOM     16  C   UNL A   1      32.982  24.233  23.973  1.00  0.00     0.319 C 
BRANCH  16  17
ATOM     17  N   UNL A   1      32.721  25.540  23.316  1.00  0.00    -0.325 N 
ATOM     18  C   UNL A   1      31.127  27.082  24.382  1.00  0.00     0.245 C 
ATOM     19  C   UNL A   1      32.536  27.323  24.923  1.00  0.00     0.132 C 
ATOM     20  C   UNL A   1      31.314  25.974  23.307  1.00  0.00     0.328 C 
ATOM     21  C   UNL A   1      33.460  26.666  23.909  1.00  0.00     0.269 C 
ATOM     22  H   UNL A   1      33.034  25.336  22.368  1.00  0.00     0.348 HD
BRANCH  18  23
ATOM     23  N   UNL A   1      30.425  28.326  24.008  1.00  0.00    -0.333 N 
ATOM     24  C   UNL A   1      31.040  29.548  24.515  1.00  0.00     0.332 C 
ATOM     25  C   UNL A   1      30.196  28.424  22.568  1.00  0.00     0.332 C 
ATOM     26  H   UNL A   1      29.522  28.248  24.476  1.00  0.00     0.348 HD
ENDBRANCH  18  23
ENDBRANCH  16  17
ENDBRANCH  11  16
ENDBRANCH   8  10
ENDBRANCH   7   8
ENDBRANCH   6   7
ENDBRANCH   5   6
ENDBRANCH   4   5
ENDBRANCH   3   4
ENDBRANCH   2   3
ENDBRANCH   1   2
BRANCH   1  27
ATOM     27  C   UNL A   1      39.495  28.151  28.985  1.00  0.00     0.188 C 
BRANCH  27  28
ATOM     28  C   UNL A   1      38.133  28.618  28.416  1.00  0.00     0.188 C 
BRANCH  28  29
ATOM     29  O   UNL A   1      37.338  29.394  29.302  1.00  0.00    -0.376 OA
BRANCH  29  30
ATOM     30  C   UNL A   1      37.898  29.817  30.534  1.00  0.00     0.202 C 
BRANCH  30  31
ATOM     31  C   UNL A   1      38.495  31.231  30.585  1.00  0.00     0.261 C 
BRANCH  31  32
ATOM     32  O   UNL A   1      37.935  32.117  31.564  1.00  0.00    -0.460 OA
BRANCH  32  33
ATOM     33  C   UNL A   1      37.706  33.391  31.179  1.00  0.00     0.338 C 
ATOM     34  O   UNL A   1      36.686  34.036  31.355  1.00  0.00    -0.246 OA
BRANCH  33  35
ATOM     35  C   UNL A   1      38.982  33.940  30.680  1.00  0.00     0.060 A 
ATOM     36  C   UNL A   1      39.052  34.416  29.364  1.00  0.00     0.016 A 
ATOM     37  C   UNL A   1      40.100  34.001  31.515  1.00  0.00     0.016 A 
ATOM     38  C   UNL A   1      40.254  34.923  28.868  1.00  0.00     0.010 A 
ATOM     39  C   UNL A   1      41.307  34.490  31.010  1.00  0.00     0.010 A 
ATOM     40  C   UNL A   1      41.398  34.921  29.675  1.00  0.00    -0.014 A 
BRANCH  40  41
ATOM     41  C   UNL A   1      42.731  35.164  29.069  1.00  0.00     0.031 A 
ATOM     42  C   UNL A   1      43.599  33.973  28.766  1.00  0.00     0.074 A 
ATOM     43  C   UNL A   1      43.155  36.404  28.772  1.00  0.00     0.049 A 
ATOM     44  N   UNL A   1      44.819  33.925  28.299  1.00  0.00    -0.248 NA
ATOM     45  C   UNL A   1      43.002  32.655  29.036  1.00  0.00     0.031 C 
ATOM     46  C   UNL A   1      42.382  37.630  28.959  1.00  0.00     0.029 A 
ATOM     47  N   UNL A   1      44.349  36.834  28.248  1.00  0.00    -0.354 N 
ATOM     48  C   UNL A   1      45.139  32.573  28.221  1.00  0.00     0.074 A 
ATOM     49  C   UNL A   1      44.002  31.842  28.738  1.00  0.00     0.031 C 
ATOM     50  C   UNL A   1      43.124  38.677  28.555  1.00  0.00     0.029 A 
ATOM     51  C   UNL A   1      44.438  38.201  28.127  1.00  0.00     0.049 A 
ATOM     52  H   UNL A   1      45.074  36.222  27.986  1.00  0.00     0.167 HD
ATOM     53  C   UNL A   1      46.270  31.994  27.746  1.00  0.00     0.034 A 
ATOM     54  C   UNL A   1      45.471  38.975  27.736  1.00  0.00     0.034 A 
ATOM     55  C   UNL A   1      47.404  32.740  27.258  1.00  0.00     0.049 A 
ATOM     56  C   UNL A   1      46.773  38.317  27.337  1.00  0.00     0.074 A 
ATOM     57  C   UNL A   1      48.603  32.260  26.761  1.00  0.00     0.029 A 
ATOM     58  N   UNL A   1      47.486  34.127  27.218  1.00  0.00    -0.354 N 
ATOM     59  N   UNL A   1      47.069  37.037  27.269  1.00  0.00    -0.248 NA
ATOM     60  C   UNL A   1      47.876  39.207  26.956  1.00  0.00     0.031 C 
ATOM     61  C   UNL A   1      49.439  33.352  26.503  1.00  0.00     0.029 A 
ATOM     62  C   UNL A   1      48.730  34.518  26.745  1.00  0.00     0.049 A 
ATOM     63  H   UNL A   1      46.767  34.743  27.488  1.00  0.00     0.167 HD
ATOM     64  C   UNL A   1      48.380  36.974  26.799  1.00  0.00     0.074 A 
ATOM     65  C   UNL A   1      48.811  38.341  26.592  1.00  0.00     0.031 C 
ATOM     66  C   UNL A   1      49.154  35.886  26.550  1.00  0.00     0.034 A 
BRANCH  53  67
ATOM     67  C   UNL A   1      46.344  30.486  27.798  1.00  0.00     0.023 A 
ATOM     68  C   UNL A   1      45.809  29.686  26.771  1.00  0.00     0.031 A 
ATOM     69  C   UNL A   1      46.901  29.836  28.912  1.00  0.00     0.131 A 
ATOM     70  C   UNL A   1      45.756  28.293  26.926  1.00  0.00     0.055 A 
ATOM     71  C   UNL A   1      46.933  28.444  29.015  1.00  0.00     0.041 A 
ATOM     72  F   UNL A   1      47.403  30.545  29.937  1.00  0.00    -0.206 F 
ATOM     73  C   UNL A   1      46.341  27.664  28.028  1.00  0.00     0.022 A 
BRANCH  70  74
ATOM     74  S   UNL A   1      44.749  27.333  25.761  1.00  0.00     0.124 S 
ATOM     75  O   UNL A   1      44.249  26.262  26.618  1.00  0.00    -0.237 OA
ATOM     76  O   UNL A   1      43.763  28.311  25.317  1.00  0.00    -0.237 OA
ATOM     77  O   UNL A   1      45.711  26.910  24.745  1.00  0.00    -0.744 OA
ENDBRANCH  70  74
ENDBRANCH  53  67
BRANCH  54  78
ATOM     78  C   UNL A   1      45.346  40.462  27.725  1.00  0.00     0.023 A 
ATOM     79  C   UNL A   1      45.430  41.203  28.915  1.00  0.00     0.031 A 
ATOM     80  C   UNL A   1      45.077  41.161  26.534  1.00  0.00     0.131 A 
ATOM     81  C   UNL A   1      45.199  42.587  28.897  1.00  0.00     0.055 A 
ATOM     82  C   UNL A   1      44.907  42.546  26.512  1.00  0.00     0.041 A 
ATOM     83  F   UNL A   1      44.977  40.503  25.368  1.00  0.00    -0.206 F 
ATOM     84  C   UNL A   1      44.955  43.266  27.702  1.00  0.00     0.022 A 
BRANCH  81  85
ATOM     85  S   UNL A   1      45.129  43.474  30.477  1.00  0.00     0.124 S 
ATOM     86  O   UNL A   1      44.067  44.441  30.225  1.00  0.00    -0.237 OA
ATOM     87  O   UNL A   1      44.811  42.401  31.413  1.00  0.00    -0.237 OA
ATOM     88  O   UNL A   1      46.470  44.037  30.609  1.00  0.00    -0.744 OA
ENDBRANCH  81  85
ENDBRANCH  54  78
BRANCH  66  89
ATOM     89  C   UNL A   1      50.529  36.129  25.969  1.00  0.00     0.023 A 
ATOM     90  C   UNL A   1      51.678  36.206  26.776  1.00  0.00     0.031 A 
ATOM     91  C   UNL A   1      50.688  36.293  24.580  1.00  0.00     0.131 A 
ATOM     92  C   UNL A   1      52.922  36.498  26.196  1.00  0.00     0.055 A 
ATOM     93  C   UNL A   1      51.939  36.513  24.002  1.00  0.00     0.041 A 
ATOM     94  F   UNL A   1      49.628  36.236  23.759  1.00  0.00    -0.206 F 
ATOM     95  C   UNL A   1      53.064  36.631  24.813  1.00  0.00     0.022 A 
BRANCH  92  96
ATOM     96  S   UNL A   1      54.340  36.807  27.285  1.00  0.00     0.124 S 
ATOM     97  O   UNL A   1      55.454  36.314  26.482  1.00  0.00    -0.237 OA
ATOM     98  O   UNL A   1      54.281  38.254  27.472  1.00  0.00    -0.237 OA
ATOM     99  O   UNL A   1      54.036  36.017  28.477  1.00  0.00    -0.744 OA
ENDBRANCH  92  96
ENDBRANCH  66  89
ENDBRANCH  40  41
ENDBRANCH  33  35
ENDBRANCH  32  33
ENDBRANCH  31  32
ENDBRANCH  30  31
ENDBRANCH  29  30
ENDBRANCH  28  29
ENDBRANCH  27  28
ENDBRANCH   1  27
TORSDOF 26
ENDMDL
MODEL 3
REMARK VINA RESULT:      -5.7      3.448      8.043
REMARK SMILES C[NH+](C)[C@@H]1CC[N@@H+](Cc2ccc(C(=O)OCCOCCOCCOCCOC(=O)c3ccc(-c4c5nc(c(-c6cc(S(=O)(=O)[O-])ccc6F)c6ccc([nH]6)c(-c6cc(S(=O)(=O)[O-])ccc6F)c6nc(c(-c7cc(S(=O)(=O)[O-])ccc7F)c7ccc4[nH]7)C=C6)C=C5)cc3)cn2)C1
REMARK SMILES IDX 21 1 20 2 19 3 18 4 17 5 16 6 15 7 13 8 14 9 12 10 9 11
REMARK SMILES IDX 10 12 94 13 11 14 93 15 8 16 7 17 4 18 5 19 95 20 6 21 2 23
REMARK SMILES IDX 1 24 3 25 22 27 23 28 24 29 25 30 26 31 27 32 28 33 29 34
REMARK SMILES IDX 30 35 31 36 92 37 32 38 91 39 33 40 34 41 35 42 85 43 36 44
REMARK SMILES IDX 90 45 84 46 86 47 37 48 89 49 83 50 82 51 38 53 70 54 50 55
REMARK SMILES IDX 69 56 51 57 54 58 68 59 87 60 52 61 53 62 67 64 88 65 55 66
REMARK SMILES IDX 39 67 40 68 48 69 41 70 47 71 49 72 46 73 42 74 43 75 44 76
REMARK SMILES IDX 45 77 71 78 72 79 80 80 73 81 79 82 81 83 78 84 74 85 75 86
REMARK SMILES IDX 76 87 77 88 56 89 57 90 65 91 58 92 64 93 66 94 63 95 59 96
REMARK SMILES IDX 60 97 61 98 62 99
REMARK H PARENT 7 22 2 26 86 52 54 63
REMARK Flexibility Score: inf
ROOT
ATOM      1  O   UNL A   1      45.494  33.182  25.597  1.00  0.00    -0.377 OA
ENDROOT
BRANCH   1   2
ATOM      2  C   UNL A   1      45.908  32.185  26.505  1.00  0.00     0.188 C 
BRANCH   2   3
ATOM      3  C   UNL A   1      44.805  31.174  26.875  1.00  0.00     0.188 C 
BRANCH   3   4
ATOM      4  O   UNL A   1      44.696  29.981  26.127  1.00  0.00    -0.376 OA
BRANCH   4   5
ATOM      5  C   UNL A   1      44.445  28.700  26.686  1.00  0.00     0.202 C 
BRANCH   5   6
ATOM      6  C   UNL A   1      43.084  28.030  26.958  1.00  0.00     0.261 C 
BRANCH   6   7
ATOM      7  O   UNL A   1      42.136  28.759  27.721  1.00  0.00    -0.460 OA
BRANCH   7   8
ATOM      8  C   UNL A   1      40.987  28.114  27.992  1.00  0.00     0.339 C 
ATOM      9  O   UNL A   1      40.809  26.911  28.077  1.00  0.00    -0.246 OA
BRANCH   8  10
ATOM     10  C   UNL A   1      40.004  29.119  28.413  1.00  0.00     0.078 A 
ATOM     11  C   UNL A   1      38.285  30.952  29.466  1.00  0.00     0.095 A 
ATOM     12  C   UNL A   1      37.843  30.157  28.408  1.00  0.00     0.031 A 
ATOM     13  N   UNL A   1      39.585  30.988  29.869  1.00  0.00    -0.254 NA
ATOM     14  C   UNL A   1      38.718  29.215  27.878  1.00  0.00     0.019 A 
ATOM     15  C   UNL A   1      40.412  30.058  29.347  1.00  0.00     0.127 A 
BRANCH  11  16
ATOM     16  C   UNL A   1      37.276  31.548  30.432  1.00  0.00     0.319 C 
BRANCH  16  17
ATOM     17  N   UNL A   1      36.842  32.938  30.135  1.00  0.00    -0.325 N 
ATOM     18  C   UNL A   1      34.455  33.487  30.368  1.00  0.00     0.245 C 
ATOM     19  C   UNL A   1      35.177  33.702  31.697  1.00  0.00     0.132 C 
ATOM     20  C   UNL A   1      35.581  33.060  29.384  1.00  0.00     0.328 C 
ATOM     21  C   UNL A   1      36.653  33.773  31.332  1.00  0.00     0.269 C 
ATOM     22  H   UNL A   1      37.624  33.259  29.566  1.00  0.00     0.348 HD
BRANCH  18  23
ATOM     23  N   UNL A   1      33.572  34.610  29.995  1.00  0.00    -0.333 N 
ATOM     24  C   UNL A   1      33.330  35.575  31.063  1.00  0.00     0.332 C 
ATOM     25  C   UNL A   1      34.016  35.288  28.780  1.00  0.00     0.332 C 
ATOM     26  H   UNL A   1      32.674  34.164  29.809  1.00  0.00     0.348 HD
ENDBRANCH  18  23
ENDBRANCH  16  17
ENDBRANCH  11  16
ENDBRANCH   8  10
ENDBRANCH   7   8
ENDBRANCH   6   7
ENDBRANCH   5   6
ENDBRANCH   4   5
ENDBRANCH   3   4
ENDBRANCH   2   3
ENDBRANCH   1   2
BRANCH   1  27
ATOM     27  C   UNL A   1      45.969  34.509  25.806  1.00  0.00     0.188 C 
BRANCH  27  28
ATOM     28  C   UNL A   1      47.392  34.777  26.355  1.00  0.00     0.188 C 
BRANCH  28  29
ATOM     29  O   UNL A   1      47.685  36.138  26.643  1.00  0.00    -0.376 OA
BRANCH  29  30
ATOM     30  C   UNL A   1      47.029  37.153  25.901  1.00  0.00     0.202 C 
BRANCH  30  31
ATOM     31  C   UNL A   1      46.249  38.211  26.694  1.00  0.00     0.261 C 
BRANCH  31  32
ATOM     32  O   UNL A   1      44.827  38.214  26.510  1.00  0.00    -0.460 OA
BRANCH  32  33
ATOM     33  C   UNL A   1      44.078  38.709  27.519  1.00  0.00     0.338 C 
ATOM     34  O   UNL A   1      43.556  39.810  27.569  1.00  0.00    -0.246 OA
BRANCH  33  35
ATOM     35  C   UNL A   1      43.833  37.609  28.473  1.00  0.00     0.060 A 
ATOM     36  C   UNL A   1      44.352  37.703  29.771  1.00  0.00     0.016 A 
ATOM     37  C   UNL A   1      43.079  36.498  28.091  1.00  0.00     0.016 A 
ATOM     38  C   UNL A   1      44.146  36.667  30.682  1.00  0.00     0.010 A 
ATOM     39  C   UNL A   1      42.891  35.452  28.997  1.00  0.00     0.010 A 
ATOM     40  C   UNL A   1      43.453  35.516  30.285  1.00  0.00    -0.014 A 
BRANCH  40  41
ATOM     41  C   UNL A   1      43.496  34.298  31.131  1.00  0.00     0.031 A 
ATOM     42  C   UNL A   1      44.592  33.299  30.879  1.00  0.00     0.074 A 
ATOM     43  C   UNL A   1      42.602  34.089  32.113  1.00  0.00     0.049 A 
ATOM     44  N   UNL A   1      44.806  32.135  31.435  1.00  0.00    -0.248 NA
ATOM     45  C   UNL A   1      45.576  33.668  29.849  1.00  0.00     0.031 C 
ATOM     46  C   UNL A   1      41.535  35.011  32.495  1.00  0.00     0.029 A 
ATOM     47  N   UNL A   1      42.453  33.027  32.969  1.00  0.00    -0.354 N 
ATOM     48  C   UNL A   1      45.950  31.631  30.822  1.00  0.00     0.074 A 
ATOM     49  C   UNL A   1      46.347  32.594  29.818  1.00  0.00     0.031 C 
ATOM     50  C   UNL A   1      40.839  34.473  33.512  1.00  0.00     0.029 A 
ATOM     51  C   UNL A   1      41.381  33.151  33.821  1.00  0.00     0.049 A 
ATOM     52  H   UNL A   1      43.057  32.250  32.973  1.00  0.00     0.167 HD
ATOM     53  C   UNL A   1      46.615  30.478  31.084  1.00  0.00     0.034 A 
ATOM     54  C   UNL A   1      40.884  32.283  34.728  1.00  0.00     0.034 A 
ATOM     55  C   UNL A   1      46.189  29.518  32.073  1.00  0.00     0.049 A 
ATOM     56  C   UNL A   1      41.563  30.944  34.912  1.00  0.00     0.074 A 
ATOM     57  C   UNL A   1      46.780  28.314  32.417  1.00  0.00     0.029 A 
ATOM     58  N   UNL A   1      45.055  29.643  32.866  1.00  0.00    -0.354 N 
ATOM     59  N   UNL A   1      42.641  30.472  34.326  1.00  0.00    -0.248 NA
ATOM     60  C   UNL A   1      40.959  30.024  35.885  1.00  0.00     0.031 C 
ATOM     61  C   UNL A   1      45.960  27.675  33.353  1.00  0.00     0.029 A 
ATOM     62  C   UNL A   1      44.907  28.521  33.668  1.00  0.00     0.049 A 
ATOM     63  H   UNL A   1      44.444  30.414  32.860  1.00  0.00     0.167 HD
ATOM     64  C   UNL A   1      42.864  29.218  34.891  1.00  0.00     0.074 A 
ATOM     65  C   UNL A   1      41.815  29.013  35.869  1.00  0.00     0.031 C 
ATOM     66  C   UNL A   1      43.852  28.321  34.635  1.00  0.00     0.034 A 
BRANCH  53  67
ATOM     67  C   UNL A   1      47.832  30.181  30.241  1.00  0.00     0.023 A 
ATOM     68  C   UNL A   1      47.723  29.592  28.967  1.00  0.00     0.031 A 
ATOM     69  C   UNL A   1      49.123  30.433  30.737  1.00  0.00     0.131 A 
ATOM     70  C   UNL A   1      48.878  29.188  28.281  1.00  0.00     0.055 A 
ATOM     71  C   UNL A   1      50.270  30.118  30.006  1.00  0.00     0.041 A 
ATOM     72  F   UNL A   1      49.294  30.968  31.957  1.00  0.00    -0.206 F 
ATOM     73  C   UNL A   1      50.152  29.474  28.778  1.00  0.00     0.022 A 
BRANCH  70  74
ATOM     74  S   UNL A   1      48.688  28.123  26.825  1.00  0.00     0.124 S 
ATOM     75  O   UNL A   1      47.942  26.997  27.381  1.00  0.00    -0.237 OA
ATOM     76  O   UNL A   1      47.956  28.981  25.901  1.00  0.00    -0.237 OA
ATOM     77  O   UNL A   1      50.065  27.820  26.441  1.00  0.00    -0.744 OA
ENDBRANCH  70  74
ENDBRANCH  53  67
BRANCH  54  78
ATOM     78  C   UNL A   1      39.666  32.625  35.518  1.00  0.00     0.023 A 
ATOM     79  C   UNL A   1      39.760  32.979  36.874  1.00  0.00     0.031 A 
ATOM     80  C   UNL A   1      38.382  32.543  34.949  1.00  0.00     0.131 A 
ATOM     81  C   UNL A   1      38.595  33.188  37.627  1.00  0.00     0.055 A 
ATOM     82  C   UNL A   1      37.228  32.811  35.688  1.00  0.00     0.041 A 
ATOM     83  F   UNL A   1      38.231  32.201  33.660  1.00  0.00    -0.206 F 
ATOM     84  C   UNL A   1      37.330  33.123  37.040  1.00  0.00     0.022 A 
BRANCH  81  85
ATOM     85  S   UNL A   1      38.754  33.455  39.414  1.00  0.00     0.124 S 
ATOM     86  O   UNL A   1      37.467  32.972  39.900  1.00  0.00    -0.237 OA
ATOM     87  O   UNL A   1      39.914  32.634  39.741  1.00  0.00    -0.237 OA
ATOM     88  O   UNL A   1      38.962  34.897  39.524  1.00  0.00    -0.744 OA
ENDBRANCH  81  85
ENDBRANCH  54  78
BRANCH  66  89
ATOM     89  C   UNL A   1      43.877  27.059  35.467  1.00  0.00     0.023 A 
ATOM     90  C   UNL A   1      44.290  27.058  36.811  1.00  0.00     0.031 A 
ATOM     91  C   UNL A   1      43.486  25.832  34.898  1.00  0.00     0.131 A 
ATOM     92  C   UNL A   1      44.358  25.850  37.522  1.00  0.00     0.055 A 
ATOM     93  C   UNL A   1      43.488  24.645  35.632  1.00  0.00     0.041 A 
ATOM     94  F   UNL A   1      43.087  25.768  33.618  1.00  0.00    -0.206 F 
ATOM     95  C   UNL A   1      43.940  24.647  36.948  1.00  0.00     0.022 A 
BRANCH  92  96
ATOM     96  S   UNL A   1      45.101  25.853  39.177  1.00  0.00     0.124 S 
ATOM     97  O   UNL A   1      44.172  26.692  39.926  1.00  0.00    -0.237 OA
ATOM     98  O   UNL A   1      45.099  24.434  39.522  1.00  0.00    -0.237 OA
ATOM     99  O   UNL A   1      46.425  26.435  38.957  1.00  0.00    -0.744 OA
ENDBRANCH  92  96
ENDBRANCH  66  89
ENDBRANCH  40  41
ENDBRANCH  33  35
ENDBRANCH  32  33
ENDBRANCH  31  32
ENDBRANCH  30  31
ENDBRANCH  29  30
ENDBRANCH  28  29
ENDBRANCH  27  28
ENDBRANCH   1  27
TORSDOF 26
ENDMDL
