MODEL 1
REMARK VINA RESULT:      -9.1      0.000      0.000
REMARK SMILES Cc1c(CC(=O)OCCOCCOCCOCCOC(=O)c2ccc(-c3c4nc(c(-c5cc(S(=O)(=O)[O-])ccc5F)c5ccc([nH]5)c(-c5cc(S(=O)(=O)[O-])ccc5F)c5nc(c(-c6cc(S(=O)(=O)[O-])ccc6F)c6ccc3[nH]6)C=C5)C=C4)cc2)c2ccccc2n1C(=O)c1ccc(Cl)cc1
REMARK SMILES IDX 13 1 12 2 11 3 10 4 9 5 8 6 7 7 5 8 6 9 4 10 3 11 1 12 2 13
REMARK SMILES IDX 91 14 85 15 90 16 86 17 89 18 87 19 88 20 92 21 93 22 94 23
REMARK SMILES IDX 95 24 100 25 96 26 99 27 97 28 98 29 14 30 15 31 16 32 17 33
REMARK SMILES IDX 18 34 19 35 20 36 21 37 22 38 23 39 84 40 24 41 83 42 25 43
REMARK SMILES IDX 26 44 27 45 77 46 28 47 82 48 76 49 78 50 29 51 81 52 75 53
REMARK SMILES IDX 74 54 30 56 62 57 42 58 61 59 43 60 46 61 60 62 79 63 44 64
REMARK SMILES IDX 45 65 59 67 80 68 47 69 31 70 32 71 40 72 33 73 39 74 41 75
REMARK SMILES IDX 38 76 34 77 35 78 36 79 37 80 63 81 64 82 72 83 65 84 71 85
REMARK SMILES IDX 73 86 70 87 66 88 67 89 68 90 69 91 48 92 49 93 57 94 50 95
REMARK SMILES IDX 56 96 58 97 55 98 51 99 52 100 53 101 54 102
REMARK H PARENT 78 55 46 66
REMARK Flexibility Score: inf
ROOT
ATOM      1  O   UNL A   1      33.643  33.251  29.499  1.00  0.00    -0.377 OA
ENDROOT
BRANCH   1   2
ATOM      2  C   UNL A   1      33.652  33.159  28.104  1.00  0.00     0.188 C 
BRANCH   2   3
ATOM      3  C   UNL A   1      32.401  33.306  27.239  1.00  0.00     0.188 C 
BRANCH   3   4
ATOM      4  O   UNL A   1      31.478  32.246  27.235  1.00  0.00    -0.376 OA
BRANCH   4   5
ATOM      5  C   UNL A   1      31.519  31.146  26.342  1.00  0.00     0.202 C 
BRANCH   5   6
ATOM      6  C   UNL A   1      32.359  29.856  26.477  1.00  0.00     0.261 C 
BRANCH   6   7
ATOM      7  O   UNL A   1      31.870  28.626  25.918  1.00  0.00    -0.463 OA
BRANCH   7   8
ATOM      8  C   UNL A   1      31.372  27.702  26.768  1.00  0.00     0.310 C 
ATOM      9  O   UNL A   1      31.365  27.851  27.989  1.00  0.00    -0.252 OA
BRANCH   8  10
ATOM     10  C   UNL A   1      30.749  26.457  26.137  1.00  0.00     0.160 C 
BRANCH  10  11
ATOM     11  C   UNL A   1      31.528  25.535  25.211  1.00  0.00    -0.008 A 
ATOM     12  C   UNL A   1      32.234  23.722  26.904  1.00  0.00     0.065 C 
ATOM     13  C   UNL A   1      32.167  24.342  25.543  1.00  0.00     0.028 A 
ATOM     14  N   UNL A   1      32.769  23.792  24.392  1.00  0.00    -0.280 N 
ATOM     15  C   UNL A   1      31.647  25.667  23.786  1.00  0.00     0.004 A 
ATOM     16  C   UNL A   1      32.531  24.681  23.327  1.00  0.00     0.056 A 
ATOM     17  C   UNL A   1      31.143  26.611  22.854  1.00  0.00     0.010 A 
ATOM     18  C   UNL A   1      32.986  24.708  21.987  1.00  0.00     0.027 A 
ATOM     19  C   UNL A   1      31.628  26.647  21.542  1.00  0.00     0.001 A 
ATOM     20  C   UNL A   1      32.558  25.715  21.122  1.00  0.00     0.002 A 
BRANCH  14  21
ATOM     21  C   UNL A   1      33.442  22.533  24.295  1.00  0.00     0.262 C 
ATOM     22  O   UNL A   1      32.856  21.569  23.809  1.00  0.00    -0.268 OA
BRANCH  21  23
ATOM     23  C   UNL A   1      34.845  22.274  24.672  1.00  0.00     0.040 A 
ATOM     24  C   UNL A   1      35.779  23.317  24.671  1.00  0.00     0.015 A 
ATOM     25  C   UNL A   1      35.224  20.979  25.053  1.00  0.00     0.015 A 
ATOM     26  C   UNL A   1      37.115  23.045  24.984  1.00  0.00     0.021 A 
ATOM     27  C   UNL A   1      36.559  20.716  25.373  1.00  0.00     0.021 A 
ATOM     28  C   UNL A   1      37.500  21.747  25.323  1.00  0.00     0.041 A 
ATOM     29  Cl  UNL A   1      39.151  21.407  25.672  1.00  0.00    -0.084 Cl
ENDBRANCH  21  23
ENDBRANCH  14  21
ENDBRANCH  10  11
ENDBRANCH   8  10
ENDBRANCH   7   8
ENDBRANCH   6   7
ENDBRANCH   5   6
ENDBRANCH   4   5
ENDBRANCH   3   4
ENDBRANCH   2   3
ENDBRANCH   1   2
BRANCH   1  30
ATOM     30  C   UNL A   1      34.896  33.256  30.113  1.00  0.00     0.188 C 
BRANCH  30  31
ATOM     31  C   UNL A   1      34.885  32.504  31.441  1.00  0.00     0.188 C 
BRANCH  31  32
ATOM     32  O   UNL A   1      34.563  33.175  32.656  1.00  0.00    -0.376 OA
BRANCH  32  33
ATOM     33  C   UNL A   1      35.503  33.302  33.713  1.00  0.00     0.202 C 
BRANCH  33  34
ATOM     34  C   UNL A   1      36.835  34.084  33.591  1.00  0.00     0.261 C 
BRANCH  34  35
ATOM     35  O   UNL A   1      37.933  33.372  33.018  1.00  0.00    -0.460 OA
BRANCH  35  36
ATOM     36  C   UNL A   1      38.385  33.732  31.792  1.00  0.00     0.338 C 
ATOM     37  O   UNL A   1      37.943  34.599  31.062  1.00  0.00    -0.246 OA
BRANCH  36  38
ATOM     38  C   UNL A   1      39.709  33.077  31.668  1.00  0.00     0.060 A 
ATOM     39  C   UNL A   1      40.139  32.572  30.436  1.00  0.00     0.016 A 
ATOM     40  C   UNL A   1      40.281  32.630  32.867  1.00  0.00     0.016 A 
ATOM     41  C   UNL A   1      41.007  31.480  30.431  1.00  0.00     0.010 A 
ATOM     42  C   UNL A   1      41.129  31.523  32.855  1.00  0.00     0.010 A 
ATOM     43  C   UNL A   1      41.438  30.902  31.644  1.00  0.00    -0.014 A 
BRANCH  43  44
ATOM     44  C   UNL A   1      42.409  29.801  31.566  1.00  0.00     0.031 A 
ATOM     45  C   UNL A   1      43.621  30.211  30.805  1.00  0.00     0.074 A 
ATOM     46  C   UNL A   1      42.403  28.619  32.219  1.00  0.00     0.049 A 
ATOM     47  N   UNL A   1      44.092  29.740  29.697  1.00  0.00    -0.248 NA
ATOM     48  C   UNL A   1      44.276  31.445  31.274  1.00  0.00     0.031 C 
ATOM     49  C   UNL A   1      41.519  28.184  33.301  1.00  0.00     0.029 A 
ATOM     50  N   UNL A   1      43.290  27.580  32.115  1.00  0.00    -0.354 N 
ATOM     51  C   UNL A   1      45.208  30.526  29.413  1.00  0.00     0.074 A 
ATOM     52  C   UNL A   1      45.144  31.663  30.294  1.00  0.00     0.031 C 
ATOM     53  C   UNL A   1      42.047  27.087  33.895  1.00  0.00     0.029 A 
ATOM     54  C   UNL A   1      43.236  26.673  33.166  1.00  0.00     0.049 A 
ATOM     55  H   UNL A   1      43.914  27.483  31.359  1.00  0.00     0.167 HD
ATOM     56  C   UNL A   1      46.233  30.104  28.621  1.00  0.00     0.034 A 
ATOM     57  C   UNL A   1      44.149  25.716  33.478  1.00  0.00     0.034 A 
ATOM     58  C   UNL A   1      45.859  28.978  27.816  1.00  0.00     0.049 A 
ATOM     59  C   UNL A   1      45.044  25.509  32.315  1.00  0.00     0.074 A 
ATOM     60  C   UNL A   1      44.944  28.767  26.806  1.00  0.00     0.029 A 
ATOM     61  N   UNL A   1      46.250  27.734  28.240  1.00  0.00    -0.354 N 
ATOM     62  N   UNL A   1      44.696  24.940  31.198  1.00  0.00    -0.248 NA
ATOM     63  C   UNL A   1      46.259  26.305  32.261  1.00  0.00     0.031 C 
ATOM     64  C   UNL A   1      44.496  27.429  26.984  1.00  0.00     0.029 A 
ATOM     65  C   UNL A   1      45.185  26.886  28.071  1.00  0.00     0.049 A 
ATOM     66  H   UNL A   1      47.134  27.493  28.600  1.00  0.00     0.167 HD
ATOM     67  C   UNL A   1      45.371  25.655  30.221  1.00  0.00     0.074 A 
ATOM     68  C   UNL A   1      46.395  26.407  30.939  1.00  0.00     0.031 C 
ATOM     69  C   UNL A   1      44.867  25.785  28.960  1.00  0.00     0.034 A 
BRANCH  56  70
ATOM     70  C   UNL A   1      47.661  30.542  28.828  1.00  0.00     0.023 A 
ATOM     71  C   UNL A   1      48.266  31.551  28.052  1.00  0.00     0.031 A 
ATOM     72  C   UNL A   1      48.399  30.108  29.944  1.00  0.00     0.131 A 
ATOM     73  C   UNL A   1      49.540  32.047  28.338  1.00  0.00     0.055 A 
ATOM     74  C   UNL A   1      49.642  30.661  30.282  1.00  0.00     0.041 A 
ATOM     75  F   UNL A   1      47.910  29.173  30.774  1.00  0.00    -0.206 F 
ATOM     76  C   UNL A   1      50.224  31.631  29.473  1.00  0.00     0.022 A 
BRANCH  73  77
ATOM     77  S   UNL A   1      50.321  33.244  27.221  1.00  0.00     0.124 S 
ATOM     78  O   UNL A   1      49.611  32.994  25.972  1.00  0.00    -0.237 OA
ATOM     79  O   UNL A   1      50.016  34.510  27.883  1.00  0.00    -0.237 OA
ATOM     80  O   UNL A   1      51.731  32.862  27.242  1.00  0.00    -0.744 OA
ENDBRANCH  73  77
ENDBRANCH  56  70
BRANCH  57  81
ATOM     81  C   UNL A   1      44.569  25.287  34.837  1.00  0.00     0.023 A 
ATOM     82  C   UNL A   1      44.454  26.194  35.905  1.00  0.00     0.031 A 
ATOM     83  C   UNL A   1      45.355  24.140  35.048  1.00  0.00     0.131 A 
ATOM     84  C   UNL A   1      45.131  25.969  37.111  1.00  0.00     0.055 A 
ATOM     85  C   UNL A   1      46.018  23.907  36.262  1.00  0.00     0.041 A 
ATOM     86  F   UNL A   1      45.548  23.254  34.059  1.00  0.00    -0.206 F 
ATOM     87  C   UNL A   1      45.917  24.831  37.298  1.00  0.00     0.022 A 
BRANCH  84  88
ATOM     88  S   UNL A   1      45.064  27.205  38.437  1.00  0.00     0.124 S 
ATOM     89  O   UNL A   1      44.146  26.585  39.390  1.00  0.00    -0.237 OA
ATOM     90  O   UNL A   1      46.460  27.266  38.856  1.00  0.00    -0.237 OA
ATOM     91  O   UNL A   1      44.546  28.394  37.767  1.00  0.00    -0.744 OA
ENDBRANCH  84  88
ENDBRANCH  57  81
BRANCH  69  92
ATOM     92  C   UNL A   1      43.717  24.901  28.532  1.00  0.00     0.023 A 
ATOM     93  C   UNL A   1      44.032  23.805  27.707  1.00  0.00     0.031 A 
ATOM     94  C   UNL A   1      42.354  25.212  28.707  1.00  0.00     0.131 A 
ATOM     95  C   UNL A   1      43.021  23.100  27.046  1.00  0.00     0.055 A 
ATOM     96  C   UNL A   1      41.344  24.447  28.114  1.00  0.00     0.041 A 
ATOM     97  F   UNL A   1      41.960  26.307  29.373  1.00  0.00    -0.206 F 
ATOM     98  C   UNL A   1      41.674  23.401  27.259  1.00  0.00     0.022 A 
BRANCH  95  99
ATOM     99  S   UNL A   1      43.438  21.889  25.766  1.00  0.00     0.124 S 
ATOM    100  O   UNL A   1      43.028  22.577  24.545  1.00  0.00    -0.237 OA
ATOM    101  O   UNL A   1      44.880  21.737  25.945  1.00  0.00    -0.237 OA
ATOM    102  O   UNL A   1      42.646  20.714  26.117  1.00  0.00    -0.744 OA
ENDBRANCH  95  99
ENDBRANCH  69  92
ENDBRANCH  43  44
ENDBRANCH  36  38
ENDBRANCH  35  36
ENDBRANCH  34  35
ENDBRANCH  33  34
ENDBRANCH  32  33
ENDBRANCH  31  32
ENDBRANCH  30  31
ENDBRANCH   1  30
TORSDOF 26
ENDMDL
MODEL 2
REMARK VINA RESULT:      -8.7      7.611     14.514
REMARK SMILES Cc1c(CC(=O)OCCOCCOCCOCCOC(=O)c2ccc(-c3c4nc(c(-c5cc(S(=O)(=O)[O-])ccc5F)c5ccc([nH]5)c(-c5cc(S(=O)(=O)[O-])ccc5F)c5nc(c(-c6cc(S(=O)(=O)[O-])ccc6F)c6ccc3[nH]6)C=C5)C=C4)cc2)c2ccccc2n1C(=O)c1ccc(Cl)cc1
REMARK SMILES IDX 13 1 12 2 11 3 10 4 9 5 8 6 7 7 5 8 6 9 4 10 3 11 1 12 2 13
REMARK SMILES IDX 91 14 85 15 90 16 86 17 89 18 87 19 88 20 92 21 93 22 94 23
REMARK SMILES IDX 95 24 100 25 96 26 99 27 97 28 98 29 14 30 15 31 16 32 17 33
REMARK SMILES IDX 18 34 19 35 20 36 21 37 22 38 23 39 84 40 24 41 83 42 25 43
REMARK SMILES IDX 26 44 27 45 77 46 28 47 82 48 76 49 78 50 29 51 81 52 75 53
REMARK SMILES IDX 74 54 30 56 62 57 42 58 61 59 43 60 46 61 60 62 79 63 44 64
REMARK SMILES IDX 45 65 59 67 80 68 47 69 31 70 32 71 40 72 33 73 39 74 41 75
REMARK SMILES IDX 38 76 34 77 35 78 36 79 37 80 63 81 64 82 72 83 65 84 71 85
REMARK SMILES IDX 73 86 70 87 66 88 67 89 68 90 69 91 48 92 49 93 57 94 50 95
REMARK SMILES IDX 56 96 58 97 55 98 51 99 52 100 53 101 54 102
REMARK H PARENT 78 55 46 66
REMARK Flexibility Score: inf
ROOT
ATOM      1  O   UNL A   1      49.759  43.259  29.536  1.00  0.00    -0.377 OA
ENDROOT
BRANCH   1   2
ATOM      2  C   UNL A   1      49.723  43.584  28.176  1.00  0.00     0.188 C 
BRANCH   2   3
ATOM      3  C   UNL A   1      50.461  44.779  27.574  1.00  0.00     0.188 C 
BRANCH   3   4
ATOM      4  O   UNL A   1      49.690  45.857  27.103  1.00  0.00    -0.376 OA
BRANCH   4   5
ATOM      5  C   UNL A   1      49.595  46.245  25.744  1.00  0.00     0.202 C 
BRANCH   5   6
ATOM      6  C   UNL A   1      48.787  45.553  24.623  1.00  0.00     0.261 C 
BRANCH   6   7
ATOM      7  O   UNL A   1      47.369  45.378  24.770  1.00  0.00    -0.463 OA
BRANCH   7   8
ATOM      8  C   UNL A   1      46.909  44.128  24.992  1.00  0.00     0.310 C 
ATOM      9  O   UNL A   1      47.369  43.135  24.429  1.00  0.00    -0.252 OA
BRANCH   8  10
ATOM     10  C   UNL A   1      45.805  43.982  26.039  1.00  0.00     0.160 C 
BRANCH  10  11
ATOM     11  C   UNL A   1      44.621  43.044  25.852  1.00  0.00    -0.008 A 
ATOM     12  C   UNL A   1      44.788  41.698  28.046  1.00  0.00     0.065 C 
ATOM     13  C   UNL A   1      44.175  42.057  26.728  1.00  0.00     0.028 A 
ATOM     14  N   UNL A   1      43.044  41.415  26.181  1.00  0.00    -0.280 N 
ATOM     15  C   UNL A   1      43.667  43.085  24.780  1.00  0.00     0.004 A 
ATOM     16  C   UNL A   1      42.803  41.990  24.919  1.00  0.00     0.056 A 
ATOM     17  C   UNL A   1      43.525  43.920  23.641  1.00  0.00     0.010 A 
ATOM     18  C   UNL A   1      41.891  41.675  23.885  1.00  0.00     0.027 A 
ATOM     19  C   UNL A   1      42.642  43.576  22.611  1.00  0.00     0.001 A 
ATOM     20  C   UNL A   1      41.849  42.450  22.726  1.00  0.00     0.002 A 
BRANCH  14  21
ATOM     21  C   UNL A   1      42.241  40.410  26.808  1.00  0.00     0.262 C 
ATOM     22  O   UNL A   1      41.046  40.623  26.999  1.00  0.00    -0.268 OA
BRANCH  21  23
ATOM     23  C   UNL A   1      42.698  39.065  27.207  1.00  0.00     0.040 A 
ATOM     24  C   UNL A   1      43.914  38.564  26.729  1.00  0.00     0.015 A 
ATOM     25  C   UNL A   1      41.913  38.309  28.089  1.00  0.00     0.015 A 
ATOM     26  C   UNL A   1      44.310  37.269  27.078  1.00  0.00     0.021 A 
ATOM     27  C   UNL A   1      42.319  37.018  28.441  1.00  0.00     0.021 A 
ATOM     28  C   UNL A   1      43.507  36.499  27.923  1.00  0.00     0.041 A 
ATOM     29  Cl  UNL A   1      43.978  34.893  28.323  1.00  0.00    -0.084 Cl
ENDBRANCH  21  23
ENDBRANCH  14  21
ENDBRANCH  10  11
ENDBRANCH   8  10
ENDBRANCH   7   8
ENDBRANCH   6   7
ENDBRANCH   5   6
ENDBRANCH   4   5
ENDBRANCH   3   4
ENDBRANCH   2   3
ENDBRANCH   1   2
BRANCH   1  30
ATOM     30  C   UNL A   1      50.532  42.147  29.871  1.00  0.00     0.188 C 
BRANCH  30  31
ATOM     31  C   UNL A   1      49.795  41.202  30.816  1.00  0.00     0.188 C 
BRANCH  31  32
ATOM     32  O   UNL A   1      48.448  41.463  31.204  1.00  0.00    -0.376 OA
BRANCH  32  33
ATOM     33  C   UNL A   1      47.386  40.585  30.860  1.00  0.00     0.202 C 
BRANCH  33  34
ATOM     34  C   UNL A   1      46.892  39.432  31.770  1.00  0.00     0.261 C 
BRANCH  34  35
ATOM     35  O   UNL A   1      45.566  39.560  32.285  1.00  0.00    -0.460 OA
BRANCH  35  36
ATOM     36  C   UNL A   1      44.535  39.020  31.591  1.00  0.00     0.338 C 
ATOM     37  O   UNL A   1      44.089  39.381  30.518  1.00  0.00    -0.246 OA
BRANCH  36  38
ATOM     38  C   UNL A   1      44.276  37.716  32.249  1.00  0.00     0.060 A 
ATOM     39  C   UNL A   1      44.446  36.519  31.546  1.00  0.00     0.016 A 
ATOM     40  C   UNL A   1      43.482  37.765  33.403  1.00  0.00     0.016 A 
ATOM     41  C   UNL A   1      43.660  35.423  31.900  1.00  0.00     0.010 A 
ATOM     42  C   UNL A   1      42.681  36.673  33.736  1.00  0.00     0.010 A 
ATOM     43  C   UNL A   1      42.716  35.525  32.944  1.00  0.00    -0.014 A 
BRANCH  43  44
ATOM     44  C   UNL A   1      41.974  34.309  33.312  1.00  0.00     0.031 A 
ATOM     45  C   UNL A   1      40.667  34.246  32.601  1.00  0.00     0.074 A 
ATOM     46  C   UNL A   1      42.399  33.240  34.019  1.00  0.00     0.049 A 
ATOM     47  N   UNL A   1      39.470  34.249  33.087  1.00  0.00    -0.248 NA
ATOM     48  C   UNL A   1      40.736  34.386  31.137  1.00  0.00     0.031 C 
ATOM     49  C   UNL A   1      43.757  32.929  34.466  1.00  0.00     0.029 A 
ATOM     50  N   UNL A   1      41.693  32.126  34.391  1.00  0.00    -0.354 N 
ATOM     51  C   UNL A   1      38.627  34.229  31.977  1.00  0.00     0.074 A 
ATOM     52  C   UNL A   1      39.450  34.518  30.831  1.00  0.00     0.031 C 
ATOM     53  C   UNL A   1      43.817  31.629  34.842  1.00  0.00     0.029 A 
ATOM     54  C   UNL A   1      42.484  31.050  34.776  1.00  0.00     0.049 A 
ATOM     55  H   UNL A   1      40.710  32.090  34.387  1.00  0.00     0.167 HD
ATOM     56  C   UNL A   1      37.344  33.774  32.024  1.00  0.00     0.034 A 
ATOM     57  C   UNL A   1      42.096  29.756  34.933  1.00  0.00     0.034 A 
ATOM     58  C   UNL A   1      36.849  33.710  33.368  1.00  0.00     0.049 A 
ATOM     59  C   UNL A   1      40.618  29.703  35.006  1.00  0.00     0.074 A 
ATOM     60  C   UNL A   1      36.594  34.639  34.355  1.00  0.00     0.029 A 
ATOM     61  N   UNL A   1      36.846  32.487  33.989  1.00  0.00    -0.354 N 
ATOM     62  N   UNL A   1      39.904  30.132  36.006  1.00  0.00    -0.248 NA
ATOM     63  C   UNL A   1      39.897  29.513  33.757  1.00  0.00     0.031 C 
ATOM     64  C   UNL A   1      36.901  33.977  35.576  1.00  0.00     0.029 A 
ATOM     65  C   UNL A   1      37.295  32.673  35.271  1.00  0.00     0.049 A 
ATOM     66  H   UNL A   1      36.570  31.631  33.587  1.00  0.00     0.167 HD
ATOM     67  C   UNL A   1      38.778  30.685  35.415  1.00  0.00     0.074 A 
ATOM     68  C   UNL A   1      38.779  30.179  34.046  1.00  0.00     0.031 C 
ATOM     69  C   UNL A   1      38.102  31.716  36.002  1.00  0.00     0.034 A 
BRANCH  56  70
ATOM     70  C   UNL A   1      36.670  33.100  30.855  1.00  0.00     0.023 A 
ATOM     71  C   UNL A   1      35.635  33.711  30.120  1.00  0.00     0.031 A 
ATOM     72  C   UNL A   1      37.182  31.909  30.311  1.00  0.00     0.131 A 
ATOM     73  C   UNL A   1      35.112  33.141  28.957  1.00  0.00     0.055 A 
ATOM     74  C   UNL A   1      36.716  31.376  29.101  1.00  0.00     0.041 A 
ATOM     75  F   UNL A   1      38.191  31.254  30.908  1.00  0.00    -0.206 F 
ATOM     76  C   UNL A   1      35.668  31.988  28.420  1.00  0.00     0.022 A 
BRANCH  73  77
ATOM     77  S   UNL A   1      33.687  33.904  28.134  1.00  0.00     0.124 S 
ATOM     78  O   UNL A   1      32.940  34.441  29.264  1.00  0.00    -0.237 OA
ATOM     79  O   UNL A   1      34.335  34.892  27.274  1.00  0.00    -0.237 OA
ATOM     80  O   UNL A   1      33.063  32.789  27.426  1.00  0.00    -0.744 OA
ENDBRANCH  73  77
ENDBRANCH  56  70
BRANCH  57  81
ATOM     81  C   UNL A   1      42.878  28.540  34.591  1.00  0.00     0.023 A 
ATOM     82  C   UNL A   1      43.471  28.444  33.320  1.00  0.00     0.031 A 
ATOM     83  C   UNL A   1      42.793  27.361  35.354  1.00  0.00     0.131 A 
ATOM     84  C   UNL A   1      43.922  27.210  32.833  1.00  0.00     0.055 A 
ATOM     85  C   UNL A   1      43.261  26.130  34.871  1.00  0.00     0.041 A 
ATOM     86  F   UNL A   1      42.197  27.366  36.555  1.00  0.00    -0.206 F 
ATOM     87  C   UNL A   1      43.819  26.048  33.598  1.00  0.00     0.022 A 
BRANCH  84  88
ATOM     88  S   UNL A   1      44.581  27.083  31.147  1.00  0.00     0.124 S 
ATOM     89  O   UNL A   1      44.226  28.381  30.579  1.00  0.00    -0.237 OA
ATOM     90  O   UNL A   1      46.002  26.874  31.400  1.00  0.00    -0.237 OA
ATOM     91  O   UNL A   1      43.859  25.945  30.585  1.00  0.00    -0.744 OA
ENDBRANCH  84  88
ENDBRANCH  57  81
BRANCH  69  92
ATOM     92  C   UNL A   1      38.397  32.063  37.444  1.00  0.00     0.023 A 
ATOM     93  C   UNL A   1      37.418  31.712  38.394  1.00  0.00     0.031 A 
ATOM     94  C   UNL A   1      39.450  32.893  37.873  1.00  0.00     0.131 A 
ATOM     95  C   UNL A   1      37.473  32.227  39.693  1.00  0.00     0.055 A 
ATOM     96  C   UNL A   1      39.547  33.332  39.198  1.00  0.00     0.041 A 
ATOM     97  F   UNL A   1      40.360  33.379  37.016  1.00  0.00    -0.206 F 
ATOM     98  C   UNL A   1      38.544  33.020  40.109  1.00  0.00     0.022 A 
BRANCH  95  99
ATOM     99  S   UNL A   1      36.071  32.017  40.819  1.00  0.00     0.124 S 
ATOM    100  O   UNL A   1      35.547  33.376  40.916  1.00  0.00    -0.237 OA
ATOM    101  O   UNL A   1      35.229  31.071  40.088  1.00  0.00    -0.237 OA
ATOM    102  O   UNL A   1      36.673  31.490  42.041  1.00  0.00    -0.744 OA
ENDBRANCH  95  99
ENDBRANCH  69  92
ENDBRANCH  43  44
ENDBRANCH  36  38
ENDBRANCH  35  36
ENDBRANCH  34  35
ENDBRANCH  33  34
ENDBRANCH  32  33
ENDBRANCH  31  32
ENDBRANCH  30  31
ENDBRANCH   1  30
TORSDOF 26
ENDMDL
MODEL 3
REMARK VINA RESULT:      -8.4      3.504      8.347
REMARK SMILES Cc1c(CC(=O)OCCOCCOCCOCCOC(=O)c2ccc(-c3c4nc(c(-c5cc(S(=O)(=O)[O-])ccc5F)c5ccc([nH]5)c(-c5cc(S(=O)(=O)[O-])ccc5F)c5nc(c(-c6cc(S(=O)(=O)[O-])ccc6F)c6ccc3[nH]6)C=C5)C=C4)cc2)c2ccccc2n1C(=O)c1ccc(Cl)cc1
REMARK SMILES IDX 13 1 12 2 11 3 10 4 9 5 8 6 7 7 5 8 6 9 4 10 3 11 1 12 2 13
REMARK SMILES IDX 91 14 85 15 90 16 86 17 89 18 87 19 88 20 92 21 93 22 94 23
REMARK SMILES IDX 95 24 100 25 96 26 99 27 97 28 98 29 14 30 15 31 16 32 17 33
REMARK SMILES IDX 18 34 19 35 20 36 21 37 22 38 23 39 84 40 24 41 83 42 25 43
REMARK SMILES IDX 26 44 27 45 77 46 28 47 82 48 76 49 78 50 29 51 81 52 75 53
REMARK SMILES IDX 74 54 30 56 62 57 42 58 61 59 43 60 46 61 60 62 79 63 44 64
REMARK SMILES IDX 45 65 59 67 80 68 47 69 31 70 32 71 40 72 33 73 39 74 41 75
REMARK SMILES IDX 38 76 34 77 35 78 36 79 37 80 63 81 64 82 72 83 65 84 71 85
REMARK SMILES IDX 73 86 70 87 66 88 67 89 68 90 69 91 48 92 49 93 57 94 50 95
REMARK SMILES IDX 56 96 58 97 55 98 51 99 52 100 53 101 54 102
REMARK H PARENT 78 55 46 66
REMARK Flexibility Score: inf
ROOT
ATOM      1  O   UNL A   1      34.210  23.715  24.500  1.00  0.00    -0.377 OA
ENDROOT
BRANCH   1   2
ATOM      2  C   UNL A   1      35.299  22.900  24.176  1.00  0.00     0.188 C 
BRANCH   2   3
ATOM      3  C   UNL A   1      36.752  23.276  24.467  1.00  0.00     0.188 C 
BRANCH   3   4
ATOM      4  O   UNL A   1      37.394  22.629  25.538  1.00  0.00    -0.376 OA
BRANCH   4   5
ATOM      5  C   UNL A   1      38.742  22.843  25.916  1.00  0.00     0.202 C 
BRANCH   5   6
ATOM      6  C   UNL A   1      39.689  21.849  26.626  1.00  0.00     0.261 C 
BRANCH   6   7
ATOM      7  O   UNL A   1      40.890  21.416  25.968  1.00  0.00    -0.463 OA
BRANCH   7   8
ATOM      8  C   UNL A   1      42.032  22.083  26.239  1.00  0.00     0.310 C 
ATOM      9  O   UNL A   1      42.578  22.057  27.342  1.00  0.00    -0.252 OA
BRANCH   8  10
ATOM     10  C   UNL A   1      42.670  22.846  25.078  1.00  0.00     0.160 C 
BRANCH  10  11
ATOM     11  C   UNL A   1      43.389  24.173  25.270  1.00  0.00    -0.008 A 
ATOM     12  C   UNL A   1      45.808  23.429  24.772  1.00  0.00     0.065 C 
ATOM     13  C   UNL A   1      44.751  24.429  25.129  1.00  0.00     0.028 A 
ATOM     14  N   UNL A   1      45.007  25.791  25.391  1.00  0.00    -0.280 N 
ATOM     15  C   UNL A   1      42.770  25.445  25.519  1.00  0.00     0.004 A 
ATOM     16  C   UNL A   1      43.781  26.390  25.738  1.00  0.00     0.056 A 
ATOM     17  C   UNL A   1      41.418  25.852  25.667  1.00  0.00     0.010 A 
ATOM     18  C   UNL A   1      43.450  27.684  26.204  1.00  0.00     0.027 A 
ATOM     19  C   UNL A   1      41.108  27.125  26.162  1.00  0.00     0.001 A 
ATOM     20  C   UNL A   1      42.119  28.022  26.448  1.00  0.00     0.002 A 
BRANCH  14  21
ATOM     21  C   UNL A   1      46.261  26.467  25.265  1.00  0.00     0.262 C 
ATOM     22  O   UNL A   1      46.541  27.032  24.210  1.00  0.00    -0.268 OA
BRANCH  21  23
ATOM     23  C   UNL A   1      47.269  26.622  26.333  1.00  0.00     0.040 A 
ATOM     24  C   UNL A   1      48.040  27.787  26.409  1.00  0.00     0.015 A 
ATOM     25  C   UNL A   1      47.425  25.601  27.280  1.00  0.00     0.015 A 
ATOM     26  C   UNL A   1      49.024  27.898  27.398  1.00  0.00     0.021 A 
ATOM     27  C   UNL A   1      48.403  25.721  28.271  1.00  0.00     0.021 A 
ATOM     28  C   UNL A   1      49.207  26.862  28.316  1.00  0.00     0.041 A 
ATOM     29  Cl  UNL A   1      50.442  26.984  29.509  1.00  0.00    -0.084 Cl
ENDBRANCH  21  23
ENDBRANCH  14  21
ENDBRANCH  10  11
ENDBRANCH   8  10
ENDBRANCH   7   8
ENDBRANCH   6   7
ENDBRANCH   5   6
ENDBRANCH   4   5
ENDBRANCH   3   4
ENDBRANCH   2   3
ENDBRANCH   1   2
BRANCH   1  30
ATOM     30  C   UNL A   1      34.368  24.510  25.636  1.00  0.00     0.188 C 
BRANCH  30  31
ATOM     31  C   UNL A   1      34.368  25.998  25.298  1.00  0.00     0.188 C 
BRANCH  31  32
ATOM     32  O   UNL A   1      33.785  26.947  26.187  1.00  0.00    -0.376 OA
BRANCH  32  33
ATOM     33  C   UNL A   1      34.229  28.295  26.238  1.00  0.00     0.202 C 
BRANCH  33  34
ATOM     34  C   UNL A   1      34.656  29.012  27.544  1.00  0.00     0.261 C 
BRANCH  34  35
ATOM     35  O   UNL A   1      36.045  29.318  27.670  1.00  0.00    -0.460 OA
BRANCH  35  36
ATOM     36  C   UNL A   1      36.412  30.544  28.119  1.00  0.00     0.338 C 
ATOM     37  O   UNL A   1      35.920  31.619  27.832  1.00  0.00    -0.246 OA
BRANCH  36  38
ATOM     38  C   UNL A   1      37.315  30.275  29.264  1.00  0.00     0.060 A 
ATOM     39  C   UNL A   1      37.709  31.311  30.117  1.00  0.00     0.016 A 
ATOM     40  C   UNL A   1      38.052  29.085  29.189  1.00  0.00     0.016 A 
ATOM     41  C   UNL A   1      38.950  31.219  30.745  1.00  0.00     0.010 A 
ATOM     42  C   UNL A   1      39.303  29.011  29.801  1.00  0.00     0.010 A 
ATOM     43  C   UNL A   1      39.786  30.104  30.522  1.00  0.00    -0.014 A 
BRANCH  43  44
ATOM     44  C   UNL A   1      41.048  30.038  31.273  1.00  0.00     0.031 A 
ATOM     45  C   UNL A   1      42.220  30.126  30.358  1.00  0.00     0.074 A 
ATOM     46  C   UNL A   1      41.242  30.094  32.608  1.00  0.00     0.049 A 
ATOM     47  N   UNL A   1      43.151  29.258  30.134  1.00  0.00    -0.248 NA
ATOM     48  C   UNL A   1      42.223  31.280  29.443  1.00  0.00     0.031 C 
ATOM     49  C   UNL A   1      40.266  30.402  33.655  1.00  0.00     0.029 A 
ATOM     50  N   UNL A   1      42.417  29.995  33.307  1.00  0.00    -0.354 N 
ATOM     51  C   UNL A   1      43.956  29.834  29.153  1.00  0.00     0.074 A 
ATOM     52  C   UNL A   1      43.228  30.963  28.635  1.00  0.00     0.031 C 
ATOM     53  C   UNL A   1      40.921  30.682  34.807  1.00  0.00     0.029 A 
ATOM     54  C   UNL A   1      42.346  30.460  34.615  1.00  0.00     0.049 A 
ATOM     55  H   UNL A   1      43.241  29.626  32.916  1.00  0.00     0.167 HD
ATOM     56  C   UNL A   1      45.258  29.485  28.960  1.00  0.00     0.034 A 
ATOM     57  C   UNL A   1      43.383  30.739  35.448  1.00  0.00     0.034 A 
ATOM     58  C   UNL A   1      45.572  28.228  29.573  1.00  0.00     0.049 A 
ATOM     59  C   UNL A   1      44.615  30.119  34.907  1.00  0.00     0.074 A 
ATOM     60  C   UNL A   1      45.159  26.926  29.386  1.00  0.00     0.029 A 
ATOM     61  N   UNL A   1      46.211  28.252  30.786  1.00  0.00    -0.354 N 
ATOM     62  N   UNL A   1      44.859  28.841  34.884  1.00  0.00    -0.248 NA
ATOM     63  C   UNL A   1      45.431  30.929  34.016  1.00  0.00     0.031 C 
ATOM     64  C   UNL A   1      45.168  26.343  30.682  1.00  0.00     0.029 A 
ATOM     65  C   UNL A   1      45.617  27.310  31.585  1.00  0.00     0.049 A 
ATOM     66  H   UNL A   1      46.961  28.839  31.038  1.00  0.00     0.167 HD
ATOM     67  C   UNL A   1      45.520  28.637  33.683  1.00  0.00     0.074 A 
ATOM     68  C   UNL A   1      45.937  29.966  33.247  1.00  0.00     0.031 C 
ATOM     69  C   UNL A   1      45.432  27.449  33.016  1.00  0.00     0.034 A 
BRANCH  56  70
ATOM     70  C   UNL A   1      46.303  30.459  28.474  1.00  0.00     0.023 A 
ATOM     71  C   UNL A   1      47.310  30.974  29.315  1.00  0.00     0.031 A 
ATOM     72  C   UNL A   1      46.451  30.741  27.104  1.00  0.00     0.131 A 
ATOM     73  C   UNL A   1      48.354  31.764  28.828  1.00  0.00     0.055 A 
ATOM     74  C   UNL A   1      47.541  31.465  26.602  1.00  0.00     0.041 A 
ATOM     75  F   UNL A   1      45.570  30.277  26.204  1.00  0.00    -0.206 F 
ATOM     76  C   UNL A   1      48.497  31.989  27.466  1.00  0.00     0.022 A 
BRANCH  73  77
ATOM     77  S   UNL A   1      49.538  32.514  29.980  1.00  0.00     0.124 S 
ATOM     78  O   UNL A   1      50.306  31.354  30.416  1.00  0.00    -0.237 OA
ATOM     79  O   UNL A   1      50.243  33.453  29.110  1.00  0.00    -0.237 OA
ATOM     80  O   UNL A   1      48.686  33.134  30.991  1.00  0.00    -0.744 OA
ENDBRANCH  73  77
ENDBRANCH  56  70
BRANCH  57  81
ATOM     81  C   UNL A   1      43.468  31.850  36.430  1.00  0.00     0.023 A 
ATOM     82  C   UNL A   1      43.191  31.588  37.784  1.00  0.00     0.031 A 
ATOM     83  C   UNL A   1      43.506  33.198  36.030  1.00  0.00     0.131 A 
ATOM     84  C   UNL A   1      42.931  32.636  38.677  1.00  0.00     0.055 A 
ATOM     85  C   UNL A   1      43.263  34.247  36.929  1.00  0.00     0.041 A 
ATOM     86  F   UNL A   1      43.717  33.523  34.746  1.00  0.00    -0.206 F 
ATOM     87  C   UNL A   1      42.961  33.967  38.260  1.00  0.00     0.022 A 
BRANCH  84  88
ATOM     88  S   UNL A   1      42.465  32.275  40.393  1.00  0.00     0.124 S 
ATOM     89  O   UNL A   1      43.391  31.202  40.745  1.00  0.00    -0.237 OA
ATOM     90  O   UNL A   1      42.710  33.558  41.042  1.00  0.00    -0.237 OA
ATOM     91  O   UNL A   1      41.065  31.871  40.286  1.00  0.00    -0.744 OA
ENDBRANCH  84  88
ENDBRANCH  57  81
BRANCH  69  92
ATOM     92  C   UNL A   1      44.857  26.246  33.730  1.00  0.00     0.023 A 
ATOM     93  C   UNL A   1      43.587  26.404  34.317  1.00  0.00     0.031 A 
ATOM     94  C   UNL A   1      45.575  25.075  34.040  1.00  0.00     0.131 A 
ATOM     95  C   UNL A   1      43.098  25.452  35.218  1.00  0.00     0.055 A 
ATOM     96  C   UNL A   1      45.042  24.085  34.872  1.00  0.00     0.041 A 
ATOM     97  F   UNL A   1      46.838  24.892  33.628  1.00  0.00    -0.206 F 
ATOM     98  C   UNL A   1      43.809  24.281  35.485  1.00  0.00     0.022 A 
BRANCH  95  99
ATOM     99  S   UNL A   1      41.610  25.794  36.190  1.00  0.00     0.124 S 
ATOM    100  O   UNL A   1      42.168  26.307  37.438  1.00  0.00    -0.237 OA
ATOM    101  O   UNL A   1      40.920  26.780  35.360  1.00  0.00    -0.237 OA
ATOM    102  O   UNL A   1      40.944  24.498  36.289  1.00  0.00    -0.744 OA
ENDBRANCH  95  99
ENDBRANCH  69  92
ENDBRANCH  43  44
ENDBRANCH  36  38
ENDBRANCH  35  36
ENDBRANCH  34  35
ENDBRANCH  33  34
ENDBRANCH  32  33
ENDBRANCH  31  32
ENDBRANCH  30  31
ENDBRANCH   1  30
TORSDOF 26
ENDMDL
