MODEL 1
REMARK VINA RESULT:     -10.4      0.000      0.000
REMARK SMILES O=C(OCCOCCOCCOCCOC(=O)c1ccc(-c2c3nc(c(-c4cc(S(=O)(=O)[O-])ccc4F)c4ccc([nH]4)c(-c4cc(S(=O)(=O)[O-])ccc4F)c4nc(c(-c5cc(S(=O)(=O)[O-])ccc5F)c5ccc2[nH]5)C=C4)C=C3)cc1)C1=Cc2cc(Cl)cc(Cl)c2O[C@@H]1C(F)(F)F
REMARK SMILES IDX 10 1 9 2 8 3 7 4 6 5 5 6 4 7 3 8 2 9 1 10 81 11 82 12 92 13
REMARK SMILES IDX 83 14 91 15 84 16 90 17 85 18 88 19 86 20 87 21 89 22 93 23
REMARK SMILES IDX 94 24 95 25 96 26 11 27 12 28 13 29 14 30 15 31 16 32 17 33
REMARK SMILES IDX 18 34 19 35 80 36 20 37 79 38 21 39 22 40 23 41 73 42 24 43
REMARK SMILES IDX 78 44 72 45 74 46 25 47 77 48 71 49 70 50 26 52 58 53 38 54
REMARK SMILES IDX 57 55 39 56 42 57 56 58 75 59 40 60 41 61 55 63 76 64 43 65
REMARK SMILES IDX 27 66 28 67 36 68 29 69 35 70 37 71 34 72 30 73 31 74 32 75
REMARK SMILES IDX 33 76 59 77 60 78 68 79 61 80 67 81 69 82 66 83 62 84 63 85
REMARK SMILES IDX 64 86 65 87 44 88 45 89 53 90 46 91 52 92 54 93 51 94 47 95
REMARK SMILES IDX 48 96 49 97 50 98
REMARK H PARENT 74 51 42 62
REMARK Flexibility Score: inf
ROOT
ATOM      1  C   UNL A   1      37.417  22.382  24.529  1.00  0.00     0.188 C 
ENDROOT
BRANCH   1   2
ATOM      2  O   UNL A   1      36.084  21.960  24.371  1.00  0.00    -0.377 OA
BRANCH   2   3
ATOM      3  C   UNL A   1      35.814  20.771  25.071  1.00  0.00     0.188 C 
BRANCH   3   4
ATOM      4  C   UNL A   1      34.343  20.339  25.048  1.00  0.00     0.188 C 
BRANCH   4   5
ATOM      5  O   UNL A   1      33.330  20.887  24.135  1.00  0.00    -0.376 OA
BRANCH   5   6
ATOM      6  C   UNL A   1      32.582  22.356  24.026  1.00  0.00     0.202 C 
BRANCH   6   7
ATOM      7  C   UNL A   1      33.423  24.232  23.332  1.00  0.00     0.261 C 
BRANCH   7   8
ATOM      8  O   UNL A   1      32.773  25.224  22.385  1.00  0.00    -0.460 OA
BRANCH   8   9
ATOM      9  C   UNL A   1      32.975  26.490  22.767  1.00  0.00     0.338 C 
ATOM     10  O   UNL A   1      33.677  27.324  22.251  1.00  0.00    -0.246 OA
BRANCH   9  11
ATOM     11  C   UNL A   1      32.520  26.338  24.141  1.00  0.00     0.087 C 
ATOM     12  C   UNL A   1      33.481  26.818  25.146  1.00  0.00     0.027 C 
ATOM     13  C   UNL A   1      30.817  27.156  23.779  1.00  0.00     0.316 C 
ATOM     14  C   UNL A   1      33.325  28.380  26.037  1.00  0.00     0.020 A 
ATOM     15  O   UNL A   1      30.677  28.902  24.625  1.00  0.00    -0.474 OA
ATOM     16  C   UNL A   1      34.333  28.774  26.877  1.00  0.00     0.032 A 
ATOM     17  C   UNL A   1      32.022  29.482  25.736  1.00  0.00     0.146 A 
ATOM     18  C   UNL A   1      34.188  30.063  27.425  1.00  0.00     0.043 A 
ATOM     19  C   UNL A   1      32.004  30.742  26.284  1.00  0.00     0.085 A 
ATOM     20  Cl  UNL A   1      35.456  30.594  28.488  1.00  0.00    -0.084 Cl
ATOM     21  C   UNL A   1      33.100  30.990  27.150  1.00  0.00     0.045 A 
ATOM     22  Cl  UNL A   1      30.883  31.967  25.922  1.00  0.00    -0.080 Cl
BRANCH  13  23
ATOM     23  C   UNL A   1      29.980  25.737  23.997  1.00  0.00     0.430 C 
ATOM     24  F   UNL A   1      30.092  25.107  25.179  1.00  0.00    -0.167 F 
ATOM     25  F   UNL A   1      28.649  26.059  23.921  1.00  0.00    -0.167 F 
ATOM     26  F   UNL A   1      30.150  24.816  23.016  1.00  0.00    -0.167 F 
ENDBRANCH  13  23
ENDBRANCH   9  11
ENDBRANCH   8   9
ENDBRANCH   7   8
ENDBRANCH   6   7
ENDBRANCH   5   6
ENDBRANCH   4   5
ENDBRANCH   3   4
ENDBRANCH   2   3
ENDBRANCH   1   2
BRANCH   1  27
ATOM     27  C   UNL A   1      38.203  21.728  25.670  1.00  0.00     0.188 C 
BRANCH  27  28
ATOM     28  O   UNL A   1      39.522  22.126  26.010  1.00  0.00    -0.376 OA
BRANCH  28  29
ATOM     29  C   UNL A   1      40.287  21.395  26.952  1.00  0.00     0.202 C 
BRANCH  29  30
ATOM     30  C   UNL A   1      40.830  19.984  26.663  1.00  0.00     0.261 C 
BRANCH  30  31
ATOM     31  O   UNL A   1      41.583  19.812  25.456  1.00  0.00    -0.460 OA
BRANCH  31  32
ATOM     32  C   UNL A   1      42.923  19.708  25.607  1.00  0.00     0.338 C 
ATOM     33  O   UNL A   1      43.588  18.691  25.505  1.00  0.00    -0.246 OA
BRANCH  32  34
ATOM     34  C   UNL A   1      43.507  21.065  25.722  1.00  0.00     0.060 A 
ATOM     35  C   UNL A   1      44.082  21.453  26.946  1.00  0.00     0.016 A 
ATOM     36  C   UNL A   1      43.485  21.954  24.647  1.00  0.00     0.016 A 
ATOM     37  C   UNL A   1      44.611  22.732  27.109  1.00  0.00     0.010 A 
ATOM     38  C   UNL A   1      43.967  23.253  24.826  1.00  0.00     0.010 A 
ATOM     39  C   UNL A   1      44.494  23.657  26.068  1.00  0.00    -0.014 A 
BRANCH  39  40
ATOM     40  C   UNL A   1      44.657  25.105  26.341  1.00  0.00     0.031 A 
ATOM     41  C   UNL A   1      46.014  25.703  26.100  1.00  0.00     0.074 A 
ATOM     42  C   UNL A   1      43.654  25.859  26.820  1.00  0.00     0.049 A 
ATOM     43  N   UNL A   1      46.478  26.877  26.433  1.00  0.00    -0.248 NA
ATOM     44  C   UNL A   1      46.981  24.841  25.404  1.00  0.00     0.031 C 
ATOM     45  C   UNL A   1      42.285  25.402  27.028  1.00  0.00     0.029 A 
ATOM     46  N   UNL A   1      43.648  27.164  27.248  1.00  0.00    -0.354 N 
ATOM     47  C   UNL A   1      47.807  26.882  26.023  1.00  0.00     0.074 A 
ATOM     48  C   UNL A   1      48.075  25.585  25.441  1.00  0.00     0.031 C 
ATOM     49  C   UNL A   1      41.575  26.399  27.582  1.00  0.00     0.029 A 
ATOM     50  C   UNL A   1      42.457  27.541  27.825  1.00  0.00     0.049 A 
ATOM     51  H   UNL A   1      44.418  27.769  27.152  1.00  0.00     0.167 HD
ATOM     52  C   UNL A   1      48.718  27.879  26.135  1.00  0.00     0.034 A 
ATOM     53  C   UNL A   1      42.137  28.651  28.523  1.00  0.00     0.034 A 
ATOM     54  C   UNL A   1      48.425  29.151  26.745  1.00  0.00     0.049 A 
ATOM     55  C   UNL A   1      43.191  29.716  28.729  1.00  0.00     0.074 A 
ATOM     56  C   UNL A   1      49.258  30.246  26.891  1.00  0.00     0.029 A 
ATOM     57  N   UNL A   1      47.215  29.489  27.341  1.00  0.00    -0.354 N 
ATOM     58  N   UNL A   1      44.446  29.721  28.340  1.00  0.00    -0.248 NA
ATOM     59  C   UNL A   1      42.788  30.921  29.466  1.00  0.00     0.031 C 
ATOM     60  C   UNL A   1      48.591  31.197  27.668  1.00  0.00     0.029 A 
ATOM     61  C   UNL A   1      47.298  30.754  27.901  1.00  0.00     0.049 A 
ATOM     62  H   UNL A   1      46.417  28.913  27.362  1.00  0.00     0.167 HD
ATOM     63  C   UNL A   1      44.971  30.944  28.753  1.00  0.00     0.074 A 
ATOM     64  C   UNL A   1      43.897  31.647  29.426  1.00  0.00     0.031 C 
ATOM     65  C   UNL A   1      46.220  31.444  28.576  1.00  0.00     0.034 A 
BRANCH  52  66
ATOM     66  C   UNL A   1      50.125  27.586  25.669  1.00  0.00     0.023 A 
ATOM     67  C   UNL A   1      50.601  28.015  24.416  1.00  0.00     0.031 A 
ATOM     68  C   UNL A   1      50.983  26.803  26.461  1.00  0.00     0.131 A 
ATOM     69  C   UNL A   1      51.848  27.568  23.953  1.00  0.00     0.055 A 
ATOM     70  C   UNL A   1      52.265  26.453  26.039  1.00  0.00     0.041 A 
ATOM     71  F   UNL A   1      50.577  26.337  27.653  1.00  0.00    -0.206 F 
ATOM     72  C   UNL A   1      52.697  26.817  24.766  1.00  0.00     0.022 A 
BRANCH  69  73
ATOM     73  S   UNL A   1      52.250  27.808  22.200  1.00  0.00     0.124 S 
ATOM     74  O   UNL A   1      53.703  27.648  22.206  1.00  0.00    -0.237 OA
ATOM     75  O   UNL A   1      51.493  26.742  21.555  1.00  0.00    -0.237 OA
ATOM     76  O   UNL A   1      51.782  29.165  21.924  1.00  0.00    -0.744 OA
ENDBRANCH  69  73
ENDBRANCH  52  66
BRANCH  53  77
ATOM     77  C   UNL A   1      40.785  28.772  29.142  1.00  0.00     0.023 A 
ATOM     78  C   UNL A   1      40.583  28.561  30.515  1.00  0.00     0.031 A 
ATOM     79  C   UNL A   1      39.666  29.100  28.354  1.00  0.00     0.131 A 
ATOM     80  C   UNL A   1      39.289  28.660  31.053  1.00  0.00     0.055 A 
ATOM     81  C   UNL A   1      38.393  29.254  28.904  1.00  0.00     0.041 A 
ATOM     82  F   UNL A   1      39.801  29.300  27.034  1.00  0.00    -0.206 F 
ATOM     83  C   UNL A   1      38.198  29.027  30.261  1.00  0.00     0.022 A 
BRANCH  80  84
ATOM     84  S   UNL A   1      39.033  28.227  32.796  1.00  0.00     0.124 S 
ATOM     85  O   UNL A   1      38.328  29.404  33.292  1.00  0.00    -0.237 OA
ATOM     86  O   UNL A   1      38.246  27.002  32.692  1.00  0.00    -0.237 OA
ATOM     87  O   UNL A   1      40.391  28.052  33.306  1.00  0.00    -0.744 OA
ENDBRANCH  80  84
ENDBRANCH  53  77
BRANCH  65  88
ATOM     88  C   UNL A   1      46.491  32.854  29.048  1.00  0.00     0.023 A 
ATOM     89  C   UNL A   1      46.265  33.980  28.238  1.00  0.00     0.031 A 
ATOM     90  C   UNL A   1      46.943  33.069  30.365  1.00  0.00     0.131 A 
ATOM     91  C   UNL A   1      46.521  35.265  28.742  1.00  0.00     0.055 A 
ATOM     92  C   UNL A   1      47.127  34.351  30.883  1.00  0.00     0.041 A 
ATOM     93  F   UNL A   1      47.187  32.031  31.181  1.00  0.00    -0.206 F 
ATOM     94  C   UNL A   1      46.923  35.459  30.068  1.00  0.00     0.022 A 
BRANCH  91  95
ATOM     95  S   UNL A   1      46.407  36.686  27.621  1.00  0.00     0.124 S 
ATOM     96  O   UNL A   1      46.825  36.101  26.351  1.00  0.00    -0.237 OA
ATOM     97  O   UNL A   1      44.999  37.054  27.721  1.00  0.00    -0.237 OA
ATOM     98  O   UNL A   1      47.342  37.653  28.195  1.00  0.00    -0.744 OA
ENDBRANCH  91  95
ENDBRANCH  65  88
ENDBRANCH  39  40
ENDBRANCH  32  34
ENDBRANCH  31  32
ENDBRANCH  30  31
ENDBRANCH  29  30
ENDBRANCH  28  29
ENDBRANCH  27  28
ENDBRANCH   1  27
TORSDOF 24
ENDMDL
MODEL 2
REMARK VINA RESULT:     -10.3      2.246      2.682
REMARK SMILES O=C(OCCOCCOCCOCCOC(=O)c1ccc(-c2c3nc(c(-c4cc(S(=O)(=O)[O-])ccc4F)c4ccc([nH]4)c(-c4cc(S(=O)(=O)[O-])ccc4F)c4nc(c(-c5cc(S(=O)(=O)[O-])ccc5F)c5ccc2[nH]5)C=C4)C=C3)cc1)C1=Cc2cc(Cl)cc(Cl)c2O[C@@H]1C(F)(F)F
REMARK SMILES IDX 10 1 9 2 8 3 7 4 6 5 5 6 4 7 3 8 2 9 1 10 81 11 82 12 92 13
REMARK SMILES IDX 83 14 91 15 84 16 90 17 85 18 88 19 86 20 87 21 89 22 93 23
REMARK SMILES IDX 94 24 95 25 96 26 11 27 12 28 13 29 14 30 15 31 16 32 17 33
REMARK SMILES IDX 18 34 19 35 80 36 20 37 79 38 21 39 22 40 23 41 73 42 24 43
REMARK SMILES IDX 78 44 72 45 74 46 25 47 77 48 71 49 70 50 26 52 58 53 38 54
REMARK SMILES IDX 57 55 39 56 42 57 56 58 75 59 40 60 41 61 55 63 76 64 43 65
REMARK SMILES IDX 27 66 28 67 36 68 29 69 35 70 37 71 34 72 30 73 31 74 32 75
REMARK SMILES IDX 33 76 59 77 60 78 68 79 61 80 67 81 69 82 66 83 62 84 63 85
REMARK SMILES IDX 64 86 65 87 44 88 45 89 53 90 46 91 52 92 54 93 51 94 47 95
REMARK SMILES IDX 48 96 49 97 50 98
REMARK H PARENT 74 51 42 62
REMARK Flexibility Score: inf
ROOT
ATOM      1  C   UNL A   1      35.779  21.756  24.208  1.00  0.00     0.188 C 
ENDROOT
BRANCH   1   2
ATOM      2  O   UNL A   1      34.475  21.284  24.452  1.00  0.00    -0.377 OA
BRANCH   2   3
ATOM      3  C   UNL A   1      34.312  20.824  25.771  1.00  0.00     0.188 C 
BRANCH   3   4
ATOM      4  C   UNL A   1      33.207  21.534  26.560  1.00  0.00     0.188 C 
BRANCH   4   5
ATOM      5  O   UNL A   1      32.821  22.940  26.369  1.00  0.00    -0.376 OA
BRANCH   5   6
ATOM      6  C   UNL A   1      33.685  24.341  26.221  1.00  0.00     0.202 C 
BRANCH   6   7
ATOM      7  C   UNL A   1      34.632  25.139  24.440  1.00  0.00     0.261 C 
BRANCH   7   8
ATOM      8  O   UNL A   1      34.035  25.210  23.047  1.00  0.00    -0.460 OA
BRANCH   8   9
ATOM      9  C   UNL A   1      33.486  26.404  22.794  1.00  0.00     0.338 C 
ATOM     10  O   UNL A   1      33.933  27.308  22.132  1.00  0.00    -0.246 OA
BRANCH   9  11
ATOM     11  C   UNL A   1      32.539  26.403  23.899  1.00  0.00     0.087 C 
ATOM     12  C   UNL A   1      32.636  27.584  24.772  1.00  0.00     0.027 C 
ATOM     13  C   UNL A   1      31.043  26.011  22.755  1.00  0.00     0.316 C 
ATOM     14  C   UNL A   1      31.481  28.970  24.739  1.00  0.00     0.020 A 
ATOM     15  O   UNL A   1      29.850  27.539  22.602  1.00  0.00    -0.474 OA
ATOM     16  C   UNL A   1      31.728  30.064  25.526  1.00  0.00     0.032 A 
ATOM     17  C   UNL A   1      30.162  29.040  23.618  1.00  0.00     0.146 A 
ATOM     18  C   UNL A   1      30.850  31.149  25.338  1.00  0.00     0.043 A 
ATOM     19  C   UNL A   1      29.395  30.172  23.477  1.00  0.00     0.085 A 
ATOM     20  Cl  UNL A   1      31.143  32.554  26.317  1.00  0.00    -0.084 Cl
ATOM     21  C   UNL A   1      29.757  31.205  24.378  1.00  0.00     0.045 A 
ATOM     22  Cl  UNL A   1      28.201  30.422  22.295  1.00  0.00    -0.080 Cl
BRANCH  13  23
ATOM     23  C   UNL A   1      30.835  24.489  23.386  1.00  0.00     0.430 C 
ATOM     24  F   UNL A   1      30.634  24.370  24.710  1.00  0.00    -0.167 F 
ATOM     25  F   UNL A   1      29.680  23.997  22.835  1.00  0.00    -0.167 F 
ATOM     26  F   UNL A   1      31.780  23.585  23.026  1.00  0.00    -0.167 F 
ENDBRANCH  13  23
ENDBRANCH   9  11
ENDBRANCH   8   9
ENDBRANCH   7   8
ENDBRANCH   6   7
ENDBRANCH   5   6
ENDBRANCH   4   5
ENDBRANCH   3   4
ENDBRANCH   2   3
ENDBRANCH   1   2
BRANCH   1  27
ATOM     27  C   UNL A   1      36.878  21.212  25.126  1.00  0.00     0.188 C 
BRANCH  27  28
ATOM     28  O   UNL A   1      38.203  21.719  25.109  1.00  0.00    -0.376 OA
BRANCH  28  29
ATOM     29  C   UNL A   1      39.144  21.343  26.099  1.00  0.00     0.202 C 
BRANCH  29  30
ATOM     30  C   UNL A   1      39.661  19.901  26.244  1.00  0.00     0.261 C 
BRANCH  30  31
ATOM     31  O   UNL A   1      40.799  19.535  25.454  1.00  0.00    -0.460 OA
BRANCH  31  32
ATOM     32  C   UNL A   1      41.966  19.402  26.125  1.00  0.00     0.338 C 
ATOM     33  O   UNL A   1      42.537  18.358  26.386  1.00  0.00    -0.246 OA
BRANCH  32  34
ATOM     34  C   UNL A   1      42.564  20.742  26.334  1.00  0.00     0.060 A 
ATOM     35  C   UNL A   1      42.575  21.283  27.632  1.00  0.00     0.016 A 
ATOM     36  C   UNL A   1      43.101  21.467  25.270  1.00  0.00     0.016 A 
ATOM     37  C   UNL A   1      43.095  22.555  27.868  1.00  0.00     0.010 A 
ATOM     38  C   UNL A   1      43.574  22.761  25.497  1.00  0.00     0.010 A 
ATOM     39  C   UNL A   1      43.536  23.323  26.787  1.00  0.00    -0.014 A 
BRANCH  39  40
ATOM     40  C   UNL A   1      43.696  24.789  26.937  1.00  0.00     0.031 A 
ATOM     41  C   UNL A   1      45.051  25.368  26.642  1.00  0.00     0.074 A 
ATOM     42  C   UNL A   1      42.693  25.579  27.352  1.00  0.00     0.049 A 
ATOM     43  N   UNL A   1      45.514  26.566  26.873  1.00  0.00    -0.248 NA
ATOM     44  C   UNL A   1      46.018  24.452  26.018  1.00  0.00     0.031 C 
ATOM     45  C   UNL A   1      41.325  25.139  27.603  1.00  0.00     0.029 A 
ATOM     46  N   UNL A   1      42.685  26.915  27.669  1.00  0.00    -0.354 N 
ATOM     47  C   UNL A   1      46.842  26.539  26.460  1.00  0.00     0.074 A 
ATOM     48  C   UNL A   1      47.110  25.198  25.988  1.00  0.00     0.031 C 
ATOM     49  C   UNL A   1      40.615  26.177  28.073  1.00  0.00     0.029 A 
ATOM     50  C   UNL A   1      41.495  27.338  28.216  1.00  0.00     0.049 A 
ATOM     51  H   UNL A   1      43.454  27.512  27.520  1.00  0.00     0.167 HD
ATOM     52  C   UNL A   1      47.751  27.544  26.484  1.00  0.00     0.034 A 
ATOM     53  C   UNL A   1      41.175  28.502  28.818  1.00  0.00     0.034 A 
ATOM     54  C   UNL A   1      47.456  28.863  26.986  1.00  0.00     0.049 A 
ATOM     55  C   UNL A   1      42.226  29.583  28.930  1.00  0.00     0.074 A 
ATOM     56  C   UNL A   1      48.287  29.967  27.036  1.00  0.00     0.029 A 
ATOM     57  N   UNL A   1      46.247  29.247  27.554  1.00  0.00    -0.354 N 
ATOM     58  N   UNL A   1      43.480  29.558  28.538  1.00  0.00    -0.248 NA
ATOM     59  C   UNL A   1      41.823  30.846  29.564  1.00  0.00     0.031 C 
ATOM     60  C   UNL A   1      47.621  30.979  27.732  1.00  0.00     0.029 A 
ATOM     61  C   UNL A   1      46.329  30.555  28.005  1.00  0.00     0.049 A 
ATOM     62  H   UNL A   1      45.450  28.673  27.626  1.00  0.00     0.167 HD
ATOM     63  C   UNL A   1      44.004  30.812  28.845  1.00  0.00     0.074 A 
ATOM     64  C   UNL A   1      42.931  31.567  29.459  1.00  0.00     0.031 C 
ATOM     65  C   UNL A   1      45.252  31.298  28.623  1.00  0.00     0.034 A 
BRANCH  52  66
ATOM     66  C   UNL A   1      49.157  27.215  26.040  1.00  0.00     0.023 A 
ATOM     67  C   UNL A   1      50.165  26.859  26.955  1.00  0.00     0.031 A 
ATOM     68  C   UNL A   1      49.515  27.331  24.685  1.00  0.00     0.131 A 
ATOM     69  C   UNL A   1      51.493  26.740  26.519  1.00  0.00     0.055 A 
ATOM     70  C   UNL A   1      50.818  27.103  24.243  1.00  0.00     0.041 A 
ATOM     71  F   UNL A   1      48.606  27.697  23.767  1.00  0.00    -0.206 F 
ATOM     72  C   UNL A   1      51.822  26.828  25.166  1.00  0.00     0.022 A 
BRANCH  69  73
ATOM     73  S   UNL A   1      52.806  26.677  27.769  1.00  0.00     0.124 S 
ATOM     74  O   UNL A   1      53.279  28.060  27.770  1.00  0.00    -0.237 OA
ATOM     75  O   UNL A   1      52.085  26.249  28.962  1.00  0.00    -0.237 OA
ATOM     76  O   UNL A   1      53.751  25.704  27.225  1.00  0.00    -0.744 OA
ENDBRANCH  69  73
ENDBRANCH  52  66
BRANCH  53  77
ATOM     77  C   UNL A   1      39.824  28.673  29.429  1.00  0.00     0.023 A 
ATOM     78  C   UNL A   1      38.749  29.205  28.700  1.00  0.00     0.031 A 
ATOM     79  C   UNL A   1      39.595  28.306  30.768  1.00  0.00     0.131 A 
ATOM     80  C   UNL A   1      37.500  29.373  29.322  1.00  0.00     0.055 A 
ATOM     81  C   UNL A   1      38.339  28.420  31.362  1.00  0.00     0.041 A 
ATOM     82  F   UNL A   1      40.592  27.804  31.514  1.00  0.00    -0.206 F 
ATOM     83  C   UNL A   1      37.282  28.963  30.640  1.00  0.00     0.022 A 
BRANCH  80  84
ATOM     84  S   UNL A   1      36.175  30.207  28.407  1.00  0.00     0.124 S 
ATOM     85  O   UNL A   1      36.848  30.550  27.159  1.00  0.00    -0.237 OA
ATOM     86  O   UNL A   1      35.159  29.162  28.324  1.00  0.00    -0.237 OA
ATOM     87  O   UNL A   1      35.831  31.340  29.263  1.00  0.00    -0.744 OA
ENDBRANCH  80  84
ENDBRANCH  53  77
BRANCH  65  88
ATOM     88  C   UNL A   1      45.521  32.743  28.973  1.00  0.00     0.023 A 
ATOM     89  C   UNL A   1      45.275  33.797  28.077  1.00  0.00     0.031 A 
ATOM     90  C   UNL A   1      45.991  33.068  30.260  1.00  0.00     0.131 A 
ATOM     91  C   UNL A   1      45.531  35.121  28.470  1.00  0.00     0.055 A 
ATOM     92  C   UNL A   1      46.175  34.389  30.668  1.00  0.00     0.041 A 
ATOM     93  F   UNL A   1      46.255  32.102  31.154  1.00  0.00    -0.206 F 
ATOM     94  C   UNL A   1      45.952  35.425  29.768  1.00  0.00     0.022 A 
BRANCH  91  95
ATOM     95  S   UNL A   1      45.390  36.445  27.237  1.00  0.00     0.124 S 
ATOM     96  O   UNL A   1      45.933  37.589  27.962  1.00  0.00    -0.237 OA
ATOM     97  O   UNL A   1      46.207  35.939  26.139  1.00  0.00    -0.237 OA
ATOM     98  O   UNL A   1      43.956  36.508  26.963  1.00  0.00    -0.744 OA
ENDBRANCH  91  95
ENDBRANCH  65  88
ENDBRANCH  39  40
ENDBRANCH  32  34
ENDBRANCH  31  32
ENDBRANCH  30  31
ENDBRANCH  29  30
ENDBRANCH  28  29
ENDBRANCH  27  28
ENDBRANCH   1  27
TORSDOF 24
ENDMDL
MODEL 3
REMARK VINA RESULT:     -10.1      2.633      7.608
REMARK SMILES O=C(OCCOCCOCCOCCOC(=O)c1ccc(-c2c3nc(c(-c4cc(S(=O)(=O)[O-])ccc4F)c4ccc([nH]4)c(-c4cc(S(=O)(=O)[O-])ccc4F)c4nc(c(-c5cc(S(=O)(=O)[O-])ccc5F)c5ccc2[nH]5)C=C4)C=C3)cc1)C1=Cc2cc(Cl)cc(Cl)c2O[C@@H]1C(F)(F)F
REMARK SMILES IDX 10 1 9 2 8 3 7 4 6 5 5 6 4 7 3 8 2 9 1 10 81 11 82 12 92 13
REMARK SMILES IDX 83 14 91 15 84 16 90 17 85 18 88 19 86 20 87 21 89 22 93 23
REMARK SMILES IDX 94 24 95 25 96 26 11 27 12 28 13 29 14 30 15 31 16 32 17 33
REMARK SMILES IDX 18 34 19 35 80 36 20 37 79 38 21 39 22 40 23 41 73 42 24 43
REMARK SMILES IDX 78 44 72 45 74 46 25 47 77 48 71 49 70 50 26 52 58 53 38 54
REMARK SMILES IDX 57 55 39 56 42 57 56 58 75 59 40 60 41 61 55 63 76 64 43 65
REMARK SMILES IDX 27 66 28 67 36 68 29 69 35 70 37 71 34 72 30 73 31 74 32 75
REMARK SMILES IDX 33 76 59 77 60 78 68 79 61 80 67 81 69 82 66 83 62 84 63 85
REMARK SMILES IDX 64 86 65 87 44 88 45 89 53 90 46 91 52 92 54 93 51 94 47 95
REMARK SMILES IDX 48 96 49 97 50 98
REMARK H PARENT 74 51 42 62
REMARK Flexibility Score: inf
ROOT
ATOM      1  C   UNL A   1      35.700  21.581  24.207  1.00  0.00     0.188 C 
ENDROOT
BRANCH   1   2
ATOM      2  O   UNL A   1      34.389  21.152  24.488  1.00  0.00    -0.377 OA
BRANCH   2   3
ATOM      3  C   UNL A   1      34.260  20.650  25.796  1.00  0.00     0.188 C 
BRANCH   3   4
ATOM      4  C   UNL A   1      33.207  21.364  26.650  1.00  0.00     0.188 C 
BRANCH   4   5
ATOM      5  O   UNL A   1      32.860  22.787  26.525  1.00  0.00    -0.376 OA
BRANCH   5   6
ATOM      6  C   UNL A   1      33.761  24.159  26.335  1.00  0.00     0.202 C 
BRANCH   6   7
ATOM      7  C   UNL A   1      34.701  24.896  24.524  1.00  0.00     0.261 C 
BRANCH   7   8
ATOM      8  O   UNL A   1      34.087  24.946  23.137  1.00  0.00    -0.460 OA
BRANCH   8   9
ATOM      9  C   UNL A   1      33.559  26.144  22.864  1.00  0.00     0.338 C 
ATOM     10  O   UNL A   1      34.026  27.034  22.197  1.00  0.00    -0.246 OA
BRANCH   9  11
ATOM     11  C   UNL A   1      32.596  26.169  23.955  1.00  0.00     0.087 C 
ATOM     12  C   UNL A   1      32.688  27.365  24.807  1.00  0.00     0.027 C 
ATOM     13  C   UNL A   1      31.114  25.761  22.799  1.00  0.00     0.316 C 
ATOM     14  C   UNL A   1      31.540  28.755  24.733  1.00  0.00     0.020 A 
ATOM     15  O   UNL A   1      29.930  27.293  22.601  1.00  0.00    -0.474 OA
ATOM     16  C   UNL A   1      31.782  29.863  25.502  1.00  0.00     0.032 A 
ATOM     17  C   UNL A   1      30.236  28.810  23.593  1.00  0.00     0.146 A 
ATOM     18  C   UNL A   1      30.912  30.949  25.282  1.00  0.00     0.043 A 
ATOM     19  C   UNL A   1      29.478  29.943  23.420  1.00  0.00     0.085 A 
ATOM     20  Cl  UNL A   1      31.198  32.370  26.239  1.00  0.00    -0.084 Cl
ATOM     21  C   UNL A   1      29.831  30.992  24.307  1.00  0.00     0.045 A 
ATOM     22  Cl  UNL A   1      28.300  30.176  22.218  1.00  0.00    -0.080 Cl
BRANCH  13  23
ATOM     23  C   UNL A   1      30.890  24.253  23.455  1.00  0.00     0.430 C 
ATOM     24  F   UNL A   1      30.622  24.163  24.769  1.00  0.00    -0.167 F 
ATOM     25  F   UNL A   1      29.771  23.733  22.856  1.00  0.00    -0.167 F 
ATOM     26  F   UNL A   1      31.863  23.352  23.167  1.00  0.00    -0.167 F 
ENDBRANCH  13  23
ENDBRANCH   9  11
ENDBRANCH   8   9
ENDBRANCH   7   8
ENDBRANCH   6   7
ENDBRANCH   5   6
ENDBRANCH   4   5
ENDBRANCH   3   4
ENDBRANCH   2   3
ENDBRANCH   1   2
BRANCH   1  27
ATOM     27  C   UNL A   1      36.810  20.975  25.071  1.00  0.00     0.188 C 
BRANCH  27  28
ATOM     28  O   UNL A   1      38.131  21.491  25.084  1.00  0.00    -0.376 OA
BRANCH  28  29
ATOM     29  C   UNL A   1      39.086  21.037  26.026  1.00  0.00     0.202 C 
BRANCH  29  30
ATOM     30  C   UNL A   1      39.785  19.672  25.905  1.00  0.00     0.261 C 
BRANCH  30  31
ATOM     31  O   UNL A   1      41.066  19.652  25.264  1.00  0.00    -0.460 OA
BRANCH  31  32
ATOM     32  C   UNL A   1      42.137  19.785  26.080  1.00  0.00     0.338 C 
ATOM     33  O   UNL A   1      43.007  18.955  26.275  1.00  0.00    -0.246 OA
BRANCH  32  34
ATOM     34  C   UNL A   1      42.211  21.184  26.563  1.00  0.00     0.060 A 
ATOM     35  C   UNL A   1      42.235  22.226  25.619  1.00  0.00     0.016 A 
ATOM     36  C   UNL A   1      42.266  21.475  27.926  1.00  0.00     0.016 A 
ATOM     37  C   UNL A   1      42.341  23.554  26.029  1.00  0.00     0.010 A 
ATOM     38  C   UNL A   1      42.424  22.801  28.335  1.00  0.00     0.010 A 
ATOM     39  C   UNL A   1      42.502  23.839  27.387  1.00  0.00    -0.014 A 
BRANCH  39  40
ATOM     40  C   UNL A   1      43.025  25.160  27.810  1.00  0.00     0.031 A 
ATOM     41  C   UNL A   1      42.046  26.129  28.409  1.00  0.00     0.074 A 
ATOM     42  C   UNL A   1      44.311  25.508  27.641  1.00  0.00     0.049 A 
ATOM     43  N   UNL A   1      42.189  27.398  28.681  1.00  0.00    -0.248 NA
ATOM     44  C   UNL A   1      40.715  25.587  28.720  1.00  0.00     0.031 C 
ATOM     45  C   UNL A   1      45.359  24.628  27.133  1.00  0.00     0.029 A 
ATOM     46  N   UNL A   1      44.944  26.708  27.847  1.00  0.00    -0.354 N 
ATOM     47  C   UNL A   1      40.952  27.818  29.160  1.00  0.00     0.074 A 
ATOM     48  C   UNL A   1      40.070  26.673  29.115  1.00  0.00     0.031 C 
ATOM     49  C   UNL A   1      46.500  25.329  27.031  1.00  0.00     0.029 A 
ATOM     50  C   UNL A   1      46.246  26.721  27.404  1.00  0.00     0.049 A 
ATOM     51  H   UNL A   1      44.509  27.484  28.270  1.00  0.00     0.167 HD
ATOM     52  C   UNL A   1      40.592  29.053  29.586  1.00  0.00     0.034 A 
ATOM     53  C   UNL A   1      47.109  27.748  27.257  1.00  0.00     0.034 A 
ATOM     54  C   UNL A   1      41.490  30.180  29.592  1.00  0.00     0.049 A 
ATOM     55  C   UNL A   1      46.664  29.140  27.643  1.00  0.00     0.074 A 
ATOM     56  C   UNL A   1      41.245  31.470  30.026  1.00  0.00     0.029 A 
ATOM     57  N   UNL A   1      42.795  30.161  29.113  1.00  0.00    -0.354 N 
ATOM     58  N   UNL A   1      45.497  29.537  28.097  1.00  0.00    -0.248 NA
ATOM     59  C   UNL A   1      47.648  30.222  27.497  1.00  0.00     0.031 C 
ATOM     60  C   UNL A   1      42.359  32.253  29.708  1.00  0.00     0.029 A 
ATOM     61  C   UNL A   1      43.348  31.429  29.192  1.00  0.00     0.049 A 
ATOM     62  H   UNL A   1      43.257  29.363  28.768  1.00  0.00     0.167 HD
ATOM     63  C   UNL A   1      45.618  30.906  28.324  1.00  0.00     0.074 A 
ATOM     64  C   UNL A   1      46.971  31.267  27.953  1.00  0.00     0.031 C 
ATOM     65  C   UNL A   1      44.700  31.779  28.813  1.00  0.00     0.034 A 
BRANCH  52  66
ATOM     66  C   UNL A   1      39.148  29.252  29.987  1.00  0.00     0.023 A 
ATOM     67  C   UNL A   1      38.227  29.912  29.155  1.00  0.00     0.031 A 
ATOM     68  C   UNL A   1      38.705  28.838  31.256  1.00  0.00     0.131 A 
ATOM     69  C   UNL A   1      36.950  30.231  29.642  1.00  0.00     0.055 A 
ATOM     70  C   UNL A   1      37.399  29.063  31.692  1.00  0.00     0.041 A 
ATOM     71  F   UNL A   1      39.544  28.230  32.109  1.00  0.00    -0.206 F 
ATOM     72  C   UNL A   1      36.519  29.785  30.891  1.00  0.00     0.022 A 
BRANCH  69  73
ATOM     73  S   UNL A   1      35.943  31.415  28.704  1.00  0.00     0.124 S 
ATOM     74  O   UNL A   1      36.962  32.335  28.202  1.00  0.00    -0.237 OA
ATOM     75  O   UNL A   1      35.305  30.565  27.707  1.00  0.00    -0.237 OA
ATOM     76  O   UNL A   1      35.049  31.978  29.713  1.00  0.00    -0.744 OA
ENDBRANCH  69  73
ENDBRANCH  52  66
BRANCH  53  77
ATOM     77  C   UNL A   1      48.450  27.507  26.648  1.00  0.00     0.023 A 
ATOM     78  C   UNL A   1      49.599  27.347  27.437  1.00  0.00     0.031 A 
ATOM     79  C   UNL A   1      48.596  27.440  25.249  1.00  0.00     0.131 A 
ATOM     80  C   UNL A   1      50.846  27.148  26.821  1.00  0.00     0.055 A 
ATOM     81  C   UNL A   1      49.827  27.183  24.645  1.00  0.00     0.041 A 
ATOM     82  F   UNL A   1      47.531  27.599  24.447  1.00  0.00    -0.206 F 
ATOM     83  C   UNL A   1      50.964  27.043  25.433  1.00  0.00     0.022 A 
BRANCH  80  84
ATOM     84  S   UNL A   1      52.334  27.103  27.857  1.00  0.00     0.124 S 
ATOM     85  O   UNL A   1      53.055  28.282  27.392  1.00  0.00    -0.237 OA
ATOM     86  O   UNL A   1      51.770  27.183  29.201  1.00  0.00    -0.237 OA
ATOM     87  O   UNL A   1      52.947  25.821  27.517  1.00  0.00    -0.744 OA
ENDBRANCH  80  84
ENDBRANCH  53  77
BRANCH  65  88
ATOM     88  C   UNL A   1      45.138  33.206  29.052  1.00  0.00     0.023 A 
ATOM     89  C   UNL A   1      45.660  33.642  30.281  1.00  0.00     0.031 A 
ATOM     90  C   UNL A   1      45.071  34.137  27.997  1.00  0.00     0.131 A 
ATOM     91  C   UNL A   1      46.064  34.977  30.434  1.00  0.00     0.055 A 
ATOM     92  C   UNL A   1      45.540  35.443  28.133  1.00  0.00     0.041 A 
ATOM     93  F   UNL A   1      44.570  33.781  26.803  1.00  0.00    -0.206 F 
ATOM     94  C   UNL A   1      46.034  35.872  29.360  1.00  0.00     0.022 A 
BRANCH  91  95
ATOM     95  S   UNL A   1      46.553  35.564  32.079  1.00  0.00     0.124 S 
ATOM     96  O   UNL A   1      46.676  37.002  31.861  1.00  0.00    -0.237 OA
ATOM     97  O   UNL A   1      45.432  35.138  32.910  1.00  0.00    -0.237 OA
ATOM     98  O   UNL A   1      47.812  34.866  32.333  1.00  0.00    -0.744 OA
ENDBRANCH  91  95
ENDBRANCH  65  88
ENDBRANCH  39  40
ENDBRANCH  32  34
ENDBRANCH  31  32
ENDBRANCH  30  31
ENDBRANCH  29  30
ENDBRANCH  28  29
ENDBRANCH  27  28
ENDBRANCH   1  27
TORSDOF 24
ENDMDL
