MODEL 1
REMARK VINA RESULT:     -10.4      0.000      0.000
REMARK SMILES CC(C)(C)c1ccc(NS(=O)(=O)c2cccc(C(=O)OCCOCCOCCOCCOC(=O)c3ccc(-c4c5nc(c(-c6cc(S(=O)(=O)[O-])ccc6F)c6ccc([nH]6)c(-c6cc(S(=O)(=O)[O-])ccc6F)c6nc(c(-c7cc(S(=O)(=O)[O-])ccc7F)c7ccc4[nH]7)C=C6)C=C5)cc3)c2)cc1
REMARK SMILES IDX 25 1 24 2 23 3 22 4 21 5 20 6 18 7 19 8 17 9 13 10 14 11
REMARK SMILES IDX 98 12 15 13 16 14 10 15 11 16 12 17 9 18 8 20 5 21 6 22
REMARK SMILES IDX 100 23 7 24 99 25 2 26 1 27 3 28 4 29 26 30 27 31 28 32
REMARK SMILES IDX 29 33 30 34 31 35 32 36 33 37 34 38 35 39 36 40 97 41 37 42
REMARK SMILES IDX 96 43 38 44 39 45 40 46 90 47 41 48 95 49 89 50 91 51 42 52
REMARK SMILES IDX 94 53 88 54 87 55 43 57 75 58 55 59 74 60 56 61 59 62 73 63
REMARK SMILES IDX 92 64 57 65 58 66 72 68 93 69 60 70 44 71 45 72 53 73 46 74
REMARK SMILES IDX 52 75 54 76 51 77 47 78 48 79 49 80 50 81 76 82 77 83 85 84
REMARK SMILES IDX 78 85 84 86 86 87 83 88 79 89 80 90 81 91 82 92 61 93 62 94
REMARK SMILES IDX 70 95 63 96 69 97 71 98 68 99 64 100 65 101 66 102 67 103
REMARK H PARENT 9 19 91 56 59 67
REMARK Flexibility Score: inf
ROOT
ATOM      1  C   UNL A   1      34.709  24.225  24.171  1.00  0.00     0.188 C 
ENDROOT
BRANCH   1   2
ATOM      2  C   UNL A   1      33.985  25.460  23.619  1.00  0.00     0.188 C 
BRANCH   2   3
ATOM      3  O   UNL A   1      33.987  25.545  22.206  1.00  0.00    -0.376 OA
BRANCH   3   4
ATOM      4  C   UNL A   1      33.241  26.629  21.659  1.00  0.00     0.202 C 
BRANCH   4   5
ATOM      5  C   UNL A   1      31.887  26.326  20.974  1.00  0.00     0.261 C 
BRANCH   5   6
ATOM      6  O   UNL A   1      30.686  26.655  21.698  1.00  0.00    -0.460 OA
BRANCH   6   7
ATOM      7  C   UNL A   1      30.696  27.786  22.429  1.00  0.00     0.338 C 
ATOM      8  O   UNL A   1      30.479  28.915  22.022  1.00  0.00    -0.246 OA
BRANCH   7   9
ATOM      9  C   UNL A   1      30.823  27.448  23.870  1.00  0.00     0.061 A 
ATOM     10  C   UNL A   1      30.809  25.930  25.747  1.00  0.00     0.088 A 
ATOM     11  C   UNL A   1      31.223  26.974  26.592  1.00  0.00     0.022 A 
ATOM     12  C   UNL A   1      30.596  26.159  24.380  1.00  0.00     0.038 A 
ATOM     13  C   UNL A   1      31.408  28.257  26.085  1.00  0.00     0.002 A 
ATOM     14  C   UNL A   1      31.224  28.489  24.724  1.00  0.00     0.016 A 
BRANCH  10  15
ATOM     15  S   UNL A   1      30.601  24.310  26.478  1.00  0.00     0.261 S 
ATOM     16  O   UNL A   1      29.281  24.255  27.071  1.00  0.00    -0.201 OA
ATOM     17  O   UNL A   1      31.783  24.070  27.283  1.00  0.00    -0.201 OA
BRANCH  15  18
ATOM     18  N   UNL A   1      30.650  23.219  25.225  1.00  0.00    -0.280 N 
ATOM     19  H   UNL A   1      29.919  23.262  24.567  1.00  0.00     0.180 HD
BRANCH  18  20
ATOM     20  C   UNL A   1      31.648  22.231  25.017  1.00  0.00     0.049 A 
ATOM     21  C   UNL A   1      32.972  19.811  24.489  1.00  0.00    -0.042 A 
ATOM     22  C   UNL A   1      32.917  20.330  25.789  1.00  0.00     0.006 A 
ATOM     23  C   UNL A   1      32.573  20.649  23.438  1.00  0.00     0.006 A 
ATOM     24  C   UNL A   1      32.261  21.531  26.046  1.00  0.00     0.027 A 
ATOM     25  C   UNL A   1      31.886  21.834  23.702  1.00  0.00     0.027 A 
BRANCH  21  26
ATOM     26  C   UNL A   1      33.234  18.325  24.253  1.00  0.00    -0.013 C 
ATOM     27  C   UNL A   1      32.591  17.894  22.923  1.00  0.00     0.016 C 
ATOM     28  C   UNL A   1      32.570  17.463  25.338  1.00  0.00     0.016 C 
ATOM     29  C   UNL A   1      34.720  17.956  24.241  1.00  0.00     0.016 C 
ENDBRANCH  21  26
ENDBRANCH  18  20
ENDBRANCH  15  18
ENDBRANCH  10  15
ENDBRANCH   7   9
ENDBRANCH   6   7
ENDBRANCH   5   6
ENDBRANCH   4   5
ENDBRANCH   3   4
ENDBRANCH   2   3
ENDBRANCH   1   2
BRANCH   1  30
ATOM     30  O   UNL A   1      34.684  23.993  25.572  1.00  0.00    -0.377 OA
BRANCH  30  31
ATOM     31  C   UNL A   1      35.780  23.284  26.141  1.00  0.00     0.188 C 
BRANCH  31  32
ATOM     32  C   UNL A   1      37.193  23.656  25.690  1.00  0.00     0.188 C 
BRANCH  32  33
ATOM     33  O   UNL A   1      38.308  23.157  26.422  1.00  0.00    -0.376 OA
BRANCH  33  34
ATOM     34  C   UNL A   1      38.809  21.890  25.981  1.00  0.00     0.202 C 
BRANCH  34  35
ATOM     35  C   UNL A   1      40.039  21.261  26.683  1.00  0.00     0.261 C 
BRANCH  35  36
ATOM     36  O   UNL A   1      40.454  19.981  26.162  1.00  0.00    -0.460 OA
BRANCH  36  37
ATOM     37  C   UNL A   1      41.793  19.853  25.956  1.00  0.00     0.338 C 
ATOM     38  O   UNL A   1      42.336  18.928  25.374  1.00  0.00    -0.246 OA
BRANCH  37  39
ATOM     39  C   UNL A   1      42.510  21.108  26.314  1.00  0.00     0.060 A 
ATOM     40  C   UNL A   1      42.845  21.295  27.659  1.00  0.00     0.016 A 
ATOM     41  C   UNL A   1      42.873  22.084  25.386  1.00  0.00     0.016 A 
ATOM     42  C   UNL A   1      43.457  22.478  28.085  1.00  0.00     0.010 A 
ATOM     43  C   UNL A   1      43.577  23.229  25.803  1.00  0.00     0.010 A 
ATOM     44  C   UNL A   1      43.782  23.488  27.169  1.00  0.00    -0.014 A 
BRANCH  44  45
ATOM     45  C   UNL A   1      44.062  24.873  27.683  1.00  0.00     0.031 A 
ATOM     46  C   UNL A   1      45.483  25.402  27.613  1.00  0.00     0.074 A 
ATOM     47  C   UNL A   1      43.078  25.707  28.086  1.00  0.00     0.049 A 
ATOM     48  N   UNL A   1      45.937  26.611  27.842  1.00  0.00    -0.248 NA
ATOM     49  C   UNL A   1      46.537  24.438  27.261  1.00  0.00     0.031 C 
ATOM     50  C   UNL A   1      41.666  25.352  28.236  1.00  0.00     0.029 A 
ATOM     51  N   UNL A   1      43.115  27.045  28.412  1.00  0.00    -0.354 N 
ATOM     52  C   UNL A   1      47.316  26.540  27.656  1.00  0.00     0.074 A 
ATOM     53  C   UNL A   1      47.635  25.154  27.414  1.00  0.00     0.031 C 
ATOM     54  C   UNL A   1      40.969  26.452  28.578  1.00  0.00     0.029 A 
ATOM     55  C   UNL A   1      41.879  27.591  28.689  1.00  0.00     0.049 A 
ATOM     56  H   UNL A   1      43.951  27.565  28.446  1.00  0.00     0.167 HD
ATOM     57  C   UNL A   1      48.240  27.532  27.626  1.00  0.00     0.034 A 
ATOM     58  C   UNL A   1      41.518  28.862  28.977  1.00  0.00     0.034 A 
ATOM     59  C   UNL A   1      47.937  28.920  27.848  1.00  0.00     0.049 A 
ATOM     60  C   UNL A   1      42.570  29.952  28.986  1.00  0.00     0.074 A 
ATOM     61  C   UNL A   1      48.794  30.005  27.809  1.00  0.00     0.029 A 
ATOM     62  N   UNL A   1      46.679  29.416  28.160  1.00  0.00    -0.354 N 
ATOM     63  N   UNL A   1      43.856  29.869  28.734  1.00  0.00    -0.248 NA
ATOM     64  C   UNL A   1      42.108  31.314  29.296  1.00  0.00     0.031 C 
ATOM     65  C   UNL A   1      48.072  31.146  28.174  1.00  0.00     0.029 A 
ATOM     66  C   UNL A   1      46.745  30.788  28.350  1.00  0.00     0.049 A 
ATOM     67  H   UNL A   1      45.861  28.874  28.236  1.00  0.00     0.167 HD
ATOM     68  C   UNL A   1      44.345  31.175  28.816  1.00  0.00     0.074 A 
ATOM     69  C   UNL A   1      43.212  32.023  29.116  1.00  0.00     0.031 C 
ATOM     70  C   UNL A   1      45.615  31.631  28.655  1.00  0.00     0.034 A 
BRANCH  57  71
ATOM     71  C   UNL A   1      49.673  27.127  27.357  1.00  0.00     0.023 A 
ATOM     72  C   UNL A   1      50.274  27.336  26.103  1.00  0.00     0.031 A 
ATOM     73  C   UNL A   1      50.424  26.468  28.345  1.00  0.00     0.131 A 
ATOM     74  C   UNL A   1      51.544  26.801  25.837  1.00  0.00     0.055 A 
ATOM     75  C   UNL A   1      51.727  26.027  28.105  1.00  0.00     0.041 A 
ATOM     76  F   UNL A   1      49.895  26.218  29.553  1.00  0.00    -0.206 F 
ATOM     77  C   UNL A   1      52.286  26.175  26.839  1.00  0.00     0.022 A 
BRANCH  74  78
ATOM     78  S   UNL A   1      52.129  26.776  24.119  1.00  0.00     0.124 S 
ATOM     79  O   UNL A   1      52.924  25.550  24.098  1.00  0.00    -0.237 OA
ATOM     80  O   UNL A   1      50.883  26.744  23.362  1.00  0.00    -0.237 OA
ATOM     81  O   UNL A   1      52.901  28.011  24.002  1.00  0.00    -0.744 OA
ENDBRANCH  74  78
ENDBRANCH  57  71
BRANCH  58  82
ATOM     82  C   UNL A   1      40.094  29.206  29.290  1.00  0.00     0.023 A 
ATOM     83  C   UNL A   1      39.626  29.268  30.616  1.00  0.00     0.031 A 
ATOM     84  C   UNL A   1      39.154  29.379  28.258  1.00  0.00     0.131 A 
ATOM     85  C   UNL A   1      38.254  29.434  30.870  1.00  0.00     0.055 A 
ATOM     86  C   UNL A   1      37.800  29.603  28.518  1.00  0.00     0.041 A 
ATOM     87  F   UNL A   1      39.541  29.325  26.973  1.00  0.00    -0.206 F 
ATOM     88  C   UNL A   1      37.341  29.616  29.830  1.00  0.00     0.022 A 
BRANCH  85  89
ATOM     89  S   UNL A   1      37.659  29.305  32.582  1.00  0.00     0.124 S 
ATOM     90  O   UNL A   1      38.603  30.163  33.289  1.00  0.00    -0.237 OA
ATOM     91  O   UNL A   1      36.294  29.807  32.467  1.00  0.00    -0.237 OA
ATOM     92  O   UNL A   1      37.772  27.877  32.875  1.00  0.00    -0.744 OA
ENDBRANCH  85  89
ENDBRANCH  58  82
BRANCH  70  93
ATOM     93  C   UNL A   1      45.837  33.124  28.752  1.00  0.00     0.023 A 
ATOM     94  C   UNL A   1      46.110  33.758  29.977  1.00  0.00     0.031 A 
ATOM     95  C   UNL A   1      45.756  33.929  27.600  1.00  0.00     0.131 A 
ATOM     96  C   UNL A   1      46.211  35.157  30.034  1.00  0.00     0.055 A 
ATOM     97  C   UNL A   1      45.936  35.313  27.652  1.00  0.00     0.041 A 
ATOM     98  F   UNL A   1      45.500  33.384  26.400  1.00  0.00    -0.206 F 
ATOM     99  C   UNL A   1      46.145  35.936  28.877  1.00  0.00     0.022 A 
BRANCH  96 100
ATOM    100  S   UNL A   1      46.298  35.955  31.662  1.00  0.00     0.124 S 
ATOM    101  O   UNL A   1      47.635  36.539  31.643  1.00  0.00    -0.237 OA
ATOM    102  O   UNL A   1      45.188  36.901  31.604  1.00  0.00    -0.237 OA
ATOM    103  O   UNL A   1      46.119  34.845  32.596  1.00  0.00    -0.744 OA
ENDBRANCH  96 100
ENDBRANCH  70  93
ENDBRANCH  44  45
ENDBRANCH  37  39
ENDBRANCH  36  37
ENDBRANCH  35  36
ENDBRANCH  34  35
ENDBRANCH  33  34
ENDBRANCH  32  33
ENDBRANCH  31  32
ENDBRANCH  30  31
ENDBRANCH   1  30
TORSDOF 27
ENDMDL
MODEL 2
REMARK VINA RESULT:     -10.3      1.812      2.117
REMARK SMILES CC(C)(C)c1ccc(NS(=O)(=O)c2cccc(C(=O)OCCOCCOCCOCCOC(=O)c3ccc(-c4c5nc(c(-c6cc(S(=O)(=O)[O-])ccc6F)c6ccc([nH]6)c(-c6cc(S(=O)(=O)[O-])ccc6F)c6nc(c(-c7cc(S(=O)(=O)[O-])ccc7F)c7ccc4[nH]7)C=C6)C=C5)cc3)c2)cc1
REMARK SMILES IDX 25 1 24 2 23 3 22 4 21 5 20 6 18 7 19 8 17 9 13 10 14 11
REMARK SMILES IDX 98 12 15 13 16 14 10 15 11 16 12 17 9 18 8 20 5 21 6 22
REMARK SMILES IDX 100 23 7 24 99 25 2 26 1 27 3 28 4 29 26 30 27 31 28 32
REMARK SMILES IDX 29 33 30 34 31 35 32 36 33 37 34 38 35 39 36 40 97 41 37 42
REMARK SMILES IDX 96 43 38 44 39 45 40 46 90 47 41 48 95 49 89 50 91 51 42 52
REMARK SMILES IDX 94 53 88 54 87 55 43 57 75 58 55 59 74 60 56 61 59 62 73 63
REMARK SMILES IDX 92 64 57 65 58 66 72 68 93 69 60 70 44 71 45 72 53 73 46 74
REMARK SMILES IDX 52 75 54 76 51 77 47 78 48 79 49 80 50 81 76 82 77 83 85 84
REMARK SMILES IDX 78 85 84 86 86 87 83 88 79 89 80 90 81 91 82 92 61 93 62 94
REMARK SMILES IDX 70 95 63 96 69 97 71 98 68 99 64 100 65 101 66 102 67 103
REMARK H PARENT 9 19 91 56 59 67
REMARK Flexibility Score: inf
ROOT
ATOM      1  C   UNL A   1      34.476  24.127  24.150  1.00  0.00     0.188 C 
ENDROOT
BRANCH   1   2
ATOM      2  C   UNL A   1      34.208  25.394  23.326  1.00  0.00     0.188 C 
BRANCH   2   3
ATOM      3  O   UNL A   1      33.473  25.164  22.138  1.00  0.00    -0.376 OA
BRANCH   3   4
ATOM      4  C   UNL A   1      32.945  26.330  21.512  1.00  0.00     0.202 C 
BRANCH   4   5
ATOM      5  C   UNL A   1      31.458  26.332  21.084  1.00  0.00     0.261 C 
BRANCH   5   6
ATOM      6  O   UNL A   1      30.490  26.804  22.040  1.00  0.00    -0.460 OA
BRANCH   6   7
ATOM      7  C   UNL A   1      30.845  27.847  22.815  1.00  0.00     0.338 C 
ATOM      8  O   UNL A   1      30.790  29.027  22.514  1.00  0.00    -0.246 OA
BRANCH   7   9
ATOM      9  C   UNL A   1      31.144  27.368  24.189  1.00  0.00     0.061 A 
ATOM     10  C   UNL A   1      31.179  25.711  25.945  1.00  0.00     0.088 A 
ATOM     11  C   UNL A   1      31.889  26.602  26.769  1.00  0.00     0.022 A 
ATOM     12  C   UNL A   1      30.792  26.088  24.651  1.00  0.00     0.038 A 
ATOM     13  C   UNL A   1      32.198  27.882  26.317  1.00  0.00     0.002 A 
ATOM     14  C   UNL A   1      31.840  28.258  25.025  1.00  0.00     0.016 A 
BRANCH  10  15
ATOM     15  S   UNL A   1      30.828  24.084  26.600  1.00  0.00     0.261 S 
ATOM     16  O   UNL A   1      29.496  24.109  27.166  1.00  0.00    -0.201 OA
ATOM     17  O   UNL A   1      31.970  23.715  27.414  1.00  0.00    -0.201 OA
BRANCH  15  18
ATOM     18  N   UNL A   1      30.816  23.047  25.302  1.00  0.00    -0.280 N 
ATOM     19  H   UNL A   1      30.071  23.138  24.664  1.00  0.00     0.180 HD
BRANCH  18  20
ATOM     20  C   UNL A   1      31.781  22.041  25.027  1.00  0.00     0.049 A 
ATOM     21  C   UNL A   1      33.025  19.594  24.434  1.00  0.00    -0.042 A 
ATOM     22  C   UNL A   1      33.089  20.137  25.723  1.00  0.00     0.006 A 
ATOM     23  C   UNL A   1      32.547  20.419  23.405  1.00  0.00     0.006 A 
ATOM     24  C   UNL A   1      32.472  21.351  26.013  1.00  0.00     0.027 A 
ATOM     25  C   UNL A   1      31.900  21.618  23.704  1.00  0.00     0.027 A 
BRANCH  21  26
ATOM     26  C   UNL A   1      33.248  18.100  24.204  1.00  0.00    -0.013 C 
ATOM     27  C   UNL A   1      34.751  17.783  24.306  1.00  0.00     0.016 C 
ATOM     28  C   UNL A   1      32.828  17.687  22.784  1.00  0.00     0.016 C 
ATOM     29  C   UNL A   1      32.473  17.206  25.174  1.00  0.00     0.016 C 
ENDBRANCH  21  26
ENDBRANCH  18  20
ENDBRANCH  15  18
ENDBRANCH  10  15
ENDBRANCH   7   9
ENDBRANCH   6   7
ENDBRANCH   5   6
ENDBRANCH   4   5
ENDBRANCH   3   4
ENDBRANCH   2   3
ENDBRANCH   1   2
BRANCH   1  30
ATOM     30  O   UNL A   1      34.696  24.259  25.547  1.00  0.00    -0.377 OA
BRANCH  30  31
ATOM     31  C   UNL A   1      35.710  23.449  26.132  1.00  0.00     0.188 C 
BRANCH  31  32
ATOM     32  C   UNL A   1      37.149  23.629  25.648  1.00  0.00     0.188 C 
BRANCH  32  33
ATOM     33  O   UNL A   1      38.215  23.101  26.430  1.00  0.00    -0.376 OA
BRANCH  33  34
ATOM     34  C   UNL A   1      38.777  21.876  25.945  1.00  0.00     0.202 C 
BRANCH  34  35
ATOM     35  C   UNL A   1      39.996  21.248  26.666  1.00  0.00     0.261 C 
BRANCH  35  36
ATOM     36  O   UNL A   1      40.386  19.943  26.190  1.00  0.00    -0.460 OA
BRANCH  36  37
ATOM     37  C   UNL A   1      41.727  19.761  26.051  1.00  0.00     0.338 C 
ATOM     38  O   UNL A   1      42.260  18.821  25.485  1.00  0.00    -0.246 OA
BRANCH  37  39
ATOM     39  C   UNL A   1      42.477  20.979  26.466  1.00  0.00     0.060 A 
ATOM     40  C   UNL A   1      42.649  21.192  27.837  1.00  0.00     0.016 A 
ATOM     41  C   UNL A   1      43.022  21.895  25.566  1.00  0.00     0.016 A 
ATOM     42  C   UNL A   1      43.281  22.348  28.307  1.00  0.00     0.010 A 
ATOM     43  C   UNL A   1      43.745  23.007  26.040  1.00  0.00     0.010 A 
ATOM     44  C   UNL A   1      43.790  23.301  27.414  1.00  0.00    -0.014 A 
BRANCH  44  45
ATOM     45  C   UNL A   1      44.096  24.682  27.922  1.00  0.00     0.031 A 
ATOM     46  C   UNL A   1      45.534  25.168  27.890  1.00  0.00     0.074 A 
ATOM     47  C   UNL A   1      43.126  25.551  28.285  1.00  0.00     0.049 A 
ATOM     48  N   UNL A   1      46.017  26.365  28.121  1.00  0.00    -0.248 NA
ATOM     49  C   UNL A   1      46.568  24.168  27.582  1.00  0.00     0.031 C 
ATOM     50  C   UNL A   1      41.700  25.240  28.395  1.00  0.00     0.029 A 
ATOM     51  N   UNL A   1      43.194  26.891  28.598  1.00  0.00    -0.354 N 
ATOM     52  C   UNL A   1      47.399  26.250  27.978  1.00  0.00     0.074 A 
ATOM     53  C   UNL A   1      47.682  24.852  27.760  1.00  0.00     0.031 C 
ATOM     54  C   UNL A   1      41.027  26.364  28.704  1.00  0.00     0.029 A 
ATOM     55  C   UNL A   1      41.967  27.477  28.830  1.00  0.00     0.049 A 
ATOM     56  H   UNL A   1      44.044  27.386  28.653  1.00  0.00     0.167 HD
ATOM     57  C   UNL A   1      48.353  27.213  27.967  1.00  0.00     0.034 A 
ATOM     58  C   UNL A   1      41.636  28.761  29.094  1.00  0.00     0.034 A 
ATOM     59  C   UNL A   1      48.086  28.612  28.165  1.00  0.00     0.049 A 
ATOM     60  C   UNL A   1      42.720  29.819  29.125  1.00  0.00     0.074 A 
ATOM     61  C   UNL A   1      48.977  29.670  28.141  1.00  0.00     0.029 A 
ATOM     62  N   UNL A   1      46.835  29.149  28.432  1.00  0.00    -0.354 N 
ATOM     63  N   UNL A   1      44.011  29.694  28.913  1.00  0.00    -0.248 NA
ATOM     64  C   UNL A   1      42.292  31.197  29.406  1.00  0.00     0.031 C 
ATOM     65  C   UNL A   1      48.279  30.836  28.471  1.00  0.00     0.029 A 
ATOM     66  C   UNL A   1      46.937  30.521  28.610  1.00  0.00     0.049 A 
ATOM     67  H   UNL A   1      45.999  28.634  28.488  1.00  0.00     0.167 HD
ATOM     68  C   UNL A   1      44.536  30.985  28.997  1.00  0.00     0.074 A 
ATOM     69  C   UNL A   1      43.422  31.871  29.253  1.00  0.00     0.031 C 
ATOM     70  C   UNL A   1      45.824  31.401  28.871  1.00  0.00     0.034 A 
BRANCH  57  71
ATOM     71  C   UNL A   1      49.780  26.762  27.747  1.00  0.00     0.023 A 
ATOM     72  C   UNL A   1      50.699  26.678  28.810  1.00  0.00     0.031 A 
ATOM     73  C   UNL A   1      50.245  26.475  26.452  1.00  0.00     0.131 A 
ATOM     74  C   UNL A   1      52.052  26.417  28.548  1.00  0.00     0.055 A 
ATOM     75  C   UNL A   1      51.573  26.116  26.211  1.00  0.00     0.041 A 
ATOM     76  F   UNL A   1      49.423  26.561  25.396  1.00  0.00    -0.206 F 
ATOM     77  C   UNL A   1      52.490  26.106  27.260  1.00  0.00     0.022 A 
BRANCH  74  78
ATOM     78  S   UNL A   1      53.255  26.672  29.881  1.00  0.00     0.124 S 
ATOM     79  O   UNL A   1      54.427  25.974  29.357  1.00  0.00    -0.237 OA
ATOM     80  O   UNL A   1      53.352  28.126  29.947  1.00  0.00    -0.237 OA
ATOM     81  O   UNL A   1      52.626  26.035  31.036  1.00  0.00    -0.744 OA
ENDBRANCH  74  78
ENDBRANCH  57  71
BRANCH  58  82
ATOM     82  C   UNL A   1      40.215  29.151  29.359  1.00  0.00     0.023 A 
ATOM     83  C   UNL A   1      39.706  29.234  30.668  1.00  0.00     0.031 A 
ATOM     84  C   UNL A   1      39.315  29.350  28.296  1.00  0.00     0.131 A 
ATOM     85  C   UNL A   1      38.332  29.445  30.878  1.00  0.00     0.055 A 
ATOM     86  C   UNL A   1      37.962  29.618  28.511  1.00  0.00     0.041 A 
ATOM     87  F   UNL A   1      39.742  29.278  27.025  1.00  0.00    -0.206 F 
ATOM     88  C   UNL A   1      37.460  29.651  29.808  1.00  0.00     0.022 A 
BRANCH  85  89
ATOM     89  S   UNL A   1      37.678  29.342  32.569  1.00  0.00     0.124 S 
ATOM     90  O   UNL A   1      37.709  27.905  32.812  1.00  0.00    -0.237 OA
ATOM     91  O   UNL A   1      38.643  30.142  33.316  1.00  0.00    -0.237 OA
ATOM     92  O   UNL A   1      36.344  29.928  32.454  1.00  0.00    -0.744 OA
ENDBRANCH  85  89
ENDBRANCH  58  82
BRANCH  70  93
ATOM     93  C   UNL A   1      46.089  32.888  28.959  1.00  0.00     0.023 A 
ATOM     94  C   UNL A   1      46.048  33.720  27.826  1.00  0.00     0.031 A 
ATOM     95  C   UNL A   1      46.409  33.479  30.196  1.00  0.00     0.131 A 
ATOM     96  C   UNL A   1      46.397  35.074  27.939  1.00  0.00     0.055 A 
ATOM     97  C   UNL A   1      46.679  34.843  30.314  1.00  0.00     0.041 A 
ATOM     98  F   UNL A   1      46.464  32.739  31.315  1.00  0.00    -0.206 F 
ATOM     99  C   UNL A   1      46.694  35.645  29.178  1.00  0.00     0.022 A 
BRANCH  96 100
ATOM    100  S   UNL A   1      46.589  36.050  26.421  1.00  0.00     0.124 S 
ATOM    101  O   UNL A   1      46.348  35.050  25.385  1.00  0.00    -0.237 OA
ATOM    102  O   UNL A   1      45.557  37.070  26.574  1.00  0.00    -0.237 OA
ATOM    103  O   UNL A   1      47.963  36.541  26.502  1.00  0.00    -0.744 OA
ENDBRANCH  96 100
ENDBRANCH  70  93
ENDBRANCH  44  45
ENDBRANCH  37  39
ENDBRANCH  36  37
ENDBRANCH  35  36
ENDBRANCH  34  35
ENDBRANCH  33  34
ENDBRANCH  32  33
ENDBRANCH  31  32
ENDBRANCH  30  31
ENDBRANCH   1  30
TORSDOF 27
ENDMDL
MODEL 3
REMARK VINA RESULT:      -9.2      4.289      9.026
REMARK SMILES CC(C)(C)c1ccc(NS(=O)(=O)c2cccc(C(=O)OCCOCCOCCOCCOC(=O)c3ccc(-c4c5nc(c(-c6cc(S(=O)(=O)[O-])ccc6F)c6ccc([nH]6)c(-c6cc(S(=O)(=O)[O-])ccc6F)c6nc(c(-c7cc(S(=O)(=O)[O-])ccc7F)c7ccc4[nH]7)C=C6)C=C5)cc3)c2)cc1
REMARK SMILES IDX 25 1 24 2 23 3 22 4 21 5 20 6 18 7 19 8 17 9 13 10 14 11
REMARK SMILES IDX 98 12 15 13 16 14 10 15 11 16 12 17 9 18 8 20 5 21 6 22
REMARK SMILES IDX 100 23 7 24 99 25 2 26 1 27 3 28 4 29 26 30 27 31 28 32
REMARK SMILES IDX 29 33 30 34 31 35 32 36 33 37 34 38 35 39 36 40 97 41 37 42
REMARK SMILES IDX 96 43 38 44 39 45 40 46 90 47 41 48 95 49 89 50 91 51 42 52
REMARK SMILES IDX 94 53 88 54 87 55 43 57 75 58 55 59 74 60 56 61 59 62 73 63
REMARK SMILES IDX 92 64 57 65 58 66 72 68 93 69 60 70 44 71 45 72 53 73 46 74
REMARK SMILES IDX 52 75 54 76 51 77 47 78 48 79 49 80 50 81 76 82 77 83 85 84
REMARK SMILES IDX 78 85 84 86 86 87 83 88 79 89 80 90 81 91 82 92 61 93 62 94
REMARK SMILES IDX 70 95 63 96 69 97 71 98 68 99 64 100 65 101 66 102 67 103
REMARK H PARENT 9 19 91 56 59 67
REMARK Flexibility Score: inf
ROOT
ATOM      1  C   UNL A   1      44.580  19.192  25.374  1.00  0.00     0.188 C 
ENDROOT
BRANCH   1   2
ATOM      2  C   UNL A   1      43.068  18.934  25.445  1.00  0.00     0.188 C 
BRANCH   2   3
ATOM      3  O   UNL A   1      42.341  19.951  26.109  1.00  0.00    -0.376 OA
BRANCH   3   4
ATOM      4  C   UNL A   1      40.933  19.934  25.895  1.00  0.00     0.202 C 
BRANCH   4   5
ATOM      5  C   UNL A   1      40.083  21.097  26.458  1.00  0.00     0.261 C 
BRANCH   5   6
ATOM      6  O   UNL A   1      38.949  21.530  25.683  1.00  0.00    -0.460 OA
BRANCH   6   7
ATOM      7  C   UNL A   1      38.131  20.576  25.199  1.00  0.00     0.338 C 
ATOM      8  O   UNL A   1      38.300  19.371  25.270  1.00  0.00    -0.246 OA
BRANCH   7   9
ATOM      9  C   UNL A   1      36.868  21.196  24.722  1.00  0.00     0.061 A 
ATOM     10  C   UNL A   1      34.467  21.441  24.654  1.00  0.00     0.088 A 
ATOM     11  C   UNL A   1      34.607  22.559  23.814  1.00  0.00     0.022 A 
ATOM     12  C   UNL A   1      35.596  20.743  25.110  1.00  0.00     0.038 A 
ATOM     13  C   UNL A   1      35.870  22.976  23.404  1.00  0.00     0.002 A 
ATOM     14  C   UNL A   1      36.998  22.306  23.870  1.00  0.00     0.016 A 
BRANCH  10  15
ATOM     15  S   UNL A   1      32.809  20.975  25.139  1.00  0.00     0.261 S 
ATOM     16  O   UNL A   1      32.839  19.588  25.554  1.00  0.00    -0.201 OA
ATOM     17  O   UNL A   1      31.933  21.407  24.067  1.00  0.00    -0.201 OA
BRANCH  15  18
ATOM     18  N   UNL A   1      32.429  21.902  26.465  1.00  0.00    -0.280 N 
ATOM     19  H   UNL A   1      32.329  21.432  27.324  1.00  0.00     0.180 HD
BRANCH  18  20
ATOM     20  C   UNL A   1      32.233  23.308  26.473  1.00  0.00     0.049 A 
ATOM     21  C   UNL A   1      31.743  25.963  25.697  1.00  0.00    -0.042 A 
ATOM     22  C   UNL A   1      33.033  25.544  26.045  1.00  0.00     0.006 A 
ATOM     23  C   UNL A   1      30.679  25.097  25.989  1.00  0.00     0.006 A 
ATOM     24  C   UNL A   1      33.273  24.227  26.430  1.00  0.00     0.027 A 
ATOM     25  C   UNL A   1      30.925  23.770  26.341  1.00  0.00     0.027 A 
BRANCH  21  26
ATOM     26  C   UNL A   1      31.532  27.204  24.832  1.00  0.00    -0.013 C 
ATOM     27  C   UNL A   1      30.169  27.112  24.124  1.00  0.00     0.016 C 
ATOM     28  C   UNL A   1      32.581  27.286  23.711  1.00  0.00     0.016 C 
ATOM     29  C   UNL A   1      31.612  28.519  25.612  1.00  0.00     0.016 C 
ENDBRANCH  21  26
ENDBRANCH  18  20
ENDBRANCH  15  18
ENDBRANCH  10  15
ENDBRANCH   7   9
ENDBRANCH   6   7
ENDBRANCH   5   6
ENDBRANCH   4   5
ENDBRANCH   3   4
ENDBRANCH   2   3
ENDBRANCH   1   2
BRANCH   1  30
ATOM     30  O   UNL A   1      45.041  20.535  25.393  1.00  0.00    -0.377 OA
BRANCH  30  31
ATOM     31  C   UNL A   1      45.140  21.213  24.144  1.00  0.00     0.188 C 
BRANCH  31  32
ATOM     32  C   UNL A   1      44.608  22.643  24.055  1.00  0.00     0.188 C 
BRANCH  32  33
ATOM     33  O   UNL A   1      43.276  22.915  24.476  1.00  0.00    -0.376 OA
BRANCH  33  34
ATOM     34  C   UNL A   1      43.143  23.354  25.833  1.00  0.00     0.202 C 
BRANCH  34  35
ATOM     35  C   UNL A   1      43.621  24.772  26.234  1.00  0.00     0.261 C 
BRANCH  35  36
ATOM     36  O   UNL A   1      43.788  25.697  25.140  1.00  0.00    -0.460 OA
BRANCH  36  37
ATOM     37  C   UNL A   1      44.904  26.472  25.210  1.00  0.00     0.338 C 
ATOM     38  O   UNL A   1      45.954  26.259  24.626  1.00  0.00    -0.246 OA
BRANCH  37  39
ATOM     39  C   UNL A   1      44.617  27.760  25.900  1.00  0.00     0.060 A 
ATOM     40  C   UNL A   1      45.712  28.539  26.289  1.00  0.00     0.016 A 
ATOM     41  C   UNL A   1      43.329  28.227  26.162  1.00  0.00     0.016 A 
ATOM     42  C   UNL A   1      45.526  29.726  27.004  1.00  0.00     0.010 A 
ATOM     43  C   UNL A   1      43.143  29.471  26.794  1.00  0.00     0.010 A 
ATOM     44  C   UNL A   1      44.238  30.182  27.316  1.00  0.00    -0.014 A 
BRANCH  44  45
ATOM     45  C   UNL A   1      44.074  31.214  28.397  1.00  0.00     0.031 A 
ATOM     46  C   UNL A   1      44.154  30.769  29.846  1.00  0.00     0.074 A 
ATOM     47  C   UNL A   1      43.988  32.535  28.128  1.00  0.00     0.049 A 
ATOM     48  N   UNL A   1      44.205  31.490  30.941  1.00  0.00    -0.248 NA
ATOM     49  C   UNL A   1      44.152  29.320  30.100  1.00  0.00     0.031 C 
ATOM     50  C   UNL A   1      43.875  33.130  26.795  1.00  0.00     0.029 A 
ATOM     51  N   UNL A   1      44.014  33.625  28.971  1.00  0.00    -0.354 N 
ATOM     52  C   UNL A   1      44.245  30.579  31.994  1.00  0.00     0.074 A 
ATOM     53  C   UNL A   1      44.094  29.265  31.417  1.00  0.00     0.031 C 
ATOM     54  C   UNL A   1      43.889  34.470  26.908  1.00  0.00     0.029 A 
ATOM     55  C   UNL A   1      43.996  34.841  28.319  1.00  0.00     0.049 A 
ATOM     56  H   UNL A   1      44.042  33.543  29.952  1.00  0.00     0.167 HD
ATOM     57  C   UNL A   1      44.448  30.790  33.318  1.00  0.00     0.034 A 
ATOM     58  C   UNL A   1      44.077  36.102  28.798  1.00  0.00     0.034 A 
ATOM     59  C   UNL A   1      44.617  32.091  33.907  1.00  0.00     0.049 A 
ATOM     60  C   UNL A   1      44.257  36.325  30.285  1.00  0.00     0.074 A 
ATOM     61  C   UNL A   1      44.859  32.411  35.231  1.00  0.00     0.029 A 
ATOM     62  N   UNL A   1      44.555  33.290  33.211  1.00  0.00    -0.354 N 
ATOM     63  N   UNL A   1      44.366  35.441  31.252  1.00  0.00    -0.248 NA
ATOM     64  C   UNL A   1      44.349  37.721  30.739  1.00  0.00     0.031 C 
ATOM     65  C   UNL A   1      44.864  33.805  35.350  1.00  0.00     0.029 A 
ATOM     66  C   UNL A   1      44.719  34.354  34.086  1.00  0.00     0.049 A 
ATOM     67  H   UNL A   1      44.414  33.374  32.241  1.00  0.00     0.167 HD
ATOM     68  C   UNL A   1      44.579  36.179  32.418  1.00  0.00     0.074 A 
ATOM     69  C   UNL A   1      44.608  37.572  32.030  1.00  0.00     0.031 C 
ATOM     70  C   UNL A   1      44.741  35.742  33.695  1.00  0.00     0.034 A 
BRANCH  57  71
ATOM     71  C   UNL A   1      44.477  29.570  34.211  1.00  0.00     0.023 A 
ATOM     72  C   UNL A   1      43.295  28.921  34.610  1.00  0.00     0.031 A 
ATOM     73  C   UNL A   1      45.695  29.090  34.722  1.00  0.00     0.131 A 
ATOM     74  C   UNL A   1      43.346  27.897  35.568  1.00  0.00     0.055 A 
ATOM     75  C   UNL A   1      45.748  28.004  35.598  1.00  0.00     0.041 A 
ATOM     76  F   UNL A   1      46.854  29.684  34.398  1.00  0.00    -0.206 F 
ATOM     77  C   UNL A   1      44.567  27.414  36.042  1.00  0.00     0.022 A 
BRANCH  74  78
ATOM     78  S   UNL A   1      41.793  27.336  36.318  1.00  0.00     0.124 S 
ATOM     79  O   UNL A   1      41.238  26.501  35.256  1.00  0.00    -0.237 OA
ATOM     80  O   UNL A   1      42.252  26.634  37.511  1.00  0.00    -0.237 OA
ATOM     81  O   UNL A   1      41.065  28.578  36.567  1.00  0.00    -0.744 OA
ENDBRANCH  74  78
ENDBRANCH  57  71
BRANCH  58  82
ATOM     82  C   UNL A   1      43.988  37.282  27.879  1.00  0.00     0.023 A 
ATOM     83  C   UNL A   1      45.130  37.820  27.258  1.00  0.00     0.031 A 
ATOM     84  C   UNL A   1      42.766  37.953  27.690  1.00  0.00     0.131 A 
ATOM     85  C   UNL A   1      45.038  39.020  26.533  1.00  0.00     0.055 A 
ATOM     86  C   UNL A   1      42.670  39.114  26.919  1.00  0.00     0.041 A 
ATOM     87  F   UNL A   1      41.643  37.490  28.263  1.00  0.00    -0.206 F 
ATOM     88  C   UNL A   1      43.813  39.662  26.348  1.00  0.00     0.022 A 
BRANCH  85  89
ATOM     89  S   UNL A   1      46.564  39.791  25.918  1.00  0.00     0.124 S 
ATOM     90  O   UNL A   1      46.711  39.156  24.613  1.00  0.00    -0.237 OA
ATOM     91  O   UNL A   1      46.206  41.205  25.909  1.00  0.00    -0.237 OA
ATOM     92  O   UNL A   1      47.563  39.410  26.914  1.00  0.00    -0.744 OA
ENDBRANCH  85  89
ENDBRANCH  58  82
BRANCH  70  93
ATOM     93  C   UNL A   1      45.012  36.783  34.759  1.00  0.00     0.023 A 
ATOM     94  C   UNL A   1      46.319  37.126  35.150  1.00  0.00     0.031 A 
ATOM     95  C   UNL A   1      43.943  37.430  35.408  1.00  0.00     0.131 A 
ATOM     96  C   UNL A   1      46.521  38.024  36.210  1.00  0.00     0.055 A 
ATOM     97  C   UNL A   1      44.153  38.381  36.408  1.00  0.00     0.041 A 
ATOM     98  F   UNL A   1      42.672  37.148  35.080  1.00  0.00    -0.206 F 
ATOM     99  C   UNL A   1      45.447  38.668  36.828  1.00  0.00     0.022 A 
BRANCH  96 100
ATOM    100  S   UNL A   1      48.202  38.237  36.857  1.00  0.00     0.124 S 
ATOM    101  O   UNL A   1      48.923  37.157  36.191  1.00  0.00    -0.237 OA
ATOM    102  O   UNL A   1      48.535  39.590  36.422  1.00  0.00    -0.237 OA
ATOM    103  O   UNL A   1      48.035  38.074  38.301  1.00  0.00    -0.744 OA
ENDBRANCH  96 100
ENDBRANCH  70  93
ENDBRANCH  44  45
ENDBRANCH  37  39
ENDBRANCH  36  37
ENDBRANCH  35  36
ENDBRANCH  34  35
ENDBRANCH  33  34
ENDBRANCH  32  33
ENDBRANCH  31  32
ENDBRANCH  30  31
ENDBRANCH   1  30
TORSDOF 27
ENDMDL
