MODEL 1
REMARK VINA RESULT:      -9.9      0.000      0.000
REMARK SMILES Nc1nccc(N2CCC[C@@](Cc3ccc(F)cc3F)(C(=O)OCCOCCOCCOCCOC(=O)c3ccc(-c4c5nc(c(-c6cc(S(=O)(=O)[O-])ccc6F)c6ccc([nH]6)c(-c6cc(S(=O)(=O)[O-])ccc6F)c6nc(c(-c7cc(S(=O)(=O)[O-])ccc7F)c7ccc4[nH]7)C=C6)C=C5)cc3)C2)n1
REMARK SMILES IDX 30 1 29 2 28 3 27 4 26 5 25 6 24 7 23 8 21 9 22 10 11 11
REMARK SMILES IDX 7 12 8 13 101 14 9 15 10 16 6 17 2 18 3 19 102 20 4 21 5 22
REMARK SMILES IDX 1 23 12 26 13 27 14 28 19 29 15 30 18 31 20 32 16 33 17 34
REMARK SMILES IDX 31 35 32 36 33 37 34 38 35 39 36 40 37 41 38 42 39 43 100 44
REMARK SMILES IDX 40 45 99 46 41 47 42 48 43 49 93 50 44 51 98 52 92 53 94 54
REMARK SMILES IDX 45 55 97 56 91 57 90 58 46 60 78 61 58 62 77 63 59 64 62 65
REMARK SMILES IDX 76 66 95 67 60 68 61 69 75 71 96 72 63 73 47 74 48 75 56 76
REMARK SMILES IDX 49 77 55 78 57 79 54 80 50 81 51 82 52 83 53 84 79 85 80 86
REMARK SMILES IDX 88 87 81 88 87 89 89 90 86 91 82 92 83 93 84 94 85 95 64 96
REMARK SMILES IDX 65 97 73 98 66 99 72 100 74 101 71 102 67 103 68 104 69 105
REMARK SMILES IDX 70 106
REMARK H PARENT 1 24 1 25 94 59 62 70
REMARK Flexibility Score: inf
ROOT
ATOM      1  C   UNL A   1      42.363  19.067  27.424  1.00  0.00     0.188 C 
ENDROOT
BRANCH   1   2
ATOM      2  O   UNL A   1      41.345  19.955  27.872  1.00  0.00    -0.377 OA
BRANCH   2   3
ATOM      3  C   UNL A   1      41.415  21.324  27.536  1.00  0.00     0.188 C 
BRANCH   3   4
ATOM      4  C   UNL A   1      40.134  21.984  27.014  1.00  0.00     0.188 C 
BRANCH   4   5
ATOM      5  O   UNL A   1      39.959  23.380  27.110  1.00  0.00    -0.376 OA
BRANCH   5   6
ATOM      6  C   UNL A   1      38.788  24.038  26.656  1.00  0.00     0.202 C 
BRANCH   6   7
ATOM      7  C   UNL A   1      37.562  23.362  26.023  1.00  0.00     0.261 C 
BRANCH   7   8
ATOM      8  O   UNL A   1      36.493  24.196  25.553  1.00  0.00    -0.463 OA
BRANCH   8   9
ATOM      9  C   UNL A   1      35.943  23.799  24.388  1.00  0.00     0.314 C 
ATOM     10  O   UNL A   1      36.607  23.332  23.463  1.00  0.00    -0.252 OA
BRANCH   9  11
ATOM     11  C   UNL A   1      34.438  24.038  24.250  1.00  0.00     0.090 C 
ATOM     12  N   UNL A   1      32.996  26.023  24.266  1.00  0.00    -0.355 N 
ATOM     13  C   UNL A   1      32.312  25.775  23.014  1.00  0.00     0.118 C 
ATOM     14  C   UNL A   1      34.373  25.580  24.362  1.00  0.00     0.137 C 
ATOM     15  C   UNL A   1      32.292  24.259  22.801  1.00  0.00     0.023 C 
ATOM     16  C   UNL A   1      33.692  23.617  22.944  1.00  0.00     0.023 C 
BRANCH  12  17
ATOM     17  C   UNL A   1      32.681  27.119  25.048  1.00  0.00     0.134 A 
ATOM     18  C   UNL A   1      31.805  28.007  26.966  1.00  0.00     0.221 A 
ATOM     19  N   UNL A   1      31.609  29.210  26.417  1.00  0.00    -0.222 NA
ATOM     20  N   UNL A   1      32.314  26.947  26.331  1.00  0.00    -0.196 NA
ATOM     21  C   UNL A   1      31.985  29.343  25.135  1.00  0.00     0.119 A 
ATOM     22  C   UNL A   1      32.551  28.331  24.408  1.00  0.00     0.067 A 
BRANCH  18  23
ATOM     23  N   UNL A   1      31.419  27.850  28.267  1.00  0.00    -0.368 N 
ATOM     24  H   UNL A   1      31.888  28.338  28.982  1.00  0.00     0.159 HD
ATOM     25  H   UNL A   1      30.673  27.248  28.489  1.00  0.00     0.159 HD
ENDBRANCH  18  23
ENDBRANCH  12  17
BRANCH  11  26
ATOM     26  C   UNL A   1      33.802  23.336  25.494  1.00  0.00     0.059 C 
BRANCH  26  27
ATOM     27  C   UNL A   1      33.702  21.827  25.335  1.00  0.00    -0.011 A 
ATOM     28  C   UNL A   1      34.854  21.024  25.308  1.00  0.00     0.010 A 
ATOM     29  C   UNL A   1      32.466  21.220  25.069  1.00  0.00     0.129 A 
ATOM     30  C   UNL A   1      34.777  19.690  24.907  1.00  0.00     0.040 A 
ATOM     31  C   UNL A   1      32.378  19.885  24.695  1.00  0.00     0.078 A 
ATOM     32  F   UNL A   1      31.342  21.949  25.116  1.00  0.00    -0.207 F 
ATOM     33  C   UNL A   1      33.542  19.138  24.593  1.00  0.00     0.126 A 
ATOM     34  F   UNL A   1      33.475  17.867  24.178  1.00  0.00    -0.207 F 
ENDBRANCH  26  27
ENDBRANCH  11  26
ENDBRANCH   9  11
ENDBRANCH   8   9
ENDBRANCH   7   8
ENDBRANCH   6   7
ENDBRANCH   5   6
ENDBRANCH   4   5
ENDBRANCH   3   4
ENDBRANCH   2   3
ENDBRANCH   1   2
BRANCH   1  35
ATOM     35  C   UNL A   1      42.331  18.509  25.988  1.00  0.00     0.188 C 
BRANCH  35  36
ATOM     36  O   UNL A   1      42.993  19.309  25.023  1.00  0.00    -0.376 OA
BRANCH  36  37
ATOM     37  C   UNL A   1      44.395  19.502  25.140  1.00  0.00     0.202 C 
BRANCH  37  38
ATOM     38  C   UNL A   1      44.981  20.871  24.756  1.00  0.00     0.261 C 
BRANCH  38  39
ATOM     39  O   UNL A   1      44.668  21.980  25.615  1.00  0.00    -0.460 OA
BRANCH  39  40
ATOM     40  C   UNL A   1      43.718  22.856  25.211  1.00  0.00     0.338 C 
ATOM     41  O   UNL A   1      42.690  22.599  24.625  1.00  0.00    -0.246 OA
BRANCH  40  42
ATOM     42  C   UNL A   1      44.055  24.173  25.799  1.00  0.00     0.060 A 
ATOM     43  C   UNL A   1      44.359  24.251  27.164  1.00  0.00     0.016 A 
ATOM     44  C   UNL A   1      44.061  25.321  25.006  1.00  0.00     0.016 A 
ATOM     45  C   UNL A   1      44.634  25.486  27.749  1.00  0.00     0.010 A 
ATOM     46  C   UNL A   1      44.314  26.561  25.598  1.00  0.00     0.010 A 
ATOM     47  C   UNL A   1      44.566  26.653  26.979  1.00  0.00    -0.014 A 
BRANCH  47  48
ATOM     48  C   UNL A   1      44.546  27.977  27.651  1.00  0.00     0.031 A 
ATOM     49  C   UNL A   1      43.234  28.476  28.192  1.00  0.00     0.074 A 
ATOM     50  C   UNL A   1      45.663  28.709  27.798  1.00  0.00     0.049 A 
ATOM     51  N   UNL A   1      42.942  29.625  28.742  1.00  0.00    -0.248 NA
ATOM     52  C   UNL A   1      42.098  27.549  28.087  1.00  0.00     0.031 C 
ATOM     53  C   UNL A   1      46.998  28.307  27.360  1.00  0.00     0.029 A 
ATOM     54  N   UNL A   1      45.846  29.955  28.345  1.00  0.00    -0.354 N 
ATOM     55  C   UNL A   1      41.586  29.562  29.048  1.00  0.00     0.074 A 
ATOM     56  C   UNL A   1      41.108  28.281  28.574  1.00  0.00     0.031 C 
ATOM     57  C   UNL A   1      47.862  29.300  27.636  1.00  0.00     0.029 A 
ATOM     58  C   UNL A   1      47.133  30.423  28.226  1.00  0.00     0.049 A 
ATOM     59  H   UNL A   1      45.125  30.464  28.780  1.00  0.00     0.167 HD
ATOM     60  C   UNL A   1      40.814  30.483  29.677  1.00  0.00     0.034 A 
ATOM     61  C   UNL A   1      47.653  31.633  28.523  1.00  0.00     0.034 A 
ATOM     62  C   UNL A   1      41.304  31.767  30.117  1.00  0.00     0.049 A 
ATOM     63  C   UNL A   1      46.755  32.690  29.122  1.00  0.00     0.074 A 
ATOM     64  C   UNL A   1      40.614  32.778  30.761  1.00  0.00     0.029 A 
ATOM     65  N   UNL A   1      42.604  32.225  29.941  1.00  0.00    -0.354 N 
ATOM     66  N   UNL A   1      45.475  32.623  29.410  1.00  0.00    -0.248 NA
ATOM     67  C   UNL A   1      47.373  33.984  29.441  1.00  0.00     0.031 C 
ATOM     68  C   UNL A   1      41.471  33.876  30.897  1.00  0.00     0.029 A 
ATOM     69  C   UNL A   1      42.725  33.518  30.427  1.00  0.00     0.049 A 
ATOM     70  H   UNL A   1      43.334  31.707  29.531  1.00  0.00     0.167 HD
ATOM     71  C   UNL A   1      45.143  33.856  29.970  1.00  0.00     0.074 A 
ATOM     72  C   UNL A   1      46.362  34.638  29.992  1.00  0.00     0.031 C 
ATOM     73  C   UNL A   1      43.944  34.297  30.429  1.00  0.00     0.034 A 
BRANCH  60  74
ATOM     74  C   UNL A   1      39.353  30.145  29.862  1.00  0.00     0.023 A 
ATOM     75  C   UNL A   1      38.353  30.719  29.056  1.00  0.00     0.031 A 
ATOM     76  C   UNL A   1      38.945  29.286  30.897  1.00  0.00     0.131 A 
ATOM     77  C   UNL A   1      37.001  30.505  29.357  1.00  0.00     0.055 A 
ATOM     78  C   UNL A   1      37.599  28.999  31.131  1.00  0.00     0.041 A 
ATOM     79  F   UNL A   1      39.848  28.726  31.718  1.00  0.00    -0.206 F 
ATOM     80  C   UNL A   1      36.615  29.626  30.372  1.00  0.00     0.022 A 
BRANCH  77  81
ATOM     81  S   UNL A   1      35.758  31.536  28.528  1.00  0.00     0.124 S 
ATOM     82  O   UNL A   1      34.858  31.857  29.633  1.00  0.00    -0.237 OA
ATOM     83  O   UNL A   1      36.558  32.641  28.013  1.00  0.00    -0.237 OA
ATOM     84  O   UNL A   1      35.194  30.645  27.515  1.00  0.00    -0.744 OA
ENDBRANCH  77  81
ENDBRANCH  60  74
BRANCH  61  85
ATOM     85  C   UNL A   1      49.079  31.933  28.200  1.00  0.00     0.023 A 
ATOM     86  C   UNL A   1      49.436  32.656  27.051  1.00  0.00     0.031 A 
ATOM     87  C   UNL A   1      50.114  31.461  29.028  1.00  0.00     0.131 A 
ATOM     88  C   UNL A   1      50.792  32.857  26.744  1.00  0.00     0.055 A 
ATOM     89  C   UNL A   1      51.459  31.713  28.750  1.00  0.00     0.041 A 
ATOM     90  F   UNL A   1      49.830  30.755  30.134  1.00  0.00    -0.206 F 
ATOM     91  C   UNL A   1      51.804  32.405  27.595  1.00  0.00     0.022 A 
BRANCH  88  92
ATOM     92  S   UNL A   1      51.221  33.651  25.170  1.00  0.00     0.124 S 
ATOM     93  O   UNL A   1      51.564  32.502  24.341  1.00  0.00    -0.237 OA
ATOM     94  O   UNL A   1      49.980  34.340  24.832  1.00  0.00    -0.237 OA
ATOM     95  O   UNL A   1      52.340  34.524  25.523  1.00  0.00    -0.744 OA
ENDBRANCH  88  92
ENDBRANCH  61  85
BRANCH  73  96
ATOM     96  C   UNL A   1      43.901  35.680  31.039  1.00  0.00     0.023 A 
ATOM     97  C   UNL A   1      43.748  36.837  30.255  1.00  0.00     0.031 A 
ATOM     98  C   UNL A   1      44.013  35.841  32.433  1.00  0.00     0.131 A 
ATOM     99  C   UNL A   1      43.768  38.103  30.861  1.00  0.00     0.055 A 
ATOM    100  C   UNL A   1      43.962  37.098  33.037  1.00  0.00     0.041 A 
ATOM    101  F   UNL A   1      44.167  34.775  33.234  1.00  0.00    -0.206 F 
ATOM    102  C   UNL A   1      43.852  38.239  32.250  1.00  0.00     0.022 A 
BRANCH  99 103
ATOM    103  S   UNL A   1      43.785  39.576  29.804  1.00  0.00     0.124 S 
ATOM    104  O   UNL A   1      45.206  39.901  29.760  1.00  0.00    -0.237 OA
ATOM    105  O   UNL A   1      43.205  39.077  28.561  1.00  0.00    -0.237 OA
ATOM    106  O   UNL A   1      42.952  40.532  30.534  1.00  0.00    -0.744 OA
ENDBRANCH  99 103
ENDBRANCH  73  96
ENDBRANCH  47  48
ENDBRANCH  40  42
ENDBRANCH  39  40
ENDBRANCH  38  39
ENDBRANCH  37  38
ENDBRANCH  36  37
ENDBRANCH  35  36
ENDBRANCH   1  35
TORSDOF 27
ENDMDL
MODEL 2
REMARK VINA RESULT:      -9.5      4.891     10.880
REMARK SMILES Nc1nccc(N2CCC[C@@](Cc3ccc(F)cc3F)(C(=O)OCCOCCOCCOCCOC(=O)c3ccc(-c4c5nc(c(-c6cc(S(=O)(=O)[O-])ccc6F)c6ccc([nH]6)c(-c6cc(S(=O)(=O)[O-])ccc6F)c6nc(c(-c7cc(S(=O)(=O)[O-])ccc7F)c7ccc4[nH]7)C=C6)C=C5)cc3)C2)n1
REMARK SMILES IDX 30 1 29 2 28 3 27 4 26 5 25 6 24 7 23 8 21 9 22 10 11 11
REMARK SMILES IDX 7 12 8 13 101 14 9 15 10 16 6 17 2 18 3 19 102 20 4 21 5 22
REMARK SMILES IDX 1 23 12 26 13 27 14 28 19 29 15 30 18 31 20 32 16 33 17 34
REMARK SMILES IDX 31 35 32 36 33 37 34 38 35 39 36 40 37 41 38 42 39 43 100 44
REMARK SMILES IDX 40 45 99 46 41 47 42 48 43 49 93 50 44 51 98 52 92 53 94 54
REMARK SMILES IDX 45 55 97 56 91 57 90 58 46 60 78 61 58 62 77 63 59 64 62 65
REMARK SMILES IDX 76 66 95 67 60 68 61 69 75 71 96 72 63 73 47 74 48 75 56 76
REMARK SMILES IDX 49 77 55 78 57 79 54 80 50 81 51 82 52 83 53 84 79 85 80 86
REMARK SMILES IDX 88 87 81 88 87 89 89 90 86 91 82 92 83 93 84 94 85 95 64 96
REMARK SMILES IDX 65 97 73 98 66 99 72 100 74 101 71 102 67 103 68 104 69 105
REMARK SMILES IDX 70 106
REMARK H PARENT 1 24 1 25 94 59 62 70
REMARK Flexibility Score: inf
ROOT
ATOM      1  C   UNL A   1      33.178  35.797  29.104  1.00  0.00     0.188 C 
ENDROOT
BRANCH   1   2
ATOM      2  O   UNL A   1      32.594  34.504  29.002  1.00  0.00    -0.377 OA
BRANCH   2   3
ATOM      3  C   UNL A   1      33.020  33.623  27.985  1.00  0.00     0.188 C 
BRANCH   3   4
ATOM      4  C   UNL A   1      34.495  33.205  27.992  1.00  0.00     0.188 C 
BRANCH   4   5
ATOM      5  O   UNL A   1      34.890  31.989  28.586  1.00  0.00    -0.376 OA
BRANCH   5   6
ATOM      6  C   UNL A   1      34.861  30.752  27.893  1.00  0.00     0.202 C 
BRANCH   6   7
ATOM      7  C   UNL A   1      33.714  30.244  27.005  1.00  0.00     0.261 C 
BRANCH   7   8
ATOM      8  O   UNL A   1      33.769  28.890  26.533  1.00  0.00    -0.463 OA
BRANCH   8   9
ATOM      9  C   UNL A   1      32.675  28.154  26.814  1.00  0.00     0.314 C 
ATOM     10  O   UNL A   1      32.061  28.252  27.877  1.00  0.00    -0.252 OA
BRANCH   9  11
ATOM     11  C   UNL A   1      32.280  27.122  25.757  1.00  0.00     0.090 C 
ATOM     12  N   UNL A   1      33.041  24.861  25.183  1.00  0.00    -0.355 N 
ATOM     13  C   UNL A   1      31.749  24.207  25.223  1.00  0.00     0.118 C 
ATOM     14  C   UNL A   1      33.247  25.963  26.101  1.00  0.00     0.137 C 
ATOM     15  C   UNL A   1      30.696  25.262  24.871  1.00  0.00     0.023 C 
ATOM     16  C   UNL A   1      30.830  26.545  25.724  1.00  0.00     0.023 C 
BRANCH  12  17
ATOM     17  C   UNL A   1      34.185  24.163  24.845  1.00  0.00     0.134 A 
ATOM     18  C   UNL A   1      36.435  23.806  25.064  1.00  0.00     0.221 A 
ATOM     19  N   UNL A   1      36.532  23.173  23.891  1.00  0.00    -0.222 NA
ATOM     20  N   UNL A   1      35.309  24.322  25.567  1.00  0.00    -0.196 NA
ATOM     21  C   UNL A   1      35.391  23.036  23.197  1.00  0.00     0.119 A 
ATOM     22  C   UNL A   1      34.180  23.493  23.641  1.00  0.00     0.067 A 
BRANCH  18  23
ATOM     23  N   UNL A   1      37.588  23.965  25.779  1.00  0.00    -0.368 N 
ATOM     24  H   UNL A   1      38.068  24.825  25.754  1.00  0.00     0.159 HD
ATOM     25  H   UNL A   1      37.938  23.221  26.319  1.00  0.00     0.159 HD
ENDBRANCH  18  23
ENDBRANCH  12  17
BRANCH  11  26
ATOM     26  C   UNL A   1      32.636  27.789  24.388  1.00  0.00     0.059 C 
BRANCH  26  27
ATOM     27  C   UNL A   1      31.502  28.635  23.831  1.00  0.00    -0.011 A 
ATOM     28  C   UNL A   1      31.078  29.803  24.487  1.00  0.00     0.010 A 
ATOM     29  C   UNL A   1      30.760  28.191  22.727  1.00  0.00     0.129 A 
ATOM     30  C   UNL A   1      29.885  30.426  24.122  1.00  0.00     0.040 A 
ATOM     31  C   UNL A   1      29.584  28.822  22.340  1.00  0.00     0.078 A 
ATOM     32  F   UNL A   1      31.151  27.097  22.057  1.00  0.00    -0.207 F 
ATOM     33  C   UNL A   1      29.144  29.922  23.061  1.00  0.00     0.126 A 
ATOM     34  F   UNL A   1      27.984  30.504  22.733  1.00  0.00    -0.207 F 
ENDBRANCH  26  27
ENDBRANCH  11  26
ENDBRANCH   9  11
ENDBRANCH   8   9
ENDBRANCH   7   8
ENDBRANCH   6   7
ENDBRANCH   5   6
ENDBRANCH   4   5
ENDBRANCH   3   4
ENDBRANCH   2   3
ENDBRANCH   1   2
BRANCH   1  35
ATOM     35  C   UNL A   1      33.268  36.503  30.471  1.00  0.00     0.188 C 
BRANCH  35  36
ATOM     36  O   UNL A   1      32.726  35.770  31.556  1.00  0.00    -0.376 OA
BRANCH  36  37
ATOM     37  C   UNL A   1      33.543  35.522  32.691  1.00  0.00     0.202 C 
BRANCH  37  38
ATOM     38  C   UNL A   1      35.037  35.230  32.471  1.00  0.00     0.261 C 
BRANCH  38  39
ATOM     39  O   UNL A   1      35.512  33.929  32.855  1.00  0.00    -0.460 OA
BRANCH  39  40
ATOM     40  C   UNL A   1      35.146  32.864  32.104  1.00  0.00     0.338 C 
ATOM     41  O   UNL A   1      34.072  32.678  31.576  1.00  0.00    -0.246 OA
BRANCH  40  42
ATOM     42  C   UNL A   1      36.363  32.057  31.861  1.00  0.00     0.060 A 
ATOM     43  C   UNL A   1      36.467  30.789  32.448  1.00  0.00     0.016 A 
ATOM     44  C   UNL A   1      37.396  32.555  31.065  1.00  0.00     0.016 A 
ATOM     45  C   UNL A   1      37.622  30.030  32.271  1.00  0.00     0.010 A 
ATOM     46  C   UNL A   1      38.563  31.802  30.908  1.00  0.00     0.010 A 
ATOM     47  C   UNL A   1      38.696  30.553  31.539  1.00  0.00    -0.014 A 
BRANCH  47  48
ATOM     48  C   UNL A   1      40.025  29.895  31.613  1.00  0.00     0.031 A 
ATOM     49  C   UNL A   1      40.967  30.321  32.705  1.00  0.00     0.074 A 
ATOM     50  C   UNL A   1      40.381  28.931  30.748  1.00  0.00     0.049 A 
ATOM     51  N   UNL A   1      42.203  29.960  32.929  1.00  0.00    -0.248 NA
ATOM     52  C   UNL A   1      40.437  31.296  33.670  1.00  0.00     0.031 C 
ATOM     53  C   UNL A   1      39.535  28.400  29.682  1.00  0.00     0.029 A 
ATOM     54  N   UNL A   1      41.559  28.236  30.623  1.00  0.00    -0.354 N 
ATOM     55  C   UNL A   1      42.603  30.665  34.060  1.00  0.00     0.074 A 
ATOM     56  C   UNL A   1      41.492  31.511  34.441  1.00  0.00     0.031 C 
ATOM     57  C   UNL A   1      40.231  27.477  28.994  1.00  0.00     0.029 A 
ATOM     58  C   UNL A   1      41.584  27.385  29.544  1.00  0.00     0.049 A 
ATOM     59  H   UNL A   1      42.313  28.338  31.248  1.00  0.00     0.167 HD
ATOM     60  C   UNL A   1      43.783  30.604  34.725  1.00  0.00     0.034 A 
ATOM     61  C   UNL A   1      42.594  26.649  29.036  1.00  0.00     0.034 A 
ATOM     62  C   UNL A   1      44.888  29.774  34.312  1.00  0.00     0.049 A 
ATOM     63  C   UNL A   1      43.940  26.675  29.723  1.00  0.00     0.074 A 
ATOM     64  C   UNL A   1      46.130  29.633  34.906  1.00  0.00     0.029 A 
ATOM     65  N   UNL A   1      44.893  28.957  33.188  1.00  0.00    -0.354 N 
ATOM     66  N   UNL A   1      44.309  27.343  30.793  1.00  0.00    -0.248 NA
ATOM     67  C   UNL A   1      45.000  25.845  29.139  1.00  0.00     0.031 C 
ATOM     68  C   UNL A   1      46.911  28.801  34.097  1.00  0.00     0.029 A 
ATOM     69  C   UNL A   1      46.129  28.342  33.049  1.00  0.00     0.049 A 
ATOM     70  H   UNL A   1      44.130  28.832  32.578  1.00  0.00     0.167 HD
ATOM     71  C   UNL A   1      45.638  26.989  31.024  1.00  0.00     0.074 A 
ATOM     72  C   UNL A   1      45.996  26.039  29.992  1.00  0.00     0.031 C 
ATOM     73  C   UNL A   1      46.481  27.407  32.003  1.00  0.00     0.034 A 
BRANCH  60  74
ATOM     74  C   UNL A   1      43.943  31.507  35.926  1.00  0.00     0.023 A 
ATOM     75  C   UNL A   1      44.286  32.864  35.791  1.00  0.00     0.031 A 
ATOM     76  C   UNL A   1      43.813  30.991  37.228  1.00  0.00     0.131 A 
ATOM     77  C   UNL A   1      44.579  33.630  36.929  1.00  0.00     0.055 A 
ATOM     78  C   UNL A   1      44.011  31.786  38.359  1.00  0.00     0.041 A 
ATOM     79  F   UNL A   1      43.512  29.698  37.425  1.00  0.00    -0.206 F 
ATOM     80  C   UNL A   1      44.417  33.108  38.214  1.00  0.00     0.022 A 
BRANCH  77  81
ATOM     81  S   UNL A   1      45.356  35.254  36.699  1.00  0.00     0.124 S 
ATOM     82  O   UNL A   1      45.623  35.650  38.080  1.00  0.00    -0.237 OA
ATOM     83  O   UNL A   1      46.526  34.931  35.889  1.00  0.00    -0.237 OA
ATOM     84  O   UNL A   1      44.323  36.036  36.024  1.00  0.00    -0.744 OA
ENDBRANCH  77  81
ENDBRANCH  60  74
BRANCH  61  85
ATOM     85  C   UNL A   1      42.394  25.875  27.775  1.00  0.00     0.023 A 
ATOM     86  C   UNL A   1      41.861  24.576  27.785  1.00  0.00     0.031 A 
ATOM     87  C   UNL A   1      42.772  26.421  26.534  1.00  0.00     0.131 A 
ATOM     88  C   UNL A   1      41.755  23.854  26.585  1.00  0.00     0.055 A 
ATOM     89  C   UNL A   1      42.611  25.722  25.337  1.00  0.00     0.041 A 
ATOM     90  F   UNL A   1      43.296  27.655  26.467  1.00  0.00    -0.206 F 
ATOM     91  C   UNL A   1      42.110  24.425  25.360  1.00  0.00     0.022 A 
BRANCH  88  92
ATOM     92  S   UNL A   1      41.218  22.123  26.654  1.00  0.00     0.124 S 
ATOM     93  O   UNL A   1      41.445  21.797  28.058  1.00  0.00    -0.237 OA
ATOM     94  O   UNL A   1      39.824  22.222  26.235  1.00  0.00    -0.237 OA
ATOM     95  O   UNL A   1      42.105  21.452  25.706  1.00  0.00    -0.744 OA
ENDBRANCH  88  92
ENDBRANCH  61  85
BRANCH  73  96
ATOM     96  C   UNL A   1      47.866  26.801  32.031  1.00  0.00     0.023 A 
ATOM     97  C   UNL A   1      48.149  25.618  32.735  1.00  0.00     0.031 A 
ATOM     98  C   UNL A   1      48.922  27.421  31.338  1.00  0.00     0.131 A 
ATOM     99  C   UNL A   1      49.462  25.123  32.777  1.00  0.00     0.055 A 
ATOM    100  C   UNL A   1      50.211  26.887  31.325  1.00  0.00     0.041 A 
ATOM    101  F   UNL A   1      48.716  28.558  30.652  1.00  0.00    -0.206 F 
ATOM    102  C   UNL A   1      50.491  25.739  32.058  1.00  0.00     0.022 A 
BRANCH  99 103
ATOM    103  S   UNL A   1      49.832  23.721  33.866  1.00  0.00     0.124 S 
ATOM    104  O   UNL A   1      50.755  24.318  34.825  1.00  0.00    -0.237 OA
ATOM    105  O   UNL A   1      48.514  23.369  34.383  1.00  0.00    -0.237 OA
ATOM    106  O   UNL A   1      50.427  22.735  32.965  1.00  0.00    -0.744 OA
ENDBRANCH  99 103
ENDBRANCH  73  96
ENDBRANCH  47  48
ENDBRANCH  40  42
ENDBRANCH  39  40
ENDBRANCH  38  39
ENDBRANCH  37  38
ENDBRANCH  36  37
ENDBRANCH  35  36
ENDBRANCH   1  35
TORSDOF 27
ENDMDL
MODEL 3
REMARK VINA RESULT:      -9.5      4.463     10.017
REMARK SMILES Nc1nccc(N2CCC[C@@](Cc3ccc(F)cc3F)(C(=O)OCCOCCOCCOCCOC(=O)c3ccc(-c4c5nc(c(-c6cc(S(=O)(=O)[O-])ccc6F)c6ccc([nH]6)c(-c6cc(S(=O)(=O)[O-])ccc6F)c6nc(c(-c7cc(S(=O)(=O)[O-])ccc7F)c7ccc4[nH]7)C=C6)C=C5)cc3)C2)n1
REMARK SMILES IDX 30 1 29 2 28 3 27 4 26 5 25 6 24 7 23 8 21 9 22 10 11 11
REMARK SMILES IDX 7 12 8 13 101 14 9 15 10 16 6 17 2 18 3 19 102 20 4 21 5 22
REMARK SMILES IDX 1 23 12 26 13 27 14 28 19 29 15 30 18 31 20 32 16 33 17 34
REMARK SMILES IDX 31 35 32 36 33 37 34 38 35 39 36 40 37 41 38 42 39 43 100 44
REMARK SMILES IDX 40 45 99 46 41 47 42 48 43 49 93 50 44 51 98 52 92 53 94 54
REMARK SMILES IDX 45 55 97 56 91 57 90 58 46 60 78 61 58 62 77 63 59 64 62 65
REMARK SMILES IDX 76 66 95 67 60 68 61 69 75 71 96 72 63 73 47 74 48 75 56 76
REMARK SMILES IDX 49 77 55 78 57 79 54 80 50 81 51 82 52 83 53 84 79 85 80 86
REMARK SMILES IDX 88 87 81 88 87 89 89 90 86 91 82 92 83 93 84 94 85 95 64 96
REMARK SMILES IDX 65 97 73 98 66 99 72 100 74 101 71 102 67 103 68 104 69 105
REMARK SMILES IDX 70 106
REMARK H PARENT 1 24 1 25 94 59 62 70
REMARK Flexibility Score: inf
ROOT
ATOM      1  C   UNL A   1      33.390  35.592  29.215  1.00  0.00     0.188 C 
ENDROOT
BRANCH   1   2
ATOM      2  O   UNL A   1      32.574  34.558  28.676  1.00  0.00    -0.377 OA
BRANCH   2   3
ATOM      3  C   UNL A   1      33.175  33.476  27.997  1.00  0.00     0.188 C 
BRANCH   3   4
ATOM      4  C   UNL A   1      32.247  32.530  27.227  1.00  0.00     0.188 C 
BRANCH   4   5
ATOM      5  O   UNL A   1      32.539  31.153  27.144  1.00  0.00    -0.376 OA
BRANCH   5   6
ATOM      6  C   UNL A   1      32.080  30.336  26.080  1.00  0.00     0.202 C 
BRANCH   6   7
ATOM      7  C   UNL A   1      32.966  29.591  25.068  1.00  0.00     0.261 C 
BRANCH   7   8
ATOM      8  O   UNL A   1      33.215  28.195  25.281  1.00  0.00    -0.463 OA
BRANCH   8   9
ATOM      9  C   UNL A   1      32.820  27.394  24.272  1.00  0.00     0.314 C 
ATOM     10  O   UNL A   1      33.329  27.432  23.152  1.00  0.00    -0.252 OA
BRANCH   9  11
ATOM     11  C   UNL A   1      31.633  26.479  24.577  1.00  0.00     0.090 C 
ATOM     12  N   UNL A   1      31.390  24.120  25.206  1.00  0.00    -0.355 N 
ATOM     13  C   UNL A   1      30.577  24.318  26.388  1.00  0.00     0.118 C 
ATOM     14  C   UNL A   1      32.360  25.149  24.895  1.00  0.00     0.137 C 
ATOM     15  C   UNL A   1      29.781  25.609  26.180  1.00  0.00     0.023 C 
ATOM     16  C   UNL A   1      30.676  26.802  25.768  1.00  0.00     0.023 C 
BRANCH  12  17
ATOM     17  C   UNL A   1      31.731  22.850  24.777  1.00  0.00     0.134 A 
ATOM     18  C   UNL A   1      32.597  20.774  25.199  1.00  0.00     0.221 A 
ATOM     19  N   UNL A   1      32.857  20.530  23.911  1.00  0.00    -0.222 NA
ATOM     20  N   UNL A   1      32.060  21.902  25.674  1.00  0.00    -0.196 NA
ATOM     21  C   UNL A   1      32.518  21.499  23.046  1.00  0.00     0.119 A 
ATOM     22  C   UNL A   1      31.928  22.675  23.425  1.00  0.00     0.067 A 
BRANCH  18  23
ATOM     23  N   UNL A   1      32.945  19.804  26.096  1.00  0.00    -0.368 N 
ATOM     24  H   UNL A   1      32.254  19.209  26.469  1.00  0.00     0.159 HD
ATOM     25  H   UNL A   1      33.884  19.701  26.369  1.00  0.00     0.159 HD
ENDBRANCH  18  23
ENDBRANCH  12  17
BRANCH  11  26
ATOM     26  C   UNL A   1      30.831  26.396  23.237  1.00  0.00     0.059 C 
BRANCH  26  27
ATOM     27  C   UNL A   1      29.890  27.574  23.038  1.00  0.00    -0.011 A 
ATOM     28  C   UNL A   1      30.382  28.846  22.701  1.00  0.00     0.010 A 
ATOM     29  C   UNL A   1      28.523  27.449  23.328  1.00  0.00     0.129 A 
ATOM     30  C   UNL A   1      29.554  29.967  22.774  1.00  0.00     0.040 A 
ATOM     31  C   UNL A   1      27.686  28.557  23.376  1.00  0.00     0.078 A 
ATOM     32  F   UNL A   1      28.012  26.246  23.624  1.00  0.00    -0.207 F 
ATOM     33  C   UNL A   1      28.219  29.813  23.123  1.00  0.00     0.126 A 
ATOM     34  F   UNL A   1      27.435  30.893  23.222  1.00  0.00    -0.207 F 
ENDBRANCH  26  27
ENDBRANCH  11  26
ENDBRANCH   9  11
ENDBRANCH   8   9
ENDBRANCH   7   8
ENDBRANCH   6   7
ENDBRANCH   5   6
ENDBRANCH   4   5
ENDBRANCH   3   4
ENDBRANCH   2   3
ENDBRANCH   1   2
BRANCH   1  35
ATOM     35  C   UNL A   1      33.709  35.623  30.723  1.00  0.00     0.188 C 
BRANCH  35  36
ATOM     36  O   UNL A   1      33.886  34.350  31.320  1.00  0.00    -0.376 OA
BRANCH  36  37
ATOM     37  C   UNL A   1      34.428  34.277  32.631  1.00  0.00     0.202 C 
BRANCH  37  38
ATOM     38  C   UNL A   1      35.909  33.895  32.793  1.00  0.00     0.261 C 
BRANCH  38  39
ATOM     39  O   UNL A   1      36.816  34.346  31.773  1.00  0.00    -0.460 OA
BRANCH  39  40
ATOM     40  C   UNL A   1      37.369  33.422  30.953  1.00  0.00     0.338 C 
ATOM     41  O   UNL A   1      36.855  32.401  30.551  1.00  0.00    -0.246 OA
BRANCH  40  42
ATOM     42  C   UNL A   1      38.647  33.982  30.459  1.00  0.00     0.060 A 
ATOM     43  C   UNL A   1      38.749  34.360  29.113  1.00  0.00     0.016 A 
ATOM     44  C   UNL A   1      39.739  34.123  31.317  1.00  0.00     0.016 A 
ATOM     45  C   UNL A   1      39.956  34.847  28.613  1.00  0.00     0.010 A 
ATOM     46  C   UNL A   1      40.954  34.589  30.809  1.00  0.00     0.010 A 
ATOM     47  C   UNL A   1      41.078  34.919  29.448  1.00  0.00    -0.014 A 
BRANCH  47  48
ATOM     48  C   UNL A   1      42.422  35.131  28.854  1.00  0.00     0.031 A 
ATOM     49  C   UNL A   1      43.348  33.950  28.756  1.00  0.00     0.074 A 
ATOM     50  C   UNL A   1      42.806  36.334  28.395  1.00  0.00     0.049 A 
ATOM     51  N   UNL A   1      44.591  33.894  28.357  1.00  0.00    -0.248 NA
ATOM     52  C   UNL A   1      42.789  32.656  29.176  1.00  0.00     0.031 C 
ATOM     53  C   UNL A   1      41.979  37.538  28.389  1.00  0.00     0.029 A 
ATOM     54  N   UNL A   1      44.001  36.741  27.855  1.00  0.00    -0.354 N 
ATOM     55  C   UNL A   1      44.967  32.561  28.480  1.00  0.00     0.074 A 
ATOM     56  C   UNL A   1      43.834  31.855  29.039  1.00  0.00     0.031 C 
ATOM     57  C   UNL A   1      42.701  38.558  27.892  1.00  0.00     0.029 A 
ATOM     58  C   UNL A   1      44.053  38.088  27.587  1.00  0.00     0.049 A 
ATOM     59  H   UNL A   1      44.750  36.127  27.677  1.00  0.00     0.167 HD
ATOM     60  C   UNL A   1      46.145  31.977  28.146  1.00  0.00     0.034 A 
ATOM     61  C   UNL A   1      45.083  38.860  27.182  1.00  0.00     0.034 A 
ATOM     62  C   UNL A   1      47.273  32.704  27.615  1.00  0.00     0.049 A 
ATOM     63  C   UNL A   1      46.424  38.214  26.919  1.00  0.00     0.074 A 
ATOM     64  C   UNL A   1      48.514  32.219  27.244  1.00  0.00     0.029 A 
ATOM     65  N   UNL A   1      47.303  34.076  27.398  1.00  0.00    -0.354 N 
ATOM     66  N   UNL A   1      46.772  36.951  27.036  1.00  0.00    -0.248 NA
ATOM     67  C   UNL A   1      47.508  39.094  26.466  1.00  0.00     0.031 C 
ATOM     68  C   UNL A   1      49.320  33.305  26.886  1.00  0.00     0.029 A 
ATOM     69  C   UNL A   1      48.554  34.460  26.937  1.00  0.00     0.049 A 
ATOM     70  H   UNL A   1      46.547  34.689  27.549  1.00  0.00     0.167 HD
ATOM     71  C   UNL A   1      48.107  36.885  26.642  1.00  0.00     0.074 A 
ATOM     72  C   UNL A   1      48.494  38.231  26.271  1.00  0.00     0.031 C 
ATOM     73  C   UNL A   1      48.935  35.810  26.585  1.00  0.00     0.034 A 
BRANCH  60  74
ATOM     74  C   UNL A   1      46.277  30.495  28.408  1.00  0.00     0.023 A 
ATOM     75  C   UNL A   1      45.976  29.539  27.419  1.00  0.00     0.031 A 
ATOM     76  C   UNL A   1      46.647  30.025  29.680  1.00  0.00     0.131 A 
ATOM     77  C   UNL A   1      45.958  28.176  27.745  1.00  0.00     0.055 A 
ATOM     78  C   UNL A   1      46.722  28.661  29.970  1.00  0.00     0.041 A 
ATOM     79  F   UNL A   1      46.921  30.885  30.674  1.00  0.00    -0.206 F 
ATOM     80  C   UNL A   1      46.356  27.727  29.007  1.00  0.00     0.022 A 
BRANCH  77  81
ATOM     81  S   UNL A   1      45.226  27.015  26.557  1.00  0.00     0.124 S 
ATOM     82  O   UNL A   1      44.722  27.923  25.530  1.00  0.00    -0.237 OA
ATOM     83  O   UNL A   1      46.369  26.192  26.178  1.00  0.00    -0.237 OA
ATOM     84  O   UNL A   1      44.195  26.332  27.336  1.00  0.00    -0.744 OA
ENDBRANCH  77  81
ENDBRANCH  60  74
BRANCH  61  85
ATOM     85  C   UNL A   1      44.909  40.337  27.062  1.00  0.00     0.023 A 
ATOM     86  C   UNL A   1      44.656  40.950  25.824  1.00  0.00     0.031 A 
ATOM     87  C   UNL A   1      45.032  41.166  28.192  1.00  0.00     0.131 A 
ATOM     88  C   UNL A   1      44.569  42.349  25.741  1.00  0.00     0.055 A 
ATOM     89  C   UNL A   1      44.886  42.552  28.114  1.00  0.00     0.041 A 
ATOM     90  F   UNL A   1      45.284  40.634  29.399  1.00  0.00    -0.206 F 
ATOM     91  C   UNL A   1      44.665  43.152  26.880  1.00  0.00     0.022 A 
BRANCH  88  92
ATOM     92  S   UNL A   1      44.405  43.116  24.105  1.00  0.00     0.124 S 
ATOM     93  O   UNL A   1      43.484  42.202  23.439  1.00  0.00    -0.237 OA
ATOM     94  O   UNL A   1      43.873  44.433  24.440  1.00  0.00    -0.237 OA
ATOM     95  O   UNL A   1      45.772  43.112  23.588  1.00  0.00    -0.744 OA
ENDBRANCH  88  92
ENDBRANCH  61  85
BRANCH  73  96
ATOM     96  C   UNL A   1      50.335  36.038  26.060  1.00  0.00     0.023 A 
ATOM     97  C   UNL A   1      51.445  36.143  26.916  1.00  0.00     0.031 A 
ATOM     98  C   UNL A   1      50.560  36.151  24.675  1.00  0.00     0.131 A 
ATOM     99  C   UNL A   1      52.717  36.408  26.385  1.00  0.00     0.055 A 
ATOM    100  C   UNL A   1      51.837  36.345  24.149  1.00  0.00     0.041 A 
ATOM    101  F   UNL A   1      49.538  36.066  23.808  1.00  0.00    -0.206 F 
ATOM    102  C   UNL A   1      52.923  36.489  25.005  1.00  0.00     0.022 A 
BRANCH  99 103
ATOM    103  S   UNL A   1      54.084  36.750  27.526  1.00  0.00     0.124 S 
ATOM    104  O   UNL A   1      55.236  36.739  26.631  1.00  0.00    -0.237 OA
ATOM    105  O   UNL A   1      53.716  38.050  28.077  1.00  0.00    -0.237 OA
ATOM    106  O   UNL A   1      54.026  35.638  28.475  1.00  0.00    -0.744 OA
ENDBRANCH  99 103
ENDBRANCH  73  96
ENDBRANCH  47  48
ENDBRANCH  40  42
ENDBRANCH  39  40
ENDBRANCH  38  39
ENDBRANCH  37  38
ENDBRANCH  36  37
ENDBRANCH  35  36
ENDBRANCH   1  35
TORSDOF 27
ENDMDL
