MODEL 1
REMARK VINA RESULT:      -8.8      0.000      0.000
REMARK SMILES CCc1ccccc1SCc1ccc(C(=O)OCCOCCOCCOCCOC(=O)c2ccc(-c3c4nc(c(-c5cc(S(=O)(=O)[O-])ccc5F)c5ccc([nH]5)c(-c5cc(S(=O)(=O)[O-])ccc5F)c5nc(c(-c6cc(S(=O)(=O)[O-])ccc6F)c6ccc3[nH]6)C=C5)C=C4)cc2)o1
REMARK SMILES IDX 22 1 21 2 20 3 19 4 18 5 17 6 15 7 16 8 14 9 11 10 12 11
REMARK SMILES IDX 95 12 13 13 10 14 9 15 8 16 3 17 4 18 5 19 7 20 6 21 2 22
REMARK SMILES IDX 1 23 23 24 24 25 25 26 26 27 27 28 28 29 29 30 30 31 31 32
REMARK SMILES IDX 32 33 33 34 94 35 34 36 93 37 35 38 36 39 37 40 87 41 38 42
REMARK SMILES IDX 92 43 86 44 88 45 39 46 91 47 85 48 84 49 40 51 72 52 52 53
REMARK SMILES IDX 71 54 53 55 56 56 70 57 89 58 54 59 55 60 69 62 90 63 57 64
REMARK SMILES IDX 41 65 42 66 50 67 43 68 49 69 51 70 48 71 44 72 45 73 46 74
REMARK SMILES IDX 47 75 73 76 74 77 82 78 75 79 81 80 83 81 80 82 76 83 77 84
REMARK SMILES IDX 78 85 79 86 58 87 59 88 67 89 60 90 66 91 68 92 65 93 61 94
REMARK SMILES IDX 62 95 63 96 64 97
REMARK H PARENT 88 50 56 61
REMARK Flexibility Score: inf
ROOT
ATOM      1  C   UNL A   1      33.536  28.868  26.861  1.00  0.00     0.188 C 
ENDROOT
BRANCH   1   2
ATOM      2  C   UNL A   1      32.274  28.617  26.017  1.00  0.00     0.188 C 
BRANCH   2   3
ATOM      3  O   UNL A   1      32.124  29.205  24.728  1.00  0.00    -0.376 OA
BRANCH   3   4
ATOM      4  C   UNL A   1      32.807  28.663  23.600  1.00  0.00     0.202 C 
BRANCH   4   5
ATOM      5  C   UNL A   1      32.016  27.840  22.574  1.00  0.00     0.261 C 
BRANCH   5   6
ATOM      6  O   UNL A   1      32.074  26.426  22.818  1.00  0.00    -0.457 OA
BRANCH   6   7
ATOM      7  C   UNL A   1      33.176  25.782  22.343  1.00  0.00     0.374 C 
ATOM      8  O   UNL A   1      33.606  25.879  21.198  1.00  0.00    -0.242 OA
BRANCH   7   9
ATOM      9  C   UNL A   1      33.859  25.120  23.429  1.00  0.00     0.211 A 
ATOM     10  C   UNL A   1      35.278  23.608  24.194  1.00  0.00     0.115 A 
ATOM     11  C   UNL A   1      35.011  24.457  25.246  1.00  0.00     0.047 A 
ATOM     12  O   UNL A   1      34.528  23.970  23.122  1.00  0.00    -0.453 OA
ATOM     13  C   UNL A   1      34.098  25.432  24.756  1.00  0.00     0.058 A 
BRANCH  10  14
ATOM     14  C   UNL A   1      36.057  22.362  24.033  1.00  0.00     0.150 C 
BRANCH  14  15
ATOM     15  S   UNL A   1      35.762  21.005  25.191  1.00  0.00    -0.118 SA
BRANCH  15  16
ATOM     16  C   UNL A   1      34.522  19.823  24.653  1.00  0.00     0.011 A 
ATOM     17  C   UNL A   1      33.136  19.880  24.410  1.00  0.00    -0.035 A 
ATOM     18  C   UNL A   1      32.477  18.683  23.992  1.00  0.00     0.005 A 
ATOM     19  C   UNL A   1      33.123  17.455  23.882  1.00  0.00     0.000 A 
ATOM     20  C   UNL A   1      35.142  18.544  24.553  1.00  0.00     0.015 A 
ATOM     21  C   UNL A   1      34.465  17.380  24.184  1.00  0.00     0.001 A 
BRANCH  17  22
ATOM     22  C   UNL A   1      32.201  21.066  24.502  1.00  0.00     0.033 C 
ATOM     23  C   UNL A   1      32.302  21.977  25.710  1.00  0.00     0.009 C 
ENDBRANCH  17  22
ENDBRANCH  15  16
ENDBRANCH  14  15
ENDBRANCH  10  14
ENDBRANCH   7   9
ENDBRANCH   6   7
ENDBRANCH   5   6
ENDBRANCH   4   5
ENDBRANCH   3   4
ENDBRANCH   2   3
ENDBRANCH   1   2
BRANCH   1  24
ATOM     24  O   UNL A   1      34.002  30.203  26.823  1.00  0.00    -0.377 OA
BRANCH  24  25
ATOM     25  C   UNL A   1      34.640  30.657  28.016  1.00  0.00     0.188 C 
BRANCH  25  26
ATOM     26  C   UNL A   1      35.103  32.127  28.033  1.00  0.00     0.188 C 
BRANCH  26  27
ATOM     27  O   UNL A   1      34.439  32.908  29.031  1.00  0.00    -0.376 OA
BRANCH  27  28
ATOM     28  C   UNL A   1      34.722  32.568  30.387  1.00  0.00     0.202 C 
BRANCH  28  29
ATOM     29  C   UNL A   1      36.121  31.976  30.620  1.00  0.00     0.261 C 
BRANCH  29  30
ATOM     30  O   UNL A   1      36.400  31.568  31.970  1.00  0.00    -0.460 OA
BRANCH  30  31
ATOM     31  C   UNL A   1      37.152  30.460  32.145  1.00  0.00     0.338 C 
ATOM     32  O   UNL A   1      36.765  29.370  32.524  1.00  0.00    -0.246 OA
BRANCH  31  33
ATOM     33  C   UNL A   1      38.501  30.731  31.606  1.00  0.00     0.060 A 
ATOM     34  C   UNL A   1      39.432  31.376  32.429  1.00  0.00     0.016 A 
ATOM     35  C   UNL A   1      38.843  30.367  30.300  1.00  0.00     0.016 A 
ATOM     36  C   UNL A   1      40.695  31.700  31.931  1.00  0.00     0.010 A 
ATOM     37  C   UNL A   1      40.102  30.705  29.798  1.00  0.00     0.010 A 
ATOM     38  C   UNL A   1      41.021  31.405  30.600  1.00  0.00    -0.014 A 
BRANCH  38  39
ATOM     39  C   UNL A   1      42.229  32.006  29.983  1.00  0.00     0.031 A 
ATOM     40  C   UNL A   1      43.415  31.116  29.729  1.00  0.00     0.074 A 
ATOM     41  C   UNL A   1      42.275  33.308  29.652  1.00  0.00     0.049 A 
ATOM     42  N   UNL A   1      44.592  31.413  29.240  1.00  0.00    -0.248 NA
ATOM     43  C   UNL A   1      43.248  29.698  30.084  1.00  0.00     0.031 C 
ATOM     44  C   UNL A   1      41.180  34.262  29.818  1.00  0.00     0.029 A 
ATOM     45  N   UNL A   1      43.293  34.053  29.114  1.00  0.00    -0.354 N 
ATOM     46  C   UNL A   1      45.303  30.218  29.221  1.00  0.00     0.074 A 
ATOM     47  C   UNL A   1      44.440  29.204  29.792  1.00  0.00     0.031 C 
ATOM     48  C   UNL A   1      41.592  35.472  29.399  1.00  0.00     0.029 A 
ATOM     49  C   UNL A   1      42.986  35.384  28.966  1.00  0.00     0.049 A 
ATOM     50  H   UNL A   1      44.163  33.670  28.857  1.00  0.00     0.167 HD
ATOM     51  C   UNL A   1      46.555  29.982  28.758  1.00  0.00     0.034 A 
ATOM     52  C   UNL A   1      43.750  36.414  28.548  1.00  0.00     0.034 A 
ATOM     53  C   UNL A   1      47.418  31.006  28.224  1.00  0.00     0.049 A 
ATOM     54  C   UNL A   1      45.179  36.150  28.135  1.00  0.00     0.074 A 
ATOM     55  C   UNL A   1      48.704  30.880  27.727  1.00  0.00     0.029 A 
ATOM     56  N   UNL A   1      47.090  32.352  28.136  1.00  0.00    -0.354 N 
ATOM     57  N   UNL A   1      45.836  35.013  28.106  1.00  0.00    -0.248 NA
ATOM     58  C   UNL A   1      45.965  37.310  27.693  1.00  0.00     0.031 C 
ATOM     59  C   UNL A   1      49.175  32.157  27.402  1.00  0.00     0.029 A 
ATOM     60  C   UNL A   1      48.158  33.072  27.626  1.00  0.00     0.049 A 
ATOM     61  H   UNL A   1      46.223  32.739  28.398  1.00  0.00     0.167 HD
ATOM     62  C   UNL A   1      47.103  35.321  27.613  1.00  0.00     0.074 A 
ATOM     63  C   UNL A   1      47.114  36.745  27.353  1.00  0.00     0.031 C 
ATOM     64  C   UNL A   1      48.160  34.497  27.386  1.00  0.00     0.034 A 
BRANCH  51  65
ATOM     65  C   UNL A   1      47.068  28.567  28.870  1.00  0.00     0.023 A 
ATOM     66  C   UNL A   1      46.764  27.595  27.900  1.00  0.00     0.031 A 
ATOM     67  C   UNL A   1      47.814  28.166  29.993  1.00  0.00     0.131 A 
ATOM     68  C   UNL A   1      47.129  26.257  28.111  1.00  0.00     0.055 A 
ATOM     69  C   UNL A   1      48.246  26.849  30.155  1.00  0.00     0.041 A 
ATOM     70  F   UNL A   1      48.113  29.044  30.963  1.00  0.00    -0.206 F 
ATOM     71  C   UNL A   1      47.889  25.881  29.221  1.00  0.00     0.022 A 
BRANCH  68  72
ATOM     72  S   UNL A   1      46.458  24.991  26.998  1.00  0.00     0.124 S 
ATOM     73  O   UNL A   1      46.217  25.764  25.782  1.00  0.00    -0.237 OA
ATOM     74  O   UNL A   1      47.543  24.020  26.933  1.00  0.00    -0.237 OA
ATOM     75  O   UNL A   1      45.252  24.535  27.685  1.00  0.00    -0.744 OA
ENDBRANCH  68  72
ENDBRANCH  51  65
BRANCH  52  76
ATOM     76  C   UNL A   1      43.205  37.801  28.534  1.00  0.00     0.023 A 
ATOM     77  C   UNL A   1      43.383  38.663  29.628  1.00  0.00     0.031 A 
ATOM     78  C   UNL A   1      42.449  38.266  27.442  1.00  0.00     0.131 A 
ATOM     79  C   UNL A   1      42.780  39.931  29.623  1.00  0.00     0.055 A 
ATOM     80  C   UNL A   1      41.889  39.544  27.424  1.00  0.00     0.041 A 
ATOM     81  F   UNL A   1      42.250  37.480  26.372  1.00  0.00    -0.206 F 
ATOM     82  C   UNL A   1      42.043  40.381  28.524  1.00  0.00     0.022 A 
BRANCH  79  83
ATOM     83  S   UNL A   1      42.914  40.962  31.109  1.00  0.00     0.124 S 
ATOM     84  O   UNL A   1      44.260  41.507  30.972  1.00  0.00    -0.237 OA
ATOM     85  O   UNL A   1      41.817  41.907  30.922  1.00  0.00    -0.237 OA
ATOM     86  O   UNL A   1      42.733  40.010  32.202  1.00  0.00    -0.744 OA
ENDBRANCH  79  83
ENDBRANCH  52  76
BRANCH  64  87
ATOM     87  C   UNL A   1      49.399  35.117  26.787  1.00  0.00     0.023 A 
ATOM     88  C   UNL A   1      50.489  35.516  27.580  1.00  0.00     0.031 A 
ATOM     89  C   UNL A   1      49.485  35.316  25.396  1.00  0.00     0.131 A 
ATOM     90  C   UNL A   1      51.597  36.136  26.983  1.00  0.00     0.055 A 
ATOM     91  C   UNL A   1      50.612  35.884  24.803  1.00  0.00     0.041 A 
ATOM     92  F   UNL A   1      48.473  34.954  24.592  1.00  0.00    -0.206 F 
ATOM     93  C   UNL A   1      51.673  36.309  25.599  1.00  0.00     0.022 A 
BRANCH  90  94
ATOM     94  S   UNL A   1      52.911  36.790  28.049  1.00  0.00     0.124 S 
ATOM     95  O   UNL A   1      52.999  35.766  29.086  1.00  0.00    -0.237 OA
ATOM     96  O   UNL A   1      54.045  36.870  27.136  1.00  0.00    -0.237 OA
ATOM     97  O   UNL A   1      52.383  38.079  28.495  1.00  0.00    -0.744 OA
ENDBRANCH  90  94
ENDBRANCH  64  87
ENDBRANCH  38  39
ENDBRANCH  31  33
ENDBRANCH  30  31
ENDBRANCH  29  30
ENDBRANCH  28  29
ENDBRANCH  27  28
ENDBRANCH  26  27
ENDBRANCH  25  26
ENDBRANCH  24  25
ENDBRANCH   1  24
TORSDOF 27
ENDMDL
MODEL 2
REMARK VINA RESULT:      -8.5      7.894     10.987
REMARK SMILES CCc1ccccc1SCc1ccc(C(=O)OCCOCCOCCOCCOC(=O)c2ccc(-c3c4nc(c(-c5cc(S(=O)(=O)[O-])ccc5F)c5ccc([nH]5)c(-c5cc(S(=O)(=O)[O-])ccc5F)c5nc(c(-c6cc(S(=O)(=O)[O-])ccc6F)c6ccc3[nH]6)C=C5)C=C4)cc2)o1
REMARK SMILES IDX 22 1 21 2 20 3 19 4 18 5 17 6 15 7 16 8 14 9 11 10 12 11
REMARK SMILES IDX 95 12 13 13 10 14 9 15 8 16 3 17 4 18 5 19 7 20 6 21 2 22
REMARK SMILES IDX 1 23 23 24 24 25 25 26 26 27 27 28 28 29 29 30 30 31 31 32
REMARK SMILES IDX 32 33 33 34 94 35 34 36 93 37 35 38 36 39 37 40 87 41 38 42
REMARK SMILES IDX 92 43 86 44 88 45 39 46 91 47 85 48 84 49 40 51 72 52 52 53
REMARK SMILES IDX 71 54 53 55 56 56 70 57 89 58 54 59 55 60 69 62 90 63 57 64
REMARK SMILES IDX 41 65 42 66 50 67 43 68 49 69 51 70 48 71 44 72 45 73 46 74
REMARK SMILES IDX 47 75 73 76 74 77 82 78 75 79 81 80 83 81 80 82 76 83 77 84
REMARK SMILES IDX 78 85 79 86 58 87 59 88 67 89 60 90 66 91 68 92 65 93 61 94
REMARK SMILES IDX 62 95 63 96 64 97
REMARK H PARENT 88 50 56 61
REMARK Flexibility Score: inf
ROOT
ATOM      1  C   UNL A   1      33.129  29.334  27.026  1.00  0.00     0.188 C 
ENDROOT
BRANCH   1   2
ATOM      2  C   UNL A   1      32.010  29.153  25.985  1.00  0.00     0.188 C 
BRANCH   2   3
ATOM      3  O   UNL A   1      32.154  29.649  24.658  1.00  0.00    -0.376 OA
BRANCH   3   4
ATOM      4  C   UNL A   1      32.884  28.908  23.682  1.00  0.00     0.202 C 
BRANCH   4   5
ATOM      5  C   UNL A   1      32.124  27.955  22.749  1.00  0.00     0.261 C 
BRANCH   5   6
ATOM      6  O   UNL A   1      32.218  26.579  23.148  1.00  0.00    -0.457 OA
BRANCH   6   7
ATOM      7  C   UNL A   1      33.280  25.884  22.652  1.00  0.00     0.374 C 
ATOM      8  O   UNL A   1      33.709  25.981  21.507  1.00  0.00    -0.242 OA
BRANCH   7   9
ATOM      9  C   UNL A   1      33.930  25.162  23.720  1.00  0.00     0.211 A 
ATOM     10  C   UNL A   1      35.256  23.548  24.444  1.00  0.00     0.115 A 
ATOM     11  C   UNL A   1      35.055  24.395  25.513  1.00  0.00     0.047 A 
ATOM     12  O   UNL A   1      34.520  23.975  23.387  1.00  0.00    -0.453 OA
ATOM     13  C   UNL A   1      34.203  25.435  25.049  1.00  0.00     0.058 A 
BRANCH  10  14
ATOM     14  C   UNL A   1      35.949  22.257  24.255  1.00  0.00     0.150 C 
BRANCH  14  15
ATOM     15  S   UNL A   1      35.501  20.871  25.326  1.00  0.00    -0.118 SA
BRANCH  15  16
ATOM     16  C   UNL A   1      34.375  19.688  24.583  1.00  0.00     0.011 A 
ATOM     17  C   UNL A   1      33.040  19.734  24.136  1.00  0.00    -0.035 A 
ATOM     18  C   UNL A   1      32.470  18.539  23.597  1.00  0.00     0.005 A 
ATOM     19  C   UNL A   1      33.145  17.323  23.557  1.00  0.00     0.000 A 
ATOM     20  C   UNL A   1      35.024  18.419  24.547  1.00  0.00     0.015 A 
ATOM     21  C   UNL A   1      34.428  17.257  24.054  1.00  0.00     0.001 A 
BRANCH  17  22
ATOM     22  C   UNL A   1      32.083  20.905  24.115  1.00  0.00     0.033 C 
ATOM     23  C   UNL A   1      32.080  21.861  25.292  1.00  0.00     0.009 C 
ENDBRANCH  17  22
ENDBRANCH  15  16
ENDBRANCH  14  15
ENDBRANCH  10  14
ENDBRANCH   7   9
ENDBRANCH   6   7
ENDBRANCH   5   6
ENDBRANCH   4   5
ENDBRANCH   3   4
ENDBRANCH   2   3
ENDBRANCH   1   2
BRANCH   1  24
ATOM     24  O   UNL A   1      33.850  30.544  26.896  1.00  0.00    -0.377 OA
BRANCH  24  25
ATOM     25  C   UNL A   1      33.728  31.444  27.997  1.00  0.00     0.188 C 
BRANCH  25  26
ATOM     26  C   UNL A   1      34.548  32.746  27.917  1.00  0.00     0.188 C 
BRANCH  26  27
ATOM     27  O   UNL A   1      33.735  33.921  27.985  1.00  0.00    -0.376 OA
BRANCH  27  28
ATOM     28  C   UNL A   1      33.498  34.446  29.290  1.00  0.00     0.202 C 
BRANCH  28  29
ATOM     29  C   UNL A   1      34.656  34.249  30.280  1.00  0.00     0.261 C 
BRANCH  29  30
ATOM     30  O   UNL A   1      34.335  33.492  31.460  1.00  0.00    -0.460 OA
BRANCH  30  31
ATOM     31  C   UNL A   1      35.070  32.387  31.712  1.00  0.00     0.338 C 
ATOM     32  O   UNL A   1      35.214  31.426  30.979  1.00  0.00    -0.246 OA
BRANCH  31  33
ATOM     33  C   UNL A   1      35.841  32.621  32.950  1.00  0.00     0.060 A 
ATOM     34  C   UNL A   1      35.570  33.775  33.698  1.00  0.00     0.016 A 
ATOM     35  C   UNL A   1      36.828  31.724  33.366  1.00  0.00     0.016 A 
ATOM     36  C   UNL A   1      36.321  34.056  34.841  1.00  0.00     0.010 A 
ATOM     37  C   UNL A   1      37.589  32.014  34.502  1.00  0.00     0.010 A 
ATOM     38  C   UNL A   1      37.362  33.199  35.224  1.00  0.00    -0.014 A 
BRANCH  38  39
ATOM     39  C   UNL A   1      38.345  33.639  36.245  1.00  0.00     0.031 A 
ATOM     40  C   UNL A   1      39.617  34.290  35.774  1.00  0.00     0.074 A 
ATOM     41  C   UNL A   1      38.116  33.469  37.559  1.00  0.00     0.049 A 
ATOM     42  N   UNL A   1      40.640  34.720  36.466  1.00  0.00    -0.248 NA
ATOM     43  C   UNL A   1      39.751  34.470  34.320  1.00  0.00     0.031 C 
ATOM     44  C   UNL A   1      36.909  32.882  38.138  1.00  0.00     0.029 A 
ATOM     45  N   UNL A   1      38.900  33.769  38.644  1.00  0.00    -0.354 N 
ATOM     46  C   UNL A   1      41.536  35.231  35.533  1.00  0.00     0.074 A 
ATOM     47  C   UNL A   1      40.954  35.012  34.225  1.00  0.00     0.031 C 
ATOM     48  C   UNL A   1      37.039  32.856  39.477  1.00  0.00     0.029 A 
ATOM     49  C   UNL A   1      38.349  33.393  39.845  1.00  0.00     0.049 A 
ATOM     50  H   UNL A   1      39.776  34.212  38.569  1.00  0.00     0.167 HD
ATOM     51  C   UNL A   1      42.729  35.840  35.746  1.00  0.00     0.034 A 
ATOM     52  C   UNL A   1      38.854  33.457  41.094  1.00  0.00     0.034 A 
ATOM     53  C   UNL A   1      43.314  36.022  37.051  1.00  0.00     0.049 A 
ATOM     54  C   UNL A   1      40.231  34.043  41.302  1.00  0.00     0.074 A 
ATOM     55  C   UNL A   1      44.515  36.624  37.384  1.00  0.00     0.029 A 
ATOM     56  N   UNL A   1      42.749  35.583  38.241  1.00  0.00    -0.354 N 
ATOM     57  N   UNL A   1      41.063  34.538  40.414  1.00  0.00    -0.248 NA
ATOM     58  C   UNL A   1      40.731  34.084  42.683  1.00  0.00     0.031 C 
ATOM     59  C   UNL A   1      44.706  36.490  38.764  1.00  0.00     0.029 A 
ATOM     60  C   UNL A   1      43.590  35.870  39.304  1.00  0.00     0.049 A 
ATOM     61  H   UNL A   1      41.875  35.134  38.318  1.00  0.00     0.167 HD
ATOM     62  C   UNL A   1      42.172  34.975  41.136  1.00  0.00     0.074 A 
ATOM     63  C   UNL A   1      41.899  34.693  42.530  1.00  0.00     0.031 C 
ATOM     64  C   UNL A   1      43.310  35.567  40.689  1.00  0.00     0.034 A 
BRANCH  51  65
ATOM     65  C   UNL A   1      43.489  36.295  34.524  1.00  0.00     0.023 A 
ATOM     66  C   UNL A   1      44.428  35.463  33.890  1.00  0.00     0.031 A 
ATOM     67  C   UNL A   1      43.321  37.600  34.026  1.00  0.00     0.131 A 
ATOM     68  C   UNL A   1      45.223  35.970  32.851  1.00  0.00     0.055 A 
ATOM     69  C   UNL A   1      44.058  38.070  32.938  1.00  0.00     0.041 A 
ATOM     70  F   UNL A   1      42.456  38.447  34.606  1.00  0.00    -0.206 F 
ATOM     71  C   UNL A   1      45.029  37.261  32.355  1.00  0.00     0.022 A 
BRANCH  68  72
ATOM     72  S   UNL A   1      46.624  34.974  32.269  1.00  0.00     0.124 S 
ATOM     73  O   UNL A   1      46.361  33.689  32.912  1.00  0.00    -0.237 OA
ATOM     74  O   UNL A   1      46.457  35.010  30.821  1.00  0.00    -0.237 OA
ATOM     75  O   UNL A   1      47.790  35.691  32.781  1.00  0.00    -0.744 OA
ENDBRANCH  68  72
ENDBRANCH  51  65
BRANCH  52  76
ATOM     76  C   UNL A   1      38.082  32.919  42.249  1.00  0.00     0.023 A 
ATOM     77  C   UNL A   1      37.309  33.764  43.062  1.00  0.00     0.031 A 
ATOM     78  C   UNL A   1      38.149  31.556  42.587  1.00  0.00     0.131 A 
ATOM     79  C   UNL A   1      36.666  33.244  44.197  1.00  0.00     0.055 A 
ATOM     80  C   UNL A   1      37.471  31.035  43.691  1.00  0.00     0.041 A 
ATOM     81  F   UNL A   1      38.874  30.707  41.841  1.00  0.00    -0.206 F 
ATOM     82  C   UNL A   1      36.733  31.883  44.511  1.00  0.00     0.022 A 
BRANCH  79  83
ATOM     83  S   UNL A   1      35.793  34.386  45.301  1.00  0.00     0.124 S 
ATOM     84  O   UNL A   1      36.077  35.676  44.682  1.00  0.00    -0.237 OA
ATOM     85  O   UNL A   1      34.416  33.914  45.198  1.00  0.00    -0.237 OA
ATOM     86  O   UNL A   1      36.429  34.161  46.597  1.00  0.00    -0.744 OA
ENDBRANCH  79  83
ENDBRANCH  52  76
BRANCH  64  87
ATOM     87  C   UNL A   1      44.322  35.986  41.728  1.00  0.00     0.023 A 
ATOM     88  C   UNL A   1      45.361  35.133  42.140  1.00  0.00     0.031 A 
ATOM     89  C   UNL A   1      44.239  37.261  42.318  1.00  0.00     0.131 A 
ATOM     90  C   UNL A   1      46.246  35.547  43.148  1.00  0.00     0.055 A 
ATOM     91  C   UNL A   1      45.154  37.687  43.281  1.00  0.00     0.041 A 
ATOM     92  F   UNL A   1      43.267  38.115  41.962  1.00  0.00    -0.206 F 
ATOM     93  C   UNL A   1      46.159  36.824  43.710  1.00  0.00     0.022 A 
BRANCH  90  94
ATOM     94  S   UNL A   1      47.468  34.364  43.776  1.00  0.00     0.124 S 
ATOM     95  O   UNL A   1      47.930  33.723  42.548  1.00  0.00    -0.237 OA
ATOM     96  O   UNL A   1      48.432  35.233  44.442  1.00  0.00    -0.237 OA
ATOM     97  O   UNL A   1      46.690  33.505  44.668  1.00  0.00    -0.744 OA
ENDBRANCH  90  94
ENDBRANCH  64  87
ENDBRANCH  38  39
ENDBRANCH  31  33
ENDBRANCH  30  31
ENDBRANCH  29  30
ENDBRANCH  28  29
ENDBRANCH  27  28
ENDBRANCH  26  27
ENDBRANCH  25  26
ENDBRANCH  24  25
ENDBRANCH   1  24
TORSDOF 27
ENDMDL
MODEL 3
REMARK VINA RESULT:      -8.4      2.798      7.647
REMARK SMILES CCc1ccccc1SCc1ccc(C(=O)OCCOCCOCCOCCOC(=O)c2ccc(-c3c4nc(c(-c5cc(S(=O)(=O)[O-])ccc5F)c5ccc([nH]5)c(-c5cc(S(=O)(=O)[O-])ccc5F)c5nc(c(-c6cc(S(=O)(=O)[O-])ccc6F)c6ccc3[nH]6)C=C5)C=C4)cc2)o1
REMARK SMILES IDX 22 1 21 2 20 3 19 4 18 5 17 6 15 7 16 8 14 9 11 10 12 11
REMARK SMILES IDX 95 12 13 13 10 14 9 15 8 16 3 17 4 18 5 19 7 20 6 21 2 22
REMARK SMILES IDX 1 23 23 24 24 25 25 26 26 27 27 28 28 29 29 30 30 31 31 32
REMARK SMILES IDX 32 33 33 34 94 35 34 36 93 37 35 38 36 39 37 40 87 41 38 42
REMARK SMILES IDX 92 43 86 44 88 45 39 46 91 47 85 48 84 49 40 51 72 52 52 53
REMARK SMILES IDX 71 54 53 55 56 56 70 57 89 58 54 59 55 60 69 62 90 63 57 64
REMARK SMILES IDX 41 65 42 66 50 67 43 68 49 69 51 70 48 71 44 72 45 73 46 74
REMARK SMILES IDX 47 75 73 76 74 77 82 78 75 79 81 80 83 81 80 82 76 83 77 84
REMARK SMILES IDX 78 85 79 86 58 87 59 88 67 89 60 90 66 91 68 92 65 93 61 94
REMARK SMILES IDX 62 95 63 96 64 97
REMARK H PARENT 88 50 56 61
REMARK Flexibility Score: inf
ROOT
ATOM      1  C   UNL A   1      33.065  29.264  27.129  1.00  0.00     0.188 C 
ENDROOT
BRANCH   1   2
ATOM      2  C   UNL A   1      32.058  28.974  26.002  1.00  0.00     0.188 C 
BRANCH   2   3
ATOM      3  O   UNL A   1      32.214  29.554  24.710  1.00  0.00    -0.376 OA
BRANCH   3   4
ATOM      4  C   UNL A   1      32.916  28.858  23.682  1.00  0.00     0.202 C 
BRANCH   4   5
ATOM      5  C   UNL A   1      32.130  27.957  22.721  1.00  0.00     0.261 C 
BRANCH   5   6
ATOM      6  O   UNL A   1      32.205  26.564  23.062  1.00  0.00    -0.457 OA
BRANCH   6   7
ATOM      7  C   UNL A   1      33.238  25.869  22.509  1.00  0.00     0.374 C 
ATOM      8  O   UNL A   1      33.581  25.939  21.334  1.00  0.00    -0.242 OA
BRANCH   7   9
ATOM      9  C   UNL A   1      33.973  25.182  23.545  1.00  0.00     0.211 A 
ATOM     10  C   UNL A   1      35.495  23.719  24.200  1.00  0.00     0.115 A 
ATOM     11  C   UNL A   1      35.183  24.477  25.308  1.00  0.00     0.047 A 
ATOM     12  O   UNL A   1      34.713  24.101  23.158  1.00  0.00    -0.453 OA
ATOM     13  C   UNL A   1      34.203  25.421  24.889  1.00  0.00     0.058 A 
BRANCH  10  14
ATOM     14  C   UNL A   1      36.351  22.540  23.953  1.00  0.00     0.150 C 
BRANCH  14  15
ATOM     15  S   UNL A   1      36.234  21.136  25.085  1.00  0.00    -0.118 SA
BRANCH  15  16
ATOM     16  C   UNL A   1      34.746  20.149  24.898  1.00  0.00     0.011 A 
ATOM     17  C   UNL A   1      33.372  20.379  25.101  1.00  0.00    -0.035 A 
ATOM     18  C   UNL A   1      32.466  19.303  24.845  1.00  0.00     0.005 A 
ATOM     19  C   UNL A   1      32.882  18.027  24.476  1.00  0.00     0.000 A 
ATOM     20  C   UNL A   1      35.134  18.824  24.543  1.00  0.00     0.015 A 
ATOM     21  C   UNL A   1      34.230  17.779  24.342  1.00  0.00     0.001 A 
BRANCH  17  22
ATOM     22  C   UNL A   1      32.672  21.646  25.540  1.00  0.00     0.033 C 
ATOM     23  C   UNL A   1      32.957  22.186  26.928  1.00  0.00     0.009 C 
ENDBRANCH  17  22
ENDBRANCH  15  16
ENDBRANCH  14  15
ENDBRANCH  10  14
ENDBRANCH   7   9
ENDBRANCH   6   7
ENDBRANCH   5   6
ENDBRANCH   4   5
ENDBRANCH   3   4
ENDBRANCH   2   3
ENDBRANCH   1   2
BRANCH   1  24
ATOM     24  O   UNL A   1      33.805  30.457  26.951  1.00  0.00    -0.377 OA
BRANCH  24  25
ATOM     25  C   UNL A   1      33.670  31.416  28.000  1.00  0.00     0.188 C 
BRANCH  25  26
ATOM     26  C   UNL A   1      34.055  32.868  27.658  1.00  0.00     0.188 C 
BRANCH  26  27
ATOM     27  O   UNL A   1      33.032  33.810  27.994  1.00  0.00    -0.376 OA
BRANCH  27  28
ATOM     28  C   UNL A   1      33.213  34.525  29.215  1.00  0.00     0.202 C 
BRANCH  28  29
ATOM     29  C   UNL A   1      34.679  34.704  29.641  1.00  0.00     0.261 C 
BRANCH  29  30
ATOM     30  O   UNL A   1      34.963  34.390  31.016  1.00  0.00    -0.460 OA
BRANCH  30  31
ATOM     31  C   UNL A   1      35.039  33.085  31.355  1.00  0.00     0.338 C 
ATOM     32  O   UNL A   1      34.128  32.381  31.749  1.00  0.00    -0.246 OA
BRANCH  31  33
ATOM     33  C   UNL A   1      36.379  32.590  30.978  1.00  0.00     0.060 A 
ATOM     34  C   UNL A   1      37.209  32.076  31.982  1.00  0.00     0.016 A 
ATOM     35  C   UNL A   1      36.821  32.643  29.653  1.00  0.00     0.016 A 
ATOM     36  C   UNL A   1      38.503  31.656  31.670  1.00  0.00     0.010 A 
ATOM     37  C   UNL A   1      38.122  32.235  29.343  1.00  0.00     0.010 A 
ATOM     38  C   UNL A   1      38.980  31.774  30.356  1.00  0.00    -0.014 A 
BRANCH  38  39
ATOM     39  C   UNL A   1      40.429  31.615  30.079  1.00  0.00     0.031 A 
ATOM     40  C   UNL A   1      41.358  32.725  30.490  1.00  0.00     0.074 A 
ATOM     41  C   UNL A   1      40.912  30.514  29.478  1.00  0.00     0.049 A 
ATOM     42  N   UNL A   1      42.650  32.837  30.322  1.00  0.00    -0.248 NA
ATOM     43  C   UNL A   1      40.736  33.866  31.181  1.00  0.00     0.031 C 
ATOM     44  C   UNL A   1      40.119  29.359  29.063  1.00  0.00     0.029 A 
ATOM     45  N   UNL A   1      42.194  30.194  29.106  1.00  0.00    -0.354 N 
ATOM     46  C   UNL A   1      42.998  34.057  30.893  1.00  0.00     0.074 A 
ATOM     47  C   UNL A   1      41.773  34.665  31.368  1.00  0.00     0.031 C 
ATOM     48  C   UNL A   1      40.932  28.459  28.481  1.00  0.00     0.029 A 
ATOM     49  C   UNL A   1      42.295  28.988  28.455  1.00  0.00     0.049 A 
ATOM     50  H   UNL A   1      42.967  30.774  29.288  1.00  0.00     0.167 HD
ATOM     51  C   UNL A   1      44.228  34.614  31.022  1.00  0.00     0.034 A 
ATOM     52  C   UNL A   1      43.364  28.392  27.887  1.00  0.00     0.034 A 
ATOM     53  C   UNL A   1      45.436  34.015  30.514  1.00  0.00     0.049 A 
ATOM     54  C   UNL A   1      44.709  29.077  27.948  1.00  0.00     0.074 A 
ATOM     55  C   UNL A   1      46.734  34.489  30.588  1.00  0.00     0.029 A 
ATOM     56  N   UNL A   1      45.494  32.815  29.816  1.00  0.00    -0.354 N 
ATOM     57  N   UNL A   1      45.030  30.223  28.505  1.00  0.00    -0.248 NA
ATOM     58  C   UNL A   1      45.835  28.383  27.310  1.00  0.00     0.031 C 
ATOM     59  C   UNL A   1      47.564  33.613  29.880  1.00  0.00     0.029 A 
ATOM     60  C   UNL A   1      46.797  32.551  29.425  1.00  0.00     0.049 A 
ATOM     61  H   UNL A   1      44.720  32.236  29.627  1.00  0.00     0.167 HD
ATOM     62  C   UNL A   1      46.401  30.369  28.307  1.00  0.00     0.074 A 
ATOM     63  C   UNL A   1      46.846  29.193  27.589  1.00  0.00     0.031 C 
ATOM     64  C   UNL A   1      47.222  31.380  28.694  1.00  0.00     0.034 A 
BRANCH  51  65
ATOM     65  C   UNL A   1      44.297  35.964  31.693  1.00  0.00     0.023 A 
ATOM     66  C   UNL A   1      44.024  37.150  30.990  1.00  0.00     0.031 A 
ATOM     67  C   UNL A   1      44.703  36.072  33.035  1.00  0.00     0.131 A 
ATOM     68  C   UNL A   1      44.243  38.393  31.602  1.00  0.00     0.055 A 
ATOM     69  C   UNL A   1      44.839  37.311  33.664  1.00  0.00     0.041 A 
ATOM     70  F   UNL A   1      45.000  34.975  33.750  1.00  0.00    -0.206 F 
ATOM     71  C   UNL A   1      44.627  38.482  32.942  1.00  0.00     0.022 A 
BRANCH  68  72
ATOM     72  S   UNL A   1      44.178  39.888  30.575  1.00  0.00     0.124 S 
ATOM     73  O   UNL A   1      45.578  40.308  30.577  1.00  0.00    -0.237 OA
ATOM     74  O   UNL A   1      43.667  39.378  29.309  1.00  0.00    -0.237 OA
ATOM     75  O   UNL A   1      43.271  40.768  31.307  1.00  0.00    -0.744 OA
ENDBRANCH  68  72
ENDBRANCH  51  65
BRANCH  52  76
ATOM     76  C   UNL A   1      43.211  27.093  27.173  1.00  0.00     0.023 A 
ATOM     77  C   UNL A   1      43.532  25.878  27.798  1.00  0.00     0.031 A 
ATOM     78  C   UNL A   1      42.792  27.055  25.830  1.00  0.00     0.131 A 
ATOM     79  C   UNL A   1      43.466  24.679  27.070  1.00  0.00     0.055 A 
ATOM     80  C   UNL A   1      42.684  25.856  25.125  1.00  0.00     0.041 A 
ATOM     81  F   UNL A   1      42.473  28.190  25.188  1.00  0.00    -0.206 F 
ATOM     82  C   UNL A   1      43.034  24.659  25.741  1.00  0.00     0.022 A 
BRANCH  79  83
ATOM     83  S   UNL A   1      44.020  23.147  27.867  1.00  0.00     0.124 S 
ATOM     84  O   UNL A   1      45.205  22.816  27.084  1.00  0.00    -0.237 OA
ATOM     85  O   UNL A   1      44.257  23.586  29.238  1.00  0.00    -0.237 OA
ATOM     86  O   UNL A   1      42.884  22.244  27.694  1.00  0.00    -0.744 OA
ENDBRANCH  79  83
ENDBRANCH  52  76
BRANCH  64  87
ATOM     87  C   UNL A   1      48.692  31.230  28.383  1.00  0.00     0.023 A 
ATOM     88  C   UNL A   1      49.558  30.503  29.219  1.00  0.00     0.031 A 
ATOM     89  C   UNL A   1      49.233  31.830  27.231  1.00  0.00     0.131 A 
ATOM     90  C   UNL A   1      50.927  30.436  28.917  1.00  0.00     0.055 A 
ATOM     91  C   UNL A   1      50.585  31.715  26.908  1.00  0.00     0.041 A 
ATOM     92  F   UNL A   1      48.452  32.536  26.398  1.00  0.00    -0.206 F 
ATOM     93  C   UNL A   1      51.443  31.024  27.759  1.00  0.00     0.022 A 
BRANCH  90  94
ATOM     94  S   UNL A   1      52.044  29.636  30.101  1.00  0.00     0.124 S 
ATOM     95  O   UNL A   1      51.529  30.119  31.379  1.00  0.00    -0.237 OA
ATOM     96  O   UNL A   1      51.832  28.219  29.824  1.00  0.00    -0.237 OA
ATOM     97  O   UNL A   1      53.362  30.148  29.731  1.00  0.00    -0.744 OA
ENDBRANCH  90  94
ENDBRANCH  64  87
ENDBRANCH  38  39
ENDBRANCH  31  33
ENDBRANCH  30  31
ENDBRANCH  29  30
ENDBRANCH  28  29
ENDBRANCH  27  28
ENDBRANCH  26  27
ENDBRANCH  25  26
ENDBRANCH  24  25
ENDBRANCH   1  24
TORSDOF 27
ENDMDL
