MODEL 1
REMARK VINA RESULT:      -9.1      0.000      0.000
REMARK SMILES C#CCOc1ccccc1C=C(C#N)C(=O)OCCOCCOCCOCCOC(=O)c1ccc(-c2c3nc(c(-c4cc(S(=O)(=O)[O-])ccc4F)c4ccc([nH]4)c(-c4cc(S(=O)(=O)[O-])ccc4F)c4nc(c(-c5cc(S(=O)(=O)[O-])ccc5F)c5ccc2[nH]5)C=C4)C=C3)cc1
REMARK SMILES IDX 22 1 21 2 20 3 19 4 18 5 17 6 15 7 16 8 12 9 11 10 10 11
REMARK SMILES IDX 5 12 6 13 7 14 9 15 8 16 4 17 3 18 2 19 1 20 13 21 14 22
REMARK SMILES IDX 23 23 24 24 25 25 26 26 27 27 28 28 29 29 30 30 31 31 32 32
REMARK SMILES IDX 33 33 94 34 34 35 93 36 35 37 36 38 37 39 87 40 38 41 92 42
REMARK SMILES IDX 86 43 88 44 39 45 91 46 85 47 84 48 40 50 72 51 52 52 71 53
REMARK SMILES IDX 53 54 56 55 70 56 89 57 54 58 55 59 69 61 90 62 57 63 41 64
REMARK SMILES IDX 42 65 50 66 43 67 49 68 51 69 48 70 44 71 45 72 46 73 47 74
REMARK SMILES IDX 73 75 74 76 82 77 75 78 81 79 83 80 80 81 76 82 77 83 78 84
REMARK SMILES IDX 79 85 58 86 59 87 67 88 60 89 66 90 68 91 65 92 61 93 62 94
REMARK SMILES IDX 63 95 64 96
REMARK H PARENT 88 49 56 60
REMARK Flexibility Score: inf
ROOT
ATOM      1  C   UNL A   1      32.283  22.360  22.356  1.00  0.00     0.188 C 
ENDROOT
BRANCH   1   2
ATOM      2  C   UNL A   1      33.253  23.486  21.937  1.00  0.00     0.188 C 
BRANCH   2   3
ATOM      3  O   UNL A   1      33.248  23.858  20.568  1.00  0.00    -0.376 OA
BRANCH   3   4
ATOM      4  C   UNL A   1      32.750  25.147  20.233  1.00  0.00     0.202 C 
BRANCH   4   5
ATOM      5  C   UNL A   1      32.300  26.057  21.393  1.00  0.00     0.261 C 
BRANCH   5   6
ATOM      6  O   UNL A   1      33.421  26.546  22.139  1.00  0.00    -0.459 OA
BRANCH   6   7
ATOM      7  C   UNL A   1      33.253  27.101  23.367  1.00  0.00     0.348 C 
ATOM      8  O   UNL A   1      32.467  27.972  23.693  1.00  0.00    -0.245 OA
BRANCH   7   9
ATOM      9  C   UNL A   1      34.056  26.170  24.301  1.00  0.00     0.138 C 
ATOM     10  C   UNL A   1      34.455  25.200  25.218  1.00  0.00     0.039 C 
BRANCH  10  11
ATOM     11  C   UNL A   1      33.776  24.275  26.200  1.00  0.00     0.018 A 
ATOM     12  C   UNL A   1      32.381  24.072  26.350  1.00  0.00     0.128 A 
ATOM     13  C   UNL A   1      31.915  23.020  27.171  1.00  0.00     0.047 A 
ATOM     14  C   UNL A   1      32.780  22.178  27.862  1.00  0.00     0.004 A 
ATOM     15  C   UNL A   1      34.624  23.401  26.923  1.00  0.00     0.012 A 
ATOM     16  C   UNL A   1      34.141  22.386  27.755  1.00  0.00     0.001 A 
BRANCH  12  17
ATOM     17  O   UNL A   1      31.305  24.780  25.875  1.00  0.00    -0.480 OA
BRANCH  17  18
ATOM     18  C   UNL A   1      30.871  24.718  24.525  1.00  0.00     0.318 C 
BRANCH  18  19
ATOM     19  C   UNL A   1      29.728  25.695  24.304  1.00  0.00    -0.065 C 
ATOM     20  C   UNL A   1      28.748  26.534  24.114  1.00  0.00     0.007 C 
ENDBRANCH  18  19
ENDBRANCH  17  18
ENDBRANCH  12  17
ENDBRANCH  10  11
BRANCH   9  21
ATOM     21  C   UNL A   1      33.724  27.118  25.442  1.00  0.00     0.107 C 
ATOM     22  N   UNL A   1      33.448  27.905  26.388  1.00  0.00    -0.192 NA
ENDBRANCH   9  21
ENDBRANCH   7   9
ENDBRANCH   6   7
ENDBRANCH   5   6
ENDBRANCH   4   5
ENDBRANCH   3   4
ENDBRANCH   2   3
ENDBRANCH   1   2
BRANCH   1  23
ATOM     23  O   UNL A   1      32.560  21.603  23.515  1.00  0.00    -0.377 OA
BRANCH  23  24
ATOM     24  C   UNL A   1      33.921  21.478  23.885  1.00  0.00     0.188 C 
BRANCH  24  25
ATOM     25  C   UNL A   1      34.348  20.202  24.657  1.00  0.00     0.188 C 
BRANCH  25  26
ATOM     26  O   UNL A   1      35.598  20.286  25.337  1.00  0.00    -0.376 OA
BRANCH  26  27
ATOM     27  C   UNL A   1      36.606  21.115  24.778  1.00  0.00     0.202 C 
BRANCH  27  28
ATOM     28  C   UNL A   1      38.073  20.773  25.084  1.00  0.00     0.261 C 
BRANCH  28  29
ATOM     29  O   UNL A   1      38.624  21.346  26.277  1.00  0.00    -0.460 OA
BRANCH  29  30
ATOM     30  C   UNL A   1      39.967  21.490  26.334  1.00  0.00     0.338 C 
ATOM     31  O   UNL A   1      40.800  20.742  25.852  1.00  0.00    -0.246 OA
BRANCH  30  32
ATOM     32  C   UNL A   1      40.241  22.844  26.865  1.00  0.00     0.060 A 
ATOM     33  C   UNL A   1      39.618  23.950  26.263  1.00  0.00     0.016 A 
ATOM     34  C   UNL A   1      41.025  23.010  28.010  1.00  0.00     0.016 A 
ATOM     35  C   UNL A   1      39.785  25.224  26.799  1.00  0.00     0.010 A 
ATOM     36  C   UNL A   1      41.236  24.294  28.513  1.00  0.00     0.010 A 
ATOM     37  C   UNL A   1      40.642  25.406  27.890  1.00  0.00    -0.014 A 
BRANCH  37  38
ATOM     38  C   UNL A   1      41.142  26.769  28.185  1.00  0.00     0.031 A 
ATOM     39  C   UNL A   1      42.567  27.070  27.810  1.00  0.00     0.074 A 
ATOM     40  C   UNL A   1      40.365  27.713  28.739  1.00  0.00     0.049 A 
ATOM     41  N   UNL A   1      43.270  28.154  28.000  1.00  0.00    -0.248 NA
ATOM     42  C   UNL A   1      43.296  25.985  27.135  1.00  0.00     0.031 C 
ATOM     43  C   UNL A   1      38.959  27.548  29.097  1.00  0.00     0.029 A 
ATOM     44  N   UNL A   1      40.662  29.002  29.106  1.00  0.00    -0.354 N 
ATOM     45  C   UNL A   1      44.527  27.879  27.474  1.00  0.00     0.074 A 
ATOM     46  C   UNL A   1      44.499  26.512  27.001  1.00  0.00     0.031 C 
ATOM     47  C   UNL A   1      38.519  28.691  29.655  1.00  0.00     0.029 A 
ATOM     48  C   UNL A   1      39.621  29.649  29.728  1.00  0.00     0.049 A 
ATOM     49  H   UNL A   1      41.536  29.421  28.941  1.00  0.00     0.167 HD
ATOM     50  C   UNL A   1      45.605  28.696  27.387  1.00  0.00     0.034 A 
ATOM     51  C   UNL A   1      39.581  30.862  30.318  1.00  0.00     0.034 A 
ATOM     52  C   UNL A   1      45.620  30.044  27.896  1.00  0.00     0.049 A 
ATOM     53  C   UNL A   1      40.820  31.725  30.305  1.00  0.00     0.074 A 
ATOM     54  C   UNL A   1      46.647  30.969  27.856  1.00  0.00     0.029 A 
ATOM     55  N   UNL A   1      44.562  30.652  28.564  1.00  0.00    -0.354 N 
ATOM     56  N   UNL A   1      42.003  31.468  29.792  1.00  0.00    -0.248 NA
ATOM     57  C   UNL A   1      40.717  33.042  30.944  1.00  0.00     0.031 C 
ATOM     58  C   UNL A   1      46.243  32.099  28.577  1.00  0.00     0.029 A 
ATOM     59  C   UNL A   1      44.928  31.923  28.981  1.00  0.00     0.049 A 
ATOM     60  H   UNL A   1      43.682  30.240  28.718  1.00  0.00     0.167 HD
ATOM     61  C   UNL A   1      42.775  32.605  30.023  1.00  0.00     0.074 A 
ATOM     62  C   UNL A   1      41.920  33.550  30.712  1.00  0.00     0.031 C 
ATOM     63  C   UNL A   1      44.071  32.849  29.688  1.00  0.00     0.034 A 
BRANCH  50  64
ATOM     64  C   UNL A   1      46.863  28.106  26.789  1.00  0.00     0.023 A 
ATOM     65  C   UNL A   1      47.173  28.251  25.424  1.00  0.00     0.031 A 
ATOM     66  C   UNL A   1      47.718  27.317  27.576  1.00  0.00     0.131 A 
ATOM     67  C   UNL A   1      48.243  27.531  24.870  1.00  0.00     0.055 A 
ATOM     68  C   UNL A   1      48.840  26.684  27.039  1.00  0.00     0.041 A 
ATOM     69  F   UNL A   1      47.460  27.117  28.879  1.00  0.00    -0.206 F 
ATOM     70  C   UNL A   1      49.096  26.771  25.673  1.00  0.00     0.022 A 
BRANCH  67  71
ATOM     71  S   UNL A   1      48.381  27.442  23.063  1.00  0.00     0.124 S 
ATOM     72  O   UNL A   1      48.239  26.008  22.826  1.00  0.00    -0.237 OA
ATOM     73  O   UNL A   1      47.268  28.276  22.620  1.00  0.00    -0.237 OA
ATOM     74  O   UNL A   1      49.712  27.982  22.793  1.00  0.00    -0.744 OA
ENDBRANCH  67  71
ENDBRANCH  50  64
BRANCH  51  75
ATOM     75  C   UNL A   1      38.341  31.308  31.015  1.00  0.00     0.023 A 
ATOM     76  C   UNL A   1      37.295  31.939  30.323  1.00  0.00     0.031 A 
ATOM     77  C   UNL A   1      38.194  31.120  32.401  1.00  0.00     0.131 A 
ATOM     78  C   UNL A   1      36.159  32.379  31.023  1.00  0.00     0.055 A 
ATOM     79  C   UNL A   1      37.043  31.515  33.084  1.00  0.00     0.041 A 
ATOM     80  F   UNL A   1      39.168  30.527  33.112  1.00  0.00    -0.206 F 
ATOM     81  C   UNL A   1      36.020  32.156  32.395  1.00  0.00     0.022 A 
BRANCH  78  82
ATOM     82  S   UNL A   1      34.880  33.297  30.122  1.00  0.00     0.124 S 
ATOM     83  O   UNL A   1      34.287  32.250  29.297  1.00  0.00    -0.237 OA
ATOM     84  O   UNL A   1      34.048  33.806  31.209  1.00  0.00    -0.237 OA
ATOM     85  O   UNL A   1      35.637  34.313  29.394  1.00  0.00    -0.744 OA
ENDBRANCH  78  82
ENDBRANCH  51  75
BRANCH  63  86
ATOM     86  C   UNL A   1      44.630  34.213  30.026  1.00  0.00     0.023 A 
ATOM     87  C   UNL A   1      44.591  35.282  29.114  1.00  0.00     0.031 A 
ATOM     88  C   UNL A   1      45.207  34.445  31.289  1.00  0.00     0.131 A 
ATOM     89  C   UNL A   1      45.168  36.515  29.457  1.00  0.00     0.055 A 
ATOM     90  C   UNL A   1      45.715  35.693  31.649  1.00  0.00     0.041 A 
ATOM     91  F   UNL A   1      45.276  33.461  32.200  1.00  0.00    -0.206 F 
ATOM     92  C   UNL A   1      45.711  36.734  30.727  1.00  0.00     0.022 A 
BRANCH  89  93
ATOM     93  S   UNL A   1      45.294  37.805  28.187  1.00  0.00     0.124 S 
ATOM     94  O   UNL A   1      46.594  38.396  28.486  1.00  0.00    -0.237 OA
ATOM     95  O   UNL A   1      45.212  37.035  26.950  1.00  0.00    -0.237 OA
ATOM     96  O   UNL A   1      44.145  38.667  28.459  1.00  0.00    -0.744 OA
ENDBRANCH  89  93
ENDBRANCH  63  86
ENDBRANCH  37  38
ENDBRANCH  30  32
ENDBRANCH  29  30
ENDBRANCH  28  29
ENDBRANCH  27  28
ENDBRANCH  26  27
ENDBRANCH  25  26
ENDBRANCH  24  25
ENDBRANCH  23  24
ENDBRANCH   1  23
TORSDOF 28
ENDMDL
MODEL 2
REMARK VINA RESULT:      -8.7      2.210      3.325
REMARK SMILES C#CCOc1ccccc1C=C(C#N)C(=O)OCCOCCOCCOCCOC(=O)c1ccc(-c2c3nc(c(-c4cc(S(=O)(=O)[O-])ccc4F)c4ccc([nH]4)c(-c4cc(S(=O)(=O)[O-])ccc4F)c4nc(c(-c5cc(S(=O)(=O)[O-])ccc5F)c5ccc2[nH]5)C=C4)C=C3)cc1
REMARK SMILES IDX 22 1 21 2 20 3 19 4 18 5 17 6 15 7 16 8 12 9 11 10 10 11
REMARK SMILES IDX 5 12 6 13 7 14 9 15 8 16 4 17 3 18 2 19 1 20 13 21 14 22
REMARK SMILES IDX 23 23 24 24 25 25 26 26 27 27 28 28 29 29 30 30 31 31 32 32
REMARK SMILES IDX 33 33 94 34 34 35 93 36 35 37 36 38 37 39 87 40 38 41 92 42
REMARK SMILES IDX 86 43 88 44 39 45 91 46 85 47 84 48 40 50 72 51 52 52 71 53
REMARK SMILES IDX 53 54 56 55 70 56 89 57 54 58 55 59 69 61 90 62 57 63 41 64
REMARK SMILES IDX 42 65 50 66 43 67 49 68 51 69 48 70 44 71 45 72 46 73 47 74
REMARK SMILES IDX 73 75 74 76 82 77 75 78 81 79 83 80 80 81 76 82 77 83 78 84
REMARK SMILES IDX 79 85 58 86 59 87 67 88 60 89 66 90 68 91 65 92 61 93 62 94
REMARK SMILES IDX 63 95 64 96
REMARK H PARENT 88 49 56 60
REMARK Flexibility Score: inf
ROOT
ATOM      1  C   UNL A   1      32.193  21.814  22.477  1.00  0.00     0.188 C 
ENDROOT
BRANCH   1   2
ATOM      2  C   UNL A   1      33.207  22.844  21.932  1.00  0.00     0.188 C 
BRANCH   2   3
ATOM      3  O   UNL A   1      32.721  24.156  21.700  1.00  0.00    -0.376 OA
BRANCH   3   4
ATOM      4  C   UNL A   1      33.366  25.231  22.373  1.00  0.00     0.202 C 
BRANCH   4   5
ATOM      5  C   UNL A   1      34.194  24.886  23.626  1.00  0.00     0.261 C 
BRANCH   5   6
ATOM      6  O   UNL A   1      33.352  24.623  24.754  1.00  0.00    -0.459 OA
BRANCH   6   7
ATOM      7  C   UNL A   1      32.836  25.639  25.494  1.00  0.00     0.348 C 
ATOM      8  O   UNL A   1      33.431  26.398  26.238  1.00  0.00    -0.245 OA
BRANCH   7   9
ATOM      9  C   UNL A   1      31.404  25.802  24.941  1.00  0.00     0.138 C 
ATOM     10  C   UNL A   1      30.241  26.262  24.327  1.00  0.00     0.039 C 
BRANCH  10  11
ATOM     11  C   UNL A   1      29.760  27.561  23.725  1.00  0.00     0.018 A 
ATOM     12  C   UNL A   1      30.557  28.554  23.101  1.00  0.00     0.128 A 
ATOM     13  C   UNL A   1      29.930  29.613  22.405  1.00  0.00     0.047 A 
ATOM     14  C   UNL A   1      28.547  29.733  22.325  1.00  0.00     0.004 A 
ATOM     15  C   UNL A   1      28.356  27.720  23.626  1.00  0.00     0.012 A 
ATOM     16  C   UNL A   1      27.757  28.794  22.959  1.00  0.00     0.001 A 
BRANCH  12  17
ATOM     17  O   UNL A   1      31.916  28.748  23.083  1.00  0.00    -0.480 OA
BRANCH  17  18
ATOM     18  C   UNL A   1      32.688  28.933  24.260  1.00  0.00     0.318 C 
BRANCH  18  19
ATOM     19  C   UNL A   1      32.014  29.951  25.166  1.00  0.00    -0.065 C 
ATOM     20  C   UNL A   1      31.435  30.824  25.944  1.00  0.00     0.007 C 
ENDBRANCH  18  19
ENDBRANCH  17  18
ENDBRANCH  12  17
ENDBRANCH  10  11
BRANCH   9  21
ATOM     21  C   UNL A   1      31.077  26.616  26.182  1.00  0.00     0.107 C 
ATOM     22  N   UNL A   1      30.805  27.293  27.211  1.00  0.00    -0.192 NA
ENDBRANCH   9  21
ENDBRANCH   7   9
ENDBRANCH   6   7
ENDBRANCH   5   6
ENDBRANCH   4   5
ENDBRANCH   3   4
ENDBRANCH   2   3
ENDBRANCH   1   2
BRANCH   1  23
ATOM     23  O   UNL A   1      32.571  20.968  23.543  1.00  0.00    -0.377 OA
BRANCH  23  24
ATOM     24  C   UNL A   1      33.737  21.330  24.261  1.00  0.00     0.188 C 
BRANCH  24  25
ATOM     25  C   UNL A   1      34.445  20.230  25.095  1.00  0.00     0.188 C 
BRANCH  25  26
ATOM     26  O   UNL A   1      35.719  20.587  25.624  1.00  0.00    -0.376 OA
BRANCH  26  27
ATOM     27  C   UNL A   1      36.692  21.105  24.729  1.00  0.00     0.202 C 
BRANCH  27  28
ATOM     28  C   UNL A   1      38.165  21.076  25.167  1.00  0.00     0.261 C 
BRANCH  28  29
ATOM     29  O   UNL A   1      38.544  22.010  26.185  1.00  0.00    -0.460 OA
BRANCH  29  30
ATOM     30  C   UNL A   1      39.864  22.142  26.447  1.00  0.00     0.338 C 
ATOM     31  O   UNL A   1      40.754  21.387  26.095  1.00  0.00    -0.246 OA
BRANCH  30  32
ATOM     32  C   UNL A   1      40.065  23.491  27.021  1.00  0.00     0.060 A 
ATOM     33  C   UNL A   1      39.221  24.537  26.612  1.00  0.00     0.016 A 
ATOM     34  C   UNL A   1      41.012  23.698  28.028  1.00  0.00     0.016 A 
ATOM     35  C   UNL A   1      39.328  25.793  27.202  1.00  0.00     0.010 A 
ATOM     36  C   UNL A   1      41.155  24.972  28.579  1.00  0.00     0.010 A 
ATOM     37  C   UNL A   1      40.335  26.029  28.145  1.00  0.00    -0.014 A 
BRANCH  37  38
ATOM     38  C   UNL A   1      40.715  27.427  28.448  1.00  0.00     0.031 A 
ATOM     39  C   UNL A   1      42.170  27.783  28.321  1.00  0.00     0.074 A 
ATOM     40  C   UNL A   1      39.810  28.355  28.799  1.00  0.00     0.049 A 
ATOM     41  N   UNL A   1      42.781  28.910  28.574  1.00  0.00    -0.248 NA
ATOM     42  C   UNL A   1      43.055  26.707  27.850  1.00  0.00     0.031 C 
ATOM     43  C   UNL A   1      38.371  28.136  28.906  1.00  0.00     0.029 A 
ATOM     44  N   UNL A   1      39.981  29.674  29.141  1.00  0.00    -0.354 N 
ATOM     45  C   UNL A   1      44.123  28.675  28.300  1.00  0.00     0.074 A 
ATOM     46  C   UNL A   1      44.240  27.288  27.906  1.00  0.00     0.031 C 
ATOM     47  C   UNL A   1      37.788  29.279  29.310  1.00  0.00     0.029 A 
ATOM     48  C   UNL A   1      38.818  30.296  29.527  1.00  0.00     0.049 A 
ATOM     49  H   UNL A   1      40.852  30.129  29.113  1.00  0.00     0.167 HD
ATOM     50  C   UNL A   1      45.164  29.542  28.363  1.00  0.00     0.034 A 
ATOM     51  C   UNL A   1      38.619  31.531  30.031  1.00  0.00     0.034 A 
ATOM     52  C   UNL A   1      45.029  30.912  28.790  1.00  0.00     0.049 A 
ATOM     53  C   UNL A   1      39.803  32.455  30.194  1.00  0.00     0.074 A 
ATOM     54  C   UNL A   1      46.005  31.885  28.885  1.00  0.00     0.029 A 
ATOM     55  N   UNL A   1      43.842  31.495  29.221  1.00  0.00    -0.354 N 
ATOM     56  N   UNL A   1      41.069  32.236  29.918  1.00  0.00    -0.248 NA
ATOM     57  C   UNL A   1      39.529  33.795  30.729  1.00  0.00     0.031 C 
ATOM     58  C   UNL A   1      45.430  33.026  29.456  1.00  0.00     0.029 A 
ATOM     59  C   UNL A   1      44.072  32.802  29.625  1.00  0.00     0.049 A 
ATOM     60  H   UNL A   1      42.966  31.047  29.236  1.00  0.00     0.167 HD
ATOM     61  C   UNL A   1      41.738  33.420  30.221  1.00  0.00     0.074 A 
ATOM     62  C   UNL A   1      40.731  34.352  30.690  1.00  0.00     0.031 C 
ATOM     63  C   UNL A   1      43.061  33.715  30.113  1.00  0.00     0.034 A 
BRANCH  50  64
ATOM     64  C   UNL A   1      46.533  28.990  28.036  1.00  0.00     0.023 A 
ATOM     65  C   UNL A   1      47.346  28.394  29.017  1.00  0.00     0.031 A 
ATOM     66  C   UNL A   1      47.066  29.139  26.744  1.00  0.00     0.131 A 
ATOM     67  C   UNL A   1      48.679  28.071  28.719  1.00  0.00     0.055 A 
ATOM     68  C   UNL A   1      48.360  28.722  26.428  1.00  0.00     0.041 A 
ATOM     69  F   UNL A   1      46.351  29.726  25.771  1.00  0.00    -0.206 F 
ATOM     70  C   UNL A   1      49.183  28.204  27.424  1.00  0.00     0.022 A 
BRANCH  67  71
ATOM     71  S   UNL A   1      49.797  27.665  30.090  1.00  0.00     0.124 S 
ATOM     72  O   UNL A   1      51.102  27.733  29.437  1.00  0.00    -0.237 OA
ATOM     73  O   UNL A   1      49.509  28.721  31.055  1.00  0.00    -0.237 OA
ATOM     74  O   UNL A   1      49.378  26.323  30.490  1.00  0.00    -0.744 OA
ENDBRANCH  67  71
ENDBRANCH  50  64
BRANCH  51  75
ATOM     75  C   UNL A   1      37.255  31.946  30.466  1.00  0.00     0.023 A 
ATOM     76  C   UNL A   1      36.373  32.604  29.595  1.00  0.00     0.031 A 
ATOM     77  C   UNL A   1      36.819  31.699  31.781  1.00  0.00     0.131 A 
ATOM     78  C   UNL A   1      35.110  33.012  30.054  1.00  0.00     0.055 A 
ATOM     79  C   UNL A   1      35.545  32.063  32.219  1.00  0.00     0.041 A 
ATOM     80  F   UNL A   1      37.626  31.078  32.657  1.00  0.00    -0.206 F 
ATOM     81  C   UNL A   1      34.685  32.731  31.355  1.00  0.00     0.022 A 
BRANCH  78  82
ATOM     82  S   UNL A   1      34.041  33.966  28.941  1.00  0.00     0.124 S 
ATOM     83  O   UNL A   1      34.992  34.892  28.337  1.00  0.00    -0.237 OA
ATOM     84  O   UNL A   1      33.512  32.926  28.063  1.00  0.00    -0.237 OA
ATOM     85  O   UNL A   1      33.063  34.572  29.841  1.00  0.00    -0.744 OA
ENDBRANCH  78  82
ENDBRANCH  51  75
BRANCH  63  86
ATOM     86  C   UNL A   1      43.491  35.121  30.469  1.00  0.00     0.023 A 
ATOM     87  C   UNL A   1      43.503  36.159  29.523  1.00  0.00     0.031 A 
ATOM     88  C   UNL A   1      43.891  35.423  31.785  1.00  0.00     0.131 A 
ATOM     89  C   UNL A   1      43.958  37.436  29.891  1.00  0.00     0.055 A 
ATOM     90  C   UNL A   1      44.275  36.710  32.161  1.00  0.00     0.041 A 
ATOM     91  F   UNL A   1      43.904  34.470  32.731  1.00  0.00    -0.206 F 
ATOM     92  C   UNL A   1      44.324  37.723  31.209  1.00  0.00     0.022 A 
BRANCH  89  93
ATOM     93  S   UNL A   1      44.164  38.696  28.602  1.00  0.00     0.124 S 
ATOM     94  O   UNL A   1      43.529  39.859  29.214  1.00  0.00    -0.237 OA
ATOM     95  O   UNL A   1      45.614  38.762  28.458  1.00  0.00    -0.237 OA
ATOM     96  O   UNL A   1      43.452  38.133  27.456  1.00  0.00    -0.744 OA
ENDBRANCH  89  93
ENDBRANCH  63  86
ENDBRANCH  37  38
ENDBRANCH  30  32
ENDBRANCH  29  30
ENDBRANCH  28  29
ENDBRANCH  27  28
ENDBRANCH  26  27
ENDBRANCH  25  26
ENDBRANCH  24  25
ENDBRANCH  23  24
ENDBRANCH   1  23
TORSDOF 28
ENDMDL
MODEL 3
REMARK VINA RESULT:      -8.0      5.521     12.384
REMARK SMILES C#CCOc1ccccc1C=C(C#N)C(=O)OCCOCCOCCOCCOC(=O)c1ccc(-c2c3nc(c(-c4cc(S(=O)(=O)[O-])ccc4F)c4ccc([nH]4)c(-c4cc(S(=O)(=O)[O-])ccc4F)c4nc(c(-c5cc(S(=O)(=O)[O-])ccc5F)c5ccc2[nH]5)C=C4)C=C3)cc1
REMARK SMILES IDX 22 1 21 2 20 3 19 4 18 5 17 6 15 7 16 8 12 9 11 10 10 11
REMARK SMILES IDX 5 12 6 13 7 14 9 15 8 16 4 17 3 18 2 19 1 20 13 21 14 22
REMARK SMILES IDX 23 23 24 24 25 25 26 26 27 27 28 28 29 29 30 30 31 31 32 32
REMARK SMILES IDX 33 33 94 34 34 35 93 36 35 37 36 38 37 39 87 40 38 41 92 42
REMARK SMILES IDX 86 43 88 44 39 45 91 46 85 47 84 48 40 50 72 51 52 52 71 53
REMARK SMILES IDX 53 54 56 55 70 56 89 57 54 58 55 59 69 61 90 62 57 63 41 64
REMARK SMILES IDX 42 65 50 66 43 67 49 68 51 69 48 70 44 71 45 72 46 73 47 74
REMARK SMILES IDX 73 75 74 76 82 77 75 78 81 79 83 80 80 81 76 82 77 83 78 84
REMARK SMILES IDX 79 85 58 86 59 87 67 88 60 89 66 90 68 91 65 92 61 93 62 94
REMARK SMILES IDX 63 95 64 96
REMARK H PARENT 88 49 56 60
REMARK Flexibility Score: inf
ROOT
ATOM      1  C   UNL A   1      34.543  36.338  32.783  1.00  0.00     0.188 C 
ENDROOT
BRANCH   1   2
ATOM      2  C   UNL A   1      35.103  35.238  33.711  1.00  0.00     0.188 C 
BRANCH   2   3
ATOM      3  O   UNL A   1      35.678  34.104  33.083  1.00  0.00    -0.376 OA
BRANCH   3   4
ATOM      4  C   UNL A   1      36.231  34.274  31.783  1.00  0.00     0.202 C 
BRANCH   4   5
ATOM      5  C   UNL A   1      37.665  33.760  31.550  1.00  0.00     0.261 C 
BRANCH   5   6
ATOM      6  O   UNL A   1      38.638  34.653  32.102  1.00  0.00    -0.459 OA
BRANCH   6   7
ATOM      7  C   UNL A   1      39.605  34.201  32.943  1.00  0.00     0.348 C 
ATOM      8  O   UNL A   1      39.464  33.710  34.049  1.00  0.00    -0.245 OA
BRANCH   7   9
ATOM      9  C   UNL A   1      40.870  34.164  32.058  1.00  0.00     0.138 C 
ATOM     10  C   UNL A   1      42.109  33.875  31.490  1.00  0.00     0.039 C 
BRANCH  10  11
ATOM     11  C   UNL A   1      43.324  33.061  31.866  1.00  0.00     0.018 A 
ATOM     12  C   UNL A   1      43.663  31.771  31.384  1.00  0.00     0.128 A 
ATOM     13  C   UNL A   1      44.938  31.233  31.675  1.00  0.00     0.047 A 
ATOM     14  C   UNL A   1      45.876  31.918  32.440  1.00  0.00     0.004 A 
ATOM     15  C   UNL A   1      44.303  33.724  32.645  1.00  0.00     0.012 A 
ATOM     16  C   UNL A   1      45.546  33.160  32.947  1.00  0.00     0.001 A 
BRANCH  12  17
ATOM     17  O   UNL A   1      42.931  30.839  30.693  1.00  0.00    -0.480 OA
BRANCH  17  18
ATOM     18  C   UNL A   1      42.112  31.166  29.580  1.00  0.00     0.318 C 
BRANCH  18  19
ATOM     19  C   UNL A   1      42.294  30.131  28.482  1.00  0.00    -0.065 C 
ATOM     20  C   UNL A   1      42.450  29.243  27.540  1.00  0.00     0.007 C 
ENDBRANCH  18  19
ENDBRANCH  17  18
ENDBRANCH  12  17
ENDBRANCH  10  11
BRANCH   9  21
ATOM     21  C   UNL A   1      41.544  35.066  33.079  1.00  0.00     0.107 C 
ATOM     22  N   UNL A   1      42.103  35.814  33.926  1.00  0.00    -0.192 NA
ENDBRANCH   9  21
ENDBRANCH   7   9
ENDBRANCH   6   7
ENDBRANCH   5   6
ENDBRANCH   4   5
ENDBRANCH   3   4
ENDBRANCH   2   3
ENDBRANCH   1   2
BRANCH   1  23
ATOM     23  O   UNL A   1      33.182  36.698  32.879  1.00  0.00    -0.377 OA
BRANCH  23  24
ATOM     24  C   UNL A   1      32.271  35.974  32.072  1.00  0.00     0.188 C 
BRANCH  24  25
ATOM     25  C   UNL A   1      32.853  35.087  30.940  1.00  0.00     0.188 C 
BRANCH  25  26
ATOM     26  O   UNL A   1      32.960  35.714  29.664  1.00  0.00    -0.376 OA
BRANCH  26  27
ATOM     27  C   UNL A   1      33.999  35.289  28.797  1.00  0.00     0.202 C 
BRANCH  27  28
ATOM     28  C   UNL A   1      33.834  33.939  28.080  1.00  0.00     0.261 C 
BRANCH  28  29
ATOM     29  O   UNL A   1      34.792  32.924  28.407  1.00  0.00    -0.460 OA
BRANCH  29  30
ATOM     30  C   UNL A   1      34.570  31.681  27.923  1.00  0.00     0.338 C 
ATOM     31  O   UNL A   1      33.742  31.364  27.087  1.00  0.00    -0.246 OA
BRANCH  30  32
ATOM     32  C   UNL A   1      35.675  30.820  28.401  1.00  0.00     0.060 A 
ATOM     33  C   UNL A   1      35.811  30.592  29.780  1.00  0.00     0.016 A 
ATOM     34  C   UNL A   1      36.506  30.165  27.489  1.00  0.00     0.016 A 
ATOM     35  C   UNL A   1      36.784  29.714  30.251  1.00  0.00     0.010 A 
ATOM     36  C   UNL A   1      37.517  29.328  27.965  1.00  0.00     0.010 A 
ATOM     37  C   UNL A   1      37.677  29.126  29.348  1.00  0.00    -0.014 A 
BRANCH  37  38
ATOM     38  C   UNL A   1      38.939  28.550  29.865  1.00  0.00     0.031 A 
ATOM     39  C   UNL A   1      39.452  29.089  31.172  1.00  0.00     0.074 A 
ATOM     40  C   UNL A   1      39.597  27.572  29.222  1.00  0.00     0.049 A 
ATOM     41  N   UNL A   1      40.549  28.804  31.822  1.00  0.00    -0.248 NA
ATOM     42  C   UNL A   1      38.605  30.098  31.826  1.00  0.00     0.031 C 
ATOM     43  C   UNL A   1      39.169  26.941  27.977  1.00  0.00     0.029 A 
ATOM     44  N   UNL A   1      40.780  26.948  29.531  1.00  0.00    -0.354 N 
ATOM     45  C   UNL A   1      40.527  29.605  32.958  1.00  0.00     0.074 A 
ATOM     46  C   UNL A   1      39.332  30.417  32.882  1.00  0.00     0.031 C 
ATOM     47  C   UNL A   1      40.090  26.030  27.614  1.00  0.00     0.029 A 
ATOM     48  C   UNL A   1      41.188  26.043  28.581  1.00  0.00     0.049 A 
ATOM     49  H   UNL A   1      41.286  27.131  30.354  1.00  0.00     0.167 HD
ATOM     50  C   UNL A   1      41.420  29.653  33.976  1.00  0.00     0.034 A 
ATOM     51  C   UNL A   1      42.335  25.338  28.489  1.00  0.00     0.034 A 
ATOM     52  C   UNL A   1      42.622  28.858  34.014  1.00  0.00     0.049 A 
ATOM     53  C   UNL A   1      43.370  25.476  29.579  1.00  0.00     0.074 A 
ATOM     54  C   UNL A   1      43.594  28.812  34.995  1.00  0.00     0.029 A 
ATOM     55  N   UNL A   1      43.029  27.986  33.009  1.00  0.00    -0.354 N 
ATOM     56  N   UNL A   1      43.339  26.222  30.661  1.00  0.00    -0.248 NA
ATOM     57  C   UNL A   1      44.591  24.673  29.440  1.00  0.00     0.031 C 
ATOM     58  C   UNL A   1      44.629  27.985  34.544  1.00  0.00     0.029 A 
ATOM     59  C   UNL A   1      44.260  27.433  33.327  1.00  0.00     0.049 A 
ATOM     60  H   UNL A   1      42.517  27.790  32.191  1.00  0.00     0.167 HD
ATOM     61  C   UNL A   1      44.524  25.956  31.344  1.00  0.00     0.074 A 
ATOM     62  C   UNL A   1      45.240  24.973  30.556  1.00  0.00     0.031 C 
ATOM     63  C   UNL A   1      44.975  26.469  32.520  1.00  0.00     0.034 A 
BRANCH  50  64
ATOM     64  C   UNL A   1      41.150  30.657  35.074  1.00  0.00     0.023 A 
ATOM     65  C   UNL A   1      39.934  30.674  35.781  1.00  0.00     0.031 A 
ATOM     66  C   UNL A   1      42.089  31.663  35.359  1.00  0.00     0.131 A 
ATOM     67  C   UNL A   1      39.647  31.735  36.654  1.00  0.00     0.055 A 
ATOM     68  C   UNL A   1      41.838  32.659  36.304  1.00  0.00     0.041 A 
ATOM     69  F   UNL A   1      43.256  31.718  34.698  1.00  0.00    -0.206 F 
ATOM     70  C   UNL A   1      40.602  32.713  36.942  1.00  0.00     0.022 A 
BRANCH  67  71
ATOM     71  S   UNL A   1      37.943  31.929  37.249  1.00  0.00     0.124 S 
ATOM     72  O   UNL A   1      37.276  32.465  36.065  1.00  0.00    -0.237 OA
ATOM     73  O   UNL A   1      37.583  30.566  37.623  1.00  0.00    -0.237 OA
ATOM     74  O   UNL A   1      38.073  32.869  38.360  1.00  0.00    -0.744 OA
ENDBRANCH  67  71
ENDBRANCH  50  64
BRANCH  51  75
ATOM     75  C   UNL A   1      42.585  24.480  27.295  1.00  0.00     0.023 A 
ATOM     76  C   UNL A   1      42.202  23.129  27.267  1.00  0.00     0.031 A 
ATOM     77  C   UNL A   1      43.232  25.004  26.162  1.00  0.00     0.131 A 
ATOM     78  C   UNL A   1      42.490  22.344  26.139  1.00  0.00     0.055 A 
ATOM     79  C   UNL A   1      43.472  24.233  25.024  1.00  0.00     0.041 A 
ATOM     80  F   UNL A   1      43.624  26.288  26.139  1.00  0.00    -0.206 F 
ATOM     81  C   UNL A   1      43.107  22.892  25.011  1.00  0.00     0.022 A 
BRANCH  78  82
ATOM     82  S   UNL A   1      42.092  20.574  26.181  1.00  0.00     0.124 S 
ATOM     83  O   UNL A   1      42.399  20.233  27.566  1.00  0.00    -0.237 OA
ATOM     84  O   UNL A   1      40.677  20.573  25.818  1.00  0.00    -0.237 OA
ATOM     85  O   UNL A   1      42.988  19.998  25.181  1.00  0.00    -0.744 OA
ENDBRANCH  78  82
ENDBRANCH  51  75
BRANCH  63  86
ATOM     86  C   UNL A   1      46.291  25.942  33.048  1.00  0.00     0.023 A 
ATOM     87  C   UNL A   1      46.372  24.753  33.794  1.00  0.00     0.031 A 
ATOM     88  C   UNL A   1      47.484  26.643  32.793  1.00  0.00     0.131 A 
ATOM     89  C   UNL A   1      47.610  24.332  34.305  1.00  0.00     0.055 A 
ATOM     90  C   UNL A   1      48.721  26.182  33.244  1.00  0.00     0.041 A 
ATOM     91  F   UNL A   1      47.467  27.787  32.090  1.00  0.00    -0.206 F 
ATOM     92  C   UNL A   1      48.788  25.027  34.017  1.00  0.00     0.022 A 
BRANCH  89  93
ATOM     93  S   UNL A   1      47.652  22.917  35.439  1.00  0.00     0.124 S 
ATOM     94  O   UNL A   1      46.231  22.636  35.624  1.00  0.00    -0.237 OA
ATOM     95  O   UNL A   1      48.404  21.926  34.676  1.00  0.00    -0.237 OA
ATOM     96  O   UNL A   1      48.337  23.442  36.619  1.00  0.00    -0.744 OA
ENDBRANCH  89  93
ENDBRANCH  63  86
ENDBRANCH  37  38
ENDBRANCH  30  32
ENDBRANCH  29  30
ENDBRANCH  28  29
ENDBRANCH  27  28
ENDBRANCH  26  27
ENDBRANCH  25  26
ENDBRANCH  24  25
ENDBRANCH  23  24
ENDBRANCH   1  23
TORSDOF 28
ENDMDL
