MODEL 1
REMARK VINA RESULT:      -9.2      0.000      0.000
REMARK SMILES O=C(OCCOCCOCCOCCOC(=O)c1ccccc1C[N@H+]1CCCC[C@@H]1CCn1cccn1)c1ccc(-c2c3nc(c(-c4cc(S(=O)(=O)[O-])ccc4F)c4ccc([nH]4)c(-c4cc(S(=O)(=O)[O-])ccc4F)c4nc(c(-c5cc(S(=O)(=O)[O-])ccc5F)c5ccc2[nH]5)C=C4)C=C3)cc1
REMARK SMILES IDX 10 1 9 2 8 3 7 4 6 5 5 6 4 7 3 8 2 9 1 10 38 11 39 12 100 13
REMARK SMILES IDX 40 14 99 15 41 16 42 17 43 18 93 19 44 20 98 21 92 22 94 23
REMARK SMILES IDX 45 24 97 25 91 26 90 27 46 29 78 30 58 31 77 32 59 33 62 34
REMARK SMILES IDX 76 35 95 36 60 37 61 38 75 40 96 41 63 42 47 43 48 44 56 45
REMARK SMILES IDX 49 46 55 47 57 48 54 49 50 50 51 51 52 52 53 53 79 54 80 55
REMARK SMILES IDX 88 56 81 57 87 58 89 59 86 60 82 61 83 62 84 63 85 64 64 65
REMARK SMILES IDX 65 66 73 67 66 68 72 69 74 70 71 71 67 72 68 73 69 74 70 75
REMARK SMILES IDX 11 76 12 77 13 78 14 79 15 80 16 81 17 82 18 83 19 84 23 85
REMARK SMILES IDX 20 86 22 87 21 88 24 89 25 90 26 91 30 92 27 94 29 95 28 96
REMARK SMILES IDX 31 97 32 98 33 99 34 100 37 101 35 102 36 103
REMARK H PARENT 94 28 62 39 25 93
REMARK Flexibility Score: inf
ROOT
ATOM      1  C   UNL A   1      36.913  20.901  25.177  1.00  0.00     0.188 C 
ENDROOT
BRANCH   1   2
ATOM      2  O   UNL A   1      38.314  21.008  25.066  1.00  0.00    -0.377 OA
BRANCH   2   3
ATOM      3  C   UNL A   1      39.001  19.863  25.542  1.00  0.00     0.188 C 
BRANCH   3   4
ATOM      4  C   UNL A   1      40.376  20.072  26.211  1.00  0.00     0.188 C 
BRANCH   4   5
ATOM      5  O   UNL A   1      41.259  21.167  26.002  1.00  0.00    -0.376 OA
BRANCH   5   6
ATOM      6  C   UNL A   1      41.323  22.449  26.597  1.00  0.00     0.202 C 
BRANCH   6   7
ATOM      7  C   UNL A   1      40.275  23.027  27.546  1.00  0.00     0.261 C 
BRANCH   7   8
ATOM      8  O   UNL A   1      39.536  24.111  27.011  1.00  0.00    -0.460 OA
BRANCH   8   9
ATOM      9  C   UNL A   1      40.030  25.290  26.586  1.00  0.00     0.338 C 
ATOM     10  O   UNL A   1      40.575  25.309  25.482  1.00  0.00    -0.246 OA
BRANCH   9  11
ATOM     11  C   UNL A   1      40.035  26.547  27.395  1.00  0.00     0.060 A 
ATOM     12  C   UNL A   1      40.370  27.836  26.964  1.00  0.00     0.016 A 
ATOM     13  C   UNL A   1      39.640  26.373  28.734  1.00  0.00     0.016 A 
ATOM     14  C   UNL A   1      40.545  28.856  27.873  1.00  0.00     0.010 A 
ATOM     15  C   UNL A   1      39.772  27.398  29.647  1.00  0.00     0.010 A 
ATOM     16  C   UNL A   1      40.325  28.594  29.217  1.00  0.00    -0.014 A 
BRANCH  16  17
ATOM     17  C   UNL A   1      40.669  29.636  30.158  1.00  0.00     0.031 A 
ATOM     18  C   UNL A   1      39.540  30.538  30.486  1.00  0.00     0.074 A 
ATOM     19  C   UNL A   1      41.913  29.693  30.674  1.00  0.00     0.049 A 
ATOM     20  N   UNL A   1      39.438  31.800  30.232  1.00  0.00    -0.248 NA
ATOM     21  C   UNL A   1      38.294  29.929  30.982  1.00  0.00     0.031 C 
ATOM     22  C   UNL A   1      42.998  28.717  30.523  1.00  0.00     0.029 A 
ATOM     23  N   UNL A   1      42.446  30.597  31.531  1.00  0.00    -0.354 N 
ATOM     24  C   UNL A   1      38.219  32.193  30.775  1.00  0.00     0.074 A 
ATOM     25  C   UNL A   1      37.483  30.985  31.026  1.00  0.00     0.031 C 
ATOM     26  C   UNL A   1      43.941  28.949  31.465  1.00  0.00     0.029 A 
ATOM     27  C   UNL A   1      43.594  30.162  32.187  1.00  0.00     0.049 A 
ATOM     28  H   UNL A   1      42.054  31.488  31.676  1.00  0.00     0.167 HD
ATOM     29  C   UNL A   1      38.036  33.465  31.222  1.00  0.00     0.034 A 
ATOM     30  C   UNL A   1      44.158  30.718  33.294  1.00  0.00     0.034 A 
ATOM     31  C   UNL A   1      38.980  34.370  30.607  1.00  0.00     0.049 A 
ATOM     32  C   UNL A   1      43.661  32.119  33.359  1.00  0.00     0.074 A 
ATOM     33  C   UNL A   1      39.252  34.720  29.297  1.00  0.00     0.029 A 
ATOM     34  N   UNL A   1      40.091  34.747  31.328  1.00  0.00    -0.354 N 
ATOM     35  N   UNL A   1      43.961  33.018  32.458  1.00  0.00    -0.248 NA
ATOM     36  C   UNL A   1      42.427  32.370  34.090  1.00  0.00     0.031 C 
ATOM     37  C   UNL A   1      40.673  34.794  29.227  1.00  0.00     0.029 A 
ATOM     38  C   UNL A   1      41.187  34.594  30.511  1.00  0.00     0.049 A 
ATOM     39  H   UNL A   1      40.099  35.069  32.259  1.00  0.00     0.167 HD
ATOM     40  C   UNL A   1      42.773  33.687  32.204  1.00  0.00     0.074 A 
ATOM     41  C   UNL A   1      41.880  33.298  33.297  1.00  0.00     0.031 C 
ATOM     42  C   UNL A   1      42.517  34.252  30.985  1.00  0.00     0.034 A 
BRANCH  29  43
ATOM     43  C   UNL A   1      37.276  33.806  32.485  1.00  0.00     0.023 A 
ATOM     44  C   UNL A   1      37.919  33.572  33.714  1.00  0.00     0.031 A 
ATOM     45  C   UNL A   1      35.884  34.058  32.558  1.00  0.00     0.131 A 
ATOM     46  C   UNL A   1      37.184  33.502  34.910  1.00  0.00     0.055 A 
ATOM     47  C   UNL A   1      35.170  34.051  33.758  1.00  0.00     0.041 A 
ATOM     48  F   UNL A   1      35.116  34.229  31.477  1.00  0.00    -0.206 F 
ATOM     49  C   UNL A   1      35.813  33.740  34.940  1.00  0.00     0.022 A 
BRANCH  46  50
ATOM     50  S   UNL A   1      38.023  32.913  36.402  1.00  0.00     0.124 S 
ATOM     51  O   UNL A   1      39.426  33.047  36.023  1.00  0.00    -0.237 OA
ATOM     52  O   UNL A   1      37.534  33.849  37.409  1.00  0.00    -0.237 OA
ATOM     53  O   UNL A   1      37.542  31.541  36.542  1.00  0.00    -0.744 OA
ENDBRANCH  46  50
ENDBRANCH  29  43
BRANCH  30  54
ATOM     54  C   UNL A   1      44.731  29.978  34.461  1.00  0.00     0.023 A 
ATOM     55  C   UNL A   1      44.142  28.816  35.008  1.00  0.00     0.031 A 
ATOM     56  C   UNL A   1      46.031  30.296  34.919  1.00  0.00     0.131 A 
ATOM     57  C   UNL A   1      44.844  28.041  35.966  1.00  0.00     0.055 A 
ATOM     58  C   UNL A   1      46.718  29.530  35.864  1.00  0.00     0.041 A 
ATOM     59  F   UNL A   1      46.723  31.322  34.400  1.00  0.00    -0.206 F 
ATOM     60  C   UNL A   1      46.129  28.392  36.386  1.00  0.00     0.022 A 
BRANCH  57  61
ATOM     61  S   UNL A   1      44.125  26.502  36.635  1.00  0.00     0.124 S 
ATOM     62  O   UNL A   1      43.292  26.043  35.530  1.00  0.00    -0.237 OA
ATOM     63  O   UNL A   1      45.310  25.705  36.930  1.00  0.00    -0.237 OA
ATOM     64  O   UNL A   1      43.385  26.954  37.814  1.00  0.00    -0.744 OA
ENDBRANCH  57  61
ENDBRANCH  30  54
BRANCH  42  65
ATOM     65  C   UNL A   1      43.653  34.361  29.981  1.00  0.00     0.023 A 
ATOM     66  C   UNL A   1      43.988  33.384  29.012  1.00  0.00     0.031 A 
ATOM     67  C   UNL A   1      44.345  35.584  29.933  1.00  0.00     0.131 A 
ATOM     68  C   UNL A   1      44.989  33.655  28.053  1.00  0.00     0.055 A 
ATOM     69  C   UNL A   1      45.316  35.855  28.972  1.00  0.00     0.041 A 
ATOM     70  F   UNL A   1      44.057  36.563  30.807  1.00  0.00    -0.206 F 
ATOM     71  C   UNL A   1      45.647  34.889  28.030  1.00  0.00     0.022 A 
BRANCH  68  72
ATOM     72  S   UNL A   1      45.476  32.402  26.819  1.00  0.00     0.124 S 
ATOM     73  O   UNL A   1      44.206  31.975  26.244  1.00  0.00    -0.237 OA
ATOM     74  O   UNL A   1      46.360  33.157  25.933  1.00  0.00    -0.237 OA
ATOM     75  O   UNL A   1      46.155  31.381  27.621  1.00  0.00    -0.744 OA
ENDBRANCH  68  72
ENDBRANCH  42  65
ENDBRANCH  16  17
ENDBRANCH   9  11
ENDBRANCH   8   9
ENDBRANCH   7   8
ENDBRANCH   6   7
ENDBRANCH   5   6
ENDBRANCH   4   5
ENDBRANCH   3   4
ENDBRANCH   2   3
ENDBRANCH   1   2
BRANCH   1  76
ATOM     76  C   UNL A   1      36.246  22.151  25.796  1.00  0.00     0.188 C 
BRANCH  76  77
ATOM     77  O   UNL A   1      36.560  23.464  25.354  1.00  0.00    -0.376 OA
BRANCH  77  78
ATOM     78  C   UNL A   1      35.595  24.503  25.329  1.00  0.00     0.202 C 
BRANCH  78  79
ATOM     79  C   UNL A   1      34.192  24.325  25.917  1.00  0.00     0.261 C 
BRANCH  79  80
ATOM     80  O   UNL A   1      33.347  25.471  25.861  1.00  0.00    -0.460 OA
BRANCH  80  81
ATOM     81  C   UNL A   1      33.607  26.383  24.903  1.00  0.00     0.338 C 
ATOM     82  O   UNL A   1      33.847  26.166  23.724  1.00  0.00    -0.246 OA
BRANCH  81  83
ATOM     83  C   UNL A   1      33.427  27.740  25.482  1.00  0.00     0.068 A 
ATOM     84  C   UNL A   1      34.120  28.004  26.678  1.00  0.00     0.016 A 
ATOM     85  C   UNL A   1      32.638  28.736  24.872  1.00  0.00     0.021 A 
ATOM     86  C   UNL A   1      34.069  29.266  27.260  1.00  0.00     0.001 A 
ATOM     87  C   UNL A   1      32.604  30.002  25.484  1.00  0.00     0.010 A 
ATOM     88  C   UNL A   1      33.309  30.263  26.664  1.00  0.00     0.001 A 
BRANCH  85  89
ATOM     89  C   UNL A   1      31.782  28.481  23.638  1.00  0.00     0.300 C 
BRANCH  89  90
ATOM     90  N   UNL A   1      30.313  28.652  23.808  1.00  0.00    -0.329 N 
ATOM     91  C   UNL A   1      29.853  29.841  23.066  1.00  0.00     0.262 C 
ATOM     92  C   UNL A   1      29.522  27.442  23.470  1.00  0.00     0.186 C 
ATOM     93  H   UNL A   1      30.146  28.797  24.803  1.00  0.00     0.348 HD
ATOM     94  C   UNL A   1      28.372  30.151  23.171  1.00  0.00     0.062 C 
ATOM     95  C   UNL A   1      28.009  27.741  23.603  1.00  0.00     0.065 C 
ATOM     96  C   UNL A   1      27.577  28.930  22.757  1.00  0.00     0.012 C 
BRANCH  92  97
ATOM     97  C   UNL A   1      29.888  26.248  24.393  1.00  0.00     0.088 C 
BRANCH  97  98
ATOM     98  C   UNL A   1      30.405  25.002  23.670  1.00  0.00     0.150 C 
BRANCH  98  99
ATOM     99  N   UNL A   1      30.713  23.907  24.572  1.00  0.00    -0.273 N 
ATOM    100  C   UNL A   1      30.389  23.816  25.895  1.00  0.00     0.108 A 
ATOM    101  N   UNL A   1      31.413  22.849  24.123  1.00  0.00    -0.182 NA
ATOM    102  C   UNL A   1      30.964  22.650  26.347  1.00  0.00     0.042 A 
ATOM    103  C   UNL A   1      31.599  22.106  25.216  1.00  0.00     0.135 A 
ENDBRANCH  98  99
ENDBRANCH  97  98
ENDBRANCH  92  97
ENDBRANCH  89  90
ENDBRANCH  85  89
ENDBRANCH  81  83
ENDBRANCH  80  81
ENDBRANCH  79  80
ENDBRANCH  78  79
ENDBRANCH  77  78
ENDBRANCH  76  77
ENDBRANCH   1  76
TORSDOF 28
ENDMDL
MODEL 2
REMARK VINA RESULT:      -8.9      5.445     10.838
REMARK SMILES O=C(OCCOCCOCCOCCOC(=O)c1ccccc1C[N@H+]1CCCC[C@@H]1CCn1cccn1)c1ccc(-c2c3nc(c(-c4cc(S(=O)(=O)[O-])ccc4F)c4ccc([nH]4)c(-c4cc(S(=O)(=O)[O-])ccc4F)c4nc(c(-c5cc(S(=O)(=O)[O-])ccc5F)c5ccc2[nH]5)C=C4)C=C3)cc1
REMARK SMILES IDX 10 1 9 2 8 3 7 4 6 5 5 6 4 7 3 8 2 9 1 10 38 11 39 12 100 13
REMARK SMILES IDX 40 14 99 15 41 16 42 17 43 18 93 19 44 20 98 21 92 22 94 23
REMARK SMILES IDX 45 24 97 25 91 26 90 27 46 29 78 30 58 31 77 32 59 33 62 34
REMARK SMILES IDX 76 35 95 36 60 37 61 38 75 40 96 41 63 42 47 43 48 44 56 45
REMARK SMILES IDX 49 46 55 47 57 48 54 49 50 50 51 51 52 52 53 53 79 54 80 55
REMARK SMILES IDX 88 56 81 57 87 58 89 59 86 60 82 61 83 62 84 63 85 64 64 65
REMARK SMILES IDX 65 66 73 67 66 68 72 69 74 70 71 71 67 72 68 73 69 74 70 75
REMARK SMILES IDX 11 76 12 77 13 78 14 79 15 80 16 81 17 82 18 83 19 84 23 85
REMARK SMILES IDX 20 86 22 87 21 88 24 89 25 90 26 91 30 92 27 94 29 95 28 96
REMARK SMILES IDX 31 97 32 98 33 99 34 100 37 101 35 102 36 103
REMARK H PARENT 94 28 62 39 25 93
REMARK Flexibility Score: inf
ROOT
ATOM      1  C   UNL A   1      41.822  26.620  36.554  1.00  0.00     0.188 C 
ENDROOT
BRANCH   1   2
ATOM      2  O   UNL A   1      43.080  26.214  37.040  1.00  0.00    -0.377 OA
BRANCH   2   3
ATOM      3  C   UNL A   1      43.815  25.441  36.107  1.00  0.00     0.188 C 
BRANCH   3   4
ATOM      4  C   UNL A   1      44.822  24.409  36.658  1.00  0.00     0.188 C 
BRANCH   4   5
ATOM      5  O   UNL A   1      44.838  23.014  36.383  1.00  0.00    -0.376 OA
BRANCH   5   6
ATOM      6  C   UNL A   1      45.705  22.222  35.594  1.00  0.00     0.202 C 
BRANCH   6   7
ATOM      7  C   UNL A   1      47.193  22.014  35.867  1.00  0.00     0.261 C 
BRANCH   7   8
ATOM      8  O   UNL A   1      48.040  22.361  34.786  1.00  0.00    -0.460 OA
BRANCH   8   9
ATOM      9  C   UNL A   1      48.655  23.544  34.593  1.00  0.00     0.338 C 
ATOM     10  O   UNL A   1      49.668  23.768  35.257  1.00  0.00    -0.246 OA
BRANCH   9  11
ATOM     11  C   UNL A   1      48.147  24.627  33.697  1.00  0.00     0.060 A 
ATOM     12  C   UNL A   1      46.833  25.101  33.596  1.00  0.00     0.016 A 
ATOM     13  C   UNL A   1      49.134  25.219  32.889  1.00  0.00     0.016 A 
ATOM     14  C   UNL A   1      46.470  25.946  32.569  1.00  0.00     0.010 A 
ATOM     15  C   UNL A   1      48.788  26.096  31.883  1.00  0.00     0.010 A 
ATOM     16  C   UNL A   1      47.445  26.362  31.675  1.00  0.00    -0.014 A 
BRANCH  16  17
ATOM     17  C   UNL A   1      47.005  27.116  30.522  1.00  0.00     0.031 A 
ATOM     18  C   UNL A   1      46.525  28.479  30.851  1.00  0.00     0.074 A 
ATOM     19  C   UNL A   1      47.088  26.573  29.292  1.00  0.00     0.049 A 
ATOM     20  N   UNL A   1      45.331  28.951  30.713  1.00  0.00    -0.248 NA
ATOM     21  C   UNL A   1      47.431  29.365  31.602  1.00  0.00     0.031 C 
ATOM     22  C   UNL A   1      47.726  25.311  28.903  1.00  0.00     0.029 A 
ATOM     23  N   UNL A   1      46.702  27.088  28.099  1.00  0.00    -0.354 N 
ATOM     24  C   UNL A   1      45.405  30.279  31.118  1.00  0.00     0.074 A 
ATOM     25  C   UNL A   1      46.641  30.412  31.839  1.00  0.00     0.031 C 
ATOM     26  C   UNL A   1      47.911  25.298  27.564  1.00  0.00     0.029 A 
ATOM     27  C   UNL A   1      47.287  26.479  26.992  1.00  0.00     0.049 A 
ATOM     28  H   UNL A   1      46.060  27.830  28.022  1.00  0.00     0.167 HD
ATOM     29  C   UNL A   1      44.571  31.215  30.588  1.00  0.00     0.034 A 
ATOM     30  C   UNL A   1      47.322  26.965  25.721  1.00  0.00     0.034 A 
ATOM     31  C   UNL A   1      43.384  30.598  30.041  1.00  0.00     0.049 A 
ATOM     32  C   UNL A   1      46.216  27.954  25.620  1.00  0.00     0.074 A 
ATOM     33  C   UNL A   1      42.385  29.809  30.578  1.00  0.00     0.029 A 
ATOM     34  N   UNL A   1      43.315  30.405  28.679  1.00  0.00    -0.354 N 
ATOM     35  N   UNL A   1      44.956  27.618  25.715  1.00  0.00    -0.248 NA
ATOM     36  C   UNL A   1      46.509  29.340  25.959  1.00  0.00     0.031 C 
ATOM     37  C   UNL A   1      42.134  28.814  29.589  1.00  0.00     0.029 A 
ATOM     38  C   UNL A   1      42.909  29.108  28.465  1.00  0.00     0.049 A 
ATOM     39  H   UNL A   1      43.518  31.074  27.985  1.00  0.00     0.167 HD
ATOM     40  C   UNL A   1      44.382  28.587  26.524  1.00  0.00     0.074 A 
ATOM     41  C   UNL A   1      45.370  29.666  26.579  1.00  0.00     0.031 C 
ATOM     42  C   UNL A   1      43.302  28.309  27.316  1.00  0.00     0.034 A 
BRANCH  29  43
ATOM     43  C   UNL A   1      45.011  32.616  30.224  1.00  0.00     0.023 A 
ATOM     44  C   UNL A   1      45.691  32.787  29.005  1.00  0.00     0.031 A 
ATOM     45  C   UNL A   1      45.063  33.714  31.117  1.00  0.00     0.131 A 
ATOM     46  C   UNL A   1      46.449  33.946  28.760  1.00  0.00     0.055 A 
ATOM     47  C   UNL A   1      45.765  34.889  30.840  1.00  0.00     0.041 A 
ATOM     48  F   UNL A   1      44.528  33.684  32.342  1.00  0.00    -0.206 F 
ATOM     49  C   UNL A   1      46.490  34.999  29.669  1.00  0.00     0.022 A 
BRANCH  46  50
ATOM     50  S   UNL A   1      47.529  33.976  27.306  1.00  0.00     0.124 S 
ATOM     51  O   UNL A   1      48.783  33.477  27.862  1.00  0.00    -0.237 OA
ATOM     52  O   UNL A   1      46.826  33.081  26.393  1.00  0.00    -0.237 OA
ATOM     53  O   UNL A   1      47.534  35.384  26.918  1.00  0.00    -0.744 OA
ENDBRANCH  46  50
ENDBRANCH  29  43
BRANCH  30  54
ATOM     54  C   UNL A   1      48.490  26.917  24.788  1.00  0.00     0.023 A 
ATOM     55  C   UNL A   1      48.359  26.784  23.387  1.00  0.00     0.031 A 
ATOM     56  C   UNL A   1      49.781  27.239  25.268  1.00  0.00     0.131 A 
ATOM     57  C   UNL A   1      49.484  26.964  22.543  1.00  0.00     0.055 A 
ATOM     58  C   UNL A   1      50.887  27.414  24.433  1.00  0.00     0.041 A 
ATOM     59  F   UNL A   1      50.002  27.481  26.569  1.00  0.00    -0.206 F 
ATOM     60  C   UNL A   1      50.741  27.285  23.062  1.00  0.00     0.022 A 
BRANCH  57  61
ATOM     61  S   UNL A   1      49.320  26.860  20.728  1.00  0.00     0.124 S 
ATOM     62  O   UNL A   1      47.983  27.397  20.506  1.00  0.00    -0.237 OA
ATOM     63  O   UNL A   1      50.435  27.678  20.264  1.00  0.00    -0.237 OA
ATOM     64  O   UNL A   1      49.458  25.429  20.453  1.00  0.00    -0.744 OA
ENDBRANCH  57  61
ENDBRANCH  30  54
BRANCH  42  65
ATOM     65  C   UNL A   1      42.573  26.991  27.115  1.00  0.00     0.023 A 
ATOM     66  C   UNL A   1      42.917  25.760  27.726  1.00  0.00     0.031 A 
ATOM     67  C   UNL A   1      41.388  27.028  26.359  1.00  0.00     0.131 A 
ATOM     68  C   UNL A   1      42.087  24.631  27.557  1.00  0.00     0.055 A 
ATOM     69  C   UNL A   1      40.561  25.917  26.212  1.00  0.00     0.041 A 
ATOM     70  F   UNL A   1      40.990  28.171  25.775  1.00  0.00    -0.206 F 
ATOM     71  C   UNL A   1      40.910  24.710  26.806  1.00  0.00     0.022 A 
BRANCH  68  72
ATOM     72  S   UNL A   1      42.526  23.020  28.293  1.00  0.00     0.124 S 
ATOM     73  O   UNL A   1      43.501  22.470  27.358  1.00  0.00    -0.237 OA
ATOM     74  O   UNL A   1      43.043  23.402  29.606  1.00  0.00    -0.237 OA
ATOM     75  O   UNL A   1      41.249  22.304  28.332  1.00  0.00    -0.744 OA
ENDBRANCH  68  72
ENDBRANCH  42  65
ENDBRANCH  16  17
ENDBRANCH   9  11
ENDBRANCH   8   9
ENDBRANCH   7   8
ENDBRANCH   6   7
ENDBRANCH   5   6
ENDBRANCH   4   5
ENDBRANCH   3   4
ENDBRANCH   2   3
ENDBRANCH   1   2
BRANCH   1  76
ATOM     76  C   UNL A   1      41.793  28.088  36.067  1.00  0.00     0.188 C 
BRANCH  76  77
ATOM     77  O   UNL A   1      40.572  28.788  35.868  1.00  0.00    -0.376 OA
BRANCH  77  78
ATOM     78  C   UNL A   1      40.491  29.949  35.059  1.00  0.00     0.202 C 
BRANCH  78  79
ATOM     79  C   UNL A   1      39.913  29.914  33.641  1.00  0.00     0.261 C 
BRANCH  79  80
ATOM     80  O   UNL A   1      39.208  28.726  33.289  1.00  0.00    -0.460 OA
BRANCH  80  81
ATOM     81  C   UNL A   1      38.044  28.874  32.627  1.00  0.00     0.338 C 
ATOM     82  O   UNL A   1      36.983  29.277  33.080  1.00  0.00    -0.246 OA
BRANCH  81  83
ATOM     83  C   UNL A   1      38.281  28.587  31.188  1.00  0.00     0.068 A 
ATOM     84  C   UNL A   1      38.920  27.370  30.892  1.00  0.00     0.016 A 
ATOM     85  C   UNL A   1      37.872  29.456  30.154  1.00  0.00     0.021 A 
ATOM     86  C   UNL A   1      39.124  26.980  29.572  1.00  0.00     0.001 A 
ATOM     87  C   UNL A   1      38.093  29.037  28.830  1.00  0.00     0.010 A 
ATOM     88  C   UNL A   1      38.713  27.817  28.542  1.00  0.00     0.001 A 
BRANCH  85  89
ATOM     89  C   UNL A   1      37.272  30.832  30.412  1.00  0.00     0.300 C 
BRANCH  89  90
ATOM     90  N   UNL A   1      38.112  31.780  31.195  1.00  0.00    -0.329 N 
ATOM     91  C   UNL A   1      39.358  32.074  30.463  1.00  0.00     0.262 C 
ATOM     92  C   UNL A   1      37.402  33.016  31.608  1.00  0.00     0.186 C 
ATOM     93  H   UNL A   1      38.344  31.314  32.071  1.00  0.00     0.348 HD
ATOM     94  C   UNL A   1      40.325  33.013  31.159  1.00  0.00     0.062 C 
ATOM     95  C   UNL A   1      38.374  33.968  32.345  1.00  0.00     0.065 C 
ATOM     96  C   UNL A   1      39.605  34.298  31.512  1.00  0.00     0.012 C 
BRANCH  92  97
ATOM     97  C   UNL A   1      36.199  32.697  32.537  1.00  0.00     0.088 C 
BRANCH  97  98
ATOM     98  C   UNL A   1      34.826  32.740  31.863  1.00  0.00     0.150 C 
BRANCH  98  99
ATOM     99  N   UNL A   1      34.269  34.078  31.790  1.00  0.00    -0.273 N 
ATOM    100  C   UNL A   1      34.288  35.031  32.767  1.00  0.00     0.108 A 
ATOM    101  N   UNL A   1      33.629  34.475  30.674  1.00  0.00    -0.182 NA
ATOM    102  C   UNL A   1      33.566  36.095  32.275  1.00  0.00     0.042 A 
ATOM    103  C   UNL A   1      33.168  35.688  30.988  1.00  0.00     0.135 A 
ENDBRANCH  98  99
ENDBRANCH  97  98
ENDBRANCH  92  97
ENDBRANCH  89  90
ENDBRANCH  85  89
ENDBRANCH  81  83
ENDBRANCH  80  81
ENDBRANCH  79  80
ENDBRANCH  78  79
ENDBRANCH  77  78
ENDBRANCH  76  77
ENDBRANCH   1  76
TORSDOF 28
ENDMDL
MODEL 3
REMARK VINA RESULT:      -8.1      3.691      8.833
REMARK SMILES O=C(OCCOCCOCCOCCOC(=O)c1ccccc1C[N@H+]1CCCC[C@@H]1CCn1cccn1)c1ccc(-c2c3nc(c(-c4cc(S(=O)(=O)[O-])ccc4F)c4ccc([nH]4)c(-c4cc(S(=O)(=O)[O-])ccc4F)c4nc(c(-c5cc(S(=O)(=O)[O-])ccc5F)c5ccc2[nH]5)C=C4)C=C3)cc1
REMARK SMILES IDX 10 1 9 2 8 3 7 4 6 5 5 6 4 7 3 8 2 9 1 10 38 11 39 12 100 13
REMARK SMILES IDX 40 14 99 15 41 16 42 17 43 18 93 19 44 20 98 21 92 22 94 23
REMARK SMILES IDX 45 24 97 25 91 26 90 27 46 29 78 30 58 31 77 32 59 33 62 34
REMARK SMILES IDX 76 35 95 36 60 37 61 38 75 40 96 41 63 42 47 43 48 44 56 45
REMARK SMILES IDX 49 46 55 47 57 48 54 49 50 50 51 51 52 52 53 53 79 54 80 55
REMARK SMILES IDX 88 56 81 57 87 58 89 59 86 60 82 61 83 62 84 63 85 64 64 65
REMARK SMILES IDX 65 66 73 67 66 68 72 69 74 70 71 71 67 72 68 73 69 74 70 75
REMARK SMILES IDX 11 76 12 77 13 78 14 79 15 80 16 81 17 82 18 83 19 84 23 85
REMARK SMILES IDX 20 86 22 87 21 88 24 89 25 90 26 91 30 92 27 94 29 95 28 96
REMARK SMILES IDX 31 97 32 98 33 99 34 100 37 101 35 102 36 103
REMARK H PARENT 94 28 62 39 25 93
REMARK Flexibility Score: inf
ROOT
ATOM      1  C   UNL A   1      31.759  28.777  26.974  1.00  0.00     0.188 C 
ENDROOT
BRANCH   1   2
ATOM      2  O   UNL A   1      33.071  29.197  26.681  1.00  0.00    -0.377 OA
BRANCH   2   3
ATOM      3  C   UNL A   1      33.278  30.581  26.908  1.00  0.00     0.188 C 
BRANCH   3   4
ATOM      4  C   UNL A   1      34.600  31.014  27.576  1.00  0.00     0.188 C 
BRANCH   4   5
ATOM      5  O   UNL A   1      34.735  31.835  28.729  1.00  0.00    -0.376 OA
BRANCH   5   6
ATOM      6  C   UNL A   1      35.762  31.934  29.697  1.00  0.00     0.202 C 
BRANCH   6   7
ATOM      7  C   UNL A   1      35.541  32.202  31.184  1.00  0.00     0.261 C 
BRANCH   7   8
ATOM      8  O   UNL A   1      36.732  32.396  31.926  1.00  0.00    -0.460 OA
BRANCH   8   9
ATOM      9  C   UNL A   1      37.382  31.472  32.662  1.00  0.00     0.338 C 
ATOM     10  O   UNL A   1      37.114  31.417  33.862  1.00  0.00    -0.246 OA
BRANCH   9  11
ATOM     11  C   UNL A   1      38.457  30.576  32.138  1.00  0.00     0.060 A 
ATOM     12  C   UNL A   1      38.532  29.182  32.247  1.00  0.00     0.016 A 
ATOM     13  C   UNL A   1      39.486  31.247  31.452  1.00  0.00     0.016 A 
ATOM     14  C   UNL A   1      39.690  28.514  31.913  1.00  0.00     0.010 A 
ATOM     15  C   UNL A   1      40.633  30.582  31.076  1.00  0.00     0.010 A 
ATOM     16  C   UNL A   1      40.757  29.243  31.410  1.00  0.00    -0.014 A 
BRANCH  16  17
ATOM     17  C   UNL A   1      42.006  28.541  31.220  1.00  0.00     0.031 A 
ATOM     18  C   UNL A   1      42.790  28.373  32.466  1.00  0.00     0.074 A 
ATOM     19  C   UNL A   1      42.339  28.081  29.998  1.00  0.00     0.049 A 
ATOM     20  N   UNL A   1      43.948  28.874  32.744  1.00  0.00    -0.248 NA
ATOM     21  C   UNL A   1      42.128  27.732  33.615  1.00  0.00     0.031 C 
ATOM     22  C   UNL A   1      41.514  28.059  28.786  1.00  0.00     0.029 A 
ATOM     23  N   UNL A   1      43.464  27.438  29.600  1.00  0.00    -0.354 N 
ATOM     24  C   UNL A   1      44.270  28.390  34.008  1.00  0.00     0.074 A 
ATOM     25  C   UNL A   1      43.048  27.881  34.567  1.00  0.00     0.031 C 
ATOM     26  C   UNL A   1      42.062  27.209  27.887  1.00  0.00     0.029 A 
ATOM     27  C   UNL A   1      43.335  26.738  28.404  1.00  0.00     0.049 A 
ATOM     28  H   UNL A   1      44.303  27.465  30.114  1.00  0.00     0.167 HD
ATOM     29  C   UNL A   1      45.569  28.204  34.370  1.00  0.00     0.034 A 
ATOM     30  C   UNL A   1      44.178  25.781  27.927  1.00  0.00     0.034 A 
ATOM     31  C   UNL A   1      46.451  29.014  33.562  1.00  0.00     0.049 A 
ATOM     32  C   UNL A   1      45.480  25.988  28.617  1.00  0.00     0.074 A 
ATOM     33  C   UNL A   1      46.561  30.374  33.339  1.00  0.00     0.029 A 
ATOM     34  N   UNL A   1      47.118  28.413  32.517  1.00  0.00    -0.354 N 
ATOM     35  N   UNL A   1      46.210  27.059  28.445  1.00  0.00    -0.248 NA
ATOM     36  C   UNL A   1      45.701  25.291  29.877  1.00  0.00     0.031 C 
ATOM     37  C   UNL A   1      46.816  30.495  31.942  1.00  0.00     0.029 A 
ATOM     38  C   UNL A   1      46.955  29.211  31.409  1.00  0.00     0.049 A 
ATOM     39  H   UNL A   1      47.621  27.568  32.558  1.00  0.00     0.167 HD
ATOM     40  C   UNL A   1      46.642  27.412  29.715  1.00  0.00     0.074 A 
ATOM     41  C   UNL A   1      46.363  26.240  30.547  1.00  0.00     0.031 C 
ATOM     42  C   UNL A   1      46.905  28.712  30.045  1.00  0.00     0.034 A 
BRANCH  29  43
ATOM     43  C   UNL A   1      46.050  27.017  35.175  1.00  0.00     0.023 A 
ATOM     44  C   UNL A   1      45.909  25.742  34.598  1.00  0.00     0.031 A 
ATOM     45  C   UNL A   1      46.356  27.036  36.557  1.00  0.00     0.131 A 
ATOM     46  C   UNL A   1      45.975  24.582  35.390  1.00  0.00     0.055 A 
ATOM     47  C   UNL A   1      46.484  25.878  37.326  1.00  0.00     0.041 A 
ATOM     48  F   UNL A   1      46.452  28.165  37.267  1.00  0.00    -0.206 F 
ATOM     49  C   UNL A   1      46.261  24.641  36.751  1.00  0.00     0.022 A 
BRANCH  46  50
ATOM     50  S   UNL A   1      45.498  23.002  34.644  1.00  0.00     0.124 S 
ATOM     51  O   UNL A   1      45.171  23.408  33.281  1.00  0.00    -0.237 OA
ATOM     52  O   UNL A   1      46.715  22.215  34.809  1.00  0.00    -0.237 OA
ATOM     53  O   UNL A   1      44.363  22.573  35.458  1.00  0.00    -0.744 OA
ENDBRANCH  46  50
ENDBRANCH  29  43
BRANCH  30  54
ATOM     54  C   UNL A   1      43.779  24.504  27.258  1.00  0.00     0.023 A 
ATOM     55  C   UNL A   1      44.401  24.014  26.088  1.00  0.00     0.031 A 
ATOM     56  C   UNL A   1      42.900  23.614  27.921  1.00  0.00     0.131 A 
ATOM     57  C   UNL A   1      44.127  22.700  25.630  1.00  0.00     0.055 A 
ATOM     58  C   UNL A   1      42.634  22.322  27.464  1.00  0.00     0.041 A 
ATOM     59  F   UNL A   1      42.328  23.939  29.090  1.00  0.00    -0.206 F 
ATOM     60  C   UNL A   1      43.254  21.855  26.318  1.00  0.00     0.022 A 
BRANCH  57  61
ATOM     61  S   UNL A   1      44.970  22.028  24.156  1.00  0.00     0.124 S 
ATOM     62  O   UNL A   1      46.230  22.762  24.157  1.00  0.00    -0.237 OA
ATOM     63  O   UNL A   1      45.047  20.604  24.460  1.00  0.00    -0.237 OA
ATOM     64  O   UNL A   1      44.064  22.369  23.058  1.00  0.00    -0.744 OA
ENDBRANCH  57  61
ENDBRANCH  30  54
BRANCH  42  65
ATOM     65  C   UNL A   1      46.964  29.747  28.933  1.00  0.00     0.023 A 
ATOM     66  C   UNL A   1      45.863  30.496  28.449  1.00  0.00     0.031 A 
ATOM     67  C   UNL A   1      48.238  30.072  28.433  1.00  0.00     0.131 A 
ATOM     68  C   UNL A   1      46.068  31.518  27.496  1.00  0.00     0.055 A 
ATOM     69  C   UNL A   1      48.438  31.096  27.508  1.00  0.00     0.041 A 
ATOM     70  F   UNL A   1      49.327  29.418  28.870  1.00  0.00    -0.206 F 
ATOM     71  C   UNL A   1      47.353  31.819  27.031  1.00  0.00     0.022 A 
BRANCH  68  72
ATOM     72  S   UNL A   1      44.667  32.470  26.819  1.00  0.00     0.124 S 
ATOM     73  O   UNL A   1      45.310  33.502  26.014  1.00  0.00    -0.237 OA
ATOM     74  O   UNL A   1      43.921  31.453  26.080  1.00  0.00    -0.237 OA
ATOM     75  O   UNL A   1      43.985  32.968  28.015  1.00  0.00    -0.744 OA
ENDBRANCH  68  72
ENDBRANCH  42  65
ENDBRANCH  16  17
ENDBRANCH   9  11
ENDBRANCH   8   9
ENDBRANCH   7   8
ENDBRANCH   6   7
ENDBRANCH   5   6
ENDBRANCH   4   5
ENDBRANCH   3   4
ENDBRANCH   2   3
ENDBRANCH   1   2
BRANCH   1  76
ATOM     76  C   UNL A   1      31.618  27.243  27.109  1.00  0.00     0.188 C 
BRANCH  76  77
ATOM     77  O   UNL A   1      30.711  26.501  26.305  1.00  0.00    -0.376 OA
BRANCH  77  78
ATOM     78  C   UNL A   1      30.866  25.110  26.079  1.00  0.00     0.202 C 
BRANCH  78  79
ATOM     79  C   UNL A   1      30.679  24.485  24.693  1.00  0.00     0.261 C 
BRANCH  79  80
ATOM     80  O   UNL A   1      31.411  23.286  24.450  1.00  0.00    -0.460 OA
BRANCH  80  81
ATOM     81  C   UNL A   1      31.372  22.337  25.405  1.00  0.00     0.338 C 
ATOM     82  O   UNL A   1      30.698  22.343  26.425  1.00  0.00    -0.246 OA
BRANCH  81  83
ATOM     83  C   UNL A   1      32.198  21.184  24.957  1.00  0.00     0.068 A 
ATOM     84  C   UNL A   1      31.655  20.389  23.933  1.00  0.00     0.016 A 
ATOM     85  C   UNL A   1      33.473  20.900  25.491  1.00  0.00     0.021 A 
ATOM     86  C   UNL A   1      32.381  19.329  23.399  1.00  0.00     0.001 A 
ATOM     87  C   UNL A   1      34.183  19.822  24.933  1.00  0.00     0.010 A 
ATOM     88  C   UNL A   1      33.644  19.046  23.902  1.00  0.00     0.001 A 
BRANCH  85  89
ATOM     89  C   UNL A   1      34.070  21.657  26.670  1.00  0.00     0.300 C 
BRANCH  89  90
ATOM     90  N   UNL A   1      35.346  22.379  26.411  1.00  0.00    -0.329 N 
ATOM     91  C   UNL A   1      36.422  21.414  26.119  1.00  0.00     0.262 C 
ATOM     92  C   UNL A   1      35.242  23.433  25.370  1.00  0.00     0.186 C 
ATOM     93  H   UNL A   1      35.577  22.886  27.265  1.00  0.00     0.348 HD
ATOM     94  C   UNL A   1      37.791  22.013  25.856  1.00  0.00     0.062 C 
ATOM     95  C   UNL A   1      36.630  24.070  25.117  1.00  0.00     0.065 C 
ATOM     96  C   UNL A   1      37.683  23.036  24.745  1.00  0.00     0.012 C 
BRANCH  92  97
ATOM     97  C   UNL A   1      34.239  24.544  25.784  1.00  0.00     0.088 C 
BRANCH  97  98
ATOM     98  C   UNL A   1      34.465  25.904  25.120  1.00  0.00     0.150 C 
BRANCH  98  99
ATOM     99  N   UNL A   1      33.711  26.071  23.891  1.00  0.00    -0.273 N 
ATOM    100  C   UNL A   1      33.750  25.268  22.787  1.00  0.00     0.108 A 
ATOM    101  N   UNL A   1      32.884  27.124  23.753  1.00  0.00    -0.182 NA
ATOM    102  C   UNL A   1      32.940  25.870  21.852  1.00  0.00     0.042 A 
ATOM    103  C   UNL A   1      32.448  27.020  22.496  1.00  0.00     0.135 A 
ENDBRANCH  98  99
ENDBRANCH  97  98
ENDBRANCH  92  97
ENDBRANCH  89  90
ENDBRANCH  85  89
ENDBRANCH  81  83
ENDBRANCH  80  81
ENDBRANCH  79  80
ENDBRANCH  78  79
ENDBRANCH  77  78
ENDBRANCH  76  77
ENDBRANCH   1  76
TORSDOF 28
ENDMDL
