MODEL 1
REMARK VINA RESULT:     -11.2      0.000      0.000
REMARK SMILES Cc1ccc(F)c(-c2ccc(C(=O)OCCOCCOCCOCCOC(=O)c3ccc(-c4c5nc(c(-c6cc(S(=O)(=O)[O-])ccc6F)c6ccc([nH]6)c(-c6cc(S(=O)(=O)[O-])ccc6F)c6nc(c(-c7cc(S(=O)(=O)[O-])ccc7F)c7ccc4[nH]7)C=C6)C=C5)cc3)cc2C)c1
REMARK SMILES IDX 21 1 20 2 19 3 18 4 17 5 16 6 15 7 14 8 12 9 13 10 11 11
REMARK SMILES IDX 8 12 9 13 93 14 10 15 92 16 94 17 7 18 1 19 2 20 3 21 95 22
REMARK SMILES IDX 4 23 5 24 6 25 22 26 23 27 24 28 25 29 26 30 27 31 28 32
REMARK SMILES IDX 29 33 30 34 91 35 31 36 90 37 32 38 33 39 34 40 84 41 35 42
REMARK SMILES IDX 89 43 83 44 85 45 36 46 88 47 82 48 81 49 37 51 69 52 49 53
REMARK SMILES IDX 68 54 50 55 53 56 67 57 86 58 51 59 52 60 66 62 87 63 54 64
REMARK SMILES IDX 38 65 39 66 47 67 40 68 46 69 48 70 45 71 41 72 42 73 43 74
REMARK SMILES IDX 44 75 70 76 71 77 79 78 72 79 78 80 80 81 77 82 73 83 74 84
REMARK SMILES IDX 75 85 76 86 55 87 56 88 64 89 57 90 63 91 65 92 62 93 58 94
REMARK SMILES IDX 59 95 60 96 61 97
REMARK H PARENT 85 50 53 61
REMARK Flexibility Score: inf
ROOT
ATOM      1  C   UNL A   1      34.098  32.689  28.634  1.00  0.00     0.188 C 
ENDROOT
BRANCH   1   2
ATOM      2  O   UNL A   1      34.554  32.002  27.468  1.00  0.00    -0.377 OA
BRANCH   2   3
ATOM      3  C   UNL A   1      34.404  30.599  27.623  1.00  0.00     0.188 C 
BRANCH   3   4
ATOM      4  C   UNL A   1      33.452  29.915  26.636  1.00  0.00     0.188 C 
BRANCH   4   5
ATOM      5  O   UNL A   1      33.826  28.690  26.016  1.00  0.00    -0.376 OA
BRANCH   5   6
ATOM      6  C   UNL A   1      33.179  28.426  24.770  1.00  0.00     0.202 C 
BRANCH   6   7
ATOM      7  C   UNL A   1      31.664  28.580  24.750  1.00  0.00     0.261 C 
BRANCH   7   8
ATOM      8  O   UNL A   1      31.156  27.900  23.603  1.00  0.00    -0.460 OA
BRANCH   8   9
ATOM      9  C   UNL A   1      30.174  27.023  23.863  1.00  0.00     0.338 C 
ATOM     10  O   UNL A   1      28.983  27.151  23.668  1.00  0.00    -0.246 OA
BRANCH   9  11
ATOM     11  C   UNL A   1      30.838  25.716  23.976  1.00  0.00     0.060 A 
ATOM     12  C   UNL A   1      31.725  23.104  24.368  1.00  0.00    -0.012 A 
ATOM     13  C   UNL A   1      31.932  23.754  23.132  1.00  0.00     0.010 A 
ATOM     14  C   UNL A   1      30.946  23.735  25.362  1.00  0.00    -0.042 A 
ATOM     15  C   UNL A   1      31.489  25.059  22.934  1.00  0.00     0.016 A 
ATOM     16  C   UNL A   1      30.530  25.044  25.155  1.00  0.00     0.019 A 
ATOM     17  C   UNL A   1      30.479  23.092  26.637  1.00  0.00     0.045 C 
BRANCH  12  18
ATOM     18  C   UNL A   1      32.570  21.961  24.720  1.00  0.00     0.018 A 
ATOM     19  C   UNL A   1      32.579  18.341  23.548  1.00  0.00     0.044 C 
ATOM     20  C   UNL A   1      33.023  19.613  24.204  1.00  0.00    -0.050 A 
ATOM     21  C   UNL A   1      34.312  19.763  24.719  1.00  0.00     0.006 A 
ATOM     22  C   UNL A   1      32.162  20.708  24.223  1.00  0.00     0.015 A 
ATOM     23  C   UNL A   1      34.709  20.978  25.287  1.00  0.00     0.040 A 
ATOM     24  C   UNL A   1      33.834  22.063  25.299  1.00  0.00     0.131 A 
ATOM     25  F   UNL A   1      34.275  23.237  25.777  1.00  0.00    -0.206 F 
ENDBRANCH  12  18
ENDBRANCH   9  11
ENDBRANCH   8   9
ENDBRANCH   7   8
ENDBRANCH   6   7
ENDBRANCH   5   6
ENDBRANCH   4   5
ENDBRANCH   3   4
ENDBRANCH   2   3
ENDBRANCH   1   2
BRANCH   1  26
ATOM     26  C   UNL A   1      33.601  34.054  28.226  1.00  0.00     0.188 C 
BRANCH  26  27
ATOM     27  O   UNL A   1      32.575  34.649  29.009  1.00  0.00    -0.376 OA
BRANCH  27  28
ATOM     28  C   UNL A   1      32.912  35.854  29.685  1.00  0.00     0.202 C 
BRANCH  28  29
ATOM     29  C   UNL A   1      32.877  35.781  31.223  1.00  0.00     0.261 C 
BRANCH  29  30
ATOM     30  O   UNL A   1      34.174  36.147  31.754  1.00  0.00    -0.460 OA
BRANCH  30  31
ATOM     31  C   UNL A   1      34.642  35.362  32.771  1.00  0.00     0.338 C 
ATOM     32  O   UNL A   1      34.803  35.727  33.922  1.00  0.00    -0.246 OA
BRANCH  31  33
ATOM     33  C   UNL A   1      35.173  34.077  32.203  1.00  0.00     0.060 A 
ATOM     34  C   UNL A   1      35.004  32.886  32.933  1.00  0.00     0.016 A 
ATOM     35  C   UNL A   1      36.147  34.131  31.208  1.00  0.00     0.016 A 
ATOM     36  C   UNL A   1      35.943  31.841  32.815  1.00  0.00     0.010 A 
ATOM     37  C   UNL A   1      37.106  33.127  31.155  1.00  0.00     0.010 A 
ATOM     38  C   UNL A   1      37.068  32.004  32.004  1.00  0.00    -0.014 A 
BRANCH  38  39
ATOM     39  C   UNL A   1      38.328  31.220  32.139  1.00  0.00     0.031 A 
ATOM     40  C   UNL A   1      38.520  29.961  31.334  1.00  0.00     0.074 A 
ATOM     41  C   UNL A   1      39.421  31.817  32.697  1.00  0.00     0.049 A 
ATOM     42  N   UNL A   1      39.581  29.226  31.319  1.00  0.00    -0.248 NA
ATOM     43  C   UNL A   1      37.517  29.431  30.414  1.00  0.00     0.031 C 
ATOM     44  C   UNL A   1      40.826  31.460  32.508  1.00  0.00     0.029 A 
ATOM     45  N   UNL A   1      39.518  32.943  33.528  1.00  0.00    -0.354 N 
ATOM     46  C   UNL A   1      39.578  28.433  30.181  1.00  0.00     0.074 A 
ATOM     47  C   UNL A   1      38.218  28.526  29.718  1.00  0.00     0.031 C 
ATOM     48  C   UNL A   1      41.636  32.226  33.251  1.00  0.00     0.029 A 
ATOM     49  C   UNL A   1      40.775  32.891  34.185  1.00  0.00     0.049 A 
ATOM     50  H   UNL A   1      38.836  33.644  33.637  1.00  0.00     0.167 HD
ATOM     51  C   UNL A   1      40.766  27.919  29.714  1.00  0.00     0.034 A 
ATOM     52  C   UNL A   1      40.855  32.666  35.529  1.00  0.00     0.034 A 
ATOM     53  C   UNL A   1      41.867  28.166  30.679  1.00  0.00     0.049 A 
ATOM     54  C   UNL A   1      41.410  31.251  35.771  1.00  0.00     0.074 A 
ATOM     55  C   UNL A   1      43.146  28.693  30.602  1.00  0.00     0.029 A 
ATOM     56  N   UNL A   1      41.633  27.988  32.045  1.00  0.00    -0.354 N 
ATOM     57  N   UNL A   1      41.328  30.286  34.876  1.00  0.00    -0.248 NA
ATOM     58  C   UNL A   1      42.296  30.869  36.871  1.00  0.00     0.031 C 
ATOM     59  C   UNL A   1      43.582  29.005  31.928  1.00  0.00     0.029 A 
ATOM     60  C   UNL A   1      42.617  28.564  32.822  1.00  0.00     0.049 A 
ATOM     61  H   UNL A   1      40.855  27.508  32.412  1.00  0.00     0.167 HD
ATOM     62  C   UNL A   1      42.250  29.308  35.135  1.00  0.00     0.074 A 
ATOM     63  C   UNL A   1      42.767  29.676  36.448  1.00  0.00     0.031 C 
ATOM     64  C   UNL A   1      42.637  28.324  34.258  1.00  0.00     0.034 A 
BRANCH  51  65
ATOM     65  C   UNL A   1      41.038  27.347  28.301  1.00  0.00     0.023 A 
ATOM     66  C   UNL A   1      41.569  26.036  28.154  1.00  0.00     0.031 A 
ATOM     67  C   UNL A   1      40.879  28.030  27.073  1.00  0.00     0.131 A 
ATOM     68  C   UNL A   1      41.927  25.493  26.894  1.00  0.00     0.055 A 
ATOM     69  C   UNL A   1      41.188  27.473  25.817  1.00  0.00     0.041 A 
ATOM     70  F   UNL A   1      40.444  29.289  26.998  1.00  0.00    -0.206 F 
ATOM     71  C   UNL A   1      41.721  26.203  25.719  1.00  0.00     0.022 A 
BRANCH  68  72
ATOM     72  S   UNL A   1      42.661  23.829  26.786  1.00  0.00     0.124 S 
ATOM     73  O   UNL A   1      43.966  24.022  27.408  1.00  0.00    -0.237 OA
ATOM     74  O   UNL A   1      41.706  23.010  27.523  1.00  0.00    -0.237 OA
ATOM     75  O   UNL A   1      42.703  23.570  25.346  1.00  0.00    -0.744 OA
ENDBRANCH  68  72
ENDBRANCH  51  65
BRANCH  52  76
ATOM     76  C   UNL A   1      39.874  33.572  36.220  1.00  0.00     0.023 A 
ATOM     77  C   UNL A   1      38.728  32.895  36.742  1.00  0.00     0.031 A 
ATOM     78  C   UNL A   1      40.312  34.705  36.920  1.00  0.00     0.131 A 
ATOM     79  C   UNL A   1      38.256  33.174  38.040  1.00  0.00     0.055 A 
ATOM     80  C   UNL A   1      39.783  35.025  38.186  1.00  0.00     0.041 A 
ATOM     81  F   UNL A   1      41.380  35.397  36.498  1.00  0.00    -0.206 F 
ATOM     82  C   UNL A   1      38.812  34.216  38.782  1.00  0.00     0.022 A 
BRANCH  79  83
ATOM     83  S   UNL A   1      37.160  31.972  38.881  1.00  0.00     0.124 S 
ATOM     84  O   UNL A   1      35.875  32.660  38.857  1.00  0.00    -0.237 OA
ATOM     85  O   UNL A   1      37.259  30.786  38.037  1.00  0.00    -0.237 OA
ATOM     86  O   UNL A   1      37.774  31.822  40.200  1.00  0.00    -0.744 OA
ENDBRANCH  79  83
ENDBRANCH  52  76
BRANCH  64  87
ATOM     87  C   UNL A   1      43.092  26.944  34.684  1.00  0.00     0.023 A 
ATOM     88  C   UNL A   1      44.439  26.660  34.892  1.00  0.00     0.031 A 
ATOM     89  C   UNL A   1      42.176  25.938  35.101  1.00  0.00     0.131 A 
ATOM     90  C   UNL A   1      44.841  25.428  35.420  1.00  0.00     0.055 A 
ATOM     91  C   UNL A   1      42.574  24.755  35.723  1.00  0.00     0.041 A 
ATOM     92  F   UNL A   1      40.849  26.063  34.961  1.00  0.00    -0.206 F 
ATOM     93  C   UNL A   1      43.922  24.486  35.876  1.00  0.00     0.022 A 
BRANCH  90  94
ATOM     94  S   UNL A   1      46.608  25.077  35.416  1.00  0.00     0.124 S 
ATOM     95  O   UNL A   1      47.165  26.392  35.109  1.00  0.00    -0.237 OA
ATOM     96  O   UNL A   1      46.837  24.597  36.775  1.00  0.00    -0.237 OA
ATOM     97  O   UNL A   1      46.757  24.075  34.364  1.00  0.00    -0.744 OA
ENDBRANCH  90  94
ENDBRANCH  64  87
ENDBRANCH  38  39
ENDBRANCH  31  33
ENDBRANCH  30  31
ENDBRANCH  29  30
ENDBRANCH  28  29
ENDBRANCH  27  28
ENDBRANCH  26  27
ENDBRANCH   1  26
TORSDOF 24
ENDMDL
MODEL 2
REMARK VINA RESULT:      -9.8      4.348     10.756
REMARK SMILES Cc1ccc(F)c(-c2ccc(C(=O)OCCOCCOCCOCCOC(=O)c3ccc(-c4c5nc(c(-c6cc(S(=O)(=O)[O-])ccc6F)c6ccc([nH]6)c(-c6cc(S(=O)(=O)[O-])ccc6F)c6nc(c(-c7cc(S(=O)(=O)[O-])ccc7F)c7ccc4[nH]7)C=C6)C=C5)cc3)cc2C)c1
REMARK SMILES IDX 21 1 20 2 19 3 18 4 17 5 16 6 15 7 14 8 12 9 13 10 11 11
REMARK SMILES IDX 8 12 9 13 93 14 10 15 92 16 94 17 7 18 1 19 2 20 3 21 95 22
REMARK SMILES IDX 4 23 5 24 6 25 22 26 23 27 24 28 25 29 26 30 27 31 28 32
REMARK SMILES IDX 29 33 30 34 91 35 31 36 90 37 32 38 33 39 34 40 84 41 35 42
REMARK SMILES IDX 89 43 83 44 85 45 36 46 88 47 82 48 81 49 37 51 69 52 49 53
REMARK SMILES IDX 68 54 50 55 53 56 67 57 86 58 51 59 52 60 66 62 87 63 54 64
REMARK SMILES IDX 38 65 39 66 47 67 40 68 46 69 48 70 45 71 41 72 42 73 43 74
REMARK SMILES IDX 44 75 70 76 71 77 79 78 72 79 78 80 80 81 77 82 73 83 74 84
REMARK SMILES IDX 75 85 76 86 55 87 56 88 64 89 57 90 63 91 65 92 62 93 58 94
REMARK SMILES IDX 59 95 60 96 61 97
REMARK H PARENT 85 50 53 61
REMARK Flexibility Score: inf
ROOT
ATOM      1  C   UNL A   1      40.767  19.954  26.308  1.00  0.00     0.188 C 
ENDROOT
BRANCH   1   2
ATOM      2  O   UNL A   1      40.131  21.133  25.811  1.00  0.00    -0.377 OA
BRANCH   2   3
ATOM      3  C   UNL A   1      38.725  20.953  25.741  1.00  0.00     0.188 C 
BRANCH   3   4
ATOM      4  C   UNL A   1      37.884  22.233  25.787  1.00  0.00     0.188 C 
BRANCH   4   5
ATOM      5  O   UNL A   1      36.496  22.186  25.476  1.00  0.00    -0.376 OA
BRANCH   5   6
ATOM      6  C   UNL A   1      36.106  21.102  24.631  1.00  0.00     0.202 C 
BRANCH   6   7
ATOM      7  C   UNL A   1      34.812  20.390  25.002  1.00  0.00     0.261 C 
BRANCH   7   8
ATOM      8  O   UNL A   1      33.947  21.328  25.642  1.00  0.00    -0.460 OA
BRANCH   8   9
ATOM      9  C   UNL A   1      32.690  21.342  25.172  1.00  0.00     0.338 C 
ATOM     10  O   UNL A   1      31.862  20.455  25.219  1.00  0.00    -0.246 OA
BRANCH   9  11
ATOM     11  C   UNL A   1      32.345  22.762  25.023  1.00  0.00     0.060 A 
ATOM     12  C   UNL A   1      31.749  25.392  24.316  1.00  0.00    -0.012 A 
ATOM     13  C   UNL A   1      30.919  24.683  25.212  1.00  0.00     0.010 A 
ATOM     14  C   UNL A   1      32.810  24.717  23.674  1.00  0.00    -0.042 A 
ATOM     15  C   UNL A   1      31.214  23.369  25.565  1.00  0.00     0.016 A 
ATOM     16  C   UNL A   1      33.103  23.414  24.054  1.00  0.00     0.019 A 
ATOM     17  C   UNL A   1      33.647  25.279  22.560  1.00  0.00     0.045 C 
BRANCH  12  18
ATOM     18  C   UNL A   1      31.709  26.855  24.315  1.00  0.00     0.018 A 
ATOM     19  C   UNL A   1      29.189  29.334  22.904  1.00  0.00     0.044 C 
ATOM     20  C   UNL A   1      30.348  28.787  23.681  1.00  0.00    -0.050 A 
ATOM     21  C   UNL A   1      31.028  29.558  24.627  1.00  0.00     0.006 A 
ATOM     22  C   UNL A   1      30.705  27.449  23.526  1.00  0.00     0.015 A 
ATOM     23  C   UNL A   1      32.078  29.005  25.366  1.00  0.00     0.040 A 
ATOM     24  C   UNL A   1      32.423  27.666  25.196  1.00  0.00     0.131 A 
ATOM     25  F   UNL A   1      33.381  27.146  25.979  1.00  0.00    -0.206 F 
ENDBRANCH  12  18
ENDBRANCH   9  11
ENDBRANCH   8   9
ENDBRANCH   7   8
ENDBRANCH   6   7
ENDBRANCH   5   6
ENDBRANCH   4   5
ENDBRANCH   3   4
ENDBRANCH   2   3
ENDBRANCH   1   2
BRANCH   1  26
ATOM     26  C   UNL A   1      42.257  20.091  26.112  1.00  0.00     0.188 C 
BRANCH  26  27
ATOM     27  O   UNL A   1      42.732  21.223  25.394  1.00  0.00    -0.376 OA
BRANCH  27  28
ATOM     28  C   UNL A   1      43.708  22.025  26.047  1.00  0.00     0.202 C 
BRANCH  28  29
ATOM     29  C   UNL A   1      43.220  22.764  27.308  1.00  0.00     0.261 C 
BRANCH  29  30
ATOM     30  O   UNL A   1      41.960  23.420  27.027  1.00  0.00    -0.460 OA
BRANCH  30  31
ATOM     31  C   UNL A   1      42.046  24.621  26.381  1.00  0.00     0.338 C 
ATOM     32  O   UNL A   1      42.827  24.881  25.483  1.00  0.00    -0.246 OA
BRANCH  31  33
ATOM     33  C   UNL A   1      41.227  25.642  27.118  1.00  0.00     0.060 A 
ATOM     34  C   UNL A   1      40.593  26.665  26.390  1.00  0.00     0.016 A 
ATOM     35  C   UNL A   1      41.430  25.809  28.487  1.00  0.00     0.016 A 
ATOM     36  C   UNL A   1      40.364  27.923  26.982  1.00  0.00     0.010 A 
ATOM     37  C   UNL A   1      41.269  27.074  29.038  1.00  0.00     0.010 A 
ATOM     38  C   UNL A   1      40.808  28.171  28.283  1.00  0.00    -0.014 A 
BRANCH  38  39
ATOM     39  C   UNL A   1      41.053  29.528  28.849  1.00  0.00     0.031 A 
ATOM     40  C   UNL A   1      39.891  30.439  29.149  1.00  0.00     0.074 A 
ATOM     41  C   UNL A   1      42.264  29.795  29.419  1.00  0.00     0.049 A 
ATOM     42  N   UNL A   1      39.967  31.609  29.688  1.00  0.00    -0.248 NA
ATOM     43  C   UNL A   1      38.498  30.079  28.899  1.00  0.00     0.031 C 
ATOM     44  C   UNL A   1      42.572  30.814  30.421  1.00  0.00     0.029 A 
ATOM     45  N   UNL A   1      43.503  29.157  29.266  1.00  0.00    -0.354 N 
ATOM     46  C   UNL A   1      38.728  31.960  30.203  1.00  0.00     0.074 A 
ATOM     47  C   UNL A   1      37.834  31.018  29.584  1.00  0.00     0.031 C 
ATOM     48  C   UNL A   1      43.877  30.837  30.720  1.00  0.00     0.029 A 
ATOM     49  C   UNL A   1      44.512  30.057  29.698  1.00  0.00     0.049 A 
ATOM     50  H   UNL A   1      43.648  28.247  28.920  1.00  0.00     0.167 HD
ATOM     51  C   UNL A   1      38.656  32.916  31.191  1.00  0.00     0.034 A 
ATOM     52  C   UNL A   1      45.389  30.607  28.808  1.00  0.00     0.034 A 
ATOM     53  C   UNL A   1      39.973  33.567  31.399  1.00  0.00     0.049 A 
ATOM     54  C   UNL A   1      45.056  32.099  28.630  1.00  0.00     0.074 A 
ATOM     55  C   UNL A   1      40.777  33.840  32.494  1.00  0.00     0.029 A 
ATOM     56  N   UNL A   1      40.750  33.910  30.288  1.00  0.00    -0.354 N 
ATOM     57  N   UNL A   1      43.864  32.603  28.881  1.00  0.00    -0.248 NA
ATOM     58  C   UNL A   1      46.038  33.163  28.418  1.00  0.00     0.031 C 
ATOM     59  C   UNL A   1      42.088  34.157  32.020  1.00  0.00     0.029 A 
ATOM     60  C   UNL A   1      42.056  34.188  30.632  1.00  0.00     0.049 A 
ATOM     61  H   UNL A   1      40.404  33.949  29.367  1.00  0.00     0.167 HD
ATOM     62  C   UNL A   1      43.943  33.956  29.074  1.00  0.00     0.074 A 
ATOM     63  C   UNL A   1      45.311  34.270  28.681  1.00  0.00     0.031 C 
ATOM     64  C   UNL A   1      42.964  34.740  29.636  1.00  0.00     0.034 A 
BRANCH  51  65
ATOM     65  C   UNL A   1      37.462  33.178  32.143  1.00  0.00     0.023 A 
ATOM     66  C   UNL A   1      36.338  33.919  31.687  1.00  0.00     0.031 A 
ATOM     67  C   UNL A   1      37.377  32.810  33.505  1.00  0.00     0.131 A 
ATOM     68  C   UNL A   1      35.259  34.273  32.536  1.00  0.00     0.055 A 
ATOM     69  C   UNL A   1      36.283  33.116  34.337  1.00  0.00     0.041 A 
ATOM     70  F   UNL A   1      38.352  32.154  34.138  1.00  0.00    -0.206 F 
ATOM     71  C   UNL A   1      35.220  33.857  33.861  1.00  0.00     0.022 A 
BRANCH  68  72
ATOM     72  S   UNL A   1      33.880  35.279  31.900  1.00  0.00     0.124 S 
ATOM     73  O   UNL A   1      34.007  35.108  30.457  1.00  0.00    -0.237 OA
ATOM     74  O   UNL A   1      32.718  34.660  32.527  1.00  0.00    -0.237 OA
ATOM     75  O   UNL A   1      34.190  36.625  32.386  1.00  0.00    -0.744 OA
ENDBRANCH  68  72
ENDBRANCH  51  65
BRANCH  52  76
ATOM     76  C   UNL A   1      45.925  29.510  27.932  1.00  0.00     0.023 A 
ATOM     77  C   UNL A   1      46.667  28.513  28.640  1.00  0.00     0.031 A 
ATOM     78  C   UNL A   1      45.217  29.083  26.799  1.00  0.00     0.131 A 
ATOM     79  C   UNL A   1      46.456  27.144  28.387  1.00  0.00     0.055 A 
ATOM     80  C   UNL A   1      45.071  27.713  26.507  1.00  0.00     0.041 A 
ATOM     81  F   UNL A   1      44.495  29.954  26.079  1.00  0.00    -0.206 F 
ATOM     82  C   UNL A   1      45.624  26.740  27.344  1.00  0.00     0.022 A 
BRANCH  79  83
ATOM     83  S   UNL A   1      46.994  25.903  29.623  1.00  0.00     0.124 S 
ATOM     84  O   UNL A   1      48.338  25.575  29.163  1.00  0.00    -0.237 OA
ATOM     85  O   UNL A   1      46.918  26.635  30.883  1.00  0.00    -0.237 OA
ATOM     86  O   UNL A   1      46.000  24.839  29.488  1.00  0.00    -0.744 OA
ENDBRANCH  79  83
ENDBRANCH  52  76
BRANCH  64  87
ATOM     87  C   UNL A   1      42.737  36.193  29.278  1.00  0.00     0.023 A 
ATOM     88  C   UNL A   1      43.430  37.214  29.925  1.00  0.00     0.031 A 
ATOM     89  C   UNL A   1      41.984  36.585  28.136  1.00  0.00     0.131 A 
ATOM     90  C   UNL A   1      43.321  38.541  29.494  1.00  0.00     0.055 A 
ATOM     91  C   UNL A   1      41.961  37.891  27.648  1.00  0.00     0.041 A 
ATOM     92  F   UNL A   1      41.260  35.718  27.413  1.00  0.00    -0.206 F 
ATOM     93  C   UNL A   1      42.626  38.887  28.339  1.00  0.00     0.022 A 
BRANCH  90  94
ATOM     94  S   UNL A   1      44.060  39.801  30.549  1.00  0.00     0.124 S 
ATOM     95  O   UNL A   1      43.027  39.971  31.568  1.00  0.00    -0.237 OA
ATOM     96  O   UNL A   1      45.288  39.154  30.999  1.00  0.00    -0.237 OA
ATOM     97  O   UNL A   1      44.243  40.937  29.650  1.00  0.00    -0.744 OA
ENDBRANCH  90  94
ENDBRANCH  64  87
ENDBRANCH  38  39
ENDBRANCH  31  33
ENDBRANCH  30  31
ENDBRANCH  29  30
ENDBRANCH  28  29
ENDBRANCH  27  28
ENDBRANCH  26  27
ENDBRANCH   1  26
TORSDOF 24
ENDMDL
MODEL 3
REMARK VINA RESULT:      -9.6      4.524     10.921
REMARK SMILES Cc1ccc(F)c(-c2ccc(C(=O)OCCOCCOCCOCCOC(=O)c3ccc(-c4c5nc(c(-c6cc(S(=O)(=O)[O-])ccc6F)c6ccc([nH]6)c(-c6cc(S(=O)(=O)[O-])ccc6F)c6nc(c(-c7cc(S(=O)(=O)[O-])ccc7F)c7ccc4[nH]7)C=C6)C=C5)cc3)cc2C)c1
REMARK SMILES IDX 21 1 20 2 19 3 18 4 17 5 16 6 15 7 14 8 12 9 13 10 11 11
REMARK SMILES IDX 8 12 9 13 93 14 10 15 92 16 94 17 7 18 1 19 2 20 3 21 95 22
REMARK SMILES IDX 4 23 5 24 6 25 22 26 23 27 24 28 25 29 26 30 27 31 28 32
REMARK SMILES IDX 29 33 30 34 91 35 31 36 90 37 32 38 33 39 34 40 84 41 35 42
REMARK SMILES IDX 89 43 83 44 85 45 36 46 88 47 82 48 81 49 37 51 69 52 49 53
REMARK SMILES IDX 68 54 50 55 53 56 67 57 86 58 51 59 52 60 66 62 87 63 54 64
REMARK SMILES IDX 38 65 39 66 47 67 40 68 46 69 48 70 45 71 41 72 42 73 43 74
REMARK SMILES IDX 44 75 70 76 71 77 79 78 72 79 78 80 80 81 77 82 73 83 74 84
REMARK SMILES IDX 75 85 76 86 55 87 56 88 64 89 57 90 63 91 65 92 62 93 58 94
REMARK SMILES IDX 59 95 60 96 61 97
REMARK H PARENT 85 50 53 61
REMARK Flexibility Score: inf
ROOT
ATOM      1  C   UNL A   1      41.164  19.802  26.210  1.00  0.00     0.188 C 
ENDROOT
BRANCH   1   2
ATOM      2  O   UNL A   1      40.477  20.870  25.557  1.00  0.00    -0.377 OA
BRANCH   2   3
ATOM      3  C   UNL A   1      39.225  21.116  26.179  1.00  0.00     0.188 C 
BRANCH   3   4
ATOM      4  C   UNL A   1      38.652  22.525  25.996  1.00  0.00     0.188 C 
BRANCH   4   5
ATOM      5  O   UNL A   1      37.263  22.703  25.740  1.00  0.00    -0.376 OA
BRANCH   5   6
ATOM      6  C   UNL A   1      36.733  21.876  24.703  1.00  0.00     0.202 C 
BRANCH   6   7
ATOM      7  C   UNL A   1      35.687  20.853  25.124  1.00  0.00     0.261 C 
BRANCH   7   8
ATOM      8  O   UNL A   1      34.787  21.478  26.040  1.00  0.00    -0.460 OA
BRANCH   8   9
ATOM      9  C   UNL A   1      33.526  21.590  25.595  1.00  0.00     0.338 C 
ATOM     10  O   UNL A   1      32.703  20.711  25.444  1.00  0.00    -0.246 OA
BRANCH   9  11
ATOM     11  C   UNL A   1      33.172  23.005  25.780  1.00  0.00     0.060 A 
ATOM     12  C   UNL A   1      32.428  25.690  25.702  1.00  0.00    -0.012 A 
ATOM     13  C   UNL A   1      31.900  24.827  26.686  1.00  0.00     0.010 A 
ATOM     14  C   UNL A   1      33.234  25.156  24.672  1.00  0.00    -0.042 A 
ATOM     15  C   UNL A   1      32.269  23.485  26.726  1.00  0.00     0.016 A 
ATOM     16  C   UNL A   1      33.609  23.820  24.739  1.00  0.00     0.019 A 
ATOM     17  C   UNL A   1      33.700  25.908  23.458  1.00  0.00     0.045 C 
BRANCH  12  18
ATOM     18  C   UNL A   1      32.411  27.134  25.939  1.00  0.00     0.018 A 
ATOM     19  C   UNL A   1      35.040  29.525  27.300  1.00  0.00     0.044 C 
ATOM     20  C   UNL A   1      33.785  29.030  26.649  1.00  0.00    -0.050 A 
ATOM     21  C   UNL A   1      32.920  29.892  25.972  1.00  0.00     0.006 A 
ATOM     22  C   UNL A   1      33.514  27.663  26.637  1.00  0.00     0.015 A 
ATOM     23  C   UNL A   1      31.778  29.392  25.338  1.00  0.00     0.040 A 
ATOM     24  C   UNL A   1      31.521  28.023  25.338  1.00  0.00     0.131 A 
ATOM     25  F   UNL A   1      30.462  27.569  24.651  1.00  0.00    -0.206 F 
ENDBRANCH  12  18
ENDBRANCH   9  11
ENDBRANCH   8   9
ENDBRANCH   7   8
ENDBRANCH   6   7
ENDBRANCH   5   6
ENDBRANCH   4   5
ENDBRANCH   3   4
ENDBRANCH   2   3
ENDBRANCH   1   2
BRANCH   1  26
ATOM     26  C   UNL A   1      42.645  20.092  26.180  1.00  0.00     0.188 C 
BRANCH  26  27
ATOM     27  O   UNL A   1      43.088  21.212  25.424  1.00  0.00    -0.376 OA
BRANCH  27  28
ATOM     28  C   UNL A   1      43.955  22.122  26.088  1.00  0.00     0.202 C 
BRANCH  28  29
ATOM     29  C   UNL A   1      43.386  22.764  27.368  1.00  0.00     0.261 C 
BRANCH  29  30
ATOM     30  O   UNL A   1      42.063  23.288  27.100  1.00  0.00    -0.460 OA
BRANCH  30  31
ATOM     31  C   UNL A   1      42.020  24.458  26.394  1.00  0.00     0.338 C 
ATOM     32  O   UNL A   1      42.637  24.682  25.368  1.00  0.00    -0.246 OA
BRANCH  31  33
ATOM     33  C   UNL A   1      41.315  25.504  27.209  1.00  0.00     0.060 A 
ATOM     34  C   UNL A   1      40.620  26.533  26.547  1.00  0.00     0.016 A 
ATOM     35  C   UNL A   1      41.681  25.681  28.542  1.00  0.00     0.016 A 
ATOM     36  C   UNL A   1      40.489  27.802  27.146  1.00  0.00     0.010 A 
ATOM     37  C   UNL A   1      41.612  26.955  29.091  1.00  0.00     0.010 A 
ATOM     38  C   UNL A   1      41.088  28.054  28.382  1.00  0.00    -0.014 A 
BRANCH  38  39
ATOM     39  C   UNL A   1      41.426  29.411  28.897  1.00  0.00     0.031 A 
ATOM     40  C   UNL A   1      40.341  30.298  29.450  1.00  0.00     0.074 A 
ATOM     41  C   UNL A   1      42.727  29.697  29.196  1.00  0.00     0.049 A 
ATOM     42  N   UNL A   1      40.511  31.465  29.973  1.00  0.00    -0.248 NA
ATOM     43  C   UNL A   1      38.933  29.913  29.501  1.00  0.00     0.031 C 
ATOM     44  C   UNL A   1      43.225  30.715  30.120  1.00  0.00     0.029 A 
ATOM     45  N   UNL A   1      43.914  29.084  28.773  1.00  0.00    -0.354 N 
ATOM     46  C   UNL A   1      39.406  31.789  30.746  1.00  0.00     0.074 A 
ATOM     47  C   UNL A   1      38.416  30.835  30.323  1.00  0.00     0.031 C 
ATOM     48  C   UNL A   1      44.564  30.760  30.131  1.00  0.00     0.029 A 
ATOM     49  C   UNL A   1      44.977  30.000  28.988  1.00  0.00     0.049 A 
ATOM     50  H   UNL A   1      43.997  28.179  28.394  1.00  0.00     0.167 HD
ATOM     51  C   UNL A   1      39.532  32.736  31.737  1.00  0.00     0.034 A 
ATOM     52  C   UNL A   1      45.633  30.573  27.936  1.00  0.00     0.034 A 
ATOM     53  C   UNL A   1      40.852  33.410  31.664  1.00  0.00     0.049 A 
ATOM     54  C   UNL A   1      45.244  32.060  27.850  1.00  0.00     0.074 A 
ATOM     55  C   UNL A   1      41.868  33.691  32.564  1.00  0.00     0.029 A 
ATOM     56  N   UNL A   1      41.365  33.776  30.416  1.00  0.00    -0.354 N 
ATOM     57  N   UNL A   1      44.125  32.539  28.358  1.00  0.00    -0.248 NA
ATOM     58  C   UNL A   1      46.139  33.143  27.444  1.00  0.00     0.031 C 
ATOM     59  C   UNL A   1      43.041  34.036  31.822  1.00  0.00     0.029 A 
ATOM     60  C   UNL A   1      42.710  34.077  30.474  1.00  0.00     0.049 A 
ATOM     61  H   UNL A   1      40.829  33.815  29.591  1.00  0.00     0.167 HD
ATOM     62  C   UNL A   1      44.221  33.892  28.544  1.00  0.00     0.074 A 
ATOM     63  C   UNL A   1      45.467  34.234  27.870  1.00  0.00     0.031 C 
ATOM     64  C   UNL A   1      43.373  34.653  29.313  1.00  0.00     0.034 A 
BRANCH  51  65
ATOM     65  C   UNL A   1      38.566  32.969  32.926  1.00  0.00     0.023 A 
ATOM     66  C   UNL A   1      38.809  32.333  34.174  1.00  0.00     0.031 A 
ATOM     67  C   UNL A   1      37.371  33.723  32.903  1.00  0.00     0.131 A 
ATOM     68  C   UNL A   1      37.914  32.431  35.270  1.00  0.00     0.055 A 
ATOM     69  C   UNL A   1      36.506  33.862  34.004  1.00  0.00     0.041 A 
ATOM     70  F   UNL A   1      36.937  34.354  31.810  1.00  0.00    -0.206 F 
ATOM     71  C   UNL A   1      36.767  33.210  35.194  1.00  0.00     0.022 A 
BRANCH  68  72
ATOM     72  S   UNL A   1      38.257  31.538  36.820  1.00  0.00     0.124 S 
ATOM     73  O   UNL A   1      38.372  30.156  36.367  1.00  0.00    -0.237 OA
ATOM     74  O   UNL A   1      39.483  32.172  37.289  1.00  0.00    -0.237 OA
ATOM     75  O   UNL A   1      37.075  31.815  37.639  1.00  0.00    -0.744 OA
ENDBRANCH  68  72
ENDBRANCH  51  65
BRANCH  52  76
ATOM     76  C   UNL A   1      45.986  29.492  26.953  1.00  0.00     0.023 A 
ATOM     77  C   UNL A   1      47.186  28.784  27.277  1.00  0.00     0.031 A 
ATOM     78  C   UNL A   1      44.985  28.768  26.290  1.00  0.00     0.131 A 
ATOM     79  C   UNL A   1      47.234  27.378  27.201  1.00  0.00     0.055 A 
ATOM     80  C   UNL A   1      45.073  27.370  26.148  1.00  0.00     0.041 A 
ATOM     81  F   UNL A   1      43.829  29.358  25.951  1.00  0.00    -0.206 F 
ATOM     82  C   UNL A   1      46.160  26.664  26.673  1.00  0.00     0.022 A 
BRANCH  79  83
ATOM     83  S   UNL A   1      48.549  26.469  28.096  1.00  0.00     0.124 S 
ATOM     84  O   UNL A   1      48.774  27.321  29.258  1.00  0.00    -0.237 OA
ATOM     85  O   UNL A   1      47.932  25.176  28.369  1.00  0.00    -0.237 OA
ATOM     86  O   UNL A   1      49.643  26.419  27.126  1.00  0.00    -0.744 OA
ENDBRANCH  79  83
ENDBRANCH  52  76
BRANCH  64  87
ATOM     87  C   UNL A   1      43.050  36.104  29.027  1.00  0.00     0.023 A 
ATOM     88  C   UNL A   1      43.704  37.135  29.697  1.00  0.00     0.031 A 
ATOM     89  C   UNL A   1      42.235  36.498  27.930  1.00  0.00     0.131 A 
ATOM     90  C   UNL A   1      43.503  38.471  29.330  1.00  0.00     0.055 A 
ATOM     91  C   UNL A   1      42.119  37.821  27.502  1.00  0.00     0.041 A 
ATOM     92  F   UNL A   1      41.538  35.622  27.193  1.00  0.00    -0.206 F 
ATOM     93  C   UNL A   1      42.749  38.824  28.215  1.00  0.00     0.022 A 
BRANCH  90  94
ATOM     94  S   UNL A   1      44.205  39.726  30.416  1.00  0.00     0.124 S 
ATOM     95  O   UNL A   1      45.316  38.999  31.024  1.00  0.00    -0.237 OA
ATOM     96  O   UNL A   1      44.579  40.780  29.477  1.00  0.00    -0.237 OA
ATOM     97  O   UNL A   1      43.105  40.054  31.319  1.00  0.00    -0.744 OA
ENDBRANCH  90  94
ENDBRANCH  64  87
ENDBRANCH  38  39
ENDBRANCH  31  33
ENDBRANCH  30  31
ENDBRANCH  29  30
ENDBRANCH  28  29
ENDBRANCH  27  28
ENDBRANCH  26  27
ENDBRANCH   1  26
TORSDOF 24
ENDMDL
