MODEL 1
REMARK VINA RESULT:      -9.3      0.000      0.000
REMARK SMILES Cc1ccc(C(=O)N2C[C@@H](C(=O)OCCOCCOCCOCCOC(=O)c3ccc(-c4c5nc(c(-c6cc(S(=O)(=O)[O-])ccc6F)c6ccc([nH]6)c(-c6cc(S(=O)(=O)[O-])ccc6F)c6nc(c(-c7cc(S(=O)(=O)[O-])ccc7F)c7ccc4[nH]7)C=C6)C=C5)cc3)C[C@H](C(=O)N3CCOCC3)C2)cc1F
REMARK SMILES IDX 20 1 19 2 18 3 17 4 16 5 15 6 14 7 13 8 11 9 12 10 10 11
REMARK SMILES IDX 8 12 9 13 101 14 92 15 91 16 6 17 7 18 5 19 1 20 2 21 3 22
REMARK SMILES IDX 103 23 4 24 102 25 104 26 93 27 94 28 95 29 96 30 100 31
REMARK SMILES IDX 97 32 99 33 98 34 21 35 22 36 23 37 24 38 25 39 26 40 27 41
REMARK SMILES IDX 28 42 29 43 90 44 30 45 89 46 31 47 32 48 33 49 83 50 34 51
REMARK SMILES IDX 88 52 82 53 84 54 35 55 87 56 81 57 80 58 36 60 68 61 48 62
REMARK SMILES IDX 67 63 49 64 52 65 66 66 85 67 50 68 51 69 65 71 86 72 53 73
REMARK SMILES IDX 37 74 38 75 46 76 39 77 45 78 47 79 44 80 40 81 41 82 42 83
REMARK SMILES IDX 43 84 69 85 70 86 78 87 71 88 77 89 79 90 76 91 72 92 73 93
REMARK SMILES IDX 74 94 75 95 54 96 55 97 63 98 56 99 62 100 64 101 61 102
REMARK SMILES IDX 57 103 58 104 59 105 60 106
REMARK H PARENT 84 59 52 70
REMARK Flexibility Score: inf
ROOT
ATOM      1  C   UNL A   1      35.397  31.773  31.025  1.00  0.00     0.188 C 
ENDROOT
BRANCH   1   2
ATOM      2  O   UNL A   1      34.799  32.984  30.578  1.00  0.00    -0.377 OA
BRANCH   2   3
ATOM      3  C   UNL A   1      34.924  33.358  29.226  1.00  0.00     0.188 C 
BRANCH   3   4
ATOM      4  C   UNL A   1      34.352  32.448  28.143  1.00  0.00     0.188 C 
BRANCH   4   5
ATOM      5  O   UNL A   1      35.173  31.418  27.659  1.00  0.00    -0.376 OA
BRANCH   5   6
ATOM      6  C   UNL A   1      34.946  30.056  27.981  1.00  0.00     0.202 C 
BRANCH   6   7
ATOM      7  C   UNL A   1      34.303  28.975  27.081  1.00  0.00     0.261 C 
BRANCH   7   8
ATOM      8  O   UNL A   1      33.913  29.299  25.736  1.00  0.00    -0.463 OA
BRANCH   8   9
ATOM      9  C   UNL A   1      32.609  29.618  25.604  1.00  0.00     0.310 C 
ATOM     10  O   UNL A   1      32.071  30.555  26.192  1.00  0.00    -0.252 OA
BRANCH   9  11
ATOM     11  C   UNL A   1      31.792  28.744  24.688  1.00  0.00     0.119 C 
ATOM     12  N   UNL A   1      31.208  26.428  24.386  1.00  0.00    -0.337 N 
ATOM     13  C   UNL A   1      32.261  27.320  24.841  1.00  0.00     0.135 C 
ATOM     14  C   UNL A   1      30.711  26.597  23.015  1.00  0.00     0.133 C 
ATOM     15  C   UNL A   1      30.458  28.073  22.630  1.00  0.00     0.099 C 
ATOM     16  C   UNL A   1      31.529  29.025  23.208  1.00  0.00     0.032 C 
BRANCH  12  17
ATOM     17  C   UNL A   1      30.655  25.560  25.308  1.00  0.00     0.254 C 
ATOM     18  O   UNL A   1      29.696  25.847  26.019  1.00  0.00    -0.269 OA
BRANCH  17  19
ATOM     19  C   UNL A   1      31.388  24.306  25.581  1.00  0.00     0.042 A 
ATOM     20  C   UNL A   1      33.985  20.898  25.636  1.00  0.00     0.047 C 
ATOM     21  C   UNL A   1      33.037  22.054  25.672  1.00  0.00    -0.015 A 
ATOM     22  C   UNL A   1      31.829  22.005  24.969  1.00  0.00     0.007 A 
ATOM     23  C   UNL A   1      33.383  23.228  26.351  1.00  0.00     0.126 A 
ATOM     24  C   UNL A   1      31.011  23.130  24.918  1.00  0.00     0.014 A 
ATOM     25  C   UNL A   1      32.574  24.356  26.310  1.00  0.00     0.053 A 
ATOM     26  F   UNL A   1      34.544  23.289  27.019  1.00  0.00    -0.207 F 
ENDBRANCH  17  19
ENDBRANCH  12  17
BRANCH  15  27
ATOM     27  C   UNL A   1      28.952  28.402  22.795  1.00  0.00     0.227 C 
ATOM     28  O   UNL A   1      28.234  27.607  23.414  1.00  0.00    -0.275 OA
ATOM     29  N   UNL A   1      28.494  29.676  22.533  1.00  0.00    -0.338 N 
ATOM     30  C   UNL A   1      28.289  30.226  21.190  1.00  0.00     0.148 C 
ATOM     31  C   UNL A   1      27.612  30.318  23.506  1.00  0.00     0.148 C 
ATOM     32  C   UNL A   1      28.505  31.747  21.210  1.00  0.00     0.181 C 
ATOM     33  C   UNL A   1      27.838  31.835  23.479  1.00  0.00     0.181 C 
ATOM     34  O   UNL A   1      27.615  32.366  22.159  1.00  0.00    -0.378 OA
ENDBRANCH  15  27
ENDBRANCH   9  11
ENDBRANCH   8   9
ENDBRANCH   7   8
ENDBRANCH   6   7
ENDBRANCH   5   6
ENDBRANCH   4   5
ENDBRANCH   3   4
ENDBRANCH   2   3
ENDBRANCH   1   2
BRANCH   1  35
ATOM     35  C   UNL A   1      36.918  31.527  30.933  1.00  0.00     0.188 C 
BRANCH  35  36
ATOM     36  O   UNL A   1      37.429  30.462  31.732  1.00  0.00    -0.376 OA
BRANCH  36  37
ATOM     37  C   UNL A   1      37.315  30.626  33.142  1.00  0.00     0.202 C 
BRANCH  37  38
ATOM     38  C   UNL A   1      38.641  30.792  33.902  1.00  0.00     0.261 C 
BRANCH  38  39
ATOM     39  O   UNL A   1      38.610  31.805  34.905  1.00  0.00    -0.460 OA
BRANCH  39  40
ATOM     40  C   UNL A   1      38.368  31.300  36.125  1.00  0.00     0.338 C 
ATOM     41  O   UNL A   1      38.619  30.160  36.505  1.00  0.00    -0.246 OA
BRANCH  40  42
ATOM     42  C   UNL A   1      37.667  32.291  36.958  1.00  0.00     0.060 A 
ATOM     43  C   UNL A   1      37.573  33.544  36.332  1.00  0.00     0.016 A 
ATOM     44  C   UNL A   1      38.039  32.152  38.292  1.00  0.00     0.016 A 
ATOM     45  C   UNL A   1      38.345  34.563  36.836  1.00  0.00     0.010 A 
ATOM     46  C   UNL A   1      38.809  33.166  38.799  1.00  0.00     0.010 A 
ATOM     47  C   UNL A   1      39.066  34.284  37.989  1.00  0.00    -0.014 A 
BRANCH  47  48
ATOM     48  C   UNL A   1      40.256  35.025  38.322  1.00  0.00     0.031 A 
ATOM     49  C   UNL A   1      40.129  36.288  39.044  1.00  0.00     0.074 A 
ATOM     50  C   UNL A   1      41.455  34.509  37.976  1.00  0.00     0.049 A 
ATOM     51  N   UNL A   1      40.995  37.237  38.984  1.00  0.00    -0.248 NA
ATOM     52  C   UNL A   1      38.946  36.605  39.834  1.00  0.00     0.031 C 
ATOM     53  C   UNL A   1      42.736  34.854  38.570  1.00  0.00     0.029 A 
ATOM     54  N   UNL A   1      41.777  33.663  36.906  1.00  0.00    -0.354 N 
ATOM     55  C   UNL A   1      40.645  38.142  39.958  1.00  0.00     0.074 A 
ATOM     56  C   UNL A   1      39.304  37.778  40.361  1.00  0.00     0.031 C 
ATOM     57  C   UNL A   1      43.715  34.428  37.759  1.00  0.00     0.029 A 
ATOM     58  C   UNL A   1      43.090  33.970  36.526  1.00  0.00     0.049 A 
ATOM     59  H   UNL A   1      41.191  32.983  36.499  1.00  0.00     0.167 HD
ATOM     60  C   UNL A   1      41.599  38.970  40.470  1.00  0.00     0.034 A 
ATOM     61  C   UNL A   1      43.492  34.333  35.276  1.00  0.00     0.034 A 
ATOM     62  C   UNL A   1      42.893  38.742  39.826  1.00  0.00     0.049 A 
ATOM     63  C   UNL A   1      44.216  35.660  35.259  1.00  0.00     0.074 A 
ATOM     64  C   UNL A   1      43.955  37.922  40.171  1.00  0.00     0.029 A 
ATOM     65  N   UNL A   1      43.101  39.116  38.503  1.00  0.00    -0.354 N 
ATOM     66  N   UNL A   1      44.129  36.539  36.216  1.00  0.00    -0.248 NA
ATOM     67  C   UNL A   1      45.042  36.129  34.151  1.00  0.00     0.031 C 
ATOM     68  C   UNL A   1      44.802  37.792  39.048  1.00  0.00     0.029 A 
ATOM     69  C   UNL A   1      44.266  38.541  38.014  1.00  0.00     0.049 A 
ATOM     70  H   UNL A   1      42.507  39.706  37.986  1.00  0.00     0.167 HD
ATOM     71  C   UNL A   1      44.788  37.687  35.858  1.00  0.00     0.074 A 
ATOM     72  C   UNL A   1      45.382  37.358  34.576  1.00  0.00     0.031 C 
ATOM     73  C   UNL A   1      44.734  38.800  36.652  1.00  0.00     0.034 A 
BRANCH  60  74
ATOM     74  C   UNL A   1      41.410  39.659  41.802  1.00  0.00     0.023 A 
ATOM     75  C   UNL A   1      40.782  40.914  41.948  1.00  0.00     0.031 A 
ATOM     76  C   UNL A   1      41.773  39.017  43.005  1.00  0.00     0.131 A 
ATOM     77  C   UNL A   1      40.389  41.393  43.211  1.00  0.00     0.055 A 
ATOM     78  C   UNL A   1      41.449  39.531  44.265  1.00  0.00     0.041 A 
ATOM     79  F   UNL A   1      42.409  37.838  43.015  1.00  0.00    -0.206 F 
ATOM     80  C   UNL A   1      40.721  40.705  44.373  1.00  0.00     0.022 A 
BRANCH  77  81
ATOM     81  S   UNL A   1      39.308  42.846  43.365  1.00  0.00     0.124 S 
ATOM     82  O   UNL A   1      38.120  42.286  44.010  1.00  0.00    -0.237 OA
ATOM     83  O   UNL A   1      40.103  43.743  44.197  1.00  0.00    -0.237 OA
ATOM     84  O   UNL A   1      39.103  43.275  41.984  1.00  0.00    -0.744 OA
ENDBRANCH  77  81
ENDBRANCH  60  74
BRANCH  61  85
ATOM     85  C   UNL A   1      42.653  33.851  34.153  1.00  0.00     0.023 A 
ATOM     86  C   UNL A   1      42.832  32.565  33.621  1.00  0.00     0.031 A 
ATOM     87  C   UNL A   1      41.887  34.780  33.424  1.00  0.00     0.131 A 
ATOM     88  C   UNL A   1      42.328  32.274  32.344  1.00  0.00     0.055 A 
ATOM     89  C   UNL A   1      41.360  34.473  32.169  1.00  0.00     0.041 A 
ATOM     90  F   UNL A   1      41.696  36.024  33.897  1.00  0.00    -0.206 F 
ATOM     91  C   UNL A   1      41.594  33.217  31.619  1.00  0.00     0.022 A 
BRANCH  88  92
ATOM     92  S   UNL A   1      42.671  30.677  31.558  1.00  0.00     0.124 S 
ATOM     93  O   UNL A   1      42.722  29.766  32.702  1.00  0.00    -0.237 OA
ATOM     94  O   UNL A   1      41.507  30.504  30.690  1.00  0.00    -0.237 OA
ATOM     95  O   UNL A   1      43.941  30.896  30.886  1.00  0.00    -0.744 OA
ENDBRANCH  88  92
ENDBRANCH  61  85
BRANCH  73  96
ATOM     96  C   UNL A   1      45.168  40.214  36.305  1.00  0.00     0.023 A 
ATOM     97  C   UNL A   1      44.195  41.096  35.765  1.00  0.00     0.031 A 
ATOM     98  C   UNL A   1      46.478  40.717  36.340  1.00  0.00     0.131 A 
ATOM     99  C   UNL A   1      44.532  42.362  35.265  1.00  0.00     0.055 A 
ATOM    100  C   UNL A   1      46.801  42.015  35.917  1.00  0.00     0.041 A 
ATOM    101  F   UNL A   1      47.520  39.971  36.723  1.00  0.00    -0.206 F 
ATOM    102  C   UNL A   1      45.832  42.837  35.360  1.00  0.00     0.022 A 
BRANCH  99 103
ATOM    103  S   UNL A   1      43.316  43.340  34.338  1.00  0.00     0.124 S 
ATOM    104  O   UNL A   1      43.202  42.575  33.099  1.00  0.00    -0.237 OA
ATOM    105  O   UNL A   1      42.146  43.289  35.212  1.00  0.00    -0.237 OA
ATOM    106  O   UNL A   1      43.943  44.651  34.223  1.00  0.00    -0.744 OA
ENDBRANCH  99 103
ENDBRANCH  73  96
ENDBRANCH  47  48
ENDBRANCH  40  42
ENDBRANCH  39  40
ENDBRANCH  38  39
ENDBRANCH  37  38
ENDBRANCH  36  37
ENDBRANCH  35  36
ENDBRANCH   1  35
TORSDOF 26
ENDMDL
MODEL 2
REMARK VINA RESULT:      -8.9      8.133     12.861
REMARK SMILES Cc1ccc(C(=O)N2C[C@@H](C(=O)OCCOCCOCCOCCOC(=O)c3ccc(-c4c5nc(c(-c6cc(S(=O)(=O)[O-])ccc6F)c6ccc([nH]6)c(-c6cc(S(=O)(=O)[O-])ccc6F)c6nc(c(-c7cc(S(=O)(=O)[O-])ccc7F)c7ccc4[nH]7)C=C6)C=C5)cc3)C[C@H](C(=O)N3CCOCC3)C2)cc1F
REMARK SMILES IDX 20 1 19 2 18 3 17 4 16 5 15 6 14 7 13 8 11 9 12 10 10 11
REMARK SMILES IDX 8 12 9 13 101 14 92 15 91 16 6 17 7 18 5 19 1 20 2 21 3 22
REMARK SMILES IDX 103 23 4 24 102 25 104 26 93 27 94 28 95 29 96 30 100 31
REMARK SMILES IDX 97 32 99 33 98 34 21 35 22 36 23 37 24 38 25 39 26 40 27 41
REMARK SMILES IDX 28 42 29 43 90 44 30 45 89 46 31 47 32 48 33 49 83 50 34 51
REMARK SMILES IDX 88 52 82 53 84 54 35 55 87 56 81 57 80 58 36 60 68 61 48 62
REMARK SMILES IDX 67 63 49 64 52 65 66 66 85 67 50 68 51 69 65 71 86 72 53 73
REMARK SMILES IDX 37 74 38 75 46 76 39 77 45 78 47 79 44 80 40 81 41 82 42 83
REMARK SMILES IDX 43 84 69 85 70 86 78 87 71 88 77 89 79 90 76 91 72 92 73 93
REMARK SMILES IDX 74 94 75 95 54 96 55 97 63 98 56 99 62 100 64 101 61 102
REMARK SMILES IDX 57 103 58 104 59 105 60 106
REMARK H PARENT 84 59 52 70
REMARK Flexibility Score: inf
ROOT
ATOM      1  C   UNL A   1      41.475  28.935  34.343  1.00  0.00     0.188 C 
ENDROOT
BRANCH   1   2
ATOM      2  O   UNL A   1      40.112  28.935  33.933  1.00  0.00    -0.377 OA
BRANCH   2   3
ATOM      3  C   UNL A   1      39.795  28.662  32.588  1.00  0.00     0.188 C 
BRANCH   3   4
ATOM      4  C   UNL A   1      38.619  27.744  32.269  1.00  0.00     0.188 C 
BRANCH   4   5
ATOM      5  O   UNL A   1      38.587  27.144  31.000  1.00  0.00    -0.376 OA
BRANCH   5   6
ATOM      6  C   UNL A   1      39.213  27.731  29.872  1.00  0.00     0.202 C 
BRANCH   6   7
ATOM      7  C   UNL A   1      38.668  28.875  28.987  1.00  0.00     0.261 C 
BRANCH   7   8
ATOM      8  O   UNL A   1      37.683  29.781  29.511  1.00  0.00    -0.463 OA
BRANCH   8   9
ATOM      9  C   UNL A   1      38.196  30.926  30.003  1.00  0.00     0.310 C 
ATOM     10  O   UNL A   1      39.352  31.299  29.805  1.00  0.00    -0.252 OA
BRANCH   9  11
ATOM     11  C   UNL A   1      37.278  31.765  30.854  1.00  0.00     0.119 C 
ATOM     12  N   UNL A   1      37.332  33.113  32.848  1.00  0.00    -0.337 N 
ATOM     13  C   UNL A   1      37.912  31.944  32.209  1.00  0.00     0.135 C 
ATOM     14  C   UNL A   1      35.875  33.148  33.021  1.00  0.00     0.133 C 
ATOM     15  C   UNL A   1      35.095  32.700  31.763  1.00  0.00     0.099 C 
ATOM     16  C   UNL A   1      35.779  31.522  31.034  1.00  0.00     0.032 C 
BRANCH  12  17
ATOM     17  C   UNL A   1      38.172  34.170  33.140  1.00  0.00     0.254 C 
ATOM     18  O   UNL A   1      37.953  34.981  34.036  1.00  0.00    -0.269 OA
BRANCH  17  19
ATOM     19  C   UNL A   1      39.275  34.440  32.194  1.00  0.00     0.042 A 
ATOM     20  C   UNL A   1      42.394  34.344  29.258  1.00  0.00     0.047 C 
ATOM     21  C   UNL A   1      41.327  34.450  30.301  1.00  0.00    -0.015 A 
ATOM     22  C   UNL A   1      41.621  34.200  31.646  1.00  0.00     0.007 A 
ATOM     23  C   UNL A   1      40.006  34.727  29.932  1.00  0.00     0.126 A 
ATOM     24  C   UNL A   1      40.596  34.188  32.587  1.00  0.00     0.014 A 
ATOM     25  C   UNL A   1      38.976  34.721  30.863  1.00  0.00     0.053 A 
ATOM     26  F   UNL A   1      39.713  34.956  28.644  1.00  0.00    -0.207 F 
ENDBRANCH  17  19
ENDBRANCH  12  17
BRANCH  15  27
ATOM     27  C   UNL A   1      34.634  33.948  30.965  1.00  0.00     0.227 C 
ATOM     28  O   UNL A   1      34.541  33.864  29.735  1.00  0.00    -0.275 OA
ATOM     29  N   UNL A   1      34.055  35.011  31.625  1.00  0.00    -0.338 N 
ATOM     30  C   UNL A   1      34.794  36.002  32.412  1.00  0.00     0.148 C 
ATOM     31  C   UNL A   1      32.817  35.576  31.093  1.00  0.00     0.148 C 
ATOM     32  C   UNL A   1      33.904  36.540  33.543  1.00  0.00     0.181 C 
ATOM     33  C   UNL A   1      31.968  36.124  32.246  1.00  0.00     0.181 C 
ATOM     34  O   UNL A   1      32.697  37.111  32.999  1.00  0.00    -0.378 OA
ENDBRANCH  15  27
ENDBRANCH   9  11
ENDBRANCH   8   9
ENDBRANCH   7   8
ENDBRANCH   6   7
ENDBRANCH   5   6
ENDBRANCH   4   5
ENDBRANCH   3   4
ENDBRANCH   2   3
ENDBRANCH   1   2
BRANCH   1  35
ATOM     35  C   UNL A   1      42.600  29.501  33.450  1.00  0.00     0.188 C 
BRANCH  35  36
ATOM     36  O   UNL A   1      43.495  28.544  32.889  1.00  0.00    -0.376 OA
BRANCH  36  37
ATOM     37  C   UNL A   1      43.542  28.488  31.466  1.00  0.00     0.202 C 
BRANCH  37  38
ATOM     38  C   UNL A   1      43.453  27.081  30.853  1.00  0.00     0.261 C 
BRANCH  38  39
ATOM     39  O   UNL A   1      42.815  27.045  29.578  1.00  0.00    -0.460 OA
BRANCH  39  40
ATOM     40  C   UNL A   1      43.699  26.918  28.575  1.00  0.00     0.338 C 
ATOM     41  O   UNL A   1      44.721  26.241  28.587  1.00  0.00    -0.246 OA
BRANCH  40  42
ATOM     42  C   UNL A   1      43.319  27.786  27.448  1.00  0.00     0.060 A 
ATOM     43  C   UNL A   1      44.263  27.754  26.409  1.00  0.00     0.016 A 
ATOM     44  C   UNL A   1      42.770  28.975  27.916  1.00  0.00     0.016 A 
ATOM     45  C   UNL A   1      45.037  28.873  26.221  1.00  0.00     0.010 A 
ATOM     46  C   UNL A   1      43.538  30.094  27.732  1.00  0.00     0.010 A 
ATOM     47  C   UNL A   1      44.737  29.974  27.011  1.00  0.00    -0.014 A 
BRANCH  47  48
ATOM     48  C   UNL A   1      45.729  30.981  27.295  1.00  0.00     0.031 A 
ATOM     49  C   UNL A   1      45.598  32.301  26.685  1.00  0.00     0.074 A 
ATOM     50  C   UNL A   1      46.735  30.674  28.141  1.00  0.00     0.049 A 
ATOM     51  N   UNL A   1      46.590  33.089  26.464  1.00  0.00    -0.248 NA
ATOM     52  C   UNL A   1      44.317  32.797  26.195  1.00  0.00     0.031 C 
ATOM     53  C   UNL A   1      47.556  31.626  28.874  1.00  0.00     0.029 A 
ATOM     54  N   UNL A   1      47.321  29.427  28.403  1.00  0.00    -0.354 N 
ATOM     55  C   UNL A   1      46.049  34.300  26.101  1.00  0.00     0.074 A 
ATOM     56  C   UNL A   1      44.654  34.032  25.819  1.00  0.00     0.031 C 
ATOM     57  C   UNL A   1      48.652  30.995  29.319  1.00  0.00     0.029 A 
ATOM     58  C   UNL A   1      48.664  29.668  28.720  1.00  0.00     0.049 A 
ATOM     59  H   UNL A   1      46.873  28.550  28.369  1.00  0.00     0.167 HD
ATOM     60  C   UNL A   1      46.780  35.435  26.280  1.00  0.00     0.034 A 
ATOM     61  C   UNL A   1      49.741  29.111  28.098  1.00  0.00     0.034 A 
ATOM     62  C   UNL A   1      48.098  35.129  26.837  1.00  0.00     0.049 A 
ATOM     63  C   UNL A   1      50.700  30.147  27.555  1.00  0.00     0.074 A 
ATOM     64  C   UNL A   1      48.551  35.081  28.146  1.00  0.00     0.029 A 
ATOM     65  N   UNL A   1      49.059  34.483  26.067  1.00  0.00    -0.354 N 
ATOM     66  N   UNL A   1      50.372  31.390  27.345  1.00  0.00    -0.248 NA
ATOM     67  C   UNL A   1      52.073  29.861  27.155  1.00  0.00     0.031 C 
ATOM     68  C   UNL A   1      49.784  34.394  28.166  1.00  0.00     0.029 A 
ATOM     69  C   UNL A   1      50.096  34.028  26.869  1.00  0.00     0.049 A 
ATOM     70  H   UNL A   1      49.011  34.366  25.091  1.00  0.00     0.167 HD
ATOM     71  C   UNL A   1      51.407  32.049  26.733  1.00  0.00     0.074 A 
ATOM     72  C   UNL A   1      52.465  31.058  26.681  1.00  0.00     0.031 C 
ATOM     73  C   UNL A   1      51.256  33.339  26.301  1.00  0.00     0.034 A 
BRANCH  60  74
ATOM     74  C   UNL A   1      46.122  36.796  26.324  1.00  0.00     0.023 A 
ATOM     75  C   UNL A   1      44.915  37.056  27.007  1.00  0.00     0.031 A 
ATOM     76  C   UNL A   1      46.753  37.922  25.754  1.00  0.00     0.131 A 
ATOM     77  C   UNL A   1      44.481  38.372  27.248  1.00  0.00     0.055 A 
ATOM     78  C   UNL A   1      46.279  39.226  25.929  1.00  0.00     0.041 A 
ATOM     79  F   UNL A   1      47.886  37.816  25.046  1.00  0.00    -0.206 F 
ATOM     80  C   UNL A   1      45.159  39.461  26.711  1.00  0.00     0.022 A 
BRANCH  77  81
ATOM     81  S   UNL A   1      43.107  38.709  28.391  1.00  0.00     0.124 S 
ATOM     82  O   UNL A   1      42.128  37.690  28.013  1.00  0.00    -0.237 OA
ATOM     83  O   UNL A   1      43.730  38.518  29.696  1.00  0.00    -0.237 OA
ATOM     84  O   UNL A   1      42.714  40.077  28.068  1.00  0.00    -0.744 OA
ENDBRANCH  77  81
ENDBRANCH  60  74
BRANCH  61  85
ATOM     85  C   UNL A   1      49.515  27.797  27.451  1.00  0.00     0.023 A 
ATOM     86  C   UNL A   1      49.264  27.707  26.073  1.00  0.00     0.031 A 
ATOM     87  C   UNL A   1      49.254  26.673  28.258  1.00  0.00     0.131 A 
ATOM     88  C   UNL A   1      48.674  26.542  25.558  1.00  0.00     0.055 A 
ATOM     89  C   UNL A   1      48.699  25.506  27.733  1.00  0.00     0.041 A 
ATOM     90  F   UNL A   1      49.477  26.721  29.582  1.00  0.00    -0.206 F 
ATOM     91  C   UNL A   1      48.394  25.445  26.377  1.00  0.00     0.022 A 
BRANCH  88  92
ATOM     92  S   UNL A   1      48.192  26.445  23.813  1.00  0.00     0.124 S 
ATOM     93  O   UNL A   1      47.837  25.033  23.661  1.00  0.00    -0.237 OA
ATOM     94  O   UNL A   1      47.062  27.370  23.754  1.00  0.00    -0.237 OA
ATOM     95  O   UNL A   1      49.394  26.859  23.107  1.00  0.00    -0.744 OA
ENDBRANCH  88  92
ENDBRANCH  61  85
BRANCH  73  96
ATOM     96  C   UNL A   1      52.177  34.129  25.387  1.00  0.00     0.023 A 
ATOM     97  C   UNL A   1      52.674  35.374  25.856  1.00  0.00     0.031 A 
ATOM     98  C   UNL A   1      52.495  33.821  24.055  1.00  0.00     0.131 A 
ATOM     99  C   UNL A   1      53.394  36.247  25.030  1.00  0.00     0.055 A 
ATOM    100  C   UNL A   1      53.287  34.658  23.254  1.00  0.00     0.041 A 
ATOM    101  F   UNL A   1      52.013  32.737  23.437  1.00  0.00    -0.206 F 
ATOM    102  C   UNL A   1      53.725  35.884  23.732  1.00  0.00     0.022 A 
BRANCH  99 103
ATOM    103  S   UNL A   1      53.771  37.936  25.581  1.00  0.00     0.124 S 
ATOM    104  O   UNL A   1      54.608  37.686  26.752  1.00  0.00    -0.237 OA
ATOM    105  O   UNL A   1      54.469  38.490  24.423  1.00  0.00    -0.237 OA
ATOM    106  O   UNL A   1      52.460  38.513  25.845  1.00  0.00    -0.744 OA
ENDBRANCH  99 103
ENDBRANCH  73  96
ENDBRANCH  47  48
ENDBRANCH  40  42
ENDBRANCH  39  40
ENDBRANCH  38  39
ENDBRANCH  37  38
ENDBRANCH  36  37
ENDBRANCH  35  36
ENDBRANCH   1  35
TORSDOF 26
ENDMDL
MODEL 3
REMARK VINA RESULT:      -8.8      6.516     10.891
REMARK SMILES Cc1ccc(C(=O)N2C[C@@H](C(=O)OCCOCCOCCOCCOC(=O)c3ccc(-c4c5nc(c(-c6cc(S(=O)(=O)[O-])ccc6F)c6ccc([nH]6)c(-c6cc(S(=O)(=O)[O-])ccc6F)c6nc(c(-c7cc(S(=O)(=O)[O-])ccc7F)c7ccc4[nH]7)C=C6)C=C5)cc3)C[C@H](C(=O)N3CCOCC3)C2)cc1F
REMARK SMILES IDX 20 1 19 2 18 3 17 4 16 5 15 6 14 7 13 8 11 9 12 10 10 11
REMARK SMILES IDX 8 12 9 13 101 14 92 15 91 16 6 17 7 18 5 19 1 20 2 21 3 22
REMARK SMILES IDX 103 23 4 24 102 25 104 26 93 27 94 28 95 29 96 30 100 31
REMARK SMILES IDX 97 32 99 33 98 34 21 35 22 36 23 37 24 38 25 39 26 40 27 41
REMARK SMILES IDX 28 42 29 43 90 44 30 45 89 46 31 47 32 48 33 49 83 50 34 51
REMARK SMILES IDX 88 52 82 53 84 54 35 55 87 56 81 57 80 58 36 60 68 61 48 62
REMARK SMILES IDX 67 63 49 64 52 65 66 66 85 67 50 68 51 69 65 71 86 72 53 73
REMARK SMILES IDX 37 74 38 75 46 76 39 77 45 78 47 79 44 80 40 81 41 82 42 83
REMARK SMILES IDX 43 84 69 85 70 86 78 87 71 88 77 89 79 90 76 91 72 92 73 93
REMARK SMILES IDX 74 94 75 95 54 96 55 97 63 98 56 99 62 100 64 101 61 102
REMARK SMILES IDX 57 103 58 104 59 105 60 106
REMARK H PARENT 84 59 52 70
REMARK Flexibility Score: inf
ROOT
ATOM      1  C   UNL A   1      38.689  27.862  29.634  1.00  0.00     0.188 C 
ENDROOT
BRANCH   1   2
ATOM      2  O   UNL A   1      38.703  27.487  28.262  1.00  0.00    -0.377 OA
BRANCH   2   3
ATOM      3  C   UNL A   1      39.913  27.077  27.670  1.00  0.00     0.188 C 
BRANCH   3   4
ATOM      4  C   UNL A   1      40.261  25.592  27.632  1.00  0.00     0.188 C 
BRANCH   4   5
ATOM      5  O   UNL A   1      39.724  24.824  26.588  1.00  0.00    -0.376 OA
BRANCH   5   6
ATOM      6  C   UNL A   1      38.671  23.898  26.795  1.00  0.00     0.202 C 
BRANCH   6   7
ATOM      7  C   UNL A   1      37.914  23.084  25.720  1.00  0.00     0.261 C 
BRANCH   7   8
ATOM      8  O   UNL A   1      37.181  23.765  24.687  1.00  0.00    -0.463 OA
BRANCH   8   9
ATOM      9  C   UNL A   1      36.410  22.954  23.935  1.00  0.00     0.310 C 
ATOM     10  O   UNL A   1      36.665  22.655  22.769  1.00  0.00    -0.252 OA
BRANCH   9  11
ATOM     11  C   UNL A   1      35.164  22.414  24.588  1.00  0.00     0.119 C 
ATOM     12  N   UNL A   1      33.102  23.196  25.553  1.00  0.00    -0.337 N 
ATOM     13  C   UNL A   1      34.501  23.532  25.351  1.00  0.00     0.135 C 
ATOM     14  C   UNL A   1      32.790  21.934  26.235  1.00  0.00     0.133 C 
ATOM     15  C   UNL A   1      33.629  20.739  25.728  1.00  0.00     0.099 C 
ATOM     16  C   UNL A   1      35.090  21.132  25.418  1.00  0.00     0.032 C 
BRANCH  12  17
ATOM     17  C   UNL A   1      32.153  24.023  24.983  1.00  0.00     0.254 C 
ATOM     18  O   UNL A   1      31.306  23.633  24.184  1.00  0.00    -0.269 OA
BRANCH  17  19
ATOM     19  C   UNL A   1      32.302  25.477  25.203  1.00  0.00     0.042 A 
ATOM     20  C   UNL A   1      33.507  29.455  26.246  1.00  0.00     0.047 C 
ATOM     21  C   UNL A   1      33.018  28.095  25.861  1.00  0.00    -0.015 A 
ATOM     22  C   UNL A   1      32.239  27.343  26.746  1.00  0.00     0.007 A 
ATOM     23  C   UNL A   1      33.399  27.530  24.638  1.00  0.00     0.126 A 
ATOM     24  C   UNL A   1      31.889  26.036  26.420  1.00  0.00     0.014 A 
ATOM     25  C   UNL A   1      33.053  26.228  24.301  1.00  0.00     0.053 A 
ATOM     26  F   UNL A   1      34.156  28.239  23.788  1.00  0.00    -0.207 F 
ENDBRANCH  17  19
ENDBRANCH  12  17
BRANCH  15  27
ATOM     27  C   UNL A   1      32.805  19.926  24.695  1.00  0.00     0.227 C 
ATOM     28  O   UNL A   1      32.172  20.539  23.826  1.00  0.00    -0.275 OA
ATOM     29  N   UNL A   1      33.016  18.570  24.559  1.00  0.00    -0.338 N 
ATOM     30  C   UNL A   1      32.522  17.555  25.493  1.00  0.00     0.148 C 
ATOM     31  C   UNL A   1      33.181  18.017  23.216  1.00  0.00     0.148 C 
ATOM     32  C   UNL A   1      33.475  16.349  25.507  1.00  0.00     0.181 C 
ATOM     33  C   UNL A   1      34.117  16.804  23.275  1.00  0.00     0.181 C 
ATOM     34  O   UNL A   1      33.610  15.805  24.179  1.00  0.00    -0.378 OA
ENDBRANCH  15  27
ENDBRANCH   9  11
ENDBRANCH   8   9
ENDBRANCH   7   8
ENDBRANCH   6   7
ENDBRANCH   5   6
ENDBRANCH   4   5
ENDBRANCH   3   4
ENDBRANCH   2   3
ENDBRANCH   1   2
BRANCH   1  35
ATOM     35  C   UNL A   1      38.686  29.340  30.081  1.00  0.00     0.188 C 
BRANCH  35  36
ATOM     36  O   UNL A   1      38.023  29.620  31.312  1.00  0.00    -0.376 OA
BRANCH  36  37
ATOM     37  C   UNL A   1      38.208  30.930  31.839  1.00  0.00     0.202 C 
BRANCH  37  38
ATOM     38  C   UNL A   1      38.225  31.034  33.373  1.00  0.00     0.261 C 
BRANCH  38  39
ATOM     39  O   UNL A   1      38.270  32.373  33.862  1.00  0.00    -0.460 OA
BRANCH  39  40
ATOM     40  C   UNL A   1      39.529  32.795  34.059  1.00  0.00     0.338 C 
ATOM     41  O   UNL A   1      40.378  32.253  34.760  1.00  0.00    -0.246 OA
BRANCH  40  42
ATOM     42  C   UNL A   1      39.751  34.078  33.372  1.00  0.00     0.060 A 
ATOM     43  C   UNL A   1      39.779  33.937  31.975  1.00  0.00     0.016 A 
ATOM     44  C   UNL A   1      40.688  34.841  34.061  1.00  0.00     0.016 A 
ATOM     45  C   UNL A   1      40.993  34.084  31.349  1.00  0.00     0.010 A 
ATOM     46  C   UNL A   1      41.900  34.991  33.441  1.00  0.00     0.010 A 
ATOM     47  C   UNL A   1      42.061  34.467  32.148  1.00  0.00    -0.014 A 
BRANCH  47  48
ATOM     48  C   UNL A   1      43.420  34.169  31.770  1.00  0.00     0.031 A 
ATOM     49  C   UNL A   1      43.952  34.724  30.528  1.00  0.00     0.074 A 
ATOM     50  C   UNL A   1      44.166  33.404  32.596  1.00  0.00     0.049 A 
ATOM     51  N   UNL A   1      44.909  34.188  29.857  1.00  0.00    -0.248 NA
ATOM     52  C   UNL A   1      43.366  35.903  29.902  1.00  0.00     0.031 C 
ATOM     53  C   UNL A   1      45.618  33.347  32.627  1.00  0.00     0.029 A 
ATOM     54  N   UNL A   1      43.752  32.405  33.489  1.00  0.00    -0.354 N 
ATOM     55  C   UNL A   1      45.271  35.106  28.899  1.00  0.00     0.074 A 
ATOM     56  C   UNL A   1      44.205  36.086  28.880  1.00  0.00     0.031 C 
ATOM     57  C   UNL A   1      45.991  32.249  33.301  1.00  0.00     0.029 A 
ATOM     58  C   UNL A   1      44.790  31.466  33.555  1.00  0.00     0.049 A 
ATOM     59  H   UNL A   1      42.896  32.371  33.975  1.00  0.00     0.167 HD
ATOM     60  C   UNL A   1      46.527  35.059  28.374  1.00  0.00     0.034 A 
ATOM     61  C   UNL A   1      44.672  30.131  33.308  1.00  0.00     0.034 A 
ATOM     62  C   UNL A   1      47.295  33.953  28.947  1.00  0.00     0.049 A 
ATOM     63  C   UNL A   1      45.622  29.651  32.234  1.00  0.00     0.074 A 
ATOM     64  C   UNL A   1      48.154  33.901  30.033  1.00  0.00     0.029 A 
ATOM     65  N   UNL A   1      46.981  32.636  28.634  1.00  0.00    -0.354 N 
ATOM     66  N   UNL A   1      46.194  30.445  31.373  1.00  0.00    -0.248 NA
ATOM     67  C   UNL A   1      45.957  28.250  32.003  1.00  0.00     0.031 C 
ATOM     68  C   UNL A   1      48.349  32.547  30.383  1.00  0.00     0.029 A 
ATOM     69  C   UNL A   1      47.619  31.765  29.506  1.00  0.00     0.049 A 
ATOM     70  H   UNL A   1      46.389  32.359  27.897  1.00  0.00     0.167 HD
ATOM     71  C   UNL A   1      46.893  29.708  30.451  1.00  0.00     0.074 A 
ATOM     72  C   UNL A   1      46.750  28.343  30.921  1.00  0.00     0.031 C 
ATOM     73  C   UNL A   1      47.481  30.313  29.374  1.00  0.00     0.034 A 
BRANCH  60  74
ATOM     74  C   UNL A   1      47.132  36.254  27.672  1.00  0.00     0.023 A 
ATOM     75  C   UNL A   1      48.096  37.098  28.263  1.00  0.00     0.031 A 
ATOM     76  C   UNL A   1      46.827  36.529  26.323  1.00  0.00     0.131 A 
ATOM     77  C   UNL A   1      48.823  38.026  27.495  1.00  0.00     0.055 A 
ATOM     78  C   UNL A   1      47.498  37.505  25.578  1.00  0.00     0.041 A 
ATOM     79  F   UNL A   1      45.903  35.831  25.648  1.00  0.00    -0.206 F 
ATOM     80  C   UNL A   1      48.528  38.234  26.152  1.00  0.00     0.022 A 
BRANCH  77  81
ATOM     81  S   UNL A   1      50.272  38.880  28.186  1.00  0.00     0.124 S 
ATOM     82  O   UNL A   1      51.174  38.947  27.037  1.00  0.00    -0.237 OA
ATOM     83  O   UNL A   1      49.711  40.158  28.612  1.00  0.00    -0.237 OA
ATOM     84  O   UNL A   1      50.719  37.995  29.258  1.00  0.00    -0.744 OA
ENDBRANCH  77  81
ENDBRANCH  60  74
BRANCH  61  85
ATOM     85  C   UNL A   1      43.329  29.542  33.526  1.00  0.00     0.023 A 
ATOM     86  C   UNL A   1      43.067  28.749  34.655  1.00  0.00     0.031 A 
ATOM     87  C   UNL A   1      42.408  29.523  32.462  1.00  0.00     0.131 A 
ATOM     88  C   UNL A   1      41.953  27.895  34.649  1.00  0.00     0.055 A 
ATOM     89  C   UNL A   1      41.285  28.696  32.478  1.00  0.00     0.041 A 
ATOM     90  F   UNL A   1      42.626  30.264  31.362  1.00  0.00    -0.206 F 
ATOM     91  C   UNL A   1      41.064  27.866  33.572  1.00  0.00     0.022 A 
BRANCH  88  92
ATOM     92  S   UNL A   1      41.666  26.744  36.020  1.00  0.00     0.124 S 
ATOM     93  O   UNL A   1      43.025  26.449  36.475  1.00  0.00    -0.237 OA
ATOM     94  O   UNL A   1      40.874  27.556  36.943  1.00  0.00    -0.237 OA
ATOM     95  O   UNL A   1      40.972  25.634  35.389  1.00  0.00    -0.744 OA
ENDBRANCH  88  92
ENDBRANCH  61  85
BRANCH  73  96
ATOM     96  C   UNL A   1      48.058  29.653  28.134  1.00  0.00     0.023 A 
ATOM     97  C   UNL A   1      47.150  29.155  27.162  1.00  0.00     0.031 A 
ATOM     98  C   UNL A   1      49.409  29.359  27.897  1.00  0.00     0.131 A 
ATOM     99  C   UNL A   1      47.576  28.390  26.067  1.00  0.00     0.055 A 
ATOM    100  C   UNL A   1      49.844  28.665  26.757  1.00  0.00     0.041 A 
ATOM    101  F   UNL A   1      50.372  29.669  28.772  1.00  0.00    -0.206 F 
ATOM    102  C   UNL A   1      48.927  28.161  25.846  1.00  0.00     0.022 A 
BRANCH  99 103
ATOM    103  S   UNL A   1      46.369  27.546  25.006  1.00  0.00     0.124 S 
ATOM    104  O   UNL A   1      46.296  26.228  25.632  1.00  0.00    -0.237 OA
ATOM    105  O   UNL A   1      45.179  28.379  25.168  1.00  0.00    -0.237 OA
ATOM    106  O   UNL A   1      46.979  27.592  23.684  1.00  0.00    -0.744 OA
ENDBRANCH  99 103
ENDBRANCH  73  96
ENDBRANCH  47  48
ENDBRANCH  40  42
ENDBRANCH  39  40
ENDBRANCH  38  39
ENDBRANCH  37  38
ENDBRANCH  36  37
ENDBRANCH  35  36
ENDBRANCH   1  35
TORSDOF 26
ENDMDL
