MODEL 1
REMARK VINA RESULT:      -9.5      0.000      0.000
REMARK SMILES O=C(OCCOCCOCCOCCOC(=O)c1nccnc1C(=O)N1CCC(Cc2ccccc2)CC1)c1ccc(-c2c3nc(c(-c4cc(S(=O)(=O)[O-])ccc4F)c4ccc([nH]4)c(-c4cc(S(=O)(=O)[O-])ccc4F)c4nc(c(-c5cc(S(=O)(=O)[O-])ccc5F)c5ccc2[nH]5)C=C4)C=C3)cc1
REMARK SMILES IDX 9 1 8 2 7 3 6 4 5 5 4 6 3 7 2 8 1 9 39 10 40 11 101 12 41 13
REMARK SMILES IDX 100 14 42 15 43 16 44 17 94 18 45 19 99 20 93 21 95 22 46 23
REMARK SMILES IDX 98 24 92 25 91 26 47 28 79 29 59 30 78 31 60 32 63 33 77 34
REMARK SMILES IDX 96 35 61 36 62 37 76 39 97 40 64 41 48 42 49 43 57 44 50 45
REMARK SMILES IDX 56 46 58 47 55 48 51 49 52 50 53 51 54 52 80 53 81 54 89 55
REMARK SMILES IDX 82 56 88 57 90 58 87 59 83 60 84 61 85 62 86 63 65 64 66 65
REMARK SMILES IDX 74 66 67 67 73 68 75 69 72 70 68 71 69 72 70 73 71 74 10 75
REMARK SMILES IDX 11 76 12 77 13 78 14 79 15 80 16 81 17 82 18 83 19 84 23 85
REMARK SMILES IDX 20 86 22 87 21 88 24 89 25 90 26 91 27 92 38 93 28 94 37 95
REMARK SMILES IDX 29 96 30 97 31 98 32 99 36 100 33 101 35 102 34 103
REMARK H PARENT 95 27 63 38
REMARK Flexibility Score: inf
ROOT
ATOM      1  O   UNL A   1      38.908  27.729  27.876  1.00  0.00    -0.377 OA
ENDROOT
BRANCH   1   2
ATOM      2  C   UNL A   1      39.162  28.913  28.626  1.00  0.00     0.188 C 
BRANCH   2   3
ATOM      3  C   UNL A   1      37.989  29.894  28.719  1.00  0.00     0.188 C 
BRANCH   3   4
ATOM      4  O   UNL A   1      36.712  29.293  28.465  1.00  0.00    -0.376 OA
BRANCH   4   5
ATOM      5  C   UNL A   1      36.023  29.849  27.337  1.00  0.00     0.202 C 
BRANCH   5   6
ATOM      6  C   UNL A   1      34.648  30.418  27.693  1.00  0.00     0.261 C 
BRANCH   6   7
ATOM      7  O   UNL A   1      34.669  31.855  27.570  1.00  0.00    -0.460 OA
BRANCH   7   8
ATOM      8  C   UNL A   1      34.549  32.756  28.576  1.00  0.00     0.338 C 
ATOM      9  O   UNL A   1      33.525  33.424  28.689  1.00  0.00    -0.246 OA
BRANCH   8  10
ATOM     10  C   UNL A   1      35.603  32.887  29.608  1.00  0.00     0.060 A 
ATOM     11  C   UNL A   1      36.521  33.938  29.642  1.00  0.00     0.016 A 
ATOM     12  C   UNL A   1      35.616  31.936  30.629  1.00  0.00     0.016 A 
ATOM     13  C   UNL A   1      37.548  33.950  30.585  1.00  0.00     0.010 A 
ATOM     14  C   UNL A   1      36.605  31.984  31.613  1.00  0.00     0.010 A 
ATOM     15  C   UNL A   1      37.621  32.955  31.563  1.00  0.00    -0.014 A 
BRANCH  15  16
ATOM     16  C   UNL A   1      38.818  32.809  32.433  1.00  0.00     0.031 A 
ATOM     17  C   UNL A   1      40.055  32.209  31.826  1.00  0.00     0.074 A 
ATOM     18  C   UNL A   1      38.841  33.214  33.716  1.00  0.00     0.049 A 
ATOM     19  N   UNL A   1      41.068  31.617  32.399  1.00  0.00    -0.248 NA
ATOM     20  C   UNL A   1      40.124  32.244  30.358  1.00  0.00     0.031 C 
ATOM     21  C   UNL A   1      37.781  33.953  34.398  1.00  0.00     0.029 A 
ATOM     22  N   UNL A   1      39.813  33.066  34.673  1.00  0.00    -0.354 N 
ATOM     23  C   UNL A   1      41.841  31.110  31.357  1.00  0.00     0.074 A 
ATOM     24  C   UNL A   1      41.182  31.484  30.124  1.00  0.00     0.031 C 
ATOM     25  C   UNL A   1      38.181  34.235  35.648  1.00  0.00     0.029 A 
ATOM     26  C   UNL A   1      39.467  33.588  35.896  1.00  0.00     0.049 A 
ATOM     27  H   UNL A   1      40.678  32.629  34.499  1.00  0.00     0.167 HD
ATOM     28  C   UNL A   1      42.974  30.370  31.444  1.00  0.00     0.034 A 
ATOM     29  C   UNL A   1      40.087  33.497  37.090  1.00  0.00     0.034 A 
ATOM     30  C   UNL A   1      43.630  30.092  32.698  1.00  0.00     0.049 A 
ATOM     31  C   UNL A   1      41.342  32.663  37.184  1.00  0.00     0.074 A 
ATOM     32  C   UNL A   1      44.745  29.313  32.946  1.00  0.00     0.029 A 
ATOM     33  N   UNL A   1      43.235  30.621  33.924  1.00  0.00    -0.354 N 
ATOM     34  N   UNL A   1      41.977  32.014  36.233  1.00  0.00    -0.248 NA
ATOM     35  C   UNL A   1      41.943  32.516  38.515  1.00  0.00     0.031 C 
ATOM     36  C   UNL A   1      44.994  29.330  34.324  1.00  0.00     0.029 A 
ATOM     37  C   UNL A   1      44.078  30.178  34.929  1.00  0.00     0.049 A 
ATOM     38  H   UNL A   1      42.468  31.223  34.057  1.00  0.00     0.167 HD
ATOM     39  C   UNL A   1      43.052  31.383  36.853  1.00  0.00     0.074 A 
ATOM     40  C   UNL A   1      42.994  31.749  38.254  1.00  0.00     0.031 C 
ATOM     41  C   UNL A   1      43.995  30.564  36.319  1.00  0.00     0.034 A 
BRANCH  28  42
ATOM     42  C   UNL A   1      43.474  29.728  30.171  1.00  0.00     0.023 A 
ATOM     43  C   UNL A   1      44.333  30.389  29.276  1.00  0.00     0.031 A 
ATOM     44  C   UNL A   1      42.986  28.462  29.793  1.00  0.00     0.131 A 
ATOM     45  C   UNL A   1      44.581  29.837  28.009  1.00  0.00     0.055 A 
ATOM     46  C   UNL A   1      43.319  27.874  28.572  1.00  0.00     0.041 A 
ATOM     47  F   UNL A   1      42.139  27.790  30.589  1.00  0.00    -0.206 F 
ATOM     48  C   UNL A   1      44.102  28.573  27.659  1.00  0.00     0.022 A 
BRANCH  45  49
ATOM     49  S   UNL A   1      45.360  30.888  26.749  1.00  0.00     0.124 S 
ATOM     50  O   UNL A   1      45.967  29.892  25.868  1.00  0.00    -0.237 OA
ATOM     51  O   UNL A   1      44.222  31.616  26.199  1.00  0.00    -0.237 OA
ATOM     52  O   UNL A   1      46.310  31.694  27.513  1.00  0.00    -0.744 OA
ENDBRANCH  45  49
ENDBRANCH  28  42
BRANCH  29  53
ATOM     53  C   UNL A   1      39.484  34.127  38.302  1.00  0.00     0.023 A 
ATOM     54  C   UNL A   1      39.698  35.481  38.600  1.00  0.00     0.031 A 
ATOM     55  C   UNL A   1      38.685  33.378  39.188  1.00  0.00     0.131 A 
ATOM     56  C   UNL A   1      39.137  36.039  39.762  1.00  0.00     0.055 A 
ATOM     57  C   UNL A   1      38.082  33.952  40.308  1.00  0.00     0.041 A 
ATOM     58  F   UNL A   1      38.455  32.076  38.959  1.00  0.00    -0.206 F 
ATOM     59  C   UNL A   1      38.313  35.290  40.604  1.00  0.00     0.022 A 
BRANCH  56  60
ATOM     60  S   UNL A   1      39.542  37.755  40.192  1.00  0.00     0.124 S 
ATOM     61  O   UNL A   1      38.464  38.486  39.536  1.00  0.00    -0.237 OA
ATOM     62  O   UNL A   1      39.501  37.719  41.650  1.00  0.00    -0.237 OA
ATOM     63  O   UNL A   1      40.870  37.946  39.613  1.00  0.00    -0.744 OA
ENDBRANCH  56  60
ENDBRANCH  29  53
BRANCH  41  64
ATOM     64  C   UNL A   1      45.067  30.053  37.246  1.00  0.00     0.023 A 
ATOM     65  C   UNL A   1      44.901  28.875  37.993  1.00  0.00     0.031 A 
ATOM     66  C   UNL A   1      46.287  30.744  37.352  1.00  0.00     0.131 A 
ATOM     67  C   UNL A   1      45.930  28.440  38.842  1.00  0.00     0.055 A 
ATOM     68  C   UNL A   1      47.323  30.281  38.162  1.00  0.00     0.041 A 
ATOM     69  F   UNL A   1      46.494  31.874  36.657  1.00  0.00    -0.206 F 
ATOM     70  C   UNL A   1      47.145  29.126  38.919  1.00  0.00     0.022 A 
BRANCH  67  71
ATOM     71  S   UNL A   1      45.643  26.987  39.892  1.00  0.00     0.124 S 
ATOM     72  O   UNL A   1      46.611  26.033  39.361  1.00  0.00    -0.237 OA
ATOM     73  O   UNL A   1      45.924  27.505  41.227  1.00  0.00    -0.237 OA
ATOM     74  O   UNL A   1      44.242  26.655  39.641  1.00  0.00    -0.744 OA
ENDBRANCH  67  71
ENDBRANCH  41  64
ENDBRANCH  15  16
ENDBRANCH   8  10
ENDBRANCH   7   8
ENDBRANCH   6   7
ENDBRANCH   5   6
ENDBRANCH   4   5
ENDBRANCH   3   4
ENDBRANCH   2   3
ENDBRANCH   1   2
BRANCH   1  75
ATOM     75  C   UNL A   1      39.771  26.639  28.171  1.00  0.00     0.188 C 
BRANCH  75  76
ATOM     76  C   UNL A   1      39.189  25.232  28.003  1.00  0.00     0.188 C 
BRANCH  76  77
ATOM     77  O   UNL A   1      39.091  24.722  26.679  1.00  0.00    -0.376 OA
BRANCH  77  78
ATOM     78  C   UNL A   1      38.125  23.675  26.468  1.00  0.00     0.202 C 
BRANCH  78  79
ATOM     79  C   UNL A   1      37.701  23.336  25.025  1.00  0.00     0.261 C 
BRANCH  79  80
ATOM     80  O   UNL A   1      36.304  23.569  24.746  1.00  0.00    -0.458 OA
BRANCH  80  81
ATOM     81  C   UNL A   1      35.776  23.134  23.559  1.00  0.00     0.359 C 
ATOM     82  O   UNL A   1      36.361  23.088  22.509  1.00  0.00    -0.244 OA
BRANCH  81  83
ATOM     83  C   UNL A   1      34.477  22.461  23.914  1.00  0.00     0.179 A 
ATOM     84  N   UNL A   1      34.557  21.476  24.873  1.00  0.00    -0.245 NA
ATOM     85  C   UNL A   1      33.372  22.561  23.073  1.00  0.00     0.161 A 
ATOM     86  C   UNL A   1      33.507  20.633  24.959  1.00  0.00     0.132 A 
ATOM     87  N   UNL A   1      32.327  21.673  23.150  1.00  0.00    -0.247 NA
ATOM     88  C   UNL A   1      32.426  20.717  24.102  1.00  0.00     0.132 A 
BRANCH  85  89
ATOM     89  C   UNL A   1      33.102  23.783  22.287  1.00  0.00     0.274 C 
ATOM     90  O   UNL A   1      33.424  23.705  21.100  1.00  0.00    -0.267 OA
ATOM     91  N   UNL A   1      32.527  24.931  22.856  1.00  0.00    -0.337 N 
ATOM     92  C   UNL A   1      31.987  25.895  21.899  1.00  0.00     0.120 C 
ATOM     93  C   UNL A   1      32.039  25.027  24.230  1.00  0.00     0.120 C 
ATOM     94  C   UNL A   1      31.906  27.318  22.432  1.00  0.00     0.025 C 
ATOM     95  C   UNL A   1      31.893  26.459  24.757  1.00  0.00     0.025 C 
ATOM     96  C   UNL A   1      31.145  27.360  23.759  1.00  0.00    -0.003 C 
BRANCH  96  97
ATOM     97  C   UNL A   1      31.017  28.805  24.283  1.00  0.00     0.039 C 
BRANCH  97  98
ATOM     98  C   UNL A   1      29.836  29.591  23.753  1.00  0.00    -0.048 A 
ATOM     99  C   UNL A   1      29.747  30.970  24.002  1.00  0.00     0.004 A 
ATOM    100  C   UNL A   1      28.768  28.968  23.089  1.00  0.00     0.004 A 
ATOM    101  C   UNL A   1      28.635  31.705  23.580  1.00  0.00     0.000 A 
ATOM    102  C   UNL A   1      27.661  29.706  22.660  1.00  0.00     0.000 A 
ATOM    103  C   UNL A   1      27.593  31.074  22.907  1.00  0.00     0.000 A 
ENDBRANCH  97  98
ENDBRANCH  96  97
ENDBRANCH  85  89
ENDBRANCH  81  83
ENDBRANCH  80  81
ENDBRANCH  79  80
ENDBRANCH  78  79
ENDBRANCH  77  78
ENDBRANCH  76  77
ENDBRANCH  75  76
ENDBRANCH   1  75
TORSDOF 26
ENDMDL
MODEL 2
REMARK VINA RESULT:      -9.3      5.859     10.936
REMARK SMILES O=C(OCCOCCOCCOCCOC(=O)c1nccnc1C(=O)N1CCC(Cc2ccccc2)CC1)c1ccc(-c2c3nc(c(-c4cc(S(=O)(=O)[O-])ccc4F)c4ccc([nH]4)c(-c4cc(S(=O)(=O)[O-])ccc4F)c4nc(c(-c5cc(S(=O)(=O)[O-])ccc5F)c5ccc2[nH]5)C=C4)C=C3)cc1
REMARK SMILES IDX 9 1 8 2 7 3 6 4 5 5 4 6 3 7 2 8 1 9 39 10 40 11 101 12 41 13
REMARK SMILES IDX 100 14 42 15 43 16 44 17 94 18 45 19 99 20 93 21 95 22 46 23
REMARK SMILES IDX 98 24 92 25 91 26 47 28 79 29 59 30 78 31 60 32 63 33 77 34
REMARK SMILES IDX 96 35 61 36 62 37 76 39 97 40 64 41 48 42 49 43 57 44 50 45
REMARK SMILES IDX 56 46 58 47 55 48 51 49 52 50 53 51 54 52 80 53 81 54 89 55
REMARK SMILES IDX 82 56 88 57 90 58 87 59 83 60 84 61 85 62 86 63 65 64 66 65
REMARK SMILES IDX 74 66 67 67 73 68 75 69 72 70 68 71 69 72 70 73 71 74 10 75
REMARK SMILES IDX 11 76 12 77 13 78 14 79 15 80 16 81 17 82 18 83 19 84 23 85
REMARK SMILES IDX 20 86 22 87 21 88 24 89 25 90 26 91 27 92 38 93 28 94 37 95
REMARK SMILES IDX 29 96 30 97 31 98 32 99 36 100 33 101 35 102 34 103
REMARK H PARENT 95 27 63 38
REMARK Flexibility Score: inf
ROOT
ATOM      1  O   UNL A   1      38.114  23.993  26.802  1.00  0.00    -0.377 OA
ENDROOT
BRANCH   1   2
ATOM      2  C   UNL A   1      39.293  24.768  26.601  1.00  0.00     0.188 C 
BRANCH   2   3
ATOM      3  C   UNL A   1      40.613  24.014  26.792  1.00  0.00     0.188 C 
BRANCH   3   4
ATOM      4  O   UNL A   1      40.558  22.998  27.802  1.00  0.00    -0.376 OA
BRANCH   4   5
ATOM      5  C   UNL A   1      41.071  21.729  27.378  1.00  0.00     0.202 C 
BRANCH   5   6
ATOM      6  C   UNL A   1      41.387  21.677  25.882  1.00  0.00     0.261 C 
BRANCH   6   7
ATOM      7  O   UNL A   1      42.668  21.046  25.677  1.00  0.00    -0.460 OA
BRANCH   7   8
ATOM      8  C   UNL A   1      43.771  21.613  25.128  1.00  0.00     0.338 C 
ATOM      9  O   UNL A   1      44.275  21.133  24.116  1.00  0.00    -0.246 OA
BRANCH   8  10
ATOM     10  C   UNL A   1      44.334  22.867  25.679  1.00  0.00     0.060 A 
ATOM     11  C   UNL A   1      45.266  22.903  26.717  1.00  0.00     0.016 A 
ATOM     12  C   UNL A   1      43.950  24.061  25.066  1.00  0.00     0.016 A 
ATOM     13  C   UNL A   1      45.683  24.120  27.253  1.00  0.00     0.010 A 
ATOM     14  C   UNL A   1      44.418  25.279  25.560  1.00  0.00     0.010 A 
ATOM     15  C   UNL A   1      45.239  25.323  26.701  1.00  0.00    -0.014 A 
BRANCH  15  16
ATOM     16  C   UNL A   1      45.479  26.624  27.380  1.00  0.00     0.031 A 
ATOM     17  C   UNL A   1      44.322  27.263  28.097  1.00  0.00     0.074 A 
ATOM     18  C   UNL A   1      46.682  27.226  27.400  1.00  0.00     0.049 A 
ATOM     19  N   UNL A   1      44.123  28.511  28.422  1.00  0.00    -0.248 NA
ATOM     20  C   UNL A   1      43.215  26.361  28.447  1.00  0.00     0.031 C 
ATOM     21  C   UNL A   1      47.929  26.660  26.892  1.00  0.00     0.029 A 
ATOM     22  N   UNL A   1      47.048  28.456  27.889  1.00  0.00    -0.354 N 
ATOM     23  C   UNL A   1      42.821  28.565  28.914  1.00  0.00     0.074 A 
ATOM     24  C   UNL A   1      42.294  27.218  28.858  1.00  0.00     0.031 C 
ATOM     25  C   UNL A   1      48.930  27.520  27.138  1.00  0.00     0.029 A 
ATOM     26  C   UNL A   1      48.377  28.748  27.702  1.00  0.00     0.049 A 
ATOM     27  H   UNL A   1      46.418  29.069  28.331  1.00  0.00     0.167 HD
ATOM     28  C   UNL A   1      42.134  29.655  29.336  1.00  0.00     0.034 A 
ATOM     29  C   UNL A   1      49.054  29.897  27.906  1.00  0.00     0.034 A 
ATOM     30  C   UNL A   1      42.735  30.962  29.444  1.00  0.00     0.049 A 
ATOM     31  C   UNL A   1      48.282  31.111  28.364  1.00  0.00     0.074 A 
ATOM     32  C   UNL A   1      42.150  32.165  29.797  1.00  0.00     0.029 A 
ATOM     33  N   UNL A   1      44.083  31.226  29.224  1.00  0.00    -0.354 N 
ATOM     34  N   UNL A   1      47.003  31.220  28.648  1.00  0.00    -0.248 NA
ATOM     35  C   UNL A   1      49.034  32.366  28.493  1.00  0.00     0.031 C 
ATOM     36  C   UNL A   1      43.132  33.162  29.741  1.00  0.00     0.029 A 
ATOM     37  C   UNL A   1      44.346  32.570  29.424  1.00  0.00     0.049 A 
ATOM     38  H   UNL A   1      44.754  30.554  28.963  1.00  0.00     0.167 HD
ATOM     39  C   UNL A   1      46.799  32.554  28.988  1.00  0.00     0.074 A 
ATOM     40  C   UNL A   1      48.090  33.206  28.901  1.00  0.00     0.031 C 
ATOM     41  C   UNL A   1      45.649  33.190  29.331  1.00  0.00     0.034 A 
BRANCH  28  42
ATOM     42  C   UNL A   1      40.653  29.482  29.578  1.00  0.00     0.023 A 
ATOM     43  C   UNL A   1      40.093  29.470  30.867  1.00  0.00     0.031 A 
ATOM     44  C   UNL A   1      39.798  29.211  28.492  1.00  0.00     0.131 A 
ATOM     45  C   UNL A   1      38.756  29.080  31.045  1.00  0.00     0.055 A 
ATOM     46  C   UNL A   1      38.443  28.924  28.670  1.00  0.00     0.041 A 
ATOM     47  F   UNL A   1      40.274  29.180  27.238  1.00  0.00    -0.206 F 
ATOM     48  C   UNL A   1      37.919  28.832  29.954  1.00  0.00     0.022 A 
BRANCH  45  49
ATOM     49  S   UNL A   1      38.186  28.696  32.726  1.00  0.00     0.124 S 
ATOM     50  O   UNL A   1      36.965  29.495  32.813  1.00  0.00    -0.237 OA
ATOM     51  O   UNL A   1      37.999  27.251  32.673  1.00  0.00    -0.237 OA
ATOM     52  O   UNL A   1      39.284  29.155  33.574  1.00  0.00    -0.744 OA
ENDBRANCH  45  49
ENDBRANCH  28  42
BRANCH  29  53
ATOM     53  C   UNL A   1      50.510  29.981  27.588  1.00  0.00     0.023 A 
ATOM     54  C   UNL A   1      50.955  30.313  26.299  1.00  0.00     0.031 A 
ATOM     55  C   UNL A   1      51.484  29.720  28.571  1.00  0.00     0.131 A 
ATOM     56  C   UNL A   1      52.333  30.360  26.024  1.00  0.00     0.055 A 
ATOM     57  C   UNL A   1      52.851  29.825  28.308  1.00  0.00     0.041 A 
ATOM     58  F   UNL A   1      51.117  29.387  29.818  1.00  0.00    -0.206 F 
ATOM     59  C   UNL A   1      53.282  30.140  27.025  1.00  0.00     0.022 A 
BRANCH  56  60
ATOM     60  S   UNL A   1      52.875  30.660  24.319  1.00  0.00     0.124 S 
ATOM     61  O   UNL A   1      53.321  32.047  24.390  1.00  0.00    -0.237 OA
ATOM     62  O   UNL A   1      53.920  29.655  24.152  1.00  0.00    -0.237 OA
ATOM     63  O   UNL A   1      51.665  30.432  23.532  1.00  0.00    -0.744 OA
ENDBRANCH  56  60
ENDBRANCH  29  53
BRANCH  41  64
ATOM     64  C   UNL A   1      45.749  34.651  29.684  1.00  0.00     0.023 A 
ATOM     65  C   UNL A   1      45.619  35.659  28.714  1.00  0.00     0.031 A 
ATOM     66  C   UNL A   1      45.943  35.035  31.022  1.00  0.00     0.131 A 
ATOM     67  C   UNL A   1      45.718  37.006  29.094  1.00  0.00     0.055 A 
ATOM     68  C   UNL A   1      45.995  36.376  31.400  1.00  0.00     0.041 A 
ATOM     69  F   UNL A   1      46.072  34.109  31.986  1.00  0.00    -0.206 F 
ATOM     70  C   UNL A   1      45.889  37.371  30.432  1.00  0.00     0.022 A 
BRANCH  67  71
ATOM     71  S   UNL A   1      45.675  38.284  27.805  1.00  0.00     0.124 S 
ATOM     72  O   UNL A   1      44.600  37.807  26.941  1.00  0.00    -0.237 OA
ATOM     73  O   UNL A   1      45.390  39.492  28.572  1.00  0.00    -0.237 OA
ATOM     74  O   UNL A   1      47.013  38.226  27.220  1.00  0.00    -0.744 OA
ENDBRANCH  67  71
ENDBRANCH  41  64
ENDBRANCH  15  16
ENDBRANCH   8  10
ENDBRANCH   7   8
ENDBRANCH   6   7
ENDBRANCH   5   6
ENDBRANCH   4   5
ENDBRANCH   3   4
ENDBRANCH   2   3
ENDBRANCH   1   2
BRANCH   1  75
ATOM     75  C   UNL A   1      37.433  23.622  25.611  1.00  0.00     0.188 C 
BRANCH  75  76
ATOM     76  C   UNL A   1      36.094  22.897  25.779  1.00  0.00     0.188 C 
BRANCH  76  77
ATOM     77  O   UNL A   1      34.971  23.684  26.151  1.00  0.00    -0.376 OA
BRANCH  77  78
ATOM     78  C   UNL A   1      33.728  22.980  26.329  1.00  0.00     0.202 C 
BRANCH  78  79
ATOM     79  C   UNL A   1      32.477  23.776  26.754  1.00  0.00     0.261 C 
BRANCH  79  80
ATOM     80  O   UNL A   1      32.472  25.151  26.318  1.00  0.00    -0.458 OA
BRANCH  80  81
ATOM     81  C   UNL A   1      31.317  25.691  25.817  1.00  0.00     0.359 C 
ATOM     82  O   UNL A   1      30.371  26.049  26.469  1.00  0.00    -0.244 OA
BRANCH  81  83
ATOM     83  C   UNL A   1      31.612  26.018  24.377  1.00  0.00     0.179 A 
ATOM     84  N   UNL A   1      31.599  24.951  23.506  1.00  0.00    -0.245 NA
ATOM     85  C   UNL A   1      32.220  27.222  24.032  1.00  0.00     0.161 A 
ATOM     86  C   UNL A   1      32.188  25.144  22.308  1.00  0.00     0.132 A 
ATOM     87  N   UNL A   1      32.847  27.391  22.822  1.00  0.00    -0.247 NA
ATOM     88  C   UNL A   1      32.818  26.330  21.982  1.00  0.00     0.132 A 
BRANCH  85  89
ATOM     89  C   UNL A   1      31.957  28.467  24.783  1.00  0.00     0.274 C 
ATOM     90  O   UNL A   1      30.888  29.014  24.503  1.00  0.00    -0.267 OA
ATOM     91  N   UNL A   1      32.858  28.978  25.731  1.00  0.00    -0.337 N 
ATOM     92  C   UNL A   1      32.303  29.982  26.638  1.00  0.00     0.120 C 
ATOM     93  C   UNL A   1      34.083  28.309  26.164  1.00  0.00     0.120 C 
ATOM     94  C   UNL A   1      33.343  30.916  27.238  1.00  0.00     0.025 C 
ATOM     95  C   UNL A   1      35.114  29.230  26.827  1.00  0.00     0.025 C 
ATOM     96  C   UNL A   1      34.470  30.122  27.904  1.00  0.00    -0.003 C 
BRANCH  96  97
ATOM     97  C   UNL A   1      35.505  31.062  28.556  1.00  0.00     0.039 C 
BRANCH  97  98
ATOM     98  C   UNL A   1      34.997  32.441  28.921  1.00  0.00    -0.048 A 
ATOM     99  C   UNL A   1      35.020  33.468  27.963  1.00  0.00     0.004 A 
ATOM    100  C   UNL A   1      34.582  32.758  30.222  1.00  0.00     0.004 A 
ATOM    101  C   UNL A   1      34.619  34.766  28.294  1.00  0.00     0.000 A 
ATOM    102  C   UNL A   1      34.172  34.055  30.549  1.00  0.00     0.000 A 
ATOM    103  C   UNL A   1      34.193  35.059  29.586  1.00  0.00     0.000 A 
ENDBRANCH  97  98
ENDBRANCH  96  97
ENDBRANCH  85  89
ENDBRANCH  81  83
ENDBRANCH  80  81
ENDBRANCH  79  80
ENDBRANCH  78  79
ENDBRANCH  77  78
ENDBRANCH  76  77
ENDBRANCH  75  76
ENDBRANCH   1  75
TORSDOF 26
ENDMDL
MODEL 3
REMARK VINA RESULT:      -9.2      5.384     12.694
REMARK SMILES O=C(OCCOCCOCCOCCOC(=O)c1nccnc1C(=O)N1CCC(Cc2ccccc2)CC1)c1ccc(-c2c3nc(c(-c4cc(S(=O)(=O)[O-])ccc4F)c4ccc([nH]4)c(-c4cc(S(=O)(=O)[O-])ccc4F)c4nc(c(-c5cc(S(=O)(=O)[O-])ccc5F)c5ccc2[nH]5)C=C4)C=C3)cc1
REMARK SMILES IDX 9 1 8 2 7 3 6 4 5 5 4 6 3 7 2 8 1 9 39 10 40 11 101 12 41 13
REMARK SMILES IDX 100 14 42 15 43 16 44 17 94 18 45 19 99 20 93 21 95 22 46 23
REMARK SMILES IDX 98 24 92 25 91 26 47 28 79 29 59 30 78 31 60 32 63 33 77 34
REMARK SMILES IDX 96 35 61 36 62 37 76 39 97 40 64 41 48 42 49 43 57 44 50 45
REMARK SMILES IDX 56 46 58 47 55 48 51 49 52 50 53 51 54 52 80 53 81 54 89 55
REMARK SMILES IDX 82 56 88 57 90 58 87 59 83 60 84 61 85 62 86 63 65 64 66 65
REMARK SMILES IDX 74 66 67 67 73 68 75 69 72 70 68 71 69 72 70 73 71 74 10 75
REMARK SMILES IDX 11 76 12 77 13 78 14 79 15 80 16 81 17 82 18 83 19 84 23 85
REMARK SMILES IDX 20 86 22 87 21 88 24 89 25 90 26 91 27 92 38 93 28 94 37 95
REMARK SMILES IDX 29 96 30 97 31 98 32 99 36 100 33 101 35 102 34 103
REMARK H PARENT 95 27 63 38
REMARK Flexibility Score: inf
ROOT
ATOM      1  O   UNL A   1      34.198  25.397  25.525  1.00  0.00    -0.377 OA
ENDROOT
BRANCH   1   2
ATOM      2  C   UNL A   1      34.504  24.371  24.585  1.00  0.00     0.188 C 
BRANCH   2   3
ATOM      3  C   UNL A   1      34.155  22.948  25.032  1.00  0.00     0.188 C 
BRANCH   3   4
ATOM      4  O   UNL A   1      35.209  22.000  24.819  1.00  0.00    -0.376 OA
BRANCH   4   5
ATOM      5  C   UNL A   1      36.515  22.504  25.126  1.00  0.00     0.202 C 
BRANCH   5   6
ATOM      6  C   UNL A   1      37.609  21.439  25.027  1.00  0.00     0.261 C 
BRANCH   6   7
ATOM      7  O   UNL A   1      38.708  21.789  25.895  1.00  0.00    -0.460 OA
BRANCH   7   8
ATOM      8  C   UNL A   1      39.869  21.105  26.047  1.00  0.00     0.338 C 
ATOM      9  O   UNL A   1      39.900  19.891  25.866  1.00  0.00    -0.246 OA
BRANCH   8  10
ATOM     10  C   UNL A   1      41.134  21.815  26.344  1.00  0.00     0.060 A 
ATOM     11  C   UNL A   1      42.397  21.246  26.167  1.00  0.00     0.016 A 
ATOM     12  C   UNL A   1      41.038  23.145  26.755  1.00  0.00     0.016 A 
ATOM     13  C   UNL A   1      43.544  21.936  26.556  1.00  0.00     0.010 A 
ATOM     14  C   UNL A   1      42.191  23.859  27.083  1.00  0.00     0.010 A 
ATOM     15  C   UNL A   1      43.452  23.239  27.048  1.00  0.00    -0.014 A 
BRANCH  15  16
ATOM     16  C   UNL A   1      44.618  23.914  27.679  1.00  0.00     0.031 A 
ATOM     17  C   UNL A   1      44.637  24.021  29.179  1.00  0.00     0.074 A 
ATOM     18  C   UNL A   1      45.652  24.400  26.969  1.00  0.00     0.049 A 
ATOM     19  N   UNL A   1      45.277  24.854  29.952  1.00  0.00    -0.248 NA
ATOM     20  C   UNL A   1      43.766  23.076  29.894  1.00  0.00     0.031 C 
ATOM     21  C   UNL A   1      45.855  24.234  25.532  1.00  0.00     0.029 A 
ATOM     22  N   UNL A   1      46.742  25.127  27.378  1.00  0.00    -0.354 N 
ATOM     23  C   UNL A   1      44.802  24.610  31.238  1.00  0.00     0.074 A 
ATOM     24  C   UNL A   1      43.835  23.538  31.132  1.00  0.00     0.031 C 
ATOM     25  C   UNL A   1      47.022  24.800  25.188  1.00  0.00     0.029 A 
ATOM     26  C   UNL A   1      47.585  25.479  26.352  1.00  0.00     0.049 A 
ATOM     27  H   UNL A   1      46.904  25.372  28.318  1.00  0.00     0.167 HD
ATOM     28  C   UNL A   1      45.127  25.258  32.384  1.00  0.00     0.034 A 
ATOM     29  C   UNL A   1      48.651  26.305  26.345  1.00  0.00     0.034 A 
ATOM     30  C   UNL A   1      46.155  26.268  32.444  1.00  0.00     0.049 A 
ATOM     31  C   UNL A   1      49.003  27.032  27.620  1.00  0.00     0.074 A 
ATOM     32  C   UNL A   1      46.552  27.047  33.516  1.00  0.00     0.029 A 
ATOM     33  N   UNL A   1      46.977  26.616  31.375  1.00  0.00    -0.354 N 
ATOM     34  N   UNL A   1      48.433  26.953  28.802  1.00  0.00    -0.248 NA
ATOM     35  C   UNL A   1      50.116  27.988  27.554  1.00  0.00     0.031 C 
ATOM     36  C   UNL A   1      47.576  27.899  33.083  1.00  0.00     0.029 A 
ATOM     37  C   UNL A   1      47.869  27.602  31.759  1.00  0.00     0.049 A 
ATOM     38  H   UNL A   1      46.929  26.218  30.476  1.00  0.00     0.167 HD
ATOM     39  C   UNL A   1      49.118  27.849  29.618  1.00  0.00     0.074 A 
ATOM     40  C   UNL A   1      50.161  28.437  28.802  1.00  0.00     0.031 C 
ATOM     41  C   UNL A   1      48.901  28.167  30.920  1.00  0.00     0.034 A 
BRANCH  28  42
ATOM     42  C   UNL A   1      44.278  24.971  33.600  1.00  0.00     0.023 A 
ATOM     43  C   UNL A   1      43.313  25.873  34.079  1.00  0.00     0.031 A 
ATOM     44  C   UNL A   1      44.524  23.813  34.362  1.00  0.00     0.131 A 
ATOM     45  C   UNL A   1      42.719  25.661  35.334  1.00  0.00     0.055 A 
ATOM     46  C   UNL A   1      43.854  23.557  35.560  1.00  0.00     0.041 A 
ATOM     47  F   UNL A   1      45.453  22.924  33.976  1.00  0.00    -0.206 F 
ATOM     48  C   UNL A   1      42.962  24.497  36.066  1.00  0.00     0.022 A 
BRANCH  45  49
ATOM     49  S   UNL A   1      41.789  27.025  36.090  1.00  0.00     0.124 S 
ATOM     50  O   UNL A   1      40.805  26.302  36.894  1.00  0.00    -0.237 OA
ATOM     51  O   UNL A   1      42.822  27.736  36.834  1.00  0.00    -0.237 OA
ATOM     52  O   UNL A   1      41.237  27.743  34.942  1.00  0.00    -0.744 OA
ENDBRANCH  45  49
ENDBRANCH  28  42
BRANCH  29  53
ATOM     53  C   UNL A   1      49.396  26.562  25.076  1.00  0.00     0.023 A 
ATOM     54  C   UNL A   1      48.776  27.183  23.982  1.00  0.00     0.031 A 
ATOM     55  C   UNL A   1      50.745  26.182  24.938  1.00  0.00     0.131 A 
ATOM     56  C   UNL A   1      49.497  27.389  22.793  1.00  0.00     0.055 A 
ATOM     57  C   UNL A   1      51.473  26.442  23.776  1.00  0.00     0.041 A 
ATOM     58  F   UNL A   1      51.387  25.575  25.948  1.00  0.00    -0.206 F 
ATOM     59  C   UNL A   1      50.846  27.043  22.691  1.00  0.00     0.022 A 
BRANCH  56  60
ATOM     60  S   UNL A   1      48.630  28.070  21.352  1.00  0.00     0.124 S 
ATOM     61  O   UNL A   1      49.300  29.354  21.184  1.00  0.00    -0.237 OA
ATOM     62  O   UNL A   1      48.904  27.063  20.330  1.00  0.00    -0.237 OA
ATOM     63  O   UNL A   1      47.240  28.143  21.793  1.00  0.00    -0.744 OA
ENDBRANCH  56  60
ENDBRANCH  29  53
BRANCH  41  64
ATOM     64  C   UNL A   1      49.841  29.161  31.552  1.00  0.00     0.023 A 
ATOM     65  C   UNL A   1      49.560  30.537  31.575  1.00  0.00     0.031 A 
ATOM     66  C   UNL A   1      51.021  28.711  32.170  1.00  0.00     0.131 A 
ATOM     67  C   UNL A   1      50.467  31.422  32.176  1.00  0.00     0.055 A 
ATOM     68  C   UNL A   1      51.896  29.590  32.807  1.00  0.00     0.041 A 
ATOM     69  F   UNL A   1      51.333  27.405  32.175  1.00  0.00    -0.206 F 
ATOM     70  C   UNL A   1      51.625  30.956  32.806  1.00  0.00     0.022 A 
BRANCH  67  71
ATOM     71  S   UNL A   1      50.144  33.206  32.081  1.00  0.00     0.124 S 
ATOM     72  O   UNL A   1      49.800  33.377  30.673  1.00  0.00    -0.237 OA
ATOM     73  O   UNL A   1      49.050  33.377  33.031  1.00  0.00    -0.237 OA
ATOM     74  O   UNL A   1      51.414  33.806  32.487  1.00  0.00    -0.744 OA
ENDBRANCH  67  71
ENDBRANCH  41  64
ENDBRANCH  15  16
ENDBRANCH   8  10
ENDBRANCH   7   8
ENDBRANCH   6   7
ENDBRANCH   5   6
ENDBRANCH   4   5
ENDBRANCH   3   4
ENDBRANCH   2   3
ENDBRANCH   1   2
BRANCH   1  75
ATOM     75  C   UNL A   1      33.632  26.573  24.963  1.00  0.00     0.188 C 
BRANCH  75  76
ATOM     76  C   UNL A   1      32.385  27.137  25.652  1.00  0.00     0.188 C 
BRANCH  76  77
ATOM     77  O   UNL A   1      32.557  28.292  26.463  1.00  0.00    -0.376 OA
BRANCH  77  78
ATOM     78  C   UNL A   1      33.770  29.041  26.259  1.00  0.00     0.202 C 
BRANCH  78  79
ATOM     79  C   UNL A   1      34.880  28.961  27.327  1.00  0.00     0.261 C 
BRANCH  79  80
ATOM     80  O   UNL A   1      35.788  30.082  27.324  1.00  0.00    -0.458 OA
BRANCH  80  81
ATOM     81  C   UNL A   1      37.077  29.902  27.753  1.00  0.00     0.359 C 
ATOM     82  O   UNL A   1      37.989  29.504  27.078  1.00  0.00    -0.244 OA
BRANCH  81  83
ATOM     83  C   UNL A   1      37.158  30.585  29.092  1.00  0.00     0.179 A 
ATOM     84  N   UNL A   1      36.377  31.710  29.239  1.00  0.00    -0.245 NA
ATOM     85  C   UNL A   1      38.215  30.324  29.960  1.00  0.00     0.161 A 
ATOM     86  C   UNL A   1      36.683  32.526  30.269  1.00  0.00     0.132 A 
ATOM     87  N   UNL A   1      38.536  31.183  30.983  1.00  0.00    -0.247 NA
ATOM     88  C   UNL A   1      37.752  32.278  31.109  1.00  0.00     0.132 A 
BRANCH  85  89
ATOM     89  C   UNL A   1      38.839  28.987  30.043  1.00  0.00     0.274 C 
ATOM     90  O   UNL A   1      38.166  28.148  30.647  1.00  0.00    -0.267 OA
ATOM     91  N   UNL A   1      40.095  28.707  29.481  1.00  0.00    -0.337 N 
ATOM     92  C   UNL A   1      40.401  27.286  29.319  1.00  0.00     0.120 C 
ATOM     93  C   UNL A   1      40.876  29.642  28.673  1.00  0.00     0.120 C 
ATOM     94  C   UNL A   1      41.890  26.975  29.272  1.00  0.00     0.025 C 
ATOM     95  C   UNL A   1      42.367  29.303  28.566  1.00  0.00     0.025 C 
ATOM     96  C   UNL A   1      42.590  27.824  28.208  1.00  0.00    -0.003 C 
BRANCH  96  97
ATOM     97  C   UNL A   1      44.092  27.481  28.120  1.00  0.00     0.039 C 
BRANCH  97  98
ATOM     98  C   UNL A   1      45.041  28.605  28.479  1.00  0.00    -0.048 A 
ATOM     99  C   UNL A   1      45.133  29.041  29.811  1.00  0.00     0.004 A 
ATOM    100  C   UNL A   1      45.776  29.295  27.504  1.00  0.00     0.004 A 
ATOM    101  C   UNL A   1      45.952  30.120  30.157  1.00  0.00     0.000 A 
ATOM    102  C   UNL A   1      46.602  30.369  27.853  1.00  0.00     0.000 A 
ATOM    103  C   UNL A   1      46.688  30.783  29.179  1.00  0.00     0.000 A 
ENDBRANCH  97  98
ENDBRANCH  96  97
ENDBRANCH  85  89
ENDBRANCH  81  83
ENDBRANCH  80  81
ENDBRANCH  79  80
ENDBRANCH  78  79
ENDBRANCH  77  78
ENDBRANCH  76  77
ENDBRANCH  75  76
ENDBRANCH   1  75
TORSDOF 26
ENDMDL
