MODEL 1
REMARK VINA RESULT:      -8.8      0.000      0.000
REMARK SMILES O=C(CN1C(=O)S/C(=C\c2cccn2-c2cccc(C(=O)OCCOCCOCCOCCOC(=O)c3ccc(-c4c5nc(c(-c6cc(S(=O)(=O)[O-])ccc6F)c6ccc([nH]6)c(-c6cc(S(=O)(=O)[O-])ccc6F)c6nc(c(-c7cc(S(=O)(=O)[O-])ccc7F)c7ccc4[nH]7)C=C6)C=C5)cc3)c2)C1=O)Nc1ccc(Cl)cc1
REMARK SMILES IDX 27 1 26 2 25 3 24 4 23 5 22 6 20 7 21 8 19 9 15 10 16 11
REMARK SMILES IDX 100 12 17 13 18 14 14 15 10 16 11 17 12 18 13 19 9 20 4 21
REMARK SMILES IDX 5 22 101 23 6 24 7 25 8 26 102 27 3 28 2 29 1 30 103 31
REMARK SMILES IDX 104 33 105 34 110 35 106 36 109 37 107 38 108 39 28 40 29 41
REMARK SMILES IDX 30 42 31 43 32 44 33 45 34 46 35 47 36 48 37 49 38 50 99 51
REMARK SMILES IDX 39 52 98 53 40 54 41 55 42 56 92 57 43 58 97 59 91 60 93 61
REMARK SMILES IDX 44 62 96 63 90 64 89 65 45 67 77 68 57 69 76 70 58 71 61 72
REMARK SMILES IDX 75 73 94 74 59 75 60 76 74 78 95 79 62 80 46 81 47 82 55 83
REMARK SMILES IDX 48 84 54 85 56 86 53 87 49 88 50 89 51 90 52 91 78 92 79 93
REMARK SMILES IDX 87 94 80 95 86 96 88 97 85 98 81 99 82 100 83 101 84 102
REMARK SMILES IDX 63 103 64 104 72 105 65 106 71 107 73 108 70 109 66 110
REMARK SMILES IDX 67 111 68 112 69 113
REMARK H PARENT 103 32 93 66 61 77
REMARK Flexibility Score: inf
ROOT
ATOM      1  C   UNL A   1      37.706  24.026  25.892  1.00  0.00     0.188 C 
ENDROOT
BRANCH   1   2
ATOM      2  C   UNL A   1      38.533  24.606  27.057  1.00  0.00     0.188 C 
BRANCH   2   3
ATOM      3  O   UNL A   1      39.829  25.066  26.732  1.00  0.00    -0.376 OA
BRANCH   3   4
ATOM      4  C   UNL A   1      40.264  26.385  27.002  1.00  0.00     0.202 C 
BRANCH   4   5
ATOM      5  C   UNL A   1      40.520  27.011  28.388  1.00  0.00     0.261 C 
BRANCH   5   6
ATOM      6  O   UNL A   1      39.421  27.568  29.106  1.00  0.00    -0.460 OA
BRANCH   6   7
ATOM      7  C   UNL A   1      39.299  28.912  29.134  1.00  0.00     0.338 C 
ATOM      8  O   UNL A   1      39.093  29.654  28.193  1.00  0.00    -0.246 OA
BRANCH   7   9
ATOM      9  C   UNL A   1      39.228  29.307  30.566  1.00  0.00     0.062 A 
ATOM     10  C   UNL A   1      39.357  30.997  32.308  1.00  0.00     0.046 A 
ATOM     11  C   UNL A   1      39.395  29.980  33.273  1.00  0.00     0.026 A 
ATOM     12  C   UNL A   1      39.315  30.651  30.951  1.00  0.00     0.042 A 
ATOM     13  C   UNL A   1      39.318  28.638  32.887  1.00  0.00     0.003 A 
ATOM     14  C   UNL A   1      39.211  28.301  31.537  1.00  0.00     0.016 A 
BRANCH  10  15
ATOM     15  N   UNL A   1      39.361  32.368  32.715  1.00  0.00    -0.317 N 
ATOM     16  C   UNL A   1      38.329  33.307  32.609  1.00  0.00     0.047 A 
ATOM     17  C   UNL A   1      38.798  34.514  33.100  1.00  0.00     0.028 A 
ATOM     18  C   UNL A   1      40.120  34.322  33.546  1.00  0.00     0.020 A 
ATOM     19  C   UNL A   1      40.433  33.001  33.324  1.00  0.00     0.092 A 
BRANCH  16  20
ATOM     20  C   UNL A   1      37.025  32.935  32.176  1.00  0.00     0.048 C 
ATOM     21  N   UNL A   1      35.023  32.873  29.185  1.00  0.00    -0.259 N 
ATOM     22  C   UNL A   1      36.084  33.376  28.477  1.00  0.00     0.294 C 
ATOM     23  C   UNL A   1      35.227  32.627  30.519  1.00  0.00     0.268 C 
ATOM     24  O   UNL A   1      36.136  33.493  27.277  1.00  0.00    -0.261 OA
ATOM     25  S   UNL A   1      37.422  33.705  29.552  1.00  0.00    -0.022 SA
ATOM     26  C   UNL A   1      36.587  33.080  30.919  1.00  0.00     0.085 C 
ATOM     27  O   UNL A   1      34.426  32.112  31.287  1.00  0.00    -0.268 OA
BRANCH  21  28
ATOM     28  C   UNL A   1      33.746  32.615  28.544  1.00  0.00     0.230 C 
BRANCH  28  29
ATOM     29  C   UNL A   1      33.647  31.278  27.803  1.00  0.00     0.244 C 
ATOM     30  O   UNL A   1      34.607  30.510  27.810  1.00  0.00    -0.273 OA
ATOM     31  N   UNL A   1      32.390  30.980  27.302  1.00  0.00    -0.325 N 
ATOM     32  H   UNL A   1      31.705  31.684  27.374  1.00  0.00     0.169 HD
BRANCH  31  33
ATOM     33  C   UNL A   1      31.993  29.770  26.696  1.00  0.00     0.041 A 
ATOM     34  C   UNL A   1      31.771  29.779  25.312  1.00  0.00     0.027 A 
ATOM     35  C   UNL A   1      31.795  28.582  27.406  1.00  0.00     0.027 A 
ATOM     36  C   UNL A   1      31.413  28.604  24.643  1.00  0.00     0.022 A 
ATOM     37  C   UNL A   1      31.410  27.413  26.742  1.00  0.00     0.022 A 
ATOM     38  C   UNL A   1      31.235  27.425  25.361  1.00  0.00     0.041 A 
ATOM     39  Cl  UNL A   1      30.800  25.976  24.543  1.00  0.00    -0.084 Cl
ENDBRANCH  31  33
ENDBRANCH  28  29
ENDBRANCH  21  28
ENDBRANCH  16  20
ENDBRANCH  10  15
ENDBRANCH   7   9
ENDBRANCH   6   7
ENDBRANCH   5   6
ENDBRANCH   4   5
ENDBRANCH   3   4
ENDBRANCH   2   3
ENDBRANCH   1   2
BRANCH   1  40
ATOM     40  O   UNL A   1      36.582  23.272  26.327  1.00  0.00    -0.377 OA
BRANCH  40  41
ATOM     41  C   UNL A   1      36.399  21.996  25.708  1.00  0.00     0.188 C 
BRANCH  41  42
ATOM     42  C   UNL A   1      37.367  21.533  24.592  1.00  0.00     0.188 C 
BRANCH  42  43
ATOM     43  O   UNL A   1      38.187  20.421  24.935  1.00  0.00    -0.376 OA
BRANCH  43  44
ATOM     44  C   UNL A   1      39.064  20.461  26.044  1.00  0.00     0.202 C 
BRANCH  44  45
ATOM     45  C   UNL A   1      40.178  21.506  25.969  1.00  0.00     0.261 C 
BRANCH  45  46
ATOM     46  O   UNL A   1      41.438  21.070  26.461  1.00  0.00    -0.460 OA
BRANCH  46  47
ATOM     47  C   UNL A   1      42.474  21.728  25.912  1.00  0.00     0.338 C 
ATOM     48  O   UNL A   1      43.128  21.434  24.926  1.00  0.00    -0.246 OA
BRANCH  47  49
ATOM     49  C   UNL A   1      42.859  22.834  26.757  1.00  0.00     0.060 A 
ATOM     50  C   UNL A   1      42.957  24.073  26.124  1.00  0.00     0.016 A 
ATOM     51  C   UNL A   1      43.521  22.506  27.944  1.00  0.00     0.016 A 
ATOM     52  C   UNL A   1      43.880  24.962  26.611  1.00  0.00     0.010 A 
ATOM     53  C   UNL A   1      44.479  23.376  28.399  1.00  0.00     0.010 A 
ATOM     54  C   UNL A   1      44.670  24.576  27.703  1.00  0.00    -0.014 A 
BRANCH  54  55
ATOM     55  C   UNL A   1      45.580  25.585  28.236  1.00  0.00     0.031 A 
ATOM     56  C   UNL A   1      46.872  25.558  27.385  1.00  0.00     0.074 A 
ATOM     57  C   UNL A   1      45.140  26.232  29.364  1.00  0.00     0.049 A 
ATOM     58  N   UNL A   1      48.098  25.783  27.732  1.00  0.00    -0.248 NA
ATOM     59  C   UNL A   1      46.820  25.090  25.960  1.00  0.00     0.031 C 
ATOM     60  C   UNL A   1      43.798  26.079  29.995  1.00  0.00     0.029 A 
ATOM     61  N   UNL A   1      45.713  27.144  30.223  1.00  0.00    -0.354 N 
ATOM     62  C   UNL A   1      48.875  25.792  26.549  1.00  0.00     0.074 A 
ATOM     63  C   UNL A   1      48.081  25.181  25.537  1.00  0.00     0.031 C 
ATOM     64  C   UNL A   1      43.706  26.783  31.151  1.00  0.00     0.029 A 
ATOM     65  C   UNL A   1      44.950  27.492  31.386  1.00  0.00     0.049 A 
ATOM     66  H   UNL A   1      46.597  27.536  30.047  1.00  0.00     0.167 HD
ATOM     67  C   UNL A   1      50.044  26.489  26.446  1.00  0.00     0.034 A 
ATOM     68  C   UNL A   1      45.336  28.265  32.459  1.00  0.00     0.034 A 
ATOM     69  C   UNL A   1      50.330  27.096  27.703  1.00  0.00     0.049 A 
ATOM     70  C   UNL A   1      46.627  28.808  32.011  1.00  0.00     0.074 A 
ATOM     71  C   UNL A   1      50.665  26.566  28.921  1.00  0.00     0.029 A 
ATOM     72  N   UNL A   1      49.884  28.389  27.873  1.00  0.00    -0.354 N 
ATOM     73  N   UNL A   1      46.770  29.751  31.131  1.00  0.00    -0.248 NA
ATOM     74  C   UNL A   1      47.859  28.188  32.519  1.00  0.00     0.031 C 
ATOM     75  C   UNL A   1      49.898  27.346  29.807  1.00  0.00     0.029 A 
ATOM     76  C   UNL A   1      49.381  28.468  29.144  1.00  0.00     0.049 A 
ATOM     77  H   UNL A   1      49.921  29.115  27.209  1.00  0.00     0.167 HD
ATOM     78  C   UNL A   1      48.080  29.606  30.760  1.00  0.00     0.074 A 
ATOM     79  C   UNL A   1      48.744  28.929  31.857  1.00  0.00     0.031 C 
ATOM     80  C   UNL A   1      48.396  29.487  29.444  1.00  0.00     0.034 A 
BRANCH  67  81
ATOM     81  C   UNL A   1      50.866  26.956  25.275  1.00  0.00     0.023 A 
ATOM     82  C   UNL A   1      50.122  27.470  24.185  1.00  0.00     0.031 A 
ATOM     83  C   UNL A   1      52.199  26.621  25.014  1.00  0.00     0.131 A 
ATOM     84  C   UNL A   1      50.624  27.446  22.881  1.00  0.00     0.055 A 
ATOM     85  C   UNL A   1      52.734  26.686  23.718  1.00  0.00     0.041 A 
ATOM     86  F   UNL A   1      53.007  26.136  25.967  1.00  0.00    -0.206 F 
ATOM     87  C   UNL A   1      51.932  27.052  22.636  1.00  0.00     0.022 A 
BRANCH  84  88
ATOM     88  S   UNL A   1      49.452  27.728  21.524  1.00  0.00     0.124 S 
ATOM     89  O   UNL A   1      48.188  27.314  22.125  1.00  0.00    -0.237 OA
ATOM     90  O   UNL A   1      49.606  29.159  21.282  1.00  0.00    -0.237 OA
ATOM     91  O   UNL A   1      49.953  26.860  20.461  1.00  0.00    -0.744 OA
ENDBRANCH  84  88
ENDBRANCH  67  81
BRANCH  68  92
ATOM     92  C   UNL A   1      44.937  28.691  33.882  1.00  0.00     0.023 A 
ATOM     93  C   UNL A   1      45.462  28.249  35.112  1.00  0.00     0.031 A 
ATOM     94  C   UNL A   1      43.928  29.709  34.023  1.00  0.00     0.131 A 
ATOM     95  C   UNL A   1      45.041  28.865  36.339  1.00  0.00     0.055 A 
ATOM     96  C   UNL A   1      43.603  30.372  35.203  1.00  0.00     0.041 A 
ATOM     97  F   UNL A   1      43.169  30.121  33.001  1.00  0.00    -0.206 F 
ATOM     98  C   UNL A   1      44.173  29.959  36.376  1.00  0.00     0.022 A 
BRANCH  95  99
ATOM     99  S   UNL A   1      45.592  28.267  37.972  1.00  0.00     0.124 S 
ATOM    100  O   UNL A   1      46.120  29.485  38.577  1.00  0.00    -0.237 OA
ATOM    101  O   UNL A   1      44.366  27.735  38.556  1.00  0.00    -0.237 OA
ATOM    102  O   UNL A   1      46.599  27.258  37.638  1.00  0.00    -0.744 OA
ENDBRANCH  95  99
ENDBRANCH  68  92
BRANCH  80 103
ATOM    103  C   UNL A   1      47.397  30.119  28.474  1.00  0.00     0.023 A 
ATOM    104  C   UNL A   1      46.277  29.388  28.031  1.00  0.00     0.031 A 
ATOM    105  C   UNL A   1      47.564  31.386  27.886  1.00  0.00     0.131 A 
ATOM    106  C   UNL A   1      45.414  29.901  27.042  1.00  0.00     0.055 A 
ATOM    107  C   UNL A   1      46.712  31.900  26.896  1.00  0.00     0.041 A 
ATOM    108  F   UNL A   1      48.568  32.180  28.247  1.00  0.00    -0.206 F 
ATOM    109  C   UNL A   1      45.628  31.153  26.466  1.00  0.00     0.022 A 
BRANCH 106 110
ATOM    110  S   UNL A   1      43.968  28.930  26.532  1.00  0.00     0.124 S 
ATOM    111  O   UNL A   1      44.520  28.039  25.518  1.00  0.00    -0.237 OA
ATOM    112  O   UNL A   1      43.556  28.300  27.783  1.00  0.00    -0.237 OA
ATOM    113  O   UNL A   1      43.038  29.940  26.024  1.00  0.00    -0.744 OA
ENDBRANCH 106 110
ENDBRANCH  80 103
ENDBRANCH  54  55
ENDBRANCH  47  49
ENDBRANCH  46  47
ENDBRANCH  45  46
ENDBRANCH  44  45
ENDBRANCH  43  44
ENDBRANCH  42  43
ENDBRANCH  41  42
ENDBRANCH  40  41
ENDBRANCH   1  40
TORSDOF 28
ENDMDL
MODEL 2
REMARK VINA RESULT:      -8.3      3.992      9.940
REMARK SMILES O=C(CN1C(=O)S/C(=C\c2cccn2-c2cccc(C(=O)OCCOCCOCCOCCOC(=O)c3ccc(-c4c5nc(c(-c6cc(S(=O)(=O)[O-])ccc6F)c6ccc([nH]6)c(-c6cc(S(=O)(=O)[O-])ccc6F)c6nc(c(-c7cc(S(=O)(=O)[O-])ccc7F)c7ccc4[nH]7)C=C6)C=C5)cc3)c2)C1=O)Nc1ccc(Cl)cc1
REMARK SMILES IDX 27 1 26 2 25 3 24 4 23 5 22 6 20 7 21 8 19 9 15 10 16 11
REMARK SMILES IDX 100 12 17 13 18 14 14 15 10 16 11 17 12 18 13 19 9 20 4 21
REMARK SMILES IDX 5 22 101 23 6 24 7 25 8 26 102 27 3 28 2 29 1 30 103 31
REMARK SMILES IDX 104 33 105 34 110 35 106 36 109 37 107 38 108 39 28 40 29 41
REMARK SMILES IDX 30 42 31 43 32 44 33 45 34 46 35 47 36 48 37 49 38 50 99 51
REMARK SMILES IDX 39 52 98 53 40 54 41 55 42 56 92 57 43 58 97 59 91 60 93 61
REMARK SMILES IDX 44 62 96 63 90 64 89 65 45 67 77 68 57 69 76 70 58 71 61 72
REMARK SMILES IDX 75 73 94 74 59 75 60 76 74 78 95 79 62 80 46 81 47 82 55 83
REMARK SMILES IDX 48 84 54 85 56 86 53 87 49 88 50 89 51 90 52 91 78 92 79 93
REMARK SMILES IDX 87 94 80 95 86 96 88 97 85 98 81 99 82 100 83 101 84 102
REMARK SMILES IDX 63 103 64 104 72 105 65 106 71 107 73 108 70 109 66 110
REMARK SMILES IDX 67 111 68 112 69 113
REMARK H PARENT 103 32 93 66 61 77
REMARK Flexibility Score: inf
ROOT
ATOM      1  C   UNL A   1      33.045  26.500  26.378  1.00  0.00     0.188 C 
ENDROOT
BRANCH   1   2
ATOM      2  C   UNL A   1      32.214  25.465  25.593  1.00  0.00     0.188 C 
BRANCH   2   3
ATOM      3  O   UNL A   1      32.408  24.111  25.949  1.00  0.00    -0.376 OA
BRANCH   3   4
ATOM      4  C   UNL A   1      33.685  23.569  26.230  1.00  0.00     0.202 C 
BRANCH   4   5
ATOM      5  C   UNL A   1      34.150  22.119  25.982  1.00  0.00     0.261 C 
BRANCH   5   6
ATOM      6  O   UNL A   1      35.525  21.795  26.178  1.00  0.00    -0.460 OA
BRANCH   6   7
ATOM      7  C   UNL A   1      36.364  21.935  25.131  1.00  0.00     0.338 C 
ATOM      8  O   UNL A   1      36.081  21.898  23.948  1.00  0.00    -0.246 OA
BRANCH   7   9
ATOM      9  C   UNL A   1      37.671  22.381  25.683  1.00  0.00     0.062 A 
ATOM     10  C   UNL A   1      39.990  21.939  26.260  1.00  0.00     0.046 A 
ATOM     11  C   UNL A   1      40.020  23.130  26.998  1.00  0.00     0.026 A 
ATOM     12  C   UNL A   1      38.797  21.548  25.638  1.00  0.00     0.042 A 
ATOM     13  C   UNL A   1      38.892  23.955  27.050  1.00  0.00     0.003 A 
ATOM     14  C   UNL A   1      37.726  23.594  26.375  1.00  0.00     0.016 A 
BRANCH  10  15
ATOM     15  N   UNL A   1      41.170  21.138  26.150  1.00  0.00    -0.317 N 
ATOM     16  C   UNL A   1      42.458  21.537  25.776  1.00  0.00     0.047 A 
ATOM     17  C   UNL A   1      43.270  20.415  25.777  1.00  0.00     0.028 A 
ATOM     18  C   UNL A   1      42.494  19.313  26.184  1.00  0.00     0.020 A 
ATOM     19  C   UNL A   1      41.224  19.781  26.430  1.00  0.00     0.092 A 
BRANCH  16  20
ATOM     20  C   UNL A   1      42.785  22.909  25.582  1.00  0.00     0.048 C 
ATOM     21  N   UNL A   1      44.311  25.657  27.336  1.00  0.00    -0.259 N 
ATOM     22  C   UNL A   1      44.538  24.833  28.408  1.00  0.00     0.294 C 
ATOM     23  C   UNL A   1      43.723  25.093  26.232  1.00  0.00     0.268 C 
ATOM     24  O   UNL A   1      45.188  25.114  29.386  1.00  0.00    -0.261 OA
ATOM     25  S   UNL A   1      43.859  23.252  28.105  1.00  0.00    -0.022 SA
ATOM     26  C   UNL A   1      43.364  23.676  26.514  1.00  0.00     0.085 C 
ATOM     27  O   UNL A   1      43.514  25.650  25.164  1.00  0.00    -0.268 OA
BRANCH  21  28
ATOM     28  C   UNL A   1      44.680  27.061  27.375  1.00  0.00     0.230 C 
BRANCH  28  29
ATOM     29  C   UNL A   1      43.631  27.993  27.990  1.00  0.00     0.244 C 
ATOM     30  O   UNL A   1      43.744  29.209  27.847  1.00  0.00    -0.273 OA
ATOM     31  N   UNL A   1      42.534  27.353  28.542  1.00  0.00    -0.325 N 
ATOM     32  H   UNL A   1      42.568  26.370  28.582  1.00  0.00     0.169 HD
BRANCH  31  33
ATOM     33  C   UNL A   1      41.372  27.968  29.054  1.00  0.00     0.041 A 
ATOM     34  C   UNL A   1      40.770  28.965  28.276  1.00  0.00     0.027 A 
ATOM     35  C   UNL A   1      40.813  27.645  30.294  1.00  0.00     0.027 A 
ATOM     36  C   UNL A   1      39.594  29.589  28.709  1.00  0.00     0.022 A 
ATOM     37  C   UNL A   1      39.654  28.287  30.740  1.00  0.00     0.022 A 
ATOM     38  C   UNL A   1      39.040  29.246  29.939  1.00  0.00     0.041 A 
ATOM     39  Cl  UNL A   1      37.592  30.004  30.473  1.00  0.00    -0.084 Cl
ENDBRANCH  31  33
ENDBRANCH  28  29
ENDBRANCH  21  28
ENDBRANCH  16  20
ENDBRANCH  10  15
ENDBRANCH   7   9
ENDBRANCH   6   7
ENDBRANCH   5   6
ENDBRANCH   4   5
ENDBRANCH   3   4
ENDBRANCH   2   3
ENDBRANCH   1   2
BRANCH   1  40
ATOM     40  O   UNL A   1      33.170  27.744  25.700  1.00  0.00    -0.377 OA
BRANCH  40  41
ATOM     41  C   UNL A   1      33.000  28.919  26.498  1.00  0.00     0.188 C 
BRANCH  41  42
ATOM     42  C   UNL A   1      34.039  29.265  27.594  1.00  0.00     0.188 C 
BRANCH  42  43
ATOM     43  O   UNL A   1      34.956  30.295  27.243  1.00  0.00    -0.376 OA
BRANCH  43  44
ATOM     44  C   UNL A   1      34.734  31.642  27.612  1.00  0.00     0.202 C 
BRANCH  44  45
ATOM     45  C   UNL A   1      34.342  31.873  29.072  1.00  0.00     0.261 C 
BRANCH  45  46
ATOM     46  O   UNL A   1      35.436  32.033  29.965  1.00  0.00    -0.460 OA
BRANCH  46  47
ATOM     47  C   UNL A   1      35.574  33.295  30.407  1.00  0.00     0.338 C 
ATOM     48  O   UNL A   1      34.705  34.112  30.664  1.00  0.00    -0.246 OA
BRANCH  47  49
ATOM     49  C   UNL A   1      36.969  33.667  30.414  1.00  0.00     0.060 A 
ATOM     50  C   UNL A   1      37.710  33.256  29.305  1.00  0.00     0.016 A 
ATOM     51  C   UNL A   1      37.525  33.962  31.662  1.00  0.00     0.016 A 
ATOM     52  C   UNL A   1      39.037  32.976  29.500  1.00  0.00     0.010 A 
ATOM     53  C   UNL A   1      38.841  33.633  31.866  1.00  0.00     0.010 A 
ATOM     54  C   UNL A   1      39.569  33.110  30.790  1.00  0.00    -0.014 A 
BRANCH  54  55
ATOM     55  C   UNL A   1      41.002  32.878  30.930  1.00  0.00     0.031 A 
ATOM     56  C   UNL A   1      41.735  33.807  29.933  1.00  0.00     0.074 A 
ATOM     57  C   UNL A   1      41.351  31.880  31.807  1.00  0.00     0.049 A 
ATOM     58  N   UNL A   1      42.834  33.617  29.277  1.00  0.00    -0.248 NA
ATOM     59  C   UNL A   1      41.093  35.091  29.497  1.00  0.00     0.031 C 
ATOM     60  C   UNL A   1      40.416  31.124  32.689  1.00  0.00     0.029 A 
ATOM     61  N   UNL A   1      42.545  31.284  32.144  1.00  0.00    -0.354 N 
ATOM     62  C   UNL A   1      43.154  34.834  28.630  1.00  0.00     0.074 A 
ATOM     63  C   UNL A   1      41.970  35.626  28.647  1.00  0.00     0.031 C 
ATOM     64  C   UNL A   1      41.058  30.139  33.368  1.00  0.00     0.029 A 
ATOM     65  C   UNL A   1      42.470  30.162  33.034  1.00  0.00     0.049 A 
ATOM     66  H   UNL A   1      43.404  31.610  31.793  1.00  0.00     0.167 HD
ATOM     67  C   UNL A   1      44.435  35.178  28.307  1.00  0.00     0.034 A 
ATOM     68  C   UNL A   1      43.481  29.311  33.422  1.00  0.00     0.034 A 
ATOM     69  C   UNL A   1      45.302  34.105  28.664  1.00  0.00     0.049 A 
ATOM     70  C   UNL A   1      44.677  29.968  32.872  1.00  0.00     0.074 A 
ATOM     71  C   UNL A   1      45.438  32.834  28.172  1.00  0.00     0.029 A 
ATOM     72  N   UNL A   1      45.881  34.177  29.913  1.00  0.00    -0.354 N 
ATOM     73  N   UNL A   1      45.228  31.036  33.360  1.00  0.00    -0.248 NA
ATOM     74  C   UNL A   1      45.249  29.443  31.624  1.00  0.00     0.031 C 
ATOM     75  C   UNL A   1      45.591  32.073  29.346  1.00  0.00     0.029 A 
ATOM     76  C   UNL A   1      45.834  32.914  30.441  1.00  0.00     0.049 A 
ATOM     77  H   UNL A   1      46.256  34.980  30.341  1.00  0.00     0.167 HD
ATOM     78  C   UNL A   1      45.993  31.474  32.312  1.00  0.00     0.074 A 
ATOM     79  C   UNL A   1      46.241  30.317  31.475  1.00  0.00     0.031 C 
ATOM     80  C   UNL A   1      45.870  32.757  31.881  1.00  0.00     0.034 A 
BRANCH  67  81
ATOM     81  C   UNL A   1      45.096  36.484  27.958  1.00  0.00     0.023 A 
ATOM     82  C   UNL A   1      44.388  37.642  28.362  1.00  0.00     0.031 A 
ATOM     83  C   UNL A   1      46.104  36.672  27.006  1.00  0.00     0.131 A 
ATOM     84  C   UNL A   1      44.543  38.862  27.698  1.00  0.00     0.055 A 
ATOM     85  C   UNL A   1      46.324  37.922  26.405  1.00  0.00     0.041 A 
ATOM     86  F   UNL A   1      46.849  35.654  26.553  1.00  0.00    -0.206 F 
ATOM     87  C   UNL A   1      45.510  39.012  26.714  1.00  0.00     0.022 A 
BRANCH  84  88
ATOM     88  S   UNL A   1      43.305  40.152  28.010  1.00  0.00     0.124 S 
ATOM     89  O   UNL A   1      42.057  39.442  27.748  1.00  0.00    -0.237 OA
ATOM     90  O   UNL A   1      43.565  40.493  29.405  1.00  0.00    -0.237 OA
ATOM     91  O   UNL A   1      43.649  41.190  27.041  1.00  0.00    -0.744 OA
ENDBRANCH  84  88
ENDBRANCH  67  81
BRANCH  68  92
ATOM     92  C   UNL A   1      43.772  27.983  34.140  1.00  0.00     0.023 A 
ATOM     93  C   UNL A   1      44.059  27.764  35.502  1.00  0.00     0.031 A 
ATOM     94  C   UNL A   1      43.706  26.770  33.367  1.00  0.00     0.131 A 
ATOM     95  C   UNL A   1      44.177  26.425  36.007  1.00  0.00     0.055 A 
ATOM     96  C   UNL A   1      43.717  25.477  33.882  1.00  0.00     0.041 A 
ATOM     97  F   UNL A   1      43.639  26.768  32.030  1.00  0.00    -0.206 F 
ATOM     98  C   UNL A   1      43.941  25.295  35.219  1.00  0.00     0.022 A 
BRANCH  95  99
ATOM     99  S   UNL A   1      44.661  26.070  37.730  1.00  0.00     0.124 S 
ATOM    100  O   UNL A   1      43.522  26.593  38.477  1.00  0.00    -0.237 OA
ATOM    101  O   UNL A   1      44.825  24.621  37.732  1.00  0.00    -0.237 OA
ATOM    102  O   UNL A   1      45.903  26.828  37.894  1.00  0.00    -0.744 OA
ENDBRANCH  95  99
ENDBRANCH  68  92
BRANCH  80 103
ATOM    103  C   UNL A   1      45.379  33.753  32.931  1.00  0.00     0.023 A 
ATOM    104  C   UNL A   1      43.998  33.932  33.148  1.00  0.00     0.031 A 
ATOM    105  C   UNL A   1      46.222  34.613  33.657  1.00  0.00     0.131 A 
ATOM    106  C   UNL A   1      43.519  34.933  34.018  1.00  0.00     0.055 A 
ATOM    107  C   UNL A   1      45.752  35.617  34.518  1.00  0.00     0.041 A 
ATOM    108  F   UNL A   1      47.545  34.518  33.556  1.00  0.00    -0.206 F 
ATOM    109  C   UNL A   1      44.389  35.783  34.701  1.00  0.00     0.022 A 
BRANCH 106 110
ATOM    110  S   UNL A   1      41.731  35.098  34.286  1.00  0.00     0.124 S 
ATOM    111  O   UNL A   1      41.641  36.276  35.140  1.00  0.00    -0.237 OA
ATOM    112  O   UNL A   1      41.223  35.252  32.926  1.00  0.00    -0.237 OA
ATOM    113  O   UNL A   1      41.364  33.838  34.934  1.00  0.00    -0.744 OA
ENDBRANCH 106 110
ENDBRANCH  80 103
ENDBRANCH  54  55
ENDBRANCH  47  49
ENDBRANCH  46  47
ENDBRANCH  45  46
ENDBRANCH  44  45
ENDBRANCH  43  44
ENDBRANCH  42  43
ENDBRANCH  41  42
ENDBRANCH  40  41
ENDBRANCH   1  40
TORSDOF 28
ENDMDL
MODEL 3
REMARK VINA RESULT:      -8.3      5.500     12.666
REMARK SMILES O=C(CN1C(=O)S/C(=C\c2cccn2-c2cccc(C(=O)OCCOCCOCCOCCOC(=O)c3ccc(-c4c5nc(c(-c6cc(S(=O)(=O)[O-])ccc6F)c6ccc([nH]6)c(-c6cc(S(=O)(=O)[O-])ccc6F)c6nc(c(-c7cc(S(=O)(=O)[O-])ccc7F)c7ccc4[nH]7)C=C6)C=C5)cc3)c2)C1=O)Nc1ccc(Cl)cc1
REMARK SMILES IDX 27 1 26 2 25 3 24 4 23 5 22 6 20 7 21 8 19 9 15 10 16 11
REMARK SMILES IDX 100 12 17 13 18 14 14 15 10 16 11 17 12 18 13 19 9 20 4 21
REMARK SMILES IDX 5 22 101 23 6 24 7 25 8 26 102 27 3 28 2 29 1 30 103 31
REMARK SMILES IDX 104 33 105 34 110 35 106 36 109 37 107 38 108 39 28 40 29 41
REMARK SMILES IDX 30 42 31 43 32 44 33 45 34 46 35 47 36 48 37 49 38 50 99 51
REMARK SMILES IDX 39 52 98 53 40 54 41 55 42 56 92 57 43 58 97 59 91 60 93 61
REMARK SMILES IDX 44 62 96 63 90 64 89 65 45 67 77 68 57 69 76 70 58 71 61 72
REMARK SMILES IDX 75 73 94 74 59 75 60 76 74 78 95 79 62 80 46 81 47 82 55 83
REMARK SMILES IDX 48 84 54 85 56 86 53 87 49 88 50 89 51 90 52 91 78 92 79 93
REMARK SMILES IDX 87 94 80 95 86 96 88 97 85 98 81 99 82 100 83 101 84 102
REMARK SMILES IDX 63 103 64 104 72 105 65 106 71 107 73 108 70 109 66 110
REMARK SMILES IDX 67 111 68 112 69 113
REMARK H PARENT 103 32 93 66 61 77
REMARK Flexibility Score: inf
ROOT
ATOM      1  C   UNL A   1      41.860  28.214  36.118  1.00  0.00     0.188 C 
ENDROOT
BRANCH   1   2
ATOM      2  C   UNL A   1      41.395  26.802  36.527  1.00  0.00     0.188 C 
BRANCH   2   3
ATOM      3  O   UNL A   1      42.288  26.063  37.335  1.00  0.00    -0.376 OA
BRANCH   3   4
ATOM      4  C   UNL A   1      43.355  25.303  36.800  1.00  0.00     0.202 C 
BRANCH   4   5
ATOM      5  C   UNL A   1      43.245  24.093  35.849  1.00  0.00     0.261 C 
BRANCH   5   6
ATOM      6  O   UNL A   1      44.276  23.108  35.867  1.00  0.00    -0.460 OA
BRANCH   6   7
ATOM      7  C   UNL A   1      45.039  22.970  34.762  1.00  0.00     0.338 C 
ATOM      8  O   UNL A   1      45.162  23.763  33.847  1.00  0.00    -0.246 OA
BRANCH   7   9
ATOM      9  C   UNL A   1      45.891  21.770  34.975  1.00  0.00     0.062 A 
ATOM     10  C   UNL A   1      46.956  20.161  36.453  1.00  0.00     0.046 A 
ATOM     11  C   UNL A   1      47.734  19.708  35.378  1.00  0.00     0.026 A 
ATOM     12  C   UNL A   1      46.064  21.224  36.253  1.00  0.00     0.042 A 
ATOM     13  C   UNL A   1      47.567  20.262  34.105  1.00  0.00     0.003 A 
ATOM     14  C   UNL A   1      46.631  21.275  33.896  1.00  0.00     0.016 A 
BRANCH  10  15
ATOM     15  N   UNL A   1      47.079  19.540  37.735  1.00  0.00    -0.317 N 
ATOM     16  C   UNL A   1      48.180  19.544  38.599  1.00  0.00     0.047 A 
ATOM     17  C   UNL A   1      47.855  18.784  39.709  1.00  0.00     0.028 A 
ATOM     18  C   UNL A   1      46.532  18.327  39.555  1.00  0.00     0.020 A 
ATOM     19  C   UNL A   1      46.071  18.821  38.357  1.00  0.00     0.092 A 
BRANCH  16  20
ATOM     20  C   UNL A   1      49.331  20.338  38.333  1.00  0.00     0.048 C 
ATOM     21  N   UNL A   1      50.462  23.743  38.625  1.00  0.00    -0.259 N 
ATOM     22  C   UNL A   1      49.257  24.084  39.183  1.00  0.00     0.294 C 
ATOM     23  C   UNL A   1      50.647  22.422  38.304  1.00  0.00     0.268 C 
ATOM     24  O   UNL A   1      48.987  25.153  39.674  1.00  0.00    -0.261 OA
ATOM     25  S   UNL A   1      48.192  22.699  39.207  1.00  0.00    -0.022 SA
ATOM     26  C   UNL A   1      49.396  21.656  38.560  1.00  0.00     0.085 C 
ATOM     27  O   UNL A   1      51.675  21.924  37.871  1.00  0.00    -0.268 OA
BRANCH  21  28
ATOM     28  C   UNL A   1      51.490  24.741  38.388  1.00  0.00     0.230 C 
BRANCH  28  29
ATOM     29  C   UNL A   1      51.471  25.378  36.995  1.00  0.00     0.244 C 
ATOM     30  O   UNL A   1      50.729  26.334  36.776  1.00  0.00    -0.273 OA
ATOM     31  N   UNL A   1      52.433  24.898  36.121  1.00  0.00    -0.325 N 
ATOM     32  H   UNL A   1      52.970  24.133  36.429  1.00  0.00     0.169 HD
BRANCH  31  33
ATOM     33  C   UNL A   1      52.718  25.394  34.831  1.00  0.00     0.041 A 
ATOM     34  C   UNL A   1      53.273  24.504  33.902  1.00  0.00     0.027 A 
ATOM     35  C   UNL A   1      52.492  26.719  34.449  1.00  0.00     0.027 A 
ATOM     36  C   UNL A   1      53.544  24.921  32.595  1.00  0.00     0.022 A 
ATOM     37  C   UNL A   1      52.789  27.145  33.150  1.00  0.00     0.022 A 
ATOM     38  C   UNL A   1      53.300  26.240  32.224  1.00  0.00     0.041 A 
ATOM     39  Cl  UNL A   1      53.626  26.757  30.616  1.00  0.00    -0.084 Cl
ENDBRANCH  31  33
ENDBRANCH  28  29
ENDBRANCH  21  28
ENDBRANCH  16  20
ENDBRANCH  10  15
ENDBRANCH   7   9
ENDBRANCH   6   7
ENDBRANCH   5   6
ENDBRANCH   4   5
ENDBRANCH   3   4
ENDBRANCH   2   3
ENDBRANCH   1   2
BRANCH   1  40
ATOM     40  O   UNL A   1      40.789  29.143  36.004  1.00  0.00    -0.377 OA
BRANCH  40  41
ATOM     41  C   UNL A   1      40.788  29.968  34.836  1.00  0.00     0.188 C 
BRANCH  41  42
ATOM     42  C   UNL A   1      39.763  29.704  33.706  1.00  0.00     0.188 C 
BRANCH  42  43
ATOM     43  O   UNL A   1      38.703  30.651  33.628  1.00  0.00    -0.376 OA
BRANCH  43  44
ATOM     44  C   UNL A   1      37.501  30.363  32.941  1.00  0.00     0.202 C 
BRANCH  44  45
ATOM     45  C   UNL A   1      37.222  31.224  31.707  1.00  0.00     0.261 C 
BRANCH  45  46
ATOM     46  O   UNL A   1      37.938  30.843  30.540  1.00  0.00    -0.460 OA
BRANCH  46  47
ATOM     47  C   UNL A   1      37.324  29.874  29.839  1.00  0.00     0.338 C 
ATOM     48  O   UNL A   1      36.130  29.656  29.724  1.00  0.00    -0.246 OA
BRANCH  47  49
ATOM     49  C   UNL A   1      38.303  28.956  29.306  1.00  0.00     0.060 A 
ATOM     50  C   UNL A   1      39.138  28.350  30.245  1.00  0.00     0.016 A 
ATOM     51  C   UNL A   1      38.626  29.110  27.954  1.00  0.00     0.016 A 
ATOM     52  C   UNL A   1      40.410  28.031  29.847  1.00  0.00     0.010 A 
ATOM     53  C   UNL A   1      39.915  28.837  27.573  1.00  0.00     0.010 A 
ATOM     54  C   UNL A   1      40.799  28.335  28.535  1.00  0.00    -0.014 A 
BRANCH  54  55
ATOM     55  C   UNL A   1      42.134  27.904  28.136  1.00  0.00     0.031 A 
ATOM     56  C   UNL A   1      43.018  29.166  27.987  1.00  0.00     0.074 A 
ATOM     57  C   UNL A   1      42.272  26.557  27.911  1.00  0.00     0.049 A 
ATOM     58  N   UNL A   1      43.994  29.403  27.171  1.00  0.00    -0.248 NA
ATOM     59  C   UNL A   1      42.695  30.403  28.772  1.00  0.00     0.031 C 
ATOM     60  C   UNL A   1      41.230  25.518  28.155  1.00  0.00     0.029 A 
ATOM     61  N   UNL A   1      43.295  25.771  27.431  1.00  0.00    -0.354 N 
ATOM     62  C   UNL A   1      44.571  30.637  27.553  1.00  0.00     0.074 A 
ATOM     63  C   UNL A   1      43.627  31.281  28.403  1.00  0.00     0.031 C 
ATOM     64  C   UNL A   1      41.642  24.292  27.743  1.00  0.00     0.029 A 
ATOM     65  C   UNL A   1      42.993  24.385  27.221  1.00  0.00     0.049 A 
ATOM     66  H   UNL A   1      44.187  26.141  27.242  1.00  0.00     0.167 HD
ATOM     67  C   UNL A   1      45.877  30.946  27.299  1.00  0.00     0.034 A 
ATOM     68  C   UNL A   1      43.780  23.419  26.633  1.00  0.00     0.034 A 
ATOM     69  C   UNL A   1      46.466  29.878  26.563  1.00  0.00     0.049 A 
ATOM     70  C   UNL A   1      45.067  24.112  26.476  1.00  0.00     0.074 A 
ATOM     71  C   UNL A   1      46.250  29.411  25.293  1.00  0.00     0.029 A 
ATOM     72  N   UNL A   1      47.116  28.912  27.301  1.00  0.00    -0.354 N 
ATOM     73  N   UNL A   1      45.896  24.366  27.441  1.00  0.00    -0.248 NA
ATOM     74  C   UNL A   1      45.417  24.643  25.150  1.00  0.00     0.031 C 
ATOM     75  C   UNL A   1      46.275  28.016  25.479  1.00  0.00     0.029 A 
ATOM     76  C   UNL A   1      46.784  27.704  26.747  1.00  0.00     0.049 A 
ATOM     77  H   UNL A   1      47.704  29.061  28.076  1.00  0.00     0.167 HD
ATOM     78  C   UNL A   1      46.685  25.345  26.897  1.00  0.00     0.074 A 
ATOM     79  C   UNL A   1      46.586  25.198  25.459  1.00  0.00     0.031 C 
ATOM     80  C   UNL A   1      46.863  26.513  27.568  1.00  0.00     0.034 A 
BRANCH  67  81
ATOM     81  C   UNL A   1      46.822  31.971  27.863  1.00  0.00     0.023 A 
ATOM     82  C   UNL A   1      47.074  33.083  27.021  1.00  0.00     0.031 A 
ATOM     83  C   UNL A   1      47.716  31.779  28.922  1.00  0.00     0.131 A 
ATOM     84  C   UNL A   1      48.258  33.818  27.116  1.00  0.00     0.055 A 
ATOM     85  C   UNL A   1      48.860  32.579  29.073  1.00  0.00     0.041 A 
ATOM     86  F   UNL A   1      47.577  30.769  29.791  1.00  0.00    -0.206 F 
ATOM     87  C   UNL A   1      49.162  33.571  28.140  1.00  0.00     0.022 A 
BRANCH  84  88
ATOM     88  S   UNL A   1      48.667  34.932  25.743  1.00  0.00     0.124 S 
ATOM     89  O   UNL A   1      47.492  34.804  24.888  1.00  0.00    -0.237 OA
ATOM     90  O   UNL A   1      48.824  36.213  26.426  1.00  0.00    -0.237 OA
ATOM     91  O   UNL A   1      49.899  34.362  25.202  1.00  0.00    -0.744 OA
ENDBRANCH  84  88
ENDBRANCH  67  81
BRANCH  68  92
ATOM     92  C   UNL A   1      43.768  21.985  26.080  1.00  0.00     0.023 A 
ATOM     93  C   UNL A   1      44.848  21.221  25.596  1.00  0.00     0.031 A 
ATOM     94  C   UNL A   1      42.517  21.272  26.081  1.00  0.00     0.131 A 
ATOM     95  C   UNL A   1      44.653  19.843  25.237  1.00  0.00     0.055 A 
ATOM     96  C   UNL A   1      42.357  19.911  25.832  1.00  0.00     0.041 A 
ATOM     97  F   UNL A   1      41.343  21.871  26.315  1.00  0.00    -0.206 F 
ATOM     98  C   UNL A   1      43.437  19.180  25.419  1.00  0.00     0.022 A 
BRANCH  95  99
ATOM     99  S   UNL A   1      45.976  18.830  24.496  1.00  0.00     0.124 S 
ATOM    100  O   UNL A   1      45.991  17.665  25.374  1.00  0.00    -0.237 OA
ATOM    101  O   UNL A   1      45.497  18.610  23.136  1.00  0.00    -0.237 OA
ATOM    102  O   UNL A   1      47.156  19.691  24.597  1.00  0.00    -0.744 OA
ENDBRANCH  95  99
ENDBRANCH  68  92
BRANCH  80 103
ATOM    103  C   UNL A   1      46.699  26.425  29.085  1.00  0.00     0.023 A 
ATOM    104  C   UNL A   1      45.579  27.006  29.713  1.00  0.00     0.031 A 
ATOM    105  C   UNL A   1      47.662  25.877  29.952  1.00  0.00     0.131 A 
ATOM    106  C   UNL A   1      45.469  27.050  31.118  1.00  0.00     0.055 A 
ATOM    107  C   UNL A   1      47.562  25.924  31.351  1.00  0.00     0.041 A 
ATOM    108  F   UNL A   1      48.748  25.276  29.473  1.00  0.00    -0.206 F 
ATOM    109  C   UNL A   1      46.459  26.516  31.943  1.00  0.00     0.022 A 
BRANCH 106 110
ATOM    110  S   UNL A   1      43.989  27.781  31.873  1.00  0.00     0.124 S 
ATOM    111  O   UNL A   1      44.179  27.499  33.291  1.00  0.00    -0.237 OA
ATOM    112  O   UNL A   1      44.095  29.182  31.478  1.00  0.00    -0.237 OA
ATOM    113  O   UNL A   1      42.887  27.052  31.242  1.00  0.00    -0.744 OA
ENDBRANCH 106 110
ENDBRANCH  80 103
ENDBRANCH  54  55
ENDBRANCH  47  49
ENDBRANCH  46  47
ENDBRANCH  45  46
ENDBRANCH  44  45
ENDBRANCH  43  44
ENDBRANCH  42  43
ENDBRANCH  41  42
ENDBRANCH  40  41
ENDBRANCH   1  40
TORSDOF 28
ENDMDL
