MODEL 1
REMARK VINA RESULT:      -9.7      0.000      0.000
REMARK SMILES Cc1cc(F)c(-c2ccc(F)c(C(=O)OCCOCCOCCOCCOC(=O)c3ccc(-c4c5nc(c(-c6cc(S(=O)(=O)[O-])ccc6F)c6ccc([nH]6)c(-c6cc(S(=O)(=O)[O-])ccc6F)c6nc(c(-c7cc(S(=O)(=O)[O-])ccc7F)c7ccc4[nH]7)C=C6)C=C5)cc3)c2)cc1F
REMARK SMILES IDX 22 1 21 2 20 3 19 4 18 5 17 6 16 7 15 8 13 9 14 10 12 11
REMARK SMILES IDX 7 12 8 13 93 14 9 15 10 16 11 17 6 18 1 19 2 20 3 21 95 22
REMARK SMILES IDX 4 23 94 24 96 25 5 26 23 27 24 28 25 29 26 30 27 31 28 32
REMARK SMILES IDX 29 33 30 34 31 35 92 36 32 37 91 38 33 39 34 40 35 41 85 42
REMARK SMILES IDX 36 43 90 44 84 45 86 46 37 47 89 48 83 49 82 50 38 52 70 53
REMARK SMILES IDX 50 54 69 55 51 56 54 57 68 58 87 59 52 60 53 61 67 63 88 64
REMARK SMILES IDX 55 65 39 66 40 67 48 68 41 69 47 70 49 71 46 72 42 73 43 74
REMARK SMILES IDX 44 75 45 76 71 77 72 78 80 79 73 80 79 81 81 82 78 83 74 84
REMARK SMILES IDX 75 85 76 86 77 87 56 88 57 89 65 90 58 91 64 92 66 93 63 94
REMARK SMILES IDX 59 95 60 96 61 97 62 98
REMARK H PARENT 86 51 54 62
REMARK Flexibility Score: inf
ROOT
ATOM      1  C   UNL A   1      33.239  21.934  26.632  1.00  0.00     0.188 C 
ENDROOT
BRANCH   1   2
ATOM      2  O   UNL A   1      32.356  23.051  26.588  1.00  0.00    -0.377 OA
BRANCH   2   3
ATOM      3  C   UNL A   1      32.201  23.767  25.378  1.00  0.00     0.188 C 
BRANCH   3   4
ATOM      4  C   UNL A   1      32.807  25.180  25.334  1.00  0.00     0.188 C 
BRANCH   4   5
ATOM      5  O   UNL A   1      31.855  26.204  25.067  1.00  0.00    -0.376 OA
BRANCH   5   6
ATOM      6  C   UNL A   1      31.001  26.569  26.145  1.00  0.00     0.202 C 
BRANCH   6   7
ATOM      7  C   UNL A   1      31.578  27.579  27.146  1.00  0.00     0.261 C 
BRANCH   7   8
ATOM      8  O   UNL A   1      31.433  28.953  26.756  1.00  0.00    -0.460 OA
BRANCH   8   9
ATOM      9  C   UNL A   1      32.404  29.498  25.990  1.00  0.00     0.341 C 
ATOM     10  O   UNL A   1      32.382  29.652  24.783  1.00  0.00    -0.246 OA
BRANCH   9  11
ATOM     11  C   UNL A   1      33.419  30.048  26.913  1.00  0.00     0.096 A 
ATOM     12  C   UNL A   1      34.261  31.867  28.323  1.00  0.00    -0.014 A 
ATOM     13  C   UNL A   1      35.462  31.143  28.464  1.00  0.00     0.012 A 
ATOM     14  C   UNL A   1      33.248  31.303  27.524  1.00  0.00     0.027 A 
ATOM     15  C   UNL A   1      35.638  29.901  27.850  1.00  0.00     0.041 A 
ATOM     16  C   UNL A   1      34.613  29.355  27.087  1.00  0.00     0.137 A 
ATOM     17  F   UNL A   1      34.837  28.188  26.465  1.00  0.00    -0.206 F 
BRANCH  12  18
ATOM     18  C   UNL A   1      34.070  33.152  29.025  1.00  0.00     0.020 A 
ATOM     19  C   UNL A   1      33.171  36.784  31.229  1.00  0.00     0.047 C 
ATOM     20  C   UNL A   1      33.533  35.562  30.442  1.00  0.00    -0.012 A 
ATOM     21  C   UNL A   1      33.036  35.372  29.151  1.00  0.00     0.046 A 
ATOM     22  C   UNL A   1      34.309  34.549  31.007  1.00  0.00     0.126 A 
ATOM     23  C   UNL A   1      33.305  34.188  28.462  1.00  0.00     0.131 A 
ATOM     24  C   UNL A   1      34.588  33.370  30.314  1.00  0.00     0.051 A 
ATOM     25  F   UNL A   1      34.781  34.688  32.254  1.00  0.00    -0.207 F 
ATOM     26  F   UNL A   1      32.762  34.040  27.244  1.00  0.00    -0.206 F 
ENDBRANCH  12  18
ENDBRANCH   9  11
ENDBRANCH   8   9
ENDBRANCH   7   8
ENDBRANCH   6   7
ENDBRANCH   5   6
ENDBRANCH   4   5
ENDBRANCH   3   4
ENDBRANCH   2   3
ENDBRANCH   1   2
BRANCH   1  27
ATOM     27  C   UNL A   1      33.802  21.260  25.358  1.00  0.00     0.188 C 
BRANCH  27  28
ATOM     28  O   UNL A   1      34.800  22.006  24.669  1.00  0.00    -0.376 OA
BRANCH  28  29
ATOM     29  C   UNL A   1      35.872  22.505  25.455  1.00  0.00     0.202 C 
BRANCH  29  30
ATOM     30  C   UNL A   1      36.999  21.492  25.675  1.00  0.00     0.261 C 
BRANCH  30  31
ATOM     31  O   UNL A   1      38.326  22.009  25.492  1.00  0.00    -0.460 OA
BRANCH  31  32
ATOM     32  C   UNL A   1      39.232  21.761  26.464  1.00  0.00     0.338 C 
ATOM     33  O   UNL A   1      39.604  20.672  26.862  1.00  0.00    -0.246 OA
BRANCH  32  34
ATOM     34  C   UNL A   1      39.840  23.056  26.834  1.00  0.00     0.060 A 
ATOM     35  C   UNL A   1      40.798  23.116  27.850  1.00  0.00     0.016 A 
ATOM     36  C   UNL A   1      39.414  24.225  26.190  1.00  0.00     0.016 A 
ATOM     37  C   UNL A   1      41.349  24.346  28.205  1.00  0.00     0.010 A 
ATOM     38  C   UNL A   1      39.964  25.458  26.552  1.00  0.00     0.010 A 
ATOM     39  C   UNL A   1      40.952  25.523  27.546  1.00  0.00    -0.014 A 
BRANCH  39  40
ATOM     40  C   UNL A   1      41.723  26.772  27.763  1.00  0.00     0.031 A 
ATOM     41  C   UNL A   1      41.164  27.939  28.517  1.00  0.00     0.074 A 
ATOM     42  C   UNL A   1      42.972  26.822  27.261  1.00  0.00     0.049 A 
ATOM     43  N   UNL A   1      41.767  29.045  28.870  1.00  0.00    -0.248 NA
ATOM     44  C   UNL A   1      39.754  27.864  28.928  1.00  0.00     0.031 C 
ATOM     45  C   UNL A   1      43.599  25.746  26.490  1.00  0.00     0.029 A 
ATOM     46  N   UNL A   1      43.939  27.792  27.325  1.00  0.00    -0.354 N 
ATOM     47  C   UNL A   1      40.824  29.792  29.566  1.00  0.00     0.074 A 
ATOM     48  C   UNL A   1      39.592  29.031  29.543  1.00  0.00     0.031 C 
ATOM     49  C   UNL A   1      44.854  26.102  26.180  1.00  0.00     0.029 A 
ATOM     50  C   UNL A   1      45.114  27.442  26.700  1.00  0.00     0.049 A 
ATOM     51  H   UNL A   1      43.806  28.657  27.777  1.00  0.00     0.167 HD
ATOM     52  C   UNL A   1      40.989  30.990  30.177  1.00  0.00     0.034 A 
ATOM     53  C   UNL A   1      46.274  28.115  26.567  1.00  0.00     0.034 A 
ATOM     54  C   UNL A   1      42.228  31.733  30.177  1.00  0.00     0.049 A 
ATOM     55  C   UNL A   1      46.411  29.463  27.228  1.00  0.00     0.074 A 
ATOM     56  C   UNL A   1      42.501  32.934  30.810  1.00  0.00     0.029 A 
ATOM     57  N   UNL A   1      43.390  31.362  29.515  1.00  0.00    -0.354 N 
ATOM     58  N   UNL A   1      45.547  30.103  27.980  1.00  0.00    -0.248 NA
ATOM     59  C   UNL A   1      47.683  30.174  27.042  1.00  0.00     0.031 C 
ATOM     60  C   UNL A   1      43.797  33.323  30.474  1.00  0.00     0.029 A 
ATOM     61  C   UNL A   1      44.368  32.328  29.698  1.00  0.00     0.049 A 
ATOM     62  H   UNL A   1      43.503  30.535  28.993  1.00  0.00     0.167 HD
ATOM     63  C   UNL A   1      46.184  31.273  28.384  1.00  0.00     0.074 A 
ATOM     64  C   UNL A   1      47.513  31.239  27.814  1.00  0.00     0.031 C 
ATOM     65  C   UNL A   1      45.704  32.282  29.153  1.00  0.00     0.034 A 
BRANCH  52  66
ATOM     66  C   UNL A   1      39.838  31.589  30.950  1.00  0.00     0.023 A 
ATOM     67  C   UNL A   1      39.797  31.486  32.354  1.00  0.00     0.031 A 
ATOM     68  C   UNL A   1      38.696  32.068  30.285  1.00  0.00     0.131 A 
ATOM     69  C   UNL A   1      38.617  31.801  33.040  1.00  0.00     0.055 A 
ATOM     70  C   UNL A   1      37.537  32.421  30.978  1.00  0.00     0.041 A 
ATOM     71  F   UNL A   1      38.682  32.177  28.946  1.00  0.00    -0.206 F 
ATOM     72  C   UNL A   1      37.488  32.271  32.361  1.00  0.00     0.022 A 
BRANCH  69  73
ATOM     73  S   UNL A   1      38.470  31.532  34.829  1.00  0.00     0.124 S 
ATOM     74  O   UNL A   1      37.171  32.136  35.119  1.00  0.00    -0.237 OA
ATOM     75  O   UNL A   1      38.514  30.076  34.923  1.00  0.00    -0.237 OA
ATOM     76  O   UNL A   1      39.619  32.238  35.385  1.00  0.00    -0.744 OA
ENDBRANCH  69  73
ENDBRANCH  52  66
BRANCH  53  77
ATOM     77  C   UNL A   1      47.411  27.479  25.841  1.00  0.00     0.023 A 
ATOM     78  C   UNL A   1      48.403  26.757  26.531  1.00  0.00     0.031 A 
ATOM     79  C   UNL A   1      47.569  27.659  24.456  1.00  0.00     0.131 A 
ATOM     80  C   UNL A   1      49.531  26.292  25.844  1.00  0.00     0.055 A 
ATOM     81  C   UNL A   1      48.659  27.130  23.763  1.00  0.00     0.041 A 
ATOM     82  F   UNL A   1      46.661  28.356  23.757  1.00  0.00    -0.206 F 
ATOM     83  C   UNL A   1      49.656  26.457  24.460  1.00  0.00     0.022 A 
BRANCH  80  84
ATOM     84  S   UNL A   1      50.937  25.576  26.742  1.00  0.00     0.124 S 
ATOM     85  O   UNL A   1      51.357  26.691  27.585  1.00  0.00    -0.237 OA
ATOM     86  O   UNL A   1      50.308  24.457  27.441  1.00  0.00    -0.237 OA
ATOM     87  O   UNL A   1      51.865  25.199  25.682  1.00  0.00    -0.744 OA
ENDBRANCH  80  84
ENDBRANCH  53  77
BRANCH  65  88
ATOM     88  C   UNL A   1      46.608  33.454  29.462  1.00  0.00     0.023 A 
ATOM     89  C   UNL A   1      47.417  33.434  30.615  1.00  0.00     0.031 A 
ATOM     90  C   UNL A   1      46.554  34.641  28.711  1.00  0.00     0.131 A 
ATOM     91  C   UNL A   1      48.100  34.593  31.009  1.00  0.00     0.055 A 
ATOM     92  C   UNL A   1      47.278  35.776  29.078  1.00  0.00     0.041 A 
ATOM     93  F   UNL A   1      45.789  34.717  27.609  1.00  0.00    -0.206 F 
ATOM     94  C   UNL A   1      48.042  35.759  30.242  1.00  0.00     0.022 A 
BRANCH  91  95
ATOM     95  S   UNL A   1      49.006  34.658  32.580  1.00  0.00     0.124 S 
ATOM     96  O   UNL A   1      48.082  33.986  33.490  1.00  0.00    -0.237 OA
ATOM     97  O   UNL A   1      50.222  33.912  32.264  1.00  0.00    -0.237 OA
ATOM     98  O   UNL A   1      49.189  36.085  32.823  1.00  0.00    -0.744 OA
ENDBRANCH  91  95
ENDBRANCH  65  88
ENDBRANCH  39  40
ENDBRANCH  32  34
ENDBRANCH  31  32
ENDBRANCH  30  31
ENDBRANCH  29  30
ENDBRANCH  28  29
ENDBRANCH  27  28
ENDBRANCH   1  27
TORSDOF 24
ENDMDL
MODEL 2
REMARK VINA RESULT:      -9.3      3.785      9.574
REMARK SMILES Cc1cc(F)c(-c2ccc(F)c(C(=O)OCCOCCOCCOCCOC(=O)c3ccc(-c4c5nc(c(-c6cc(S(=O)(=O)[O-])ccc6F)c6ccc([nH]6)c(-c6cc(S(=O)(=O)[O-])ccc6F)c6nc(c(-c7cc(S(=O)(=O)[O-])ccc7F)c7ccc4[nH]7)C=C6)C=C5)cc3)c2)cc1F
REMARK SMILES IDX 22 1 21 2 20 3 19 4 18 5 17 6 16 7 15 8 13 9 14 10 12 11
REMARK SMILES IDX 7 12 8 13 93 14 9 15 10 16 11 17 6 18 1 19 2 20 3 21 95 22
REMARK SMILES IDX 4 23 94 24 96 25 5 26 23 27 24 28 25 29 26 30 27 31 28 32
REMARK SMILES IDX 29 33 30 34 31 35 92 36 32 37 91 38 33 39 34 40 35 41 85 42
REMARK SMILES IDX 36 43 90 44 84 45 86 46 37 47 89 48 83 49 82 50 38 52 70 53
REMARK SMILES IDX 50 54 69 55 51 56 54 57 68 58 87 59 52 60 53 61 67 63 88 64
REMARK SMILES IDX 55 65 39 66 40 67 48 68 41 69 47 70 49 71 46 72 42 73 43 74
REMARK SMILES IDX 44 75 45 76 71 77 72 78 80 79 73 80 79 81 81 82 78 83 74 84
REMARK SMILES IDX 75 85 76 86 77 87 56 88 57 89 65 90 58 91 64 92 66 93 63 94
REMARK SMILES IDX 59 95 60 96 61 97 62 98
REMARK H PARENT 86 51 54 62
REMARK Flexibility Score: inf
ROOT
ATOM      1  C   UNL A   1      35.626  35.004  32.970  1.00  0.00     0.188 C 
ENDROOT
BRANCH   1   2
ATOM      2  O   UNL A   1      34.828  34.821  31.804  1.00  0.00    -0.377 OA
BRANCH   2   3
ATOM      3  C   UNL A   1      33.954  35.853  31.391  1.00  0.00     0.188 C 
BRANCH   3   4
ATOM      4  C   UNL A   1      33.180  35.616  30.083  1.00  0.00     0.188 C 
BRANCH   4   5
ATOM      5  O   UNL A   1      33.152  34.252  29.672  1.00  0.00    -0.376 OA
BRANCH   5   6
ATOM      6  C   UNL A   1      33.457  33.998  28.306  1.00  0.00     0.202 C 
BRANCH   6   7
ATOM      7  C   UNL A   1      34.946  33.859  27.965  1.00  0.00     0.261 C 
BRANCH   7   8
ATOM      8  O   UNL A   1      35.598  32.743  28.590  1.00  0.00    -0.460 OA
BRANCH   8   9
ATOM      9  C   UNL A   1      36.877  32.905  28.996  1.00  0.00     0.341 C 
ATOM     10  O   UNL A   1      37.482  33.956  29.101  1.00  0.00    -0.246 OA
BRANCH   9  11
ATOM     11  C   UNL A   1      37.345  31.587  29.473  1.00  0.00     0.096 A 
ATOM     12  C   UNL A   1      38.501  29.462  29.083  1.00  0.00    -0.014 A 
ATOM     13  C   UNL A   1      38.013  29.018  30.328  1.00  0.00     0.012 A 
ATOM     14  C   UNL A   1      38.140  30.757  28.663  1.00  0.00     0.027 A 
ATOM     15  C   UNL A   1      37.216  29.838  31.130  1.00  0.00     0.041 A 
ATOM     16  C   UNL A   1      36.894  31.121  30.704  1.00  0.00     0.137 A 
ATOM     17  F   UNL A   1      36.080  31.859  31.472  1.00  0.00    -0.206 F 
BRANCH  12  18
ATOM     18  C   UNL A   1      39.390  28.605  28.273  1.00  0.00     0.020 A 
ATOM     19  C   UNL A   1      41.691  25.997  25.671  1.00  0.00     0.047 C 
ATOM     20  C   UNL A   1      40.951  26.903  26.607  1.00  0.00    -0.012 A 
ATOM     21  C   UNL A   1      40.274  26.387  27.713  1.00  0.00     0.046 A 
ATOM     22  C   UNL A   1      40.853  28.272  26.352  1.00  0.00     0.126 A 
ATOM     23  C   UNL A   1      39.513  27.228  28.526  1.00  0.00     0.131 A 
ATOM     24  C   UNL A   1      40.101  29.116  27.172  1.00  0.00     0.051 A 
ATOM     25  F   UNL A   1      41.470  28.797  25.284  1.00  0.00    -0.207 F 
ATOM     26  F   UNL A   1      38.845  26.669  29.548  1.00  0.00    -0.206 F 
ENDBRANCH  12  18
ENDBRANCH   9  11
ENDBRANCH   8   9
ENDBRANCH   7   8
ENDBRANCH   6   7
ENDBRANCH   5   6
ENDBRANCH   4   5
ENDBRANCH   3   4
ENDBRANCH   2   3
ENDBRANCH   1   2
BRANCH   1  27
ATOM     27  C   UNL A   1      35.225  34.446  34.356  1.00  0.00     0.188 C 
BRANCH  27  28
ATOM     28  O   UNL A   1      35.876  33.239  34.735  1.00  0.00    -0.376 OA
BRANCH  28  29
ATOM     29  C   UNL A   1      37.282  33.310  34.920  1.00  0.00     0.202 C 
BRANCH  29  30
ATOM     30  C   UNL A   1      38.053  32.180  34.230  1.00  0.00     0.261 C 
BRANCH  30  31
ATOM     31  O   UNL A   1      39.343  32.547  33.720  1.00  0.00    -0.460 OA
BRANCH  31  32
ATOM     32  C   UNL A   1      39.409  32.980  32.441  1.00  0.00     0.338 C 
ATOM     33  O   UNL A   1      38.803  33.915  31.950  1.00  0.00    -0.246 OA
BRANCH  32  34
ATOM     34  C   UNL A   1      40.498  32.230  31.782  1.00  0.00     0.060 A 
ATOM     35  C   UNL A   1      40.748  32.410  30.419  1.00  0.00     0.016 A 
ATOM     36  C   UNL A   1      41.242  31.303  32.524  1.00  0.00     0.016 A 
ATOM     37  C   UNL A   1      41.764  31.681  29.803  1.00  0.00     0.010 A 
ATOM     38  C   UNL A   1      42.256  30.569  31.902  1.00  0.00     0.010 A 
ATOM     39  C   UNL A   1      42.539  30.771  30.543  1.00  0.00    -0.014 A 
BRANCH  39  40
ATOM     40  C   UNL A   1      43.763  30.196  29.933  1.00  0.00     0.031 A 
ATOM     41  C   UNL A   1      43.893  28.738  29.614  1.00  0.00     0.074 A 
ATOM     42  C   UNL A   1      44.773  31.045  29.659  1.00  0.00     0.049 A 
ATOM     43  N   UNL A   1      44.862  28.125  28.985  1.00  0.00    -0.248 NA
ATOM     44  C   UNL A   1      42.804  27.852  30.053  1.00  0.00     0.031 C 
ATOM     45  C   UNL A   1      44.754  32.479  29.954  1.00  0.00     0.029 A 
ATOM     46  N   UNL A   1      45.994  30.843  29.068  1.00  0.00    -0.354 N 
ATOM     47  C   UNL A   1      44.496  26.786  28.928  1.00  0.00     0.074 A 
ATOM     48  C   UNL A   1      43.236  26.669  29.630  1.00  0.00     0.031 C 
ATOM     49  C   UNL A   1      45.893  33.032  29.516  1.00  0.00     0.029 A 
ATOM     50  C   UNL A   1      46.740  31.992  28.938  1.00  0.00     0.049 A 
ATOM     51  H   UNL A   1      46.307  29.960  28.765  1.00  0.00     0.167 HD
ATOM     52  C   UNL A   1      45.152  25.764  28.325  1.00  0.00     0.034 A 
ATOM     53  C   UNL A   1      47.962  32.192  28.405  1.00  0.00     0.034 A 
ATOM     54  C   UNL A   1      46.414  25.907  27.638  1.00  0.00     0.049 A 
ATOM     55  C   UNL A   1      48.679  31.025  27.777  1.00  0.00     0.074 A 
ATOM     56  C   UNL A   1      47.129  24.935  26.959  1.00  0.00     0.029 A 
ATOM     57  N   UNL A   1      47.153  27.078  27.546  1.00  0.00    -0.354 N 
ATOM     58  N   UNL A   1      48.268  29.788  27.629  1.00  0.00    -0.248 NA
ATOM     59  C   UNL A   1      50.018  31.279  27.226  1.00  0.00     0.031 C 
ATOM     60  C   UNL A   1      48.328  25.496  26.520  1.00  0.00     0.029 A 
ATOM     61  C   UNL A   1      48.330  26.841  26.850  1.00  0.00     0.049 A 
ATOM     62  H   UNL A   1      46.882  27.947  27.918  1.00  0.00     0.167 HD
ATOM     63  C   UNL A   1      49.280  29.127  26.939  1.00  0.00     0.074 A 
ATOM     64  C   UNL A   1      50.311  30.109  26.676  1.00  0.00     0.031 C 
ATOM     65  C   UNL A   1      49.346  27.825  26.563  1.00  0.00     0.034 A 
BRANCH  52  66
ATOM     66  C   UNL A   1      44.527  24.389  28.320  1.00  0.00     0.023 A 
ATOM     67  C   UNL A   1      44.011  23.850  27.126  1.00  0.00     0.031 A 
ATOM     68  C   UNL A   1      44.259  23.714  29.524  1.00  0.00     0.131 A 
ATOM     69  C   UNL A   1      43.204  22.706  27.170  1.00  0.00     0.055 A 
ATOM     70  C   UNL A   1      43.489  22.550  29.557  1.00  0.00     0.041 A 
ATOM     71  F   UNL A   1      44.723  24.193  30.691  1.00  0.00    -0.206 F 
ATOM     72  C   UNL A   1      42.944  22.051  28.379  1.00  0.00     0.022 A 
BRANCH  69  73
ATOM     73  S   UNL A   1      42.390  22.071  25.677  1.00  0.00     0.124 S 
ATOM     74  O   UNL A   1      43.027  22.864  24.627  1.00  0.00    -0.237 OA
ATOM     75  O   UNL A   1      42.762  20.659  25.704  1.00  0.00    -0.237 OA
ATOM     76  O   UNL A   1      40.977  22.359  25.899  1.00  0.00    -0.744 OA
ENDBRANCH  69  73
ENDBRANCH  52  66
BRANCH  53  77
ATOM     77  C   UNL A   1      48.534  33.570  28.380  1.00  0.00     0.023 A 
ATOM     78  C   UNL A   1      49.250  34.081  29.478  1.00  0.00     0.031 A 
ATOM     79  C   UNL A   1      48.295  34.426  27.291  1.00  0.00     0.131 A 
ATOM     80  C   UNL A   1      49.653  35.423  29.484  1.00  0.00     0.055 A 
ATOM     81  C   UNL A   1      48.762  35.741  27.271  1.00  0.00     0.041 A 
ATOM     82  F   UNL A   1      47.600  33.991  26.229  1.00  0.00    -0.206 F 
ATOM     83  C   UNL A   1      49.430  36.251  28.379  1.00  0.00     0.022 A 
BRANCH  80  84
ATOM     84  S   UNL A   1      50.358  36.174  30.978  1.00  0.00     0.124 S 
ATOM     85  O   UNL A   1      50.419  37.584  30.608  1.00  0.00    -0.237 OA
ATOM     86  O   UNL A   1      49.359  35.829  31.988  1.00  0.00    -0.237 OA
ATOM     87  O   UNL A   1      51.644  35.501  31.126  1.00  0.00    -0.744 OA
ENDBRANCH  80  84
ENDBRANCH  53  77
BRANCH  65  88
ATOM     88  C   UNL A   1      50.564  27.349  25.804  1.00  0.00     0.023 A 
ATOM     89  C   UNL A   1      51.729  26.978  26.504  1.00  0.00     0.031 A 
ATOM     90  C   UNL A   1      50.625  27.411  24.401  1.00  0.00     0.131 A 
ATOM     91  C   UNL A   1      52.916  26.731  25.802  1.00  0.00     0.055 A 
ATOM     92  C   UNL A   1      51.796  27.111  23.703  1.00  0.00     0.041 A 
ATOM     93  F   UNL A   1      49.546  27.770  23.687  1.00  0.00    -0.206 F 
ATOM     94  C   UNL A   1      52.953  26.785  24.406  1.00  0.00     0.022 A 
BRANCH  91  95
ATOM     95  S   UNL A   1      54.476  26.425  26.677  1.00  0.00     0.124 S 
ATOM     96  O   UNL A   1      55.031  27.772  26.784  1.00  0.00    -0.237 OA
ATOM     97  O   UNL A   1      54.014  25.840  27.933  1.00  0.00    -0.237 OA
ATOM     98  O   UNL A   1      55.206  25.522  25.793  1.00  0.00    -0.744 OA
ENDBRANCH  91  95
ENDBRANCH  65  88
ENDBRANCH  39  40
ENDBRANCH  32  34
ENDBRANCH  31  32
ENDBRANCH  30  31
ENDBRANCH  29  30
ENDBRANCH  28  29
ENDBRANCH  27  28
ENDBRANCH   1  27
TORSDOF 24
ENDMDL
MODEL 3
REMARK VINA RESULT:      -9.2      4.145      9.709
REMARK SMILES Cc1cc(F)c(-c2ccc(F)c(C(=O)OCCOCCOCCOCCOC(=O)c3ccc(-c4c5nc(c(-c6cc(S(=O)(=O)[O-])ccc6F)c6ccc([nH]6)c(-c6cc(S(=O)(=O)[O-])ccc6F)c6nc(c(-c7cc(S(=O)(=O)[O-])ccc7F)c7ccc4[nH]7)C=C6)C=C5)cc3)c2)cc1F
REMARK SMILES IDX 22 1 21 2 20 3 19 4 18 5 17 6 16 7 15 8 13 9 14 10 12 11
REMARK SMILES IDX 7 12 8 13 93 14 9 15 10 16 11 17 6 18 1 19 2 20 3 21 95 22
REMARK SMILES IDX 4 23 94 24 96 25 5 26 23 27 24 28 25 29 26 30 27 31 28 32
REMARK SMILES IDX 29 33 30 34 31 35 92 36 32 37 91 38 33 39 34 40 35 41 85 42
REMARK SMILES IDX 36 43 90 44 84 45 86 46 37 47 89 48 83 49 82 50 38 52 70 53
REMARK SMILES IDX 50 54 69 55 51 56 54 57 68 58 87 59 52 60 53 61 67 63 88 64
REMARK SMILES IDX 55 65 39 66 40 67 48 68 41 69 47 70 49 71 46 72 42 73 43 74
REMARK SMILES IDX 44 75 45 76 71 77 72 78 80 79 73 80 79 81 81 82 78 83 74 84
REMARK SMILES IDX 75 85 76 86 77 87 56 88 57 89 65 90 58 91 64 92 66 93 63 94
REMARK SMILES IDX 59 95 60 96 61 97 62 98
REMARK H PARENT 86 51 54 62
REMARK Flexibility Score: inf
ROOT
ATOM      1  C   UNL A   1      35.623  34.994  32.982  1.00  0.00     0.188 C 
ENDROOT
BRANCH   1   2
ATOM      2  O   UNL A   1      34.914  34.785  31.764  1.00  0.00    -0.377 OA
BRANCH   2   3
ATOM      3  C   UNL A   1      33.861  35.663  31.415  1.00  0.00     0.188 C 
BRANCH   3   4
ATOM      4  C   UNL A   1      33.089  35.330  30.126  1.00  0.00     0.188 C 
BRANCH   4   5
ATOM      5  O   UNL A   1      33.253  33.985  29.691  1.00  0.00    -0.376 OA
BRANCH   5   6
ATOM      6  C   UNL A   1      33.590  33.801  28.321  1.00  0.00     0.202 C 
BRANCH   6   7
ATOM      7  C   UNL A   1      35.089  33.709  28.006  1.00  0.00     0.261 C 
BRANCH   7   8
ATOM      8  O   UNL A   1      35.733  32.533  28.520  1.00  0.00    -0.460 OA
BRANCH   8   9
ATOM      9  C   UNL A   1      37.001  32.655  28.972  1.00  0.00     0.341 C 
ATOM     10  O   UNL A   1      37.613  33.690  29.160  1.00  0.00    -0.246 OA
BRANCH   9  11
ATOM     11  C   UNL A   1      37.442  31.305  29.379  1.00  0.00     0.096 A 
ATOM     12  C   UNL A   1      38.533  29.171  28.868  1.00  0.00    -0.014 A 
ATOM     13  C   UNL A   1      38.056  28.682  30.101  1.00  0.00     0.012 A 
ATOM     14  C   UNL A   1      38.200  30.493  28.516  1.00  0.00     0.027 A 
ATOM     15  C   UNL A   1      37.296  29.483  30.955  1.00  0.00     0.041 A 
ATOM     16  C   UNL A   1      37.001  30.793  30.595  1.00  0.00     0.137 A 
ATOM     17  F   UNL A   1      36.221  31.515  31.412  1.00  0.00    -0.206 F 
BRANCH  12  18
ATOM     18  C   UNL A   1      39.385  28.329  28.003  1.00  0.00     0.020 A 
ATOM     19  C   UNL A   1      42.138  25.830  25.758  1.00  0.00     0.047 C 
ATOM     20  C   UNL A   1      41.152  26.699  26.478  1.00  0.00    -0.012 A 
ATOM     21  C   UNL A   1      41.309  28.087  26.502  1.00  0.00     0.046 A 
ATOM     22  C   UNL A   1      40.101  26.140  27.206  1.00  0.00     0.126 A 
ATOM     23  C   UNL A   1      40.437  28.879  27.250  1.00  0.00     0.131 A 
ATOM     24  C   UNL A   1      39.221  26.933  27.945  1.00  0.00     0.051 A 
ATOM     25  F   UNL A   1      39.936  24.810  27.224  1.00  0.00    -0.207 F 
ATOM     26  F   UNL A   1      40.663  30.202  27.276  1.00  0.00    -0.206 F 
ENDBRANCH  12  18
ENDBRANCH   9  11
ENDBRANCH   8   9
ENDBRANCH   7   8
ENDBRANCH   6   7
ENDBRANCH   5   6
ENDBRANCH   4   5
ENDBRANCH   3   4
ENDBRANCH   2   3
ENDBRANCH   1   2
BRANCH   1  27
ATOM     27  C   UNL A   1      35.106  34.487  34.349  1.00  0.00     0.188 C 
BRANCH  27  28
ATOM     28  O   UNL A   1      35.650  33.245  34.780  1.00  0.00    -0.376 OA
BRANCH  28  29
ATOM     29  C   UNL A   1      37.060  33.193  34.937  1.00  0.00     0.202 C 
BRANCH  29  30
ATOM     30  C   UNL A   1      37.714  31.989  34.251  1.00  0.00     0.261 C 
BRANCH  30  31
ATOM     31  O   UNL A   1      39.032  32.224  33.735  1.00  0.00    -0.460 OA
BRANCH  31  32
ATOM     32  C   UNL A   1      39.132  32.737  32.487  1.00  0.00     0.338 C 
ATOM     33  O   UNL A   1      38.539  33.702  32.040  1.00  0.00    -0.246 OA
BRANCH  32  34
ATOM     34  C   UNL A   1      40.238  32.028  31.812  1.00  0.00     0.060 A 
ATOM     35  C   UNL A   1      40.646  32.420  30.535  1.00  0.00     0.016 A 
ATOM     36  C   UNL A   1      40.840  30.932  32.444  1.00  0.00     0.016 A 
ATOM     37  C   UNL A   1      41.677  31.731  29.898  1.00  0.00     0.010 A 
ATOM     38  C   UNL A   1      41.870  30.238  31.801  1.00  0.00     0.010 A 
ATOM     39  C   UNL A   1      42.310  30.648  30.534  1.00  0.00    -0.014 A 
BRANCH  39  40
ATOM     40  C   UNL A   1      43.557  30.093  29.952  1.00  0.00     0.031 A 
ATOM     41  C   UNL A   1      43.714  28.638  29.631  1.00  0.00     0.074 A 
ATOM     42  C   UNL A   1      44.561  30.956  29.705  1.00  0.00     0.049 A 
ATOM     43  N   UNL A   1      44.706  28.041  29.023  1.00  0.00    -0.248 NA
ATOM     44  C   UNL A   1      42.628  27.736  30.041  1.00  0.00     0.031 C 
ATOM     45  C   UNL A   1      44.515  32.389  30.004  1.00  0.00     0.029 A 
ATOM     46  N   UNL A   1      45.799  30.774  29.143  1.00  0.00    -0.354 N 
ATOM     47  C   UNL A   1      44.361  26.697  28.952  1.00  0.00     0.074 A 
ATOM     48  C   UNL A   1      43.085  26.560  29.624  1.00  0.00     0.031 C 
ATOM     49  C   UNL A   1      45.657  32.960  29.596  1.00  0.00     0.029 A 
ATOM     50  C   UNL A   1      46.531  31.933  29.034  1.00  0.00     0.049 A 
ATOM     51  H   UNL A   1      46.131  29.896  28.844  1.00  0.00     0.167 HD
ATOM     52  C   UNL A   1      45.044  25.686  28.362  1.00  0.00     0.034 A 
ATOM     53  C   UNL A   1      47.763  32.152  28.532  1.00  0.00     0.034 A 
ATOM     54  C   UNL A   1      46.321  25.849  27.706  1.00  0.00     0.049 A 
ATOM     55  C   UNL A   1      48.511  30.997  27.917  1.00  0.00     0.074 A 
ATOM     56  C   UNL A   1      47.064  24.889  27.041  1.00  0.00     0.029 A 
ATOM     57  N   UNL A   1      47.046  27.030  27.636  1.00  0.00    -0.354 N 
ATOM     58  N   UNL A   1      48.120  29.755  27.755  1.00  0.00    -0.248 NA
ATOM     59  C   UNL A   1      49.859  31.272  27.399  1.00  0.00     0.031 C 
ATOM     60  C   UNL A   1      48.266  25.469  26.632  1.00  0.00     0.029 A 
ATOM     61  C   UNL A   1      48.241  26.813  26.968  1.00  0.00     0.049 A 
ATOM     62  H   UNL A   1      46.754  27.895  28.005  1.00  0.00     0.167 HD
ATOM     63  C   UNL A   1      49.158  29.111  27.087  1.00  0.00     0.074 A 
ATOM     64  C   UNL A   1      50.181  30.107  26.852  1.00  0.00     0.031 C 
ATOM     65  C   UNL A   1      49.251  27.812  26.708  1.00  0.00     0.034 A 
BRANCH  52  66
ATOM     66  C   UNL A   1      44.439  24.303  28.337  1.00  0.00     0.023 A 
ATOM     67  C   UNL A   1      43.931  23.773  27.135  1.00  0.00     0.031 A 
ATOM     68  C   UNL A   1      44.180  23.608  29.531  1.00  0.00     0.131 A 
ATOM     69  C   UNL A   1      43.140  22.617  27.163  1.00  0.00     0.055 A 
ATOM     70  C   UNL A   1      43.426  22.433  29.548  1.00  0.00     0.041 A 
ATOM     71  F   UNL A   1      44.636  24.076  30.705  1.00  0.00    -0.206 F 
ATOM     72  C   UNL A   1      42.888  21.942  28.362  1.00  0.00     0.022 A 
BRANCH  69  73
ATOM     73  S   UNL A   1      42.336  21.992  25.661  1.00  0.00     0.124 S 
ATOM     74  O   UNL A   1      43.032  22.739  24.614  1.00  0.00    -0.237 OA
ATOM     75  O   UNL A   1      42.646  20.567  25.720  1.00  0.00    -0.237 OA
ATOM     76  O   UNL A   1      40.932  22.344  25.842  1.00  0.00    -0.744 OA
ENDBRANCH  69  73
ENDBRANCH  52  66
BRANCH  53  77
ATOM     77  C   UNL A   1      48.316  33.538  28.525  1.00  0.00     0.023 A 
ATOM     78  C   UNL A   1      48.281  34.330  27.363  1.00  0.00     0.031 A 
ATOM     79  C   UNL A   1      48.968  34.055  29.657  1.00  0.00     0.131 A 
ATOM     80  C   UNL A   1      48.932  35.570  27.344  1.00  0.00     0.055 A 
ATOM     81  C   UNL A   1      49.552  35.323  29.656  1.00  0.00     0.041 A 
ATOM     82  F   UNL A   1      49.045  33.331  30.783  1.00  0.00    -0.206 F 
ATOM     83  C   UNL A   1      49.550  36.080  28.490  1.00  0.00     0.022 A 
BRANCH  80  84
ATOM     84  S   UNL A   1      49.113  36.501  25.797  1.00  0.00     0.124 S 
ATOM     85  O   UNL A   1      50.438  37.093  25.953  1.00  0.00    -0.237 OA
ATOM     86  O   UNL A   1      49.009  35.442  24.795  1.00  0.00    -0.237 OA
ATOM     87  O   UNL A   1      47.994  37.437  25.827  1.00  0.00    -0.744 OA
ENDBRANCH  80  84
ENDBRANCH  53  77
BRANCH  65  88
ATOM     88  C   UNL A   1      50.493  27.355  25.977  1.00  0.00     0.023 A 
ATOM     89  C   UNL A   1      50.624  27.596  24.595  1.00  0.00     0.031 A 
ATOM     90  C   UNL A   1      51.461  26.552  26.604  1.00  0.00     0.131 A 
ATOM     91  C   UNL A   1      51.672  27.003  23.879  1.00  0.00     0.055 A 
ATOM     92  C   UNL A   1      52.533  26.007  25.897  1.00  0.00     0.041 A 
ATOM     93  F   UNL A   1      51.375  26.281  27.917  1.00  0.00    -0.206 F 
ATOM     94  C   UNL A   1      52.632  26.218  24.524  1.00  0.00     0.022 A 
BRANCH  91  95
ATOM     95  S   UNL A   1      51.772  27.146  22.073  1.00  0.00     0.124 S 
ATOM     96  O   UNL A   1      52.783  26.143  21.746  1.00  0.00    -0.237 OA
ATOM     97  O   UNL A   1      50.410  26.816  21.662  1.00  0.00    -0.237 OA
ATOM     98  O   UNL A   1      52.178  28.531  21.851  1.00  0.00    -0.744 OA
ENDBRANCH  91  95
ENDBRANCH  65  88
ENDBRANCH  39  40
ENDBRANCH  32  34
ENDBRANCH  31  32
ENDBRANCH  30  31
ENDBRANCH  29  30
ENDBRANCH  28  29
ENDBRANCH  27  28
ENDBRANCH   1  27
TORSDOF 24
ENDMDL
