MODEL 1
REMARK VINA RESULT:     -10.9      0.000      0.000
REMARK SMILES O=C(OCCOCCOCCOCCOC(=O)c1nnn(-c2cccc(Br)c2)c1[C@@H]1COc2ccccc2O1)c1ccc(-c2c3nc(c(-c4cc(S(=O)(=O)[O-])ccc4F)c4ccc([nH]4)c(-c4cc(S(=O)(=O)[O-])ccc4F)c4nc(c(-c5cc(S(=O)(=O)[O-])ccc5F)c5ccc2[nH]5)C=C4)C=C3)cc1
REMARK SMILES IDX 8 1 7 2 6 3 5 4 4 5 3 6 2 7 1 8 40 9 41 10 102 11 42 12
REMARK SMILES IDX 101 13 43 14 44 15 45 16 95 17 46 18 100 19 94 20 96 21
REMARK SMILES IDX 47 22 99 23 93 24 92 25 48 27 80 28 60 29 79 30 61 31 64 32
REMARK SMILES IDX 78 33 97 34 62 35 63 36 77 38 98 39 65 40 49 41 50 42 58 43
REMARK SMILES IDX 51 44 57 45 59 46 56 47 52 48 53 49 54 50 55 51 81 52 82 53
REMARK SMILES IDX 90 54 83 55 89 56 91 57 88 58 84 59 85 60 86 61 87 62 66 63
REMARK SMILES IDX 67 64 75 65 68 66 74 67 76 68 73 69 69 70 70 71 71 72 72 73
REMARK SMILES IDX 9 74 10 75 11 76 12 77 13 78 14 79 15 80 16 81 17 82 18 83
REMARK SMILES IDX 19 84 29 85 20 86 21 87 30 88 31 89 39 90 32 91 38 92 33 93
REMARK SMILES IDX 37 94 34 95 36 96 35 97 22 98 23 99 28 100 24 101 26 102
REMARK SMILES IDX 25 103 27 104
REMARK H PARENT 96 26 64 37
REMARK Flexibility Score: inf
ROOT
ATOM      1  C   UNL A   1      32.192  30.080  25.680  1.00  0.00     0.188 C 
ENDROOT
BRANCH   1   2
ATOM      2  C   UNL A   1      32.231  31.033  26.886  1.00  0.00     0.188 C 
BRANCH   2   3
ATOM      3  O   UNL A   1      33.407  31.139  27.659  1.00  0.00    -0.376 OA
BRANCH   3   4
ATOM      4  C   UNL A   1      34.220  32.275  27.871  1.00  0.00     0.202 C 
BRANCH   4   5
ATOM      5  C   UNL A   1      35.739  32.312  28.118  1.00  0.00     0.261 C 
BRANCH   5   6
ATOM      6  O   UNL A   1      36.322  31.296  28.924  1.00  0.00    -0.460 OA
BRANCH   6   7
ATOM      7  C   UNL A   1      36.380  29.962  28.736  1.00  0.00     0.338 C 
ATOM      8  O   UNL A   1      35.349  29.310  28.897  1.00  0.00    -0.246 OA
BRANCH   7   9
ATOM      9  C   UNL A   1      37.654  29.228  28.511  1.00  0.00     0.060 A 
ATOM     10  C   UNL A   1      38.242  28.326  29.398  1.00  0.00     0.016 A 
ATOM     11  C   UNL A   1      38.289  29.488  27.279  1.00  0.00     0.016 A 
ATOM     12  C   UNL A   1      39.473  27.772  29.121  1.00  0.00     0.010 A 
ATOM     13  C   UNL A   1      39.530  28.947  26.997  1.00  0.00     0.010 A 
ATOM     14  C   UNL A   1      40.135  28.150  27.961  1.00  0.00    -0.014 A 
BRANCH  14  15
ATOM     15  C   UNL A   1      41.539  27.806  27.907  1.00  0.00     0.031 A 
ATOM     16  C   UNL A   1      41.880  26.495  27.320  1.00  0.00     0.074 A 
ATOM     17  C   UNL A   1      42.441  28.650  28.440  1.00  0.00     0.049 A 
ATOM     18  N   UNL A   1      42.426  25.482  27.907  1.00  0.00    -0.248 NA
ATOM     19  C   UNL A   1      41.462  26.236  25.936  1.00  0.00     0.031 C 
ATOM     20  C   UNL A   1      42.221  30.037  28.865  1.00  0.00     0.029 A 
ATOM     21  N   UNL A   1      43.776  28.478  28.607  1.00  0.00    -0.354 N 
ATOM     22  C   UNL A   1      42.625  24.528  26.914  1.00  0.00     0.074 A 
ATOM     23  C   UNL A   1      41.873  24.979  25.771  1.00  0.00     0.031 C 
ATOM     24  C   UNL A   1      43.416  30.649  28.994  1.00  0.00     0.029 A 
ATOM     25  C   UNL A   1      44.466  29.666  28.786  1.00  0.00     0.049 A 
ATOM     26  H   UNL A   1      44.212  27.594  28.602  1.00  0.00     0.167 HD
ATOM     27  C   UNL A   1      43.567  23.554  27.042  1.00  0.00     0.034 A 
ATOM     28  C   UNL A   1      45.802  29.852  28.649  1.00  0.00     0.034 A 
ATOM     29  C   UNL A   1      43.947  23.363  28.421  1.00  0.00     0.049 A 
ATOM     30  C   UNL A   1      46.451  28.533  28.848  1.00  0.00     0.074 A 
ATOM     31  C   UNL A   1      43.268  23.007  29.570  1.00  0.00     0.029 A 
ATOM     32  N   UNL A   1      45.152  23.873  28.849  1.00  0.00    -0.354 N 
ATOM     33  N   UNL A   1      46.441  27.892  29.986  1.00  0.00    -0.248 NA
ATOM     34  C   UNL A   1      46.709  27.700  27.681  1.00  0.00     0.031 C 
ATOM     35  C   UNL A   1      43.877  23.764  30.611  1.00  0.00     0.029 A 
ATOM     36  C   UNL A   1      44.925  24.496  30.051  1.00  0.00     0.049 A 
ATOM     37  H   UNL A   1      46.014  23.804  28.380  1.00  0.00     0.167 HD
ATOM     38  C   UNL A   1      46.253  26.560  29.651  1.00  0.00     0.074 A 
ATOM     39  C   UNL A   1      46.541  26.489  28.221  1.00  0.00     0.031 C 
ATOM     40  C   UNL A   1      45.611  25.696  30.494  1.00  0.00     0.034 A 
BRANCH  27  41
ATOM     41  C   UNL A   1      44.385  23.004  25.898  1.00  0.00     0.023 A 
ATOM     42  C   UNL A   1      44.310  21.619  25.648  1.00  0.00     0.031 A 
ATOM     43  C   UNL A   1      45.436  23.691  25.246  1.00  0.00     0.131 A 
ATOM     44  C   UNL A   1      45.290  20.971  24.878  1.00  0.00     0.055 A 
ATOM     45  C   UNL A   1      46.365  23.052  24.420  1.00  0.00     0.041 A 
ATOM     46  F   UNL A   1      45.688  24.989  25.449  1.00  0.00    -0.206 F 
ATOM     47  C   UNL A   1      46.316  21.679  24.258  1.00  0.00     0.022 A 
BRANCH  44  48
ATOM     48  S   UNL A   1      45.314  19.160  24.865  1.00  0.00     0.124 S 
ATOM     49  O   UNL A   1      46.313  18.871  25.889  1.00  0.00    -0.237 OA
ATOM     50  O   UNL A   1      43.932  18.839  25.204  1.00  0.00    -0.237 OA
ATOM     51  O   UNL A   1      45.712  18.836  23.498  1.00  0.00    -0.744 OA
ENDBRANCH  44  48
ENDBRANCH  27  41
BRANCH  28  52
ATOM     52  C   UNL A   1      46.432  31.030  28.000  1.00  0.00     0.023 A 
ATOM     53  C   UNL A   1      45.731  31.866  27.114  1.00  0.00     0.031 A 
ATOM     54  C   UNL A   1      47.714  31.471  28.410  1.00  0.00     0.131 A 
ATOM     55  C   UNL A   1      46.320  33.068  26.662  1.00  0.00     0.055 A 
ATOM     56  C   UNL A   1      48.300  32.646  27.944  1.00  0.00     0.041 A 
ATOM     57  F   UNL A   1      48.415  30.811  29.347  1.00  0.00    -0.206 F 
ATOM     58  C   UNL A   1      47.600  33.457  27.069  1.00  0.00     0.022 A 
BRANCH  55  59
ATOM     59  S   UNL A   1      45.369  34.207  25.610  1.00  0.00     0.124 S 
ATOM     60  O   UNL A   1      44.884  33.323  24.558  1.00  0.00    -0.237 OA
ATOM     61  O   UNL A   1      44.368  34.725  26.537  1.00  0.00    -0.237 OA
ATOM     62  O   UNL A   1      46.367  35.188  25.181  1.00  0.00    -0.744 OA
ENDBRANCH  55  59
ENDBRANCH  28  52
BRANCH  40  63
ATOM     63  C   UNL A   1      45.374  26.123  31.927  1.00  0.00     0.023 A 
ATOM     64  C   UNL A   1      44.253  26.865  32.365  1.00  0.00     0.031 A 
ATOM     65  C   UNL A   1      46.254  25.631  32.908  1.00  0.00     0.131 A 
ATOM     66  C   UNL A   1      44.055  27.097  33.740  1.00  0.00     0.055 A 
ATOM     67  C   UNL A   1      46.045  25.849  34.269  1.00  0.00     0.041 A 
ATOM     68  F   UNL A   1      47.317  24.887  32.557  1.00  0.00    -0.206 F 
ATOM     69  C   UNL A   1      44.946  26.588  34.691  1.00  0.00     0.022 A 
BRANCH  66  70
ATOM     70  S   UNL A   1      42.626  28.067  34.319  1.00  0.00     0.124 S 
ATOM     71  O   UNL A   1      41.490  27.424  33.671  1.00  0.00    -0.237 OA
ATOM     72  O   UNL A   1      42.709  27.913  35.770  1.00  0.00    -0.237 OA
ATOM     73  O   UNL A   1      42.917  29.418  33.837  1.00  0.00    -0.744 OA
ENDBRANCH  66  70
ENDBRANCH  40  63
ENDBRANCH  14  15
ENDBRANCH   7   9
ENDBRANCH   6   7
ENDBRANCH   5   6
ENDBRANCH   4   5
ENDBRANCH   3   4
ENDBRANCH   2   3
ENDBRANCH   1   2
BRANCH   1  74
ATOM     74  O   UNL A   1      31.890  28.729  26.010  1.00  0.00    -0.377 OA
BRANCH  74  75
ATOM     75  C   UNL A   1      33.012  27.863  25.925  1.00  0.00     0.188 C 
BRANCH  75  76
ATOM     76  C   UNL A   1      33.691  27.789  24.541  1.00  0.00     0.188 C 
BRANCH  76  77
ATOM     77  O   UNL A   1      33.521  26.666  23.683  1.00  0.00    -0.376 OA
BRANCH  77  78
ATOM     78  C   UNL A   1      32.282  26.476  23.019  1.00  0.00     0.202 C 
BRANCH  78  79
ATOM     79  C   UNL A   1      31.904  25.072  22.547  1.00  0.00     0.261 C 
BRANCH  79  80
ATOM     80  O   UNL A   1      32.543  24.012  23.264  1.00  0.00    -0.458 OA
BRANCH  80  81
ATOM     81  C   UNL A   1      31.741  23.123  23.898  1.00  0.00     0.361 C 
ATOM     82  O   UNL A   1      30.737  23.399  24.547  1.00  0.00    -0.244 OA
BRANCH  81  83
ATOM     83  C   UNL A   1      32.175  21.758  23.680  1.00  0.00     0.198 A 
ATOM     84  N   UNL A   1      31.958  21.092  22.498  1.00  0.00    -0.122 NA
ATOM     85  C   UNL A   1      32.856  20.927  24.551  1.00  0.00     0.123 A 
ATOM     86  N   UNL A   1      32.497  19.884  22.597  1.00  0.00    -0.061 NA
ATOM     87  N   UNL A   1      32.882  19.718  23.880  1.00  0.00    -0.213 N 
BRANCH  85  88
ATOM     88  C   UNL A   1      33.505  21.150  25.875  1.00  0.00     0.262 C 
ATOM     89  C   UNL A   1      33.265  22.524  26.501  1.00  0.00     0.281 C 
ATOM     90  O   UNL A   1      34.874  20.762  25.750  1.00  0.00    -0.477 OA
ATOM     91  O   UNL A   1      34.135  23.553  26.039  1.00  0.00    -0.485 OA
ATOM     92  C   UNL A   1      35.777  21.783  25.795  1.00  0.00     0.162 A 
ATOM     93  C   UNL A   1      35.431  23.122  25.964  1.00  0.00     0.161 A 
ATOM     94  C   UNL A   1      37.114  21.433  25.605  1.00  0.00     0.050 A 
ATOM     95  C   UNL A   1      36.418  24.108  25.956  1.00  0.00     0.050 A 
ATOM     96  C   UNL A   1      38.103  22.418  25.586  1.00  0.00     0.004 A 
ATOM     97  C   UNL A   1      37.755  23.756  25.767  1.00  0.00     0.004 A 
ENDBRANCH  85  88
BRANCH  87  98
ATOM     98  C   UNL A   1      33.044  18.422  24.413  1.00  0.00     0.068 A 
ATOM     99  C   UNL A   1      31.902  17.689  24.774  1.00  0.00     0.028 A 
ATOM    100  C   UNL A   1      34.320  17.869  24.545  1.00  0.00     0.044 A 
ATOM    101  C   UNL A   1      32.040  16.415  25.316  1.00  0.00     0.003 A 
ATOM    102  C   UNL A   1      34.442  16.606  25.123  1.00  0.00     0.020 A 
ATOM    103  C   UNL A   1      33.312  15.879  25.509  1.00  0.00     0.016 A 
ATOM    104  Br  UNL A   1      36.159  15.868  25.422  1.00  0.00    -0.051 Br
ENDBRANCH  87  98
ENDBRANCH  81  83
ENDBRANCH  80  81
ENDBRANCH  79  80
ENDBRANCH  78  79
ENDBRANCH  77  78
ENDBRANCH  76  77
ENDBRANCH  75  76
ENDBRANCH  74  75
ENDBRANCH   1  74
TORSDOF 25
ENDMDL
MODEL 2
REMARK VINA RESULT:     -10.5      1.362      2.026
REMARK SMILES O=C(OCCOCCOCCOCCOC(=O)c1nnn(-c2cccc(Br)c2)c1[C@@H]1COc2ccccc2O1)c1ccc(-c2c3nc(c(-c4cc(S(=O)(=O)[O-])ccc4F)c4ccc([nH]4)c(-c4cc(S(=O)(=O)[O-])ccc4F)c4nc(c(-c5cc(S(=O)(=O)[O-])ccc5F)c5ccc2[nH]5)C=C4)C=C3)cc1
REMARK SMILES IDX 8 1 7 2 6 3 5 4 4 5 3 6 2 7 1 8 40 9 41 10 102 11 42 12
REMARK SMILES IDX 101 13 43 14 44 15 45 16 95 17 46 18 100 19 94 20 96 21
REMARK SMILES IDX 47 22 99 23 93 24 92 25 48 27 80 28 60 29 79 30 61 31 64 32
REMARK SMILES IDX 78 33 97 34 62 35 63 36 77 38 98 39 65 40 49 41 50 42 58 43
REMARK SMILES IDX 51 44 57 45 59 46 56 47 52 48 53 49 54 50 55 51 81 52 82 53
REMARK SMILES IDX 90 54 83 55 89 56 91 57 88 58 84 59 85 60 86 61 87 62 66 63
REMARK SMILES IDX 67 64 75 65 68 66 74 67 76 68 73 69 69 70 70 71 71 72 72 73
REMARK SMILES IDX 9 74 10 75 11 76 12 77 13 78 14 79 15 80 16 81 17 82 18 83
REMARK SMILES IDX 19 84 29 85 20 86 21 87 30 88 31 89 39 90 32 91 38 92 33 93
REMARK SMILES IDX 37 94 34 95 36 96 35 97 22 98 23 99 28 100 24 101 26 102
REMARK SMILES IDX 25 103 27 104
REMARK H PARENT 96 26 64 37
REMARK Flexibility Score: inf
ROOT
ATOM      1  C   UNL A   1      33.721  28.392  23.193  1.00  0.00     0.188 C 
ENDROOT
BRANCH   1   2
ATOM      2  C   UNL A   1      33.889  28.645  24.700  1.00  0.00     0.188 C 
BRANCH   2   3
ATOM      3  O   UNL A   1      33.297  29.782  25.290  1.00  0.00    -0.376 OA
BRANCH   3   4
ATOM      4  C   UNL A   1      33.243  30.137  26.657  1.00  0.00     0.202 C 
BRANCH   4   5
ATOM      5  C   UNL A   1      34.390  30.663  27.538  1.00  0.00     0.261 C 
BRANCH   5   6
ATOM      6  O   UNL A   1      35.270  29.722  28.142  1.00  0.00    -0.460 OA
BRANCH   6   7
ATOM      7  C   UNL A   1      36.393  29.919  28.861  1.00  0.00     0.338 C 
ATOM      8  O   UNL A   1      36.405  30.844  29.672  1.00  0.00    -0.246 OA
BRANCH   7   9
ATOM      9  C   UNL A   1      37.661  29.187  28.602  1.00  0.00     0.060 A 
ATOM     10  C   UNL A   1      38.194  28.173  29.399  1.00  0.00     0.016 A 
ATOM     11  C   UNL A   1      38.353  29.575  27.437  1.00  0.00     0.016 A 
ATOM     12  C   UNL A   1      39.426  27.628  29.107  1.00  0.00     0.010 A 
ATOM     13  C   UNL A   1      39.594  29.043  27.142  1.00  0.00     0.010 A 
ATOM     14  C   UNL A   1      40.143  28.123  28.028  1.00  0.00    -0.014 A 
BRANCH  14  15
ATOM     15  C   UNL A   1      41.542  27.756  27.990  1.00  0.00     0.031 A 
ATOM     16  C   UNL A   1      41.870  26.457  27.369  1.00  0.00     0.074 A 
ATOM     17  C   UNL A   1      42.448  28.567  28.565  1.00  0.00     0.049 A 
ATOM     18  N   UNL A   1      42.387  25.417  27.935  1.00  0.00    -0.248 NA
ATOM     19  C   UNL A   1      41.475  26.248  25.970  1.00  0.00     0.031 C 
ATOM     20  C   UNL A   1      42.245  29.944  29.027  1.00  0.00     0.029 A 
ATOM     21  N   UNL A   1      43.776  28.365  28.751  1.00  0.00    -0.354 N 
ATOM     22  C   UNL A   1      42.588  24.490  26.918  1.00  0.00     0.074 A 
ATOM     23  C   UNL A   1      41.866  24.989  25.775  1.00  0.00     0.031 C 
ATOM     24  C   UNL A   1      43.448  30.530  29.197  1.00  0.00     0.029 A 
ATOM     25  C   UNL A   1      44.484  29.535  28.979  1.00  0.00     0.049 A 
ATOM     26  H   UNL A   1      44.197  27.475  28.727  1.00  0.00     0.167 HD
ATOM     27  C   UNL A   1      43.510  23.496  27.034  1.00  0.00     0.034 A 
ATOM     28  C   UNL A   1      45.825  29.701  28.873  1.00  0.00     0.034 A 
ATOM     29  C   UNL A   1      43.860  23.256  28.412  1.00  0.00     0.049 A 
ATOM     30  C   UNL A   1      46.447  28.364  29.044  1.00  0.00     0.074 A 
ATOM     31  C   UNL A   1      43.153  22.878  29.538  1.00  0.00     0.029 A 
ATOM     32  N   UNL A   1      45.066  23.731  28.878  1.00  0.00    -0.354 N 
ATOM     33  N   UNL A   1      46.404  27.690  30.161  1.00  0.00    -0.248 NA
ATOM     34  C   UNL A   1      46.712  27.562  27.857  1.00  0.00     0.031 C 
ATOM     35  C   UNL A   1      43.756  23.592  30.612  1.00  0.00     0.029 A 
ATOM     36  C   UNL A   1      44.827  24.321  30.094  1.00  0.00     0.049 A 
ATOM     37  H   UNL A   1      45.935  23.661  28.424  1.00  0.00     0.167 HD
ATOM     38  C   UNL A   1      46.199  26.372  29.782  1.00  0.00     0.074 A 
ATOM     39  C   UNL A   1      46.513  26.338  28.356  1.00  0.00     0.031 C 
ATOM     40  C   UNL A   1      45.525  25.495  30.586  1.00  0.00     0.034 A 
BRANCH  27  41
ATOM     41  C   UNL A   1      44.341  22.965  25.888  1.00  0.00     0.023 A 
ATOM     42  C   UNL A   1      44.318  21.576  25.655  1.00  0.00     0.031 A 
ATOM     43  C   UNL A   1      45.358  23.686  25.220  1.00  0.00     0.131 A 
ATOM     44  C   UNL A   1      45.318  20.958  24.884  1.00  0.00     0.055 A 
ATOM     45  C   UNL A   1      46.304  23.075  24.393  1.00  0.00     0.041 A 
ATOM     46  F   UNL A   1      45.559  24.995  25.405  1.00  0.00    -0.206 F 
ATOM     47  C   UNL A   1      46.310  21.699  24.247  1.00  0.00     0.022 A 
BRANCH  44  48
ATOM     48  S   UNL A   1      45.415  19.149  24.892  1.00  0.00     0.124 S 
ATOM     49  O   UNL A   1      45.656  18.861  23.483  1.00  0.00    -0.237 OA
ATOM     50  O   UNL A   1      46.533  18.914  25.799  1.00  0.00    -0.237 OA
ATOM     51  O   UNL A   1      44.106  18.742  25.396  1.00  0.00    -0.744 OA
ENDBRANCH  44  48
ENDBRANCH  27  41
BRANCH  28  52
ATOM     52  C   UNL A   1      46.488  30.885  28.272  1.00  0.00     0.023 A 
ATOM     53  C   UNL A   1      45.821  31.759  27.396  1.00  0.00     0.031 A 
ATOM     54  C   UNL A   1      47.769  31.292  28.721  1.00  0.00     0.131 A 
ATOM     55  C   UNL A   1      46.439  32.964  26.993  1.00  0.00     0.055 A 
ATOM     56  C   UNL A   1      48.384  32.470  28.301  1.00  0.00     0.041 A 
ATOM     57  F   UNL A   1      48.439  30.593  29.652  1.00  0.00    -0.206 F 
ATOM     58  C   UNL A   1      47.716  33.318  27.437  1.00  0.00     0.022 A 
BRANCH  55  59
ATOM     59  S   UNL A   1      45.529  34.150  25.956  1.00  0.00     0.124 S 
ATOM     60  O   UNL A   1      44.409  33.348  25.480  1.00  0.00    -0.237 OA
ATOM     61  O   UNL A   1      45.211  35.212  26.903  1.00  0.00    -0.237 OA
ATOM     62  O   UNL A   1      46.503  34.520  24.928  1.00  0.00    -0.744 OA
ENDBRANCH  55  59
ENDBRANCH  28  52
BRANCH  40  63
ATOM     63  C   UNL A   1      45.268  25.883  32.027  1.00  0.00     0.023 A 
ATOM     64  C   UNL A   1      44.077  26.486  32.492  1.00  0.00     0.031 A 
ATOM     65  C   UNL A   1      46.219  25.491  32.987  1.00  0.00     0.131 A 
ATOM     66  C   UNL A   1      43.881  26.685  33.872  1.00  0.00     0.055 A 
ATOM     67  C   UNL A   1      46.013  25.676  34.354  1.00  0.00     0.041 A 
ATOM     68  F   UNL A   1      47.354  24.878  32.610  1.00  0.00    -0.206 F 
ATOM     69  C   UNL A   1      44.844  26.278  34.802  1.00  0.00     0.022 A 
BRANCH  66  70
ATOM     70  S   UNL A   1      42.360  27.478  34.486  1.00  0.00     0.124 S 
ATOM     71  O   UNL A   1      41.638  27.823  33.268  1.00  0.00    -0.237 OA
ATOM     72  O   UNL A   1      41.767  26.426  35.308  1.00  0.00    -0.237 OA
ATOM     73  O   UNL A   1      42.860  28.628  35.243  1.00  0.00    -0.744 OA
ENDBRANCH  66  70
ENDBRANCH  40  63
ENDBRANCH  14  15
ENDBRANCH   7   9
ENDBRANCH   6   7
ENDBRANCH   5   6
ENDBRANCH   4   5
ENDBRANCH   3   4
ENDBRANCH   2   3
ENDBRANCH   1   2
BRANCH   1  74
ATOM     74  O   UNL A   1      32.766  29.235  22.559  1.00  0.00    -0.377 OA
BRANCH  74  75
ATOM     75  C   UNL A   1      31.502  28.617  22.373  1.00  0.00     0.188 C 
BRANCH  75  76
ATOM     76  C   UNL A   1      31.495  27.077  22.467  1.00  0.00     0.188 C 
BRANCH  76  77
ATOM     77  O   UNL A   1      30.921  26.398  23.578  1.00  0.00    -0.376 OA
BRANCH  77  78
ATOM     78  C   UNL A   1      30.201  27.138  24.551  1.00  0.00     0.202 C 
BRANCH  78  79
ATOM     79  C   UNL A   1      30.813  27.325  25.939  1.00  0.00     0.261 C 
BRANCH  79  80
ATOM     80  O   UNL A   1      30.988  26.113  26.680  1.00  0.00    -0.458 OA
BRANCH  80  81
ATOM     81  C   UNL A   1      32.104  25.389  26.424  1.00  0.00     0.361 C 
ATOM     82  O   UNL A   1      33.259  25.792  26.522  1.00  0.00    -0.244 OA
BRANCH  81  83
ATOM     83  C   UNL A   1      31.785  24.024  26.057  1.00  0.00     0.198 A 
ATOM     84  N   UNL A   1      30.713  23.347  26.586  1.00  0.00    -0.122 NA
ATOM     85  C   UNL A   1      32.440  23.204  25.157  1.00  0.00     0.123 A 
ATOM     86  N   UNL A   1      30.668  22.142  26.034  1.00  0.00    -0.061 NA
ATOM     87  N   UNL A   1      31.796  21.989  25.308  1.00  0.00    -0.213 N 
BRANCH  85  88
ATOM     88  C   UNL A   1      33.532  23.441  24.170  1.00  0.00     0.262 C 
ATOM     89  C   UNL A   1      34.019  22.201  23.418  1.00  0.00     0.281 C 
ATOM     90  O   UNL A   1      34.548  24.196  24.832  1.00  0.00    -0.477 OA
ATOM     91  O   UNL A   1      34.984  21.418  24.114  1.00  0.00    -0.485 OA
ATOM     92  C   UNL A   1      35.711  23.525  25.074  1.00  0.00     0.162 A 
ATOM     93  C   UNL A   1      35.937  22.201  24.705  1.00  0.00     0.161 A 
ATOM     94  C   UNL A   1      36.690  24.223  25.781  1.00  0.00     0.050 A 
ATOM     95  C   UNL A   1      37.143  21.578  25.030  1.00  0.00     0.050 A 
ATOM     96  C   UNL A   1      37.893  23.600  26.117  1.00  0.00     0.004 A 
ATOM     97  C   UNL A   1      38.122  22.278  25.737  1.00  0.00     0.004 A 
ENDBRANCH  85  88
BRANCH  87  98
ATOM     98  C   UNL A   1      32.273  20.698  24.998  1.00  0.00     0.068 A 
ATOM     99  C   UNL A   1      32.989  19.986  25.973  1.00  0.00     0.028 A 
ATOM    100  C   UNL A   1      32.006  20.130  23.750  1.00  0.00     0.044 A 
ATOM    101  C   UNL A   1      33.482  18.717  25.682  1.00  0.00     0.003 A 
ATOM    102  C   UNL A   1      32.537  18.873  23.462  1.00  0.00     0.020 A 
ATOM    103  C   UNL A   1      33.273  18.167  24.419  1.00  0.00     0.016 A 
ATOM    104  Br  UNL A   1      32.292  18.117  21.745  1.00  0.00    -0.051 Br
ENDBRANCH  87  98
ENDBRANCH  81  83
ENDBRANCH  80  81
ENDBRANCH  79  80
ENDBRANCH  78  79
ENDBRANCH  77  78
ENDBRANCH  76  77
ENDBRANCH  75  76
ENDBRANCH  74  75
ENDBRANCH   1  74
TORSDOF 25
ENDMDL
MODEL 3
REMARK VINA RESULT:     -10.5      1.948      2.212
REMARK SMILES O=C(OCCOCCOCCOCCOC(=O)c1nnn(-c2cccc(Br)c2)c1[C@@H]1COc2ccccc2O1)c1ccc(-c2c3nc(c(-c4cc(S(=O)(=O)[O-])ccc4F)c4ccc([nH]4)c(-c4cc(S(=O)(=O)[O-])ccc4F)c4nc(c(-c5cc(S(=O)(=O)[O-])ccc5F)c5ccc2[nH]5)C=C4)C=C3)cc1
REMARK SMILES IDX 8 1 7 2 6 3 5 4 4 5 3 6 2 7 1 8 40 9 41 10 102 11 42 12
REMARK SMILES IDX 101 13 43 14 44 15 45 16 95 17 46 18 100 19 94 20 96 21
REMARK SMILES IDX 47 22 99 23 93 24 92 25 48 27 80 28 60 29 79 30 61 31 64 32
REMARK SMILES IDX 78 33 97 34 62 35 63 36 77 38 98 39 65 40 49 41 50 42 58 43
REMARK SMILES IDX 51 44 57 45 59 46 56 47 52 48 53 49 54 50 55 51 81 52 82 53
REMARK SMILES IDX 90 54 83 55 89 56 91 57 88 58 84 59 85 60 86 61 87 62 66 63
REMARK SMILES IDX 67 64 75 65 68 66 74 67 76 68 73 69 69 70 70 71 71 72 72 73
REMARK SMILES IDX 9 74 10 75 11 76 12 77 13 78 14 79 15 80 16 81 17 82 18 83
REMARK SMILES IDX 19 84 29 85 20 86 21 87 30 88 31 89 39 90 32 91 38 92 33 93
REMARK SMILES IDX 37 94 34 95 36 96 35 97 22 98 23 99 28 100 24 101 26 102
REMARK SMILES IDX 25 103 27 104
REMARK H PARENT 96 26 64 37
REMARK Flexibility Score: inf
ROOT
ATOM      1  C   UNL A   1      31.999  30.154  25.670  1.00  0.00     0.188 C 
ENDROOT
BRANCH   1   2
ATOM      2  C   UNL A   1      32.088  31.179  26.812  1.00  0.00     0.188 C 
BRANCH   2   3
ATOM      3  O   UNL A   1      33.246  31.232  27.619  1.00  0.00    -0.376 OA
BRANCH   3   4
ATOM      4  C   UNL A   1      34.157  32.300  27.779  1.00  0.00     0.202 C 
BRANCH   4   5
ATOM      5  C   UNL A   1      35.672  32.213  28.037  1.00  0.00     0.261 C 
BRANCH   5   6
ATOM      6  O   UNL A   1      36.166  31.140  28.831  1.00  0.00    -0.460 OA
BRANCH   6   7
ATOM      7  C   UNL A   1      36.335  29.839  28.526  1.00  0.00     0.338 C 
ATOM      8  O   UNL A   1      35.331  29.141  28.391  1.00  0.00    -0.246 OA
BRANCH   7   9
ATOM      9  C   UNL A   1      37.666  29.174  28.513  1.00  0.00     0.060 A 
ATOM     10  C   UNL A   1      38.154  28.308  29.492  1.00  0.00     0.016 A 
ATOM     11  C   UNL A   1      38.472  29.463  27.393  1.00  0.00     0.016 A 
ATOM     12  C   UNL A   1      39.441  27.821  29.418  1.00  0.00     0.010 A 
ATOM     13  C   UNL A   1      39.769  28.989  27.315  1.00  0.00     0.010 A 
ATOM     14  C   UNL A   1      40.256  28.229  28.372  1.00  0.00    -0.014 A 
BRANCH  14  15
ATOM     15  C   UNL A   1      41.667  27.963  28.544  1.00  0.00     0.031 A 
ATOM     16  C   UNL A   1      42.208  26.775  27.851  1.00  0.00     0.074 A 
ATOM     17  C   UNL A   1      42.390  28.753  29.357  1.00  0.00     0.049 A 
ATOM     18  N   UNL A   1      42.709  25.709  28.381  1.00  0.00    -0.248 NA
ATOM     19  C   UNL A   1      42.074  26.716  26.390  1.00  0.00     0.031 C 
ATOM     20  C   UNL A   1      41.993  30.046  29.926  1.00  0.00     0.029 A 
ATOM     21  N   UNL A   1      43.680  28.618  29.754  1.00  0.00    -0.354 N 
ATOM     22  C   UNL A   1      43.159  24.931  27.320  1.00  0.00     0.074 A 
ATOM     23  C   UNL A   1      42.600  25.520  26.129  1.00  0.00     0.031 C 
ATOM     24  C   UNL A   1      43.095  30.684  30.371  1.00  0.00     0.029 A 
ATOM     25  C   UNL A   1      44.235  29.795  30.232  1.00  0.00     0.049 A 
ATOM     26  H   UNL A   1      44.174  27.767  29.706  1.00  0.00     0.167 HD
ATOM     27  C   UNL A   1      44.130  23.993  27.487  1.00  0.00     0.034 A 
ATOM     28  C   UNL A   1      45.555  30.060  30.386  1.00  0.00     0.034 A 
ATOM     29  C   UNL A   1      44.261  23.608  28.871  1.00  0.00     0.049 A 
ATOM     30  C   UNL A   1      46.253  28.756  30.516  1.00  0.00     0.074 A 
ATOM     31  C   UNL A   1      43.409  23.047  29.803  1.00  0.00     0.029 A 
ATOM     32  N   UNL A   1      45.325  24.099  29.593  1.00  0.00    -0.354 N 
ATOM     33  N   UNL A   1      46.079  27.947  31.526  1.00  0.00    -0.248 NA
ATOM     34  C   UNL A   1      46.783  28.127  29.313  1.00  0.00     0.031 C 
ATOM     35  C   UNL A   1      43.758  23.660  31.040  1.00  0.00     0.029 A 
ATOM     36  C   UNL A   1      44.834  24.517  30.806  1.00  0.00     0.049 A 
ATOM     37  H   UNL A   1      46.262  24.143  29.297  1.00  0.00     0.167 HD
ATOM     38  C   UNL A   1      46.056  26.676  30.972  1.00  0.00     0.074 A 
ATOM     39  C   UNL A   1      46.609  26.841  29.630  1.00  0.00     0.031 C 
ATOM     40  C   UNL A   1      45.335  25.663  31.541  1.00  0.00     0.034 A 
BRANCH  27  41
ATOM     41  C   UNL A   1      45.185  23.665  26.456  1.00  0.00     0.023 A 
ATOM     42  C   UNL A   1      46.089  24.685  26.100  1.00  0.00     0.031 A 
ATOM     43  C   UNL A   1      45.169  22.533  25.608  1.00  0.00     0.131 A 
ATOM     44  C   UNL A   1      46.840  24.602  24.915  1.00  0.00     0.055 A 
ATOM     45  C   UNL A   1      45.974  22.423  24.472  1.00  0.00     0.041 A 
ATOM     46  F   UNL A   1      44.309  21.521  25.768  1.00  0.00    -0.206 F 
ATOM     47  C   UNL A   1      46.792  23.475  24.099  1.00  0.00     0.022 A 
BRANCH  44  48
ATOM     48  S   UNL A   1      47.729  26.078  24.355  1.00  0.00     0.124 S 
ATOM     49  O   UNL A   1      48.760  26.206  25.379  1.00  0.00    -0.237 OA
ATOM     50  O   UNL A   1      48.183  25.669  23.030  1.00  0.00    -0.237 OA
ATOM     51  O   UNL A   1      46.703  27.117  24.369  1.00  0.00    -0.744 OA
ENDBRANCH  44  48
ENDBRANCH  27  41
BRANCH  28  52
ATOM     52  C   UNL A   1      46.205  31.351  30.048  1.00  0.00     0.023 A 
ATOM     53  C   UNL A   1      46.676  31.643  28.756  1.00  0.00     0.031 A 
ATOM     54  C   UNL A   1      46.195  32.421  30.977  1.00  0.00     0.131 A 
ATOM     55  C   UNL A   1      47.125  32.946  28.444  1.00  0.00     0.055 A 
ATOM     56  C   UNL A   1      46.660  33.699  30.671  1.00  0.00     0.041 A 
ATOM     57  F   UNL A   1      45.653  32.283  32.198  1.00  0.00    -0.206 F 
ATOM     58  C   UNL A   1      47.123  33.970  29.396  1.00  0.00     0.022 A 
BRANCH  55  59
ATOM     59  S   UNL A   1      47.621  33.354  26.743  1.00  0.00     0.124 S 
ATOM     60  O   UNL A   1      47.384  32.098  26.043  1.00  0.00    -0.237 OA
ATOM     61  O   UNL A   1      46.728  34.460  26.414  1.00  0.00    -0.237 OA
ATOM     62  O   UNL A   1      49.030  33.727  26.880  1.00  0.00    -0.744 OA
ENDBRANCH  55  59
ENDBRANCH  28  52
BRANCH  40  63
ATOM     63  C   UNL A   1      44.805  25.851  32.948  1.00  0.00     0.023 A 
ATOM     64  C   UNL A   1      43.717  26.688  33.286  1.00  0.00     0.031 A 
ATOM     65  C   UNL A   1      45.341  25.035  33.960  1.00  0.00     0.131 A 
ATOM     66  C   UNL A   1      43.214  26.691  34.602  1.00  0.00     0.055 A 
ATOM     67  C   UNL A   1      44.830  25.030  35.257  1.00  0.00     0.041 A 
ATOM     68  F   UNL A   1      46.351  24.191  33.691  1.00  0.00    -0.206 F 
ATOM     69  C   UNL A   1      43.766  25.862  35.585  1.00  0.00     0.022 A 
BRANCH  66  70
ATOM     70  S   UNL A   1      41.826  27.777  35.060  1.00  0.00     0.124 S 
ATOM     71  O   UNL A   1      40.679  27.161  34.404  1.00  0.00    -0.237 OA
ATOM     72  O   UNL A   1      41.842  27.710  36.519  1.00  0.00    -0.237 OA
ATOM     73  O   UNL A   1      42.216  29.076  34.510  1.00  0.00    -0.744 OA
ENDBRANCH  66  70
ENDBRANCH  40  63
ENDBRANCH  14  15
ENDBRANCH   7   9
ENDBRANCH   6   7
ENDBRANCH   5   6
ENDBRANCH   4   5
ENDBRANCH   3   4
ENDBRANCH   2   3
ENDBRANCH   1   2
BRANCH   1  74
ATOM     74  O   UNL A   1      31.604  28.850  26.082  1.00  0.00    -0.377 OA
BRANCH  74  75
ATOM     75  C   UNL A   1      32.644  27.888  25.985  1.00  0.00     0.188 C 
BRANCH  75  76
ATOM     76  C   UNL A   1      33.359  27.818  24.619  1.00  0.00     0.188 C 
BRANCH  76  77
ATOM     77  O   UNL A   1      33.071  26.791  23.676  1.00  0.00    -0.376 OA
BRANCH  77  78
ATOM     78  C   UNL A   1      31.732  26.352  23.512  1.00  0.00     0.202 C 
BRANCH  78  79
ATOM     79  C   UNL A   1      31.471  24.878  23.204  1.00  0.00     0.261 C 
BRANCH  79  80
ATOM     80  O   UNL A   1      32.250  23.962  23.979  1.00  0.00    -0.458 OA
BRANCH  80  81
ATOM     81  C   UNL A   1      31.591  22.932  24.565  1.00  0.00     0.361 C 
ATOM     82  O   UNL A   1      30.614  23.032  25.300  1.00  0.00    -0.244 OA
BRANCH  81  83
ATOM     83  C   UNL A   1      32.148  21.652  24.180  1.00  0.00     0.198 A 
ATOM     84  N   UNL A   1      31.872  21.058  22.972  1.00  0.00    -0.122 NA
ATOM     85  C   UNL A   1      33.013  20.844  24.895  1.00  0.00     0.123 A 
ATOM     86  N   UNL A   1      32.549  19.920  22.903  1.00  0.00    -0.061 NA
ATOM     87  N   UNL A   1      33.097  19.702  24.118  1.00  0.00    -0.213 N 
BRANCH  85  88
ATOM     88  C   UNL A   1      33.781  21.040  26.158  1.00  0.00     0.262 C 
ATOM     89  C   UNL A   1      33.555  22.377  26.864  1.00  0.00     0.281 C 
ATOM     90  O   UNL A   1      35.145  20.713  25.883  1.00  0.00    -0.477 OA
ATOM     91  O   UNL A   1      34.337  23.459  26.365  1.00  0.00    -0.485 OA
ATOM     92  C   UNL A   1      36.009  21.768  25.884  1.00  0.00     0.162 A 
ATOM     93  C   UNL A   1      35.633  23.083  26.145  1.00  0.00     0.161 A 
ATOM     94  C   UNL A   1      37.333  21.480  25.550  1.00  0.00     0.050 A 
ATOM     95  C   UNL A   1      36.578  24.109  26.084  1.00  0.00     0.050 A 
ATOM     96  C   UNL A   1      38.279  22.505  25.478  1.00  0.00     0.004 A 
ATOM     97  C   UNL A   1      37.902  23.819  25.751  1.00  0.00     0.004 A 
ENDBRANCH  85  88
BRANCH  87  98
ATOM     98  C   UNL A   1      33.462  18.398  24.511  1.00  0.00     0.068 A 
ATOM     99  C   UNL A   1      34.785  17.973  24.311  1.00  0.00     0.028 A 
ATOM    100  C   UNL A   1      32.526  17.558  25.119  1.00  0.00     0.044 A 
ATOM    101  C   UNL A   1      35.162  16.685  24.677  1.00  0.00     0.003 A 
ATOM    102  C   UNL A   1      32.910  16.258  25.447  1.00  0.00     0.020 A 
ATOM    103  C   UNL A   1      34.219  15.819  25.229  1.00  0.00     0.016 A 
ATOM    104  Br  UNL A   1      31.642  15.054  26.170  1.00  0.00    -0.051 Br
ENDBRANCH  87  98
ENDBRANCH  81  83
ENDBRANCH  80  81
ENDBRANCH  79  80
ENDBRANCH  78  79
ENDBRANCH  77  78
ENDBRANCH  76  77
ENDBRANCH  75  76
ENDBRANCH  74  75
ENDBRANCH   1  74
TORSDOF 25
ENDMDL
