MODEL 1
REMARK VINA RESULT:      -8.7      0.000      0.000
REMARK SMILES CC(C)C(=O)Nc1ccc(NC(=O)[C@@H]2[C@@H](C(=O)OCCOCCOCCOCCOC(=O)c3ccc(-c4c5nc(c(-c6cc(S(=O)(=O)[O-])ccc6F)c6ccc([nH]6)c(-c6cc(S(=O)(=O)[O-])ccc6F)c6nc(c(-c7cc(S(=O)(=O)[O-])ccc7F)c7ccc4[nH]7)C=C6)C=C5)cc3)C2(C)C)cc1Cl
REMARK SMILES IDX 23 1 22 2 21 3 20 4 19 5 18 6 16 7 17 8 15 9 14 10 96 11
REMARK SMILES IDX 97 12 98 13 12 14 11 15 13 17 10 18 7 19 8 20 100 21 9 22
REMARK SMILES IDX 99 23 101 24 6 25 4 26 5 27 2 29 1 30 3 31 24 32 25 33 26 34
REMARK SMILES IDX 27 35 28 36 29 37 30 38 31 39 32 40 33 41 34 42 95 43 35 44
REMARK SMILES IDX 94 45 36 46 37 47 38 48 88 49 39 50 93 51 87 52 89 53 40 54
REMARK SMILES IDX 92 55 86 56 85 57 41 59 73 60 53 61 72 62 54 63 57 64 71 65
REMARK SMILES IDX 90 66 55 67 56 68 70 70 91 71 58 72 42 73 43 74 51 75 44 76
REMARK SMILES IDX 50 77 52 78 49 79 45 80 46 81 47 82 48 83 74 84 75 85 83 86
REMARK SMILES IDX 76 87 82 88 84 89 81 90 77 91 78 92 79 93 80 94 59 95 60 96
REMARK SMILES IDX 68 97 61 98 67 99 69 100 66 101 62 102 63 103 64 104 65 105
REMARK H PARENT 11 16 6 28 89 58 57 69
REMARK Flexibility Score: inf
ROOT
ATOM      1  C   UNL A   1      34.090  31.977  28.147  1.00  0.00     0.188 C 
ENDROOT
BRANCH   1   2
ATOM      2  C   UNL A   1      34.564  30.511  28.210  1.00  0.00     0.188 C 
BRANCH   2   3
ATOM      3  O   UNL A   1      35.091  29.898  27.049  1.00  0.00    -0.376 OA
BRANCH   3   4
ATOM      4  C   UNL A   1      34.430  28.802  26.421  1.00  0.00     0.202 C 
BRANCH   4   5
ATOM      5  C   UNL A   1      32.991  28.866  25.880  1.00  0.00     0.261 C 
BRANCH   5   6
ATOM      6  O   UNL A   1      32.872  29.571  24.644  1.00  0.00    -0.463 OA
BRANCH   6   7
ATOM      7  C   UNL A   1      32.220  28.908  23.661  1.00  0.00     0.310 C 
ATOM      8  O   UNL A   1      32.733  28.188  22.818  1.00  0.00    -0.252 OA
BRANCH   7   9
ATOM      9  C   UNL A   1      30.750  28.890  23.878  1.00  0.00     0.118 C 
ATOM     10  C   UNL A   1      30.061  27.723  23.249  1.00  0.00     0.100 C 
ATOM     11  C   UNL A   1      29.594  29.134  22.932  1.00  0.00    -0.009 C 
ATOM     12  C   UNL A   1      29.918  29.802  21.620  1.00  0.00     0.013 C 
ATOM     13  C   UNL A   1      28.256  29.561  23.499  1.00  0.00     0.013 C 
BRANCH  10  14
ATOM     14  C   UNL A   1      29.278  26.647  23.904  1.00  0.00     0.228 C 
ATOM     15  N   UNL A   1      29.662  25.588  24.690  1.00  0.00    -0.326 N 
ATOM     16  H   UNL A   1      28.860  25.117  25.013  1.00  0.00     0.169 HD
ATOM     17  O   UNL A   1      28.052  26.733  23.770  1.00  0.00    -0.274 OA
BRANCH  15  18
ATOM     18  C   UNL A   1      30.804  24.947  25.189  1.00  0.00     0.042 A 
ATOM     19  C   UNL A   1      33.190  23.634  25.946  1.00  0.00     0.060 A 
ATOM     20  C   UNL A   1      32.119  23.727  26.829  1.00  0.00     0.030 A 
ATOM     21  C   UNL A   1      33.065  24.169  24.663  1.00  0.00     0.066 A 
ATOM     22  C   UNL A   1      30.983  24.463  26.473  1.00  0.00     0.028 A 
ATOM     23  C   UNL A   1      31.883  24.826  24.296  1.00  0.00     0.048 A 
ATOM     24  Cl  UNL A   1      34.332  24.048  23.495  1.00  0.00    -0.082 Cl
BRANCH  19  25
ATOM     25  N   UNL A   1      34.360  23.018  26.404  1.00  0.00    -0.325 N 
ATOM     26  C   UNL A   1      34.868  21.818  25.991  1.00  0.00     0.226 C 
ATOM     27  O   UNL A   1      36.068  21.605  26.203  1.00  0.00    -0.274 OA
ATOM     28  H   UNL A   1      34.870  23.499  27.095  1.00  0.00     0.169 HD
BRANCH  26  29
ATOM     29  C   UNL A   1      34.016  20.744  25.302  1.00  0.00     0.072 C 
ATOM     30  C   UNL A   1      34.833  19.646  24.635  1.00  0.00     0.018 C 
ATOM     31  C   UNL A   1      32.897  20.172  26.164  1.00  0.00     0.018 C 
ENDBRANCH  26  29
ENDBRANCH  19  25
ENDBRANCH  15  18
ENDBRANCH  10  14
ENDBRANCH   7   9
ENDBRANCH   6   7
ENDBRANCH   5   6
ENDBRANCH   4   5
ENDBRANCH   3   4
ENDBRANCH   2   3
ENDBRANCH   1   2
BRANCH   1  32
ATOM     32  O   UNL A   1      34.980  32.940  27.629  1.00  0.00    -0.377 OA
BRANCH  32  33
ATOM     33  C   UNL A   1      35.038  34.234  28.214  1.00  0.00     0.188 C 
BRANCH  33  34
ATOM     34  C   UNL A   1      33.990  34.711  29.242  1.00  0.00     0.188 C 
BRANCH  34  35
ATOM     35  O   UNL A   1      33.885  33.927  30.421  1.00  0.00    -0.376 OA
BRANCH  35  36
ATOM     36  C   UNL A   1      34.775  34.222  31.488  1.00  0.00     0.202 C 
BRANCH  36  37
ATOM     37  C   UNL A   1      35.715  33.088  31.925  1.00  0.00     0.261 C 
BRANCH  37  38
ATOM     38  O   UNL A   1      36.850  33.483  32.712  1.00  0.00    -0.460 OA
BRANCH  38  39
ATOM     39  C   UNL A   1      36.925  33.014  33.977  1.00  0.00     0.338 C 
ATOM     40  O   UNL A   1      36.055  33.063  34.830  1.00  0.00    -0.246 OA
BRANCH  39  41
ATOM     41  C   UNL A   1      38.179  32.246  34.097  1.00  0.00     0.060 A 
ATOM     42  C   UNL A   1      39.366  32.803  33.599  1.00  0.00     0.016 A 
ATOM     43  C   UNL A   1      38.186  30.992  34.710  1.00  0.00     0.016 A 
ATOM     44  C   UNL A   1      40.558  32.085  33.680  1.00  0.00     0.010 A 
ATOM     45  C   UNL A   1      39.378  30.266  34.771  1.00  0.00     0.010 A 
ATOM     46  C   UNL A   1      40.561  30.794  34.226  1.00  0.00    -0.014 A 
BRANCH  46  47
ATOM     47  C   UNL A   1      41.741  29.914  34.032  1.00  0.00     0.031 A 
ATOM     48  C   UNL A   1      42.745  29.823  35.149  1.00  0.00     0.074 A 
ATOM     49  C   UNL A   1      41.914  29.204  32.904  1.00  0.00     0.049 A 
ATOM     50  N   UNL A   1      43.875  29.167  35.204  1.00  0.00    -0.248 NA
ATOM     51  C   UNL A   1      42.428  30.585  36.367  1.00  0.00     0.031 C 
ATOM     52  C   UNL A   1      40.986  29.169  31.776  1.00  0.00     0.029 A 
ATOM     53  N   UNL A   1      42.940  28.376  32.522  1.00  0.00    -0.354 N 
ATOM     54  C   UNL A   1      44.412  29.446  36.457  1.00  0.00     0.074 A 
ATOM     55  C   UNL A   1      43.500  30.359  37.112  1.00  0.00     0.031 C 
ATOM     56  C   UNL A   1      41.487  28.357  30.828  1.00  0.00     0.029 A 
ATOM     57  C   UNL A   1      42.788  27.851  31.260  1.00  0.00     0.049 A 
ATOM     58  H   UNL A   1      43.713  28.176  33.099  1.00  0.00     0.167 HD
ATOM     59  C   UNL A   1      45.558  28.980  37.011  1.00  0.00     0.034 A 
ATOM     60  C   UNL A   1      43.617  27.072  30.535  1.00  0.00     0.034 A 
ATOM     61  C   UNL A   1      46.464  28.081  36.339  1.00  0.00     0.049 A 
ATOM     62  C   UNL A   1      44.940  26.649  31.133  1.00  0.00     0.074 A 
ATOM     63  C   UNL A   1      47.636  27.523  36.816  1.00  0.00     0.029 A 
ATOM     64  N   UNL A   1      46.311  27.625  35.035  1.00  0.00    -0.354 N 
ATOM     65  N   UNL A   1      45.430  26.903  32.325  1.00  0.00    -0.248 NA
ATOM     66  C   UNL A   1      45.817  25.832  30.285  1.00  0.00     0.031 C 
ATOM     67  C   UNL A   1      48.235  26.805  35.776  1.00  0.00     0.029 A 
ATOM     68  C   UNL A   1      47.391  26.834  34.677  1.00  0.00     0.049 A 
ATOM     69  H   UNL A   1      45.546  27.834  34.450  1.00  0.00     0.167 HD
ATOM     70  C   UNL A   1      46.657  26.242  32.381  1.00  0.00     0.074 A 
ATOM     71  C   UNL A   1      46.825  25.574  31.106  1.00  0.00     0.031 C 
ATOM     72  C   UNL A   1      47.557  26.183  33.396  1.00  0.00     0.034 A 
BRANCH  59  73
ATOM     73  C   UNL A   1      45.922  29.498  38.383  1.00  0.00     0.023 A 
ATOM     74  C   UNL A   1      45.486  28.863  39.560  1.00  0.00     0.031 A 
ATOM     75  C   UNL A   1      46.675  30.678  38.515  1.00  0.00     0.131 A 
ATOM     76  C   UNL A   1      45.729  29.458  40.808  1.00  0.00     0.055 A 
ATOM     77  C   UNL A   1      46.993  31.216  39.763  1.00  0.00     0.041 A 
ATOM     78  F   UNL A   1      47.097  31.344  37.428  1.00  0.00    -0.206 F 
ATOM     79  C   UNL A   1      46.503  30.614  40.920  1.00  0.00     0.022 A 
BRANCH  76  80
ATOM     80  S   UNL A   1      44.876  28.795  42.265  1.00  0.00     0.124 S 
ATOM     81  O   UNL A   1      45.997  28.474  43.144  1.00  0.00    -0.237 OA
ATOM     82  O   UNL A   1      44.040  29.916  42.678  1.00  0.00    -0.237 OA
ATOM     83  O   UNL A   1      44.155  27.636  41.742  1.00  0.00    -0.744 OA
ENDBRANCH  76  80
ENDBRANCH  59  73
BRANCH  60  84
ATOM     84  C   UNL A   1      43.248  26.656  29.150  1.00  0.00     0.023 A 
ATOM     85  C   UNL A   1      42.755  25.367  28.892  1.00  0.00     0.031 A 
ATOM     86  C   UNL A   1      43.439  27.519  28.057  1.00  0.00     0.131 A 
ATOM     87  C   UNL A   1      42.508  24.963  27.570  1.00  0.00     0.055 A 
ATOM     88  C   UNL A   1      43.140  27.131  26.750  1.00  0.00     0.041 A 
ATOM     89  F   UNL A   1      43.913  28.760  28.247  1.00  0.00    -0.206 F 
ATOM     90  C   UNL A   1      42.684  25.841  26.498  1.00  0.00     0.022 A 
BRANCH  87  91
ATOM     91  S   UNL A   1      42.029  23.241  27.263  1.00  0.00     0.124 S 
ATOM     92  O   UNL A   1      41.885  22.727  28.620  1.00  0.00    -0.237 OA
ATOM     93  O   UNL A   1      40.795  23.400  26.502  1.00  0.00    -0.237 OA
ATOM     94  O   UNL A   1      43.159  22.704  26.507  1.00  0.00    -0.744 OA
ENDBRANCH  87  91
ENDBRANCH  60  84
BRANCH  72  95
ATOM     95  C   UNL A   1      48.782  25.321  33.188  1.00  0.00     0.023 A 
ATOM     96  C   UNL A   1      48.846  23.992  33.643  1.00  0.00     0.031 A 
ATOM     97  C   UNL A   1      49.907  25.844  32.525  1.00  0.00     0.131 A 
ATOM     98  C   UNL A   1      50.027  23.252  33.479  1.00  0.00     0.055 A 
ATOM     99  C   UNL A   1      51.054  25.082  32.304  1.00  0.00     0.041 A 
ATOM    100  F   UNL A   1      49.907  27.108  32.071  1.00  0.00    -0.206 F 
ATOM    101  C   UNL A   1      51.125  23.782  32.795  1.00  0.00     0.022 A 
BRANCH  98 102
ATOM    102  S   UNL A   1      50.150  21.619  34.261  1.00  0.00     0.124 S 
ATOM    103  O   UNL A   1      50.702  20.807  33.182  1.00  0.00    -0.237 OA
ATOM    104  O   UNL A   1      51.043  21.878  35.385  1.00  0.00    -0.237 OA
ATOM    105  O   UNL A   1      48.769  21.308  34.627  1.00  0.00    -0.744 OA
ENDBRANCH  98 102
ENDBRANCH  72  95
ENDBRANCH  46  47
ENDBRANCH  39  41
ENDBRANCH  38  39
ENDBRANCH  37  38
ENDBRANCH  36  37
ENDBRANCH  35  36
ENDBRANCH  34  35
ENDBRANCH  33  34
ENDBRANCH  32  33
ENDBRANCH   1  32
TORSDOF 27
ENDMDL
MODEL 2
REMARK VINA RESULT:      -8.4      6.272     11.579
REMARK SMILES CC(C)C(=O)Nc1ccc(NC(=O)[C@@H]2[C@@H](C(=O)OCCOCCOCCOCCOC(=O)c3ccc(-c4c5nc(c(-c6cc(S(=O)(=O)[O-])ccc6F)c6ccc([nH]6)c(-c6cc(S(=O)(=O)[O-])ccc6F)c6nc(c(-c7cc(S(=O)(=O)[O-])ccc7F)c7ccc4[nH]7)C=C6)C=C5)cc3)C2(C)C)cc1Cl
REMARK SMILES IDX 23 1 22 2 21 3 20 4 19 5 18 6 16 7 17 8 15 9 14 10 96 11
REMARK SMILES IDX 97 12 98 13 12 14 11 15 13 17 10 18 7 19 8 20 100 21 9 22
REMARK SMILES IDX 99 23 101 24 6 25 4 26 5 27 2 29 1 30 3 31 24 32 25 33 26 34
REMARK SMILES IDX 27 35 28 36 29 37 30 38 31 39 32 40 33 41 34 42 95 43 35 44
REMARK SMILES IDX 94 45 36 46 37 47 38 48 88 49 39 50 93 51 87 52 89 53 40 54
REMARK SMILES IDX 92 55 86 56 85 57 41 59 73 60 53 61 72 62 54 63 57 64 71 65
REMARK SMILES IDX 90 66 55 67 56 68 70 70 91 71 58 72 42 73 43 74 51 75 44 76
REMARK SMILES IDX 50 77 52 78 49 79 45 80 46 81 47 82 48 83 74 84 75 85 83 86
REMARK SMILES IDX 76 87 82 88 84 89 81 90 77 91 78 92 79 93 80 94 59 95 60 96
REMARK SMILES IDX 68 97 61 98 67 99 69 100 66 101 62 102 63 103 64 104 65 105
REMARK H PARENT 11 16 6 28 89 58 57 69
REMARK Flexibility Score: inf
ROOT
ATOM      1  C   UNL A   1      44.638  22.725  33.477  1.00  0.00     0.188 C 
ENDROOT
BRANCH   1   2
ATOM      2  C   UNL A   1      44.749  23.978  32.584  1.00  0.00     0.188 C 
BRANCH   2   3
ATOM      3  O   UNL A   1      44.881  23.827  31.184  1.00  0.00    -0.376 OA
BRANCH   3   4
ATOM      4  C   UNL A   1      43.739  23.728  30.335  1.00  0.00     0.202 C 
BRANCH   4   5
ATOM      5  C   UNL A   1      43.615  24.447  28.980  1.00  0.00     0.261 C 
BRANCH   5   6
ATOM      6  O   UNL A   1      43.297  25.835  29.092  1.00  0.00    -0.463 OA
BRANCH   6   7
ATOM      7  C   UNL A   1      42.075  26.186  28.631  1.00  0.00     0.310 C 
ATOM      8  O   UNL A   1      41.036  26.177  29.274  1.00  0.00    -0.252 OA
BRANCH   7   9
ATOM      9  C   UNL A   1      42.149  26.887  27.324  1.00  0.00     0.118 C 
ATOM     10  C   UNL A   1      43.492  27.473  27.027  1.00  0.00     0.100 C 
ATOM     11  C   UNL A   1      42.258  28.357  26.979  1.00  0.00    -0.009 C 
ATOM     12  C   UNL A   1      41.940  29.338  28.078  1.00  0.00     0.013 C 
ATOM     13  C   UNL A   1      41.800  28.829  25.614  1.00  0.00     0.013 C 
BRANCH  10  14
ATOM     14  C   UNL A   1      44.412  27.159  25.908  1.00  0.00     0.228 C 
ATOM     15  N   UNL A   1      44.788  25.964  25.343  1.00  0.00    -0.326 N 
ATOM     16  H   UNL A   1      45.363  26.141  24.563  1.00  0.00     0.169 HD
ATOM     17  O   UNL A   1      44.898  28.141  25.335  1.00  0.00    -0.274 OA
BRANCH  15  18
ATOM     18  C   UNL A   1      44.635  24.579  25.497  1.00  0.00     0.042 A 
ATOM     19  C   UNL A   1      44.072  21.832  25.851  1.00  0.00     0.060 A 
ATOM     20  C   UNL A   1      45.380  22.303  25.911  1.00  0.00     0.030 A 
ATOM     21  C   UNL A   1      43.030  22.738  25.646  1.00  0.00     0.066 A 
ATOM     22  C   UNL A   1      45.650  23.649  25.638  1.00  0.00     0.028 A 
ATOM     23  C   UNL A   1      43.316  24.097  25.463  1.00  0.00     0.048 A 
ATOM     24  Cl  UNL A   1      41.377  22.235  25.610  1.00  0.00    -0.082 Cl
BRANCH  19  25
ATOM     25  N   UNL A   1      43.870  20.454  25.981  1.00  0.00    -0.325 N 
ATOM     26  C   UNL A   1      44.540  19.462  25.321  1.00  0.00     0.226 C 
ATOM     27  O   UNL A   1      44.511  18.329  25.816  1.00  0.00    -0.274 OA
ATOM     28  H   UNL A   1      43.172  20.169  26.614  1.00  0.00     0.169 HD
BRANCH  26  29
ATOM     29  C   UNL A   1      45.297  19.698  24.007  1.00  0.00     0.072 C 
ATOM     30  C   UNL A   1      46.812  19.686  24.161  1.00  0.00     0.018 C 
ATOM     31  C   UNL A   1      44.839  18.827  22.845  1.00  0.00     0.018 C 
ENDBRANCH  26  29
ENDBRANCH  19  25
ENDBRANCH  15  18
ENDBRANCH  10  14
ENDBRANCH   7   9
ENDBRANCH   6   7
ENDBRANCH   5   6
ENDBRANCH   4   5
ENDBRANCH   3   4
ENDBRANCH   2   3
ENDBRANCH   1   2
BRANCH   1  32
ATOM     32  O   UNL A   1      45.745  22.384  34.280  1.00  0.00    -0.377 OA
BRANCH  32  33
ATOM     33  C   UNL A   1      46.280  21.068  34.221  1.00  0.00     0.188 C 
BRANCH  33  34
ATOM     34  C   UNL A   1      46.626  20.272  35.498  1.00  0.00     0.188 C 
BRANCH  34  35
ATOM     35  O   UNL A   1      46.042  20.754  36.699  1.00  0.00    -0.376 OA
BRANCH  35  36
ATOM     36  C   UNL A   1      46.912  21.030  37.788  1.00  0.00     0.202 C 
BRANCH  36  37
ATOM     37  C   UNL A   1      46.510  22.198  38.701  1.00  0.00     0.261 C 
BRANCH  37  38
ATOM     38  O   UNL A   1      45.350  22.942  38.295  1.00  0.00    -0.460 OA
BRANCH  38  39
ATOM     39  C   UNL A   1      45.120  24.124  38.909  1.00  0.00     0.338 C 
ATOM     40  O   UNL A   1      45.338  24.398  40.076  1.00  0.00    -0.246 OA
BRANCH  39  41
ATOM     41  C   UNL A   1      44.740  25.102  37.871  1.00  0.00     0.060 A 
ATOM     42  C   UNL A   1      44.305  24.633  36.624  1.00  0.00     0.016 A 
ATOM     43  C   UNL A   1      44.801  26.472  38.133  1.00  0.00     0.016 A 
ATOM     44  C   UNL A   1      43.965  25.540  35.621  1.00  0.00     0.010 A 
ATOM     45  C   UNL A   1      44.479  27.378  37.120  1.00  0.00     0.010 A 
ATOM     46  C   UNL A   1      44.093  26.916  35.849  1.00  0.00    -0.014 A 
BRANCH  46  47
ATOM     47  C   UNL A   1      44.037  27.862  34.706  1.00  0.00     0.031 A 
ATOM     48  C   UNL A   1      45.311  28.139  33.956  1.00  0.00     0.074 A 
ATOM     49  C   UNL A   1      42.888  28.451  34.333  1.00  0.00     0.049 A 
ATOM     50  N   UNL A   1      45.533  28.957  32.960  1.00  0.00    -0.248 NA
ATOM     51  C   UNL A   1      46.499  27.392  34.401  1.00  0.00     0.031 C 
ATOM     52  C   UNL A   1      41.581  28.222  34.947  1.00  0.00     0.029 A 
ATOM     53  N   UNL A   1      42.639  29.370  33.343  1.00  0.00    -0.354 N 
ATOM     54  C   UNL A   1      46.887  28.833  32.666  1.00  0.00     0.074 A 
ATOM     55  C   UNL A   1      47.439  27.890  33.613  1.00  0.00     0.031 C 
ATOM     56  C   UNL A   1      40.667  28.981  34.317  1.00  0.00     0.029 A 
ATOM     57  C   UNL A   1      41.328  29.781  33.288  1.00  0.00     0.049 A 
ATOM     58  H   UNL A   1      43.335  29.702  32.731  1.00  0.00     0.167 HD
ATOM     59  C   UNL A   1      47.602  29.448  31.691  1.00  0.00     0.034 A 
ATOM     60  C   UNL A   1      40.740  30.713  32.508  1.00  0.00     0.034 A 
ATOM     61  C   UNL A   1      47.038  30.397  30.763  1.00  0.00     0.049 A 
ATOM     62  C   UNL A   1      41.579  31.463  31.498  1.00  0.00     0.074 A 
ATOM     63  C   UNL A   1      47.662  31.057  29.719  1.00  0.00     0.029 A 
ATOM     64  N   UNL A   1      45.721  30.841  30.781  1.00  0.00    -0.354 N 
ATOM     65  N   UNL A   1      42.855  31.326  31.214  1.00  0.00    -0.248 NA
ATOM     66  C   UNL A   1      40.895  32.491  30.704  1.00  0.00     0.031 C 
ATOM     67  C   UNL A   1      46.751  31.961  29.165  1.00  0.00     0.029 A 
ATOM     68  C   UNL A   1      45.529  31.801  29.798  1.00  0.00     0.049 A 
ATOM     69  H   UNL A   1      45.026  30.521  31.401  1.00  0.00     0.167 HD
ATOM     70  C   UNL A   1      43.113  32.224  30.180  1.00  0.00     0.074 A 
ATOM     71  C   UNL A   1      41.859  32.890  29.888  1.00  0.00     0.031 C 
ATOM     72  C   UNL A   1      44.276  32.469  29.523  1.00  0.00     0.034 A 
BRANCH  59  73
ATOM     73  C   UNL A   1      49.084  29.160  31.636  1.00  0.00     0.023 A 
ATOM     74  C   UNL A   1      49.609  28.092  30.885  1.00  0.00     0.031 A 
ATOM     75  C   UNL A   1      49.982  29.935  32.391  1.00  0.00     0.131 A 
ATOM     76  C   UNL A   1      50.973  27.777  30.976  1.00  0.00     0.055 A 
ATOM     77  C   UNL A   1      51.353  29.672  32.404  1.00  0.00     0.041 A 
ATOM     78  F   UNL A   1      49.538  30.950  33.148  1.00  0.00    -0.206 F 
ATOM     79  C   UNL A   1      51.854  28.576  31.708  1.00  0.00     0.022 A 
BRANCH  76  80
ATOM     80  S   UNL A   1      51.549  26.210  30.265  1.00  0.00     0.124 S 
ATOM     81  O   UNL A   1      52.308  26.673  29.106  1.00  0.00    -0.237 OA
ATOM     82  O   UNL A   1      52.332  25.639  31.355  1.00  0.00    -0.237 OA
ATOM     83  O   UNL A   1      50.311  25.503  29.945  1.00  0.00    -0.744 OA
ENDBRANCH  76  80
ENDBRANCH  59  73
BRANCH  60  84
ATOM     84  C   UNL A   1      39.288  31.021  32.660  1.00  0.00     0.023 A 
ATOM     85  C   UNL A   1      38.850  32.016  33.549  1.00  0.00     0.031 A 
ATOM     86  C   UNL A   1      38.312  30.284  31.964  1.00  0.00     0.131 A 
ATOM     87  C   UNL A   1      37.476  32.220  33.750  1.00  0.00     0.055 A 
ATOM     88  C   UNL A   1      36.948  30.529  32.127  1.00  0.00     0.041 A 
ATOM     89  F   UNL A   1      38.675  29.317  31.107  1.00  0.00    -0.206 F 
ATOM     90  C   UNL A   1      36.522  31.494  33.034  1.00  0.00     0.022 A 
BRANCH  87  91
ATOM     91  S   UNL A   1      36.951  33.399  35.024  1.00  0.00     0.124 S 
ATOM     92  O   UNL A   1      35.520  33.499  34.763  1.00  0.00    -0.237 OA
ATOM     93  O   UNL A   1      37.333  32.708  36.252  1.00  0.00    -0.237 OA
ATOM     94  O   UNL A   1      37.728  34.598  34.720  1.00  0.00    -0.744 OA
ENDBRANCH  87  91
ENDBRANCH  60  84
BRANCH  72  95
ATOM     95  C   UNL A   1      44.235  33.464  28.385  1.00  0.00     0.023 A 
ATOM     96  C   UNL A   1      44.333  34.850  28.600  1.00  0.00     0.031 A 
ATOM     97  C   UNL A   1      44.090  33.013  27.060  1.00  0.00     0.131 A 
ATOM     98  C   UNL A   1      44.228  35.736  27.517  1.00  0.00     0.055 A 
ATOM     99  C   UNL A   1      44.054  33.895  25.980  1.00  0.00     0.041 A 
ATOM    100  F   UNL A   1      43.986  31.701  26.792  1.00  0.00    -0.206 F 
ATOM    101  C   UNL A   1      44.110  35.267  26.206  1.00  0.00     0.022 A 
BRANCH  98 102
ATOM    102  S   UNL A   1      44.148  37.517  27.851  1.00  0.00     0.124 S 
ATOM    103  O   UNL A   1      45.543  37.837  28.130  1.00  0.00    -0.237 OA
ATOM    104  O   UNL A   1      43.610  38.045  26.601  1.00  0.00    -0.237 OA
ATOM    105  O   UNL A   1      43.248  37.611  28.999  1.00  0.00    -0.744 OA
ENDBRANCH  98 102
ENDBRANCH  72  95
ENDBRANCH  46  47
ENDBRANCH  39  41
ENDBRANCH  38  39
ENDBRANCH  37  38
ENDBRANCH  36  37
ENDBRANCH  35  36
ENDBRANCH  34  35
ENDBRANCH  33  34
ENDBRANCH  32  33
ENDBRANCH   1  32
TORSDOF 27
ENDMDL
MODEL 3
REMARK VINA RESULT:      -7.9      7.279     13.151
REMARK SMILES CC(C)C(=O)Nc1ccc(NC(=O)[C@@H]2[C@@H](C(=O)OCCOCCOCCOCCOC(=O)c3ccc(-c4c5nc(c(-c6cc(S(=O)(=O)[O-])ccc6F)c6ccc([nH]6)c(-c6cc(S(=O)(=O)[O-])ccc6F)c6nc(c(-c7cc(S(=O)(=O)[O-])ccc7F)c7ccc4[nH]7)C=C6)C=C5)cc3)C2(C)C)cc1Cl
REMARK SMILES IDX 23 1 22 2 21 3 20 4 19 5 18 6 16 7 17 8 15 9 14 10 96 11
REMARK SMILES IDX 97 12 98 13 12 14 11 15 13 17 10 18 7 19 8 20 100 21 9 22
REMARK SMILES IDX 99 23 101 24 6 25 4 26 5 27 2 29 1 30 3 31 24 32 25 33 26 34
REMARK SMILES IDX 27 35 28 36 29 37 30 38 31 39 32 40 33 41 34 42 95 43 35 44
REMARK SMILES IDX 94 45 36 46 37 47 38 48 88 49 39 50 93 51 87 52 89 53 40 54
REMARK SMILES IDX 92 55 86 56 85 57 41 59 73 60 53 61 72 62 54 63 57 64 71 65
REMARK SMILES IDX 90 66 55 67 56 68 70 70 91 71 58 72 42 73 43 74 51 75 44 76
REMARK SMILES IDX 50 77 52 78 49 79 45 80 46 81 47 82 48 83 74 84 75 85 83 86
REMARK SMILES IDX 76 87 82 88 84 89 81 90 77 91 78 92 79 93 80 94 59 95 60 96
REMARK SMILES IDX 68 97 61 98 67 99 69 100 66 101 62 102 63 103 64 104 65 105
REMARK H PARENT 11 16 6 28 89 58 57 69
REMARK Flexibility Score: inf
ROOT
ATOM      1  C   UNL A   1      44.919  26.691  30.958  1.00  0.00     0.188 C 
ENDROOT
BRANCH   1   2
ATOM      2  C   UNL A   1      45.219  27.130  32.406  1.00  0.00     0.188 C 
BRANCH   2   3
ATOM      3  O   UNL A   1      44.848  26.289  33.481  1.00  0.00    -0.376 OA
BRANCH   3   4
ATOM      4  C   UNL A   1      43.856  26.684  34.426  1.00  0.00     0.202 C 
BRANCH   4   5
ATOM      5  C   UNL A   1      42.811  27.782  34.162  1.00  0.00     0.261 C 
BRANCH   5   6
ATOM      6  O   UNL A   1      41.870  27.448  33.141  1.00  0.00    -0.463 OA
BRANCH   6   7
ATOM      7  C   UNL A   1      41.603  28.436  32.257  1.00  0.00     0.310 C 
ATOM      8  O   UNL A   1      42.211  29.490  32.154  1.00  0.00    -0.252 OA
BRANCH   7   9
ATOM      9  C   UNL A   1      40.666  27.996  31.191  1.00  0.00     0.118 C 
ATOM     10  C   UNL A   1      39.831  29.099  30.627  1.00  0.00     0.100 C 
ATOM     11  C   UNL A   1      39.160  27.851  31.177  1.00  0.00    -0.009 C 
ATOM     12  C   UNL A   1      38.465  27.846  32.514  1.00  0.00     0.013 C 
ATOM     13  C   UNL A   1      38.519  26.914  30.173  1.00  0.00     0.013 C 
BRANCH  10  14
ATOM     14  C   UNL A   1      39.780  29.602  29.233  1.00  0.00     0.228 C 
ATOM     15  N   UNL A   1      39.033  30.596  28.649  1.00  0.00    -0.326 N 
ATOM     16  H   UNL A   1      39.317  30.707  27.713  1.00  0.00     0.169 HD
ATOM     17  O   UNL A   1      40.585  29.079  28.455  1.00  0.00    -0.274 OA
BRANCH  15  18
ATOM     18  C   UNL A   1      38.005  31.508  28.928  1.00  0.00     0.042 A 
ATOM     19  C   UNL A   1      35.777  33.197  29.339  1.00  0.00     0.060 A 
ATOM     20  C   UNL A   1      37.064  33.632  29.638  1.00  0.00     0.030 A 
ATOM     21  C   UNL A   1      35.596  31.923  28.799  1.00  0.00     0.066 A 
ATOM     22  C   UNL A   1      38.144  32.751  29.519  1.00  0.00     0.028 A 
ATOM     23  C   UNL A   1      36.704  31.086  28.606  1.00  0.00     0.048 A 
ATOM     24  Cl  UNL A   1      34.034  31.331  28.356  1.00  0.00    -0.082 Cl
BRANCH  19  25
ATOM     25  N   UNL A   1      34.715  34.064  29.617  1.00  0.00    -0.325 N 
ATOM     26  C   UNL A   1      34.436  34.661  30.816  1.00  0.00     0.226 C 
ATOM     27  O   UNL A   1      33.716  35.666  30.797  1.00  0.00    -0.274 OA
ATOM     28  H   UNL A   1      34.104  34.267  28.872  1.00  0.00     0.169 HD
BRANCH  26  29
ATOM     29  C   UNL A   1      34.963  34.127  32.154  1.00  0.00     0.072 C 
ATOM     30  C   UNL A   1      34.911  35.146  33.285  1.00  0.00     0.018 C 
ATOM     31  C   UNL A   1      34.381  32.784  32.576  1.00  0.00     0.018 C 
ENDBRANCH  26  29
ENDBRANCH  19  25
ENDBRANCH  15  18
ENDBRANCH  10  14
ENDBRANCH   7   9
ENDBRANCH   6   7
ENDBRANCH   5   6
ENDBRANCH   4   5
ENDBRANCH   3   4
ENDBRANCH   2   3
ENDBRANCH   1   2
BRANCH   1  32
ATOM     32  O   UNL A   1      44.106  25.555  30.765  1.00  0.00    -0.377 OA
BRANCH  32  33
ATOM     33  C   UNL A   1      44.178  24.836  29.541  1.00  0.00     0.188 C 
BRANCH  33  34
ATOM     34  C   UNL A   1      43.040  23.903  29.077  1.00  0.00     0.188 C 
BRANCH  34  35
ATOM     35  O   UNL A   1      42.788  23.888  27.680  1.00  0.00    -0.376 OA
BRANCH  35  36
ATOM     36  C   UNL A   1      41.592  24.503  27.221  1.00  0.00     0.202 C 
BRANCH  36  37
ATOM     37  C   UNL A   1      41.494  26.025  27.405  1.00  0.00     0.261 C 
BRANCH  37  38
ATOM     38  O   UNL A   1      41.998  26.822  26.321  1.00  0.00    -0.460 OA
BRANCH  38  39
ATOM     39  C   UNL A   1      43.337  26.984  26.237  1.00  0.00     0.338 C 
ATOM     40  O   UNL A   1      44.138  26.217  25.730  1.00  0.00    -0.246 OA
BRANCH  39  41
ATOM     41  C   UNL A   1      43.653  28.352  26.691  1.00  0.00     0.060 A 
ATOM     42  C   UNL A   1      44.650  28.533  27.659  1.00  0.00     0.016 A 
ATOM     43  C   UNL A   1      42.977  29.450  26.155  1.00  0.00     0.016 A 
ATOM     44  C   UNL A   1      44.947  29.815  28.121  1.00  0.00     0.010 A 
ATOM     45  C   UNL A   1      43.262  30.730  26.633  1.00  0.00     0.010 A 
ATOM     46  C   UNL A   1      44.223  30.915  27.642  1.00  0.00    -0.014 A 
BRANCH  46  47
ATOM     47  C   UNL A   1      44.313  32.219  28.346  1.00  0.00     0.031 A 
ATOM     48  C   UNL A   1      45.359  33.199  27.885  1.00  0.00     0.074 A 
ATOM     49  C   UNL A   1      43.485  32.535  29.356  1.00  0.00     0.049 A 
ATOM     50  N   UNL A   1      45.668  34.376  28.365  1.00  0.00    -0.248 NA
ATOM     51  C   UNL A   1      46.168  32.785  26.729  1.00  0.00     0.031 C 
ATOM     52  C   UNL A   1      42.400  31.693  29.856  1.00  0.00     0.029 A 
ATOM     53  N   UNL A   1      43.432  33.656  30.147  1.00  0.00    -0.354 N 
ATOM     54  C   UNL A   1      46.717  34.839  27.576  1.00  0.00     0.074 A 
ATOM     55  C   UNL A   1      47.011  33.799  26.614  1.00  0.00     0.031 C 
ATOM     56  C   UNL A   1      41.789  32.329  30.870  1.00  0.00     0.029 A 
ATOM     57  C   UNL A   1      42.463  33.601  31.121  1.00  0.00     0.049 A 
ATOM     58  H   UNL A   1      44.034  34.427  30.027  1.00  0.00     0.167 HD
ATOM     59  C   UNL A   1      47.371  36.025  27.647  1.00  0.00     0.034 A 
ATOM     60  C   UNL A   1      42.173  34.471  32.111  1.00  0.00     0.034 A 
ATOM     61  C   UNL A   1      47.074  37.045  28.622  1.00  0.00     0.049 A 
ATOM     62  C   UNL A   1      42.985  35.741  32.236  1.00  0.00     0.074 A 
ATOM     63  C   UNL A   1      47.652  38.294  28.766  1.00  0.00     0.029 A 
ATOM     64  N   UNL A   1      46.131  36.926  29.637  1.00  0.00    -0.354 N 
ATOM     65  N   UNL A   1      43.963  36.179  31.475  1.00  0.00    -0.248 NA
ATOM     66  C   UNL A   1      42.650  36.632  33.354  1.00  0.00     0.031 C 
ATOM     67  C   UNL A   1      47.124  38.891  29.915  1.00  0.00     0.029 A 
ATOM     68  C   UNL A   1      46.147  38.058  30.437  1.00  0.00     0.049 A 
ATOM     69  H   UNL A   1      45.538  36.151  29.767  1.00  0.00     0.167 HD
ATOM     70  C   UNL A   1      44.330  37.416  32.001  1.00  0.00     0.074 A 
ATOM     71  C   UNL A   1      43.464  37.655  33.139  1.00  0.00     0.031 C 
ATOM     72  C   UNL A   1      45.288  38.282  31.578  1.00  0.00     0.034 A 
BRANCH  59  73
ATOM     73  C   UNL A   1      48.516  36.240  26.685  1.00  0.00     0.023 A 
ATOM     74  C   UNL A   1      49.774  35.640  26.877  1.00  0.00     0.031 A 
ATOM     75  C   UNL A   1      48.362  37.104  25.586  1.00  0.00     0.131 A 
ATOM     76  C   UNL A   1      50.846  35.980  26.038  1.00  0.00     0.055 A 
ATOM     77  C   UNL A   1      49.409  37.367  24.701  1.00  0.00     0.041 A 
ATOM     78  F   UNL A   1      47.193  37.728  25.366  1.00  0.00    -0.206 F 
ATOM     79  C   UNL A   1      50.666  36.817  24.935  1.00  0.00     0.022 A 
BRANCH  76  80
ATOM     80  S   UNL A   1      52.516  35.450  26.510  1.00  0.00     0.124 S 
ATOM     81  O   UNL A   1      52.378  33.996  26.499  1.00  0.00    -0.237 OA
ATOM     82  O   UNL A   1      53.339  36.022  25.450  1.00  0.00    -0.237 OA
ATOM     83  O   UNL A   1      52.701  36.040  27.834  1.00  0.00    -0.744 OA
ENDBRANCH  76  80
ENDBRANCH  59  73
BRANCH  60  84
ATOM     84  C   UNL A   1      41.086  34.172  33.088  1.00  0.00     0.023 A 
ATOM     85  C   UNL A   1      41.376  33.604  34.339  1.00  0.00     0.031 A 
ATOM     86  C   UNL A   1      39.735  34.394  32.762  1.00  0.00     0.131 A 
ATOM     87  C   UNL A   1      40.330  33.239  35.201  1.00  0.00     0.055 A 
ATOM     88  C   UNL A   1      38.702  34.079  33.646  1.00  0.00     0.041 A 
ATOM     89  F   UNL A   1      39.402  34.929  31.577  1.00  0.00    -0.206 F 
ATOM     90  C   UNL A   1      38.996  33.486  34.870  1.00  0.00     0.022 A 
BRANCH  87  91
ATOM     91  S   UNL A   1      40.737  32.359  36.735  1.00  0.00     0.124 S 
ATOM     92  O   UNL A   1      42.157  32.656  36.879  1.00  0.00    -0.237 OA
ATOM     93  O   UNL A   1      39.847  33.000  37.697  1.00  0.00    -0.237 OA
ATOM     94  O   UNL A   1      40.416  30.968  36.424  1.00  0.00    -0.744 OA
ENDBRANCH  87  91
ENDBRANCH  60  84
BRANCH  72  95
ATOM     95  C   UNL A   1      45.412  39.595  32.318  1.00  0.00     0.023 A 
ATOM     96  C   UNL A   1      44.549  40.676  32.070  1.00  0.00     0.031 A 
ATOM     97  C   UNL A   1      46.418  39.765  33.287  1.00  0.00     0.131 A 
ATOM     98  C   UNL A   1      44.742  41.894  32.739  1.00  0.00     0.055 A 
ATOM     99  C   UNL A   1      46.564  40.956  33.998  1.00  0.00     0.041 A 
ATOM    100  F   UNL A   1      47.276  38.770  33.564  1.00  0.00    -0.206 F 
ATOM    101  C   UNL A   1      45.732  42.035  33.716  1.00  0.00     0.022 A 
BRANCH  98 102
ATOM    102  S   UNL A   1      43.748  43.329  32.245  1.00  0.00     0.124 S 
ATOM    103  O   UNL A   1      43.195  43.770  33.521  1.00  0.00    -0.237 OA
ATOM    104  O   UNL A   1      44.746  44.209  31.645  1.00  0.00    -0.237 OA
ATOM    105  O   UNL A   1      42.776  42.768  31.308  1.00  0.00    -0.744 OA
ENDBRANCH  98 102
ENDBRANCH  72  95
ENDBRANCH  46  47
ENDBRANCH  39  41
ENDBRANCH  38  39
ENDBRANCH  37  38
ENDBRANCH  36  37
ENDBRANCH  35  36
ENDBRANCH  34  35
ENDBRANCH  33  34
ENDBRANCH  32  33
ENDBRANCH   1  32
TORSDOF 27
ENDMDL
