MODEL 1
REMARK VINA RESULT:      -9.9      0.000      0.000
REMARK SMILES CC(C)(C)c1cc2c(cc1Cl)C=C(C(=O)OCCOCCOCCOCCOC(=O)c1ccc(-c3c4nc(c(-c5cc(S(=O)(=O)[O-])ccc5F)c5ccc([nH]5)c(-c5cc(S(=O)(=O)[O-])ccc5F)c5nc(c(-c6cc(S(=O)(=O)[O-])ccc6F)c6ccc3[nH]6)C=C5)C=C4)cc1)[C@@H](C(F)(F)F)O2
REMARK SMILES IDX 23 1 22 2 21 3 20 4 19 5 18 6 17 7 16 8 14 9 15 10 13 11
REMARK SMILES IDX 5 12 6 13 10 14 7 15 9 16 11 17 8 18 99 19 12 20 94 21 2 22
REMARK SMILES IDX 1 23 3 24 4 25 95 26 96 27 97 28 98 29 24 30 25 31 26 32
REMARK SMILES IDX 27 33 28 34 29 35 30 36 31 37 32 38 93 39 33 40 92 41 34 42
REMARK SMILES IDX 35 43 36 44 86 45 37 46 91 47 85 48 87 49 38 50 90 51 84 52
REMARK SMILES IDX 83 53 39 55 71 56 51 57 70 58 52 59 55 60 69 61 88 62 53 63
REMARK SMILES IDX 54 64 68 66 89 67 56 68 40 69 41 70 49 71 42 72 48 73 50 74
REMARK SMILES IDX 47 75 43 76 44 77 45 78 46 79 72 80 73 81 81 82 74 83 80 84
REMARK SMILES IDX 82 85 79 86 75 87 76 88 77 89 78 90 57 91 58 92 66 93 59 94
REMARK SMILES IDX 65 95 67 96 64 97 60 98 61 99 62 100 63 101
REMARK H PARENT 87 54 55 65
REMARK Flexibility Score: inf
ROOT
ATOM      1  C   UNL A   1      36.558  22.505  25.364  1.00  0.00     0.188 C 
ENDROOT
BRANCH   1   2
ATOM      2  O   UNL A   1      36.501  23.915  25.143  1.00  0.00    -0.377 OA
BRANCH   2   3
ATOM      3  C   UNL A   1      35.315  24.426  24.554  1.00  0.00     0.188 C 
BRANCH   3   4
ATOM      4  C   UNL A   1      35.022  23.782  23.187  1.00  0.00     0.188 C 
BRANCH   4   5
ATOM      5  O   UNL A   1      34.238  24.612  22.339  1.00  0.00    -0.376 OA
BRANCH   5   6
ATOM      6  C   UNL A   1      33.861  25.901  22.809  1.00  0.00     0.202 C 
BRANCH   6   7
ATOM      7  C   UNL A   1      32.385  26.337  22.777  1.00  0.00     0.261 C 
BRANCH   7   8
ATOM      8  O   UNL A   1      31.652  26.170  24.000  1.00  0.00    -0.460 OA
BRANCH   8   9
ATOM      9  C   UNL A   1      30.716  25.208  24.055  1.00  0.00     0.338 C 
ATOM     10  O   UNL A   1      29.527  25.324  23.814  1.00  0.00    -0.246 OA
BRANCH   9  11
ATOM     11  C   UNL A   1      31.414  23.920  24.275  1.00  0.00     0.087 C 
ATOM     12  C   UNL A   1      33.002  19.128  24.031  1.00  0.00    -0.020 A 
ATOM     13  C   UNL A   1      33.176  20.211  24.927  1.00  0.00     0.053 A 
ATOM     14  C   UNL A   1      32.460  19.459  22.771  1.00  0.00     0.045 A 
ATOM     15  C   UNL A   1      32.674  21.491  24.669  1.00  0.00     0.128 A 
ATOM     16  C   UNL A   1      31.938  20.741  22.521  1.00  0.00     0.032 A 
ATOM     17  Cl  UNL A   1      32.415  18.391  21.414  1.00  0.00    -0.084 Cl
ATOM     18  C   UNL A   1      31.988  21.738  23.492  1.00  0.00     0.019 A 
ATOM     19  O   UNL A   1      32.875  22.422  25.643  1.00  0.00    -0.475 OA
ATOM     20  C   UNL A   1      31.302  23.003  23.306  1.00  0.00     0.027 C 
ATOM     21  C   UNL A   1      32.276  23.742  25.502  1.00  0.00     0.316 C 
BRANCH  12  22
ATOM     22  C   UNL A   1      33.395  17.704  24.503  1.00  0.00    -0.012 C 
ATOM     23  C   UNL A   1      34.920  17.481  24.662  1.00  0.00     0.016 C 
ATOM     24  C   UNL A   1      32.956  16.620  23.476  1.00  0.00     0.016 C 
ATOM     25  C   UNL A   1      32.699  17.405  25.842  1.00  0.00     0.016 C 
ENDBRANCH  12  22
BRANCH  21  26
ATOM     26  C   UNL A   1      31.519  24.048  26.803  1.00  0.00     0.430 C 
ATOM     27  F   UNL A   1      31.534  25.373  27.079  1.00  0.00    -0.167 F 
ATOM     28  F   UNL A   1      30.223  23.672  26.743  1.00  0.00    -0.167 F 
ATOM     29  F   UNL A   1      32.076  23.410  27.860  1.00  0.00    -0.167 F 
ENDBRANCH  21  26
ENDBRANCH   9  11
ENDBRANCH   8   9
ENDBRANCH   7   8
ENDBRANCH   6   7
ENDBRANCH   5   6
ENDBRANCH   4   5
ENDBRANCH   3   4
ENDBRANCH   2   3
ENDBRANCH   1   2
BRANCH   1  30
ATOM     30  C   UNL A   1      37.914  21.764  25.397  1.00  0.00     0.188 C 
BRANCH  30  31
ATOM     31  O   UNL A   1      37.821  20.385  25.035  1.00  0.00    -0.376 OA
BRANCH  31  32
ATOM     32  C   UNL A   1      38.914  19.555  25.404  1.00  0.00     0.202 C 
BRANCH  32  33
ATOM     33  C   UNL A   1      40.004  20.278  26.206  1.00  0.00     0.261 C 
BRANCH  33  34
ATOM     34  O   UNL A   1      41.211  19.530  26.413  1.00  0.00    -0.460 OA
BRANCH  34  35
ATOM     35  C   UNL A   1      42.361  20.035  25.912  1.00  0.00     0.338 C 
ATOM     36  O   UNL A   1      43.088  19.517  25.083  1.00  0.00    -0.246 OA
BRANCH  35  37
ATOM     37  C   UNL A   1      42.475  21.429  26.395  1.00  0.00     0.060 A 
ATOM     38  C   UNL A   1      42.545  21.694  27.765  1.00  0.00     0.016 A 
ATOM     39  C   UNL A   1      42.464  22.478  25.468  1.00  0.00     0.016 A 
ATOM     40  C   UNL A   1      42.635  23.014  28.207  1.00  0.00     0.010 A 
ATOM     41  C   UNL A   1      42.551  23.800  25.913  1.00  0.00     0.010 A 
ATOM     42  C   UNL A   1      42.660  24.076  27.284  1.00  0.00    -0.014 A 
BRANCH  42  43
ATOM     43  C   UNL A   1      43.014  25.436  27.757  1.00  0.00     0.031 A 
ATOM     44  C   UNL A   1      44.405  25.980  27.673  1.00  0.00     0.074 A 
ATOM     45  C   UNL A   1      42.021  26.188  28.271  1.00  0.00     0.049 A 
ATOM     46  N   UNL A   1      44.823  27.192  27.936  1.00  0.00    -0.248 NA
ATOM     47  C   UNL A   1      45.464  25.055  27.249  1.00  0.00     0.031 C 
ATOM     48  C   UNL A   1      40.639  25.734  28.433  1.00  0.00     0.029 A 
ATOM     49  N   UNL A   1      42.010  27.476  28.739  1.00  0.00    -0.354 N 
ATOM     50  C   UNL A   1      46.189  27.189  27.688  1.00  0.00     0.074 A 
ATOM     51  C   UNL A   1      46.538  25.836  27.302  1.00  0.00     0.031 C 
ATOM     52  C   UNL A   1      39.908  26.735  28.941  1.00  0.00     0.029 A 
ATOM     53  C   UNL A   1      40.771  27.894  29.166  1.00  0.00     0.049 A 
ATOM     54  H   UNL A   1      42.810  28.048  28.767  1.00  0.00     0.167 HD
ATOM     55  C   UNL A   1      47.058  28.228  27.759  1.00  0.00     0.034 A 
ATOM     56  C   UNL A   1      40.364  29.075  29.673  1.00  0.00     0.034 A 
ATOM     57  C   UNL A   1      46.686  29.564  28.164  1.00  0.00     0.049 A 
ATOM     58  C   UNL A   1      41.356  30.205  29.763  1.00  0.00     0.074 A 
ATOM     59  C   UNL A   1      47.483  30.695  28.208  1.00  0.00     0.029 A 
ATOM     60  N   UNL A   1      45.428  29.950  28.609  1.00  0.00    -0.354 N 
ATOM     61  N   UNL A   1      42.616  30.224  29.401  1.00  0.00    -0.248 NA
ATOM     62  C   UNL A   1      40.871  31.479  30.310  1.00  0.00     0.031 C 
ATOM     63  C   UNL A   1      46.733  31.741  28.747  1.00  0.00     0.029 A 
ATOM     64  C   UNL A   1      45.442  31.290  28.967  1.00  0.00     0.049 A 
ATOM     65  H   UNL A   1      44.642  29.360  28.663  1.00  0.00     0.167 HD
ATOM     66  C   UNL A   1      43.070  31.514  29.657  1.00  0.00     0.074 A 
ATOM     67  C   UNL A   1      41.939  32.254  30.176  1.00  0.00     0.031 C 
ATOM     68  C   UNL A   1      44.313  32.032  29.484  1.00  0.00     0.034 A 
BRANCH  55  69
ATOM     69  C   UNL A   1      48.499  28.003  27.365  1.00  0.00     0.023 A 
ATOM     70  C   UNL A   1      48.911  28.206  26.033  1.00  0.00     0.031 A 
ATOM     71  C   UNL A   1      49.416  27.430  28.264  1.00  0.00     0.131 A 
ATOM     72  C   UNL A   1      50.190  27.800  25.629  1.00  0.00     0.055 A 
ATOM     73  C   UNL A   1      50.704  27.065  27.866  1.00  0.00     0.041 A 
ATOM     74  F   UNL A   1      49.071  27.207  29.542  1.00  0.00    -0.206 F 
ATOM     75  C   UNL A   1      51.090  27.236  26.541  1.00  0.00     0.022 A 
BRANCH  72  76
ATOM     76  S   UNL A   1      50.710  27.913  23.895  1.00  0.00     0.124 S 
ATOM     77  O   UNL A   1      49.432  27.829  23.193  1.00  0.00    -0.237 OA
ATOM     78  O   UNL A   1      51.357  29.222  23.856  1.00  0.00    -0.237 OA
ATOM     79  O   UNL A   1      51.594  26.767  23.718  1.00  0.00    -0.744 OA
ENDBRANCH  72  76
ENDBRANCH  55  69
BRANCH  56  80
ATOM     80  C   UNL A   1      38.931  29.241  30.049  1.00  0.00     0.023 A 
ATOM     81  C   UNL A   1      38.034  29.901  29.190  1.00  0.00     0.031 A 
ATOM     82  C   UNL A   1      38.473  28.862  31.320  1.00  0.00     0.131 A 
ATOM     83  C   UNL A   1      36.749  30.227  29.641  1.00  0.00     0.055 A 
ATOM     84  C   UNL A   1      37.167  29.121  31.739  1.00  0.00     0.041 A 
ATOM     85  F   UNL A   1      39.298  28.247  32.181  1.00  0.00    -0.206 F 
ATOM     86  C   UNL A   1      36.303  29.825  30.905  1.00  0.00     0.022 A 
BRANCH  83  87
ATOM     87  S   UNL A   1      35.667  31.309  28.666  1.00  0.00     0.124 S 
ATOM     88  O   UNL A   1      36.630  32.076  27.883  1.00  0.00    -0.237 OA
ATOM     89  O   UNL A   1      34.874  30.338  27.915  1.00  0.00    -0.237 OA
ATOM     90  O   UNL A   1      34.931  32.061  29.676  1.00  0.00    -0.744 OA
ENDBRANCH  83  87
ENDBRANCH  56  80
BRANCH  68  91
ATOM     91  C   UNL A   1      44.554  33.475  29.865  1.00  0.00     0.023 A 
ATOM     92  C   UNL A   1      44.957  33.804  31.175  1.00  0.00     0.031 A 
ATOM     93  C   UNL A   1      44.245  34.527  28.984  1.00  0.00     0.131 A 
ATOM     94  C   UNL A   1      44.997  35.146  31.577  1.00  0.00     0.055 A 
ATOM     95  C   UNL A   1      44.338  35.864  29.374  1.00  0.00     0.041 A 
ATOM     96  F   UNL A   1      43.847  34.269  27.728  1.00  0.00    -0.206 F 
ATOM     97  C   UNL A   1      44.700  36.178  30.680  1.00  0.00     0.022 A 
BRANCH  94  98
ATOM     98  S   UNL A   1      45.345  35.600  33.299  1.00  0.00     0.124 S 
ATOM     99  O   UNL A   1      45.367  37.059  33.229  1.00  0.00    -0.237 OA
ATOM    100  O   UNL A   1      44.203  35.027  34.005  1.00  0.00    -0.237 OA
ATOM    101  O   UNL A   1      46.634  34.973  33.575  1.00  0.00    -0.744 OA
ENDBRANCH  94  98
ENDBRANCH  68  91
ENDBRANCH  42  43
ENDBRANCH  35  37
ENDBRANCH  34  35
ENDBRANCH  33  34
ENDBRANCH  32  33
ENDBRANCH  31  32
ENDBRANCH  30  31
ENDBRANCH   1  30
TORSDOF 25
ENDMDL
MODEL 2
REMARK VINA RESULT:      -9.9      2.482      7.646
REMARK SMILES CC(C)(C)c1cc2c(cc1Cl)C=C(C(=O)OCCOCCOCCOCCOC(=O)c1ccc(-c3c4nc(c(-c5cc(S(=O)(=O)[O-])ccc5F)c5ccc([nH]5)c(-c5cc(S(=O)(=O)[O-])ccc5F)c5nc(c(-c6cc(S(=O)(=O)[O-])ccc6F)c6ccc3[nH]6)C=C5)C=C4)cc1)[C@@H](C(F)(F)F)O2
REMARK SMILES IDX 23 1 22 2 21 3 20 4 19 5 18 6 17 7 16 8 14 9 15 10 13 11
REMARK SMILES IDX 5 12 6 13 10 14 7 15 9 16 11 17 8 18 99 19 12 20 94 21 2 22
REMARK SMILES IDX 1 23 3 24 4 25 95 26 96 27 97 28 98 29 24 30 25 31 26 32
REMARK SMILES IDX 27 33 28 34 29 35 30 36 31 37 32 38 93 39 33 40 92 41 34 42
REMARK SMILES IDX 35 43 36 44 86 45 37 46 91 47 85 48 87 49 38 50 90 51 84 52
REMARK SMILES IDX 83 53 39 55 71 56 51 57 70 58 52 59 55 60 69 61 88 62 53 63
REMARK SMILES IDX 54 64 68 66 89 67 56 68 40 69 41 70 49 71 42 72 48 73 50 74
REMARK SMILES IDX 47 75 43 76 44 77 45 78 46 79 72 80 73 81 81 82 74 83 80 84
REMARK SMILES IDX 82 85 79 86 75 87 76 88 77 89 78 90 57 91 58 92 66 93 59 94
REMARK SMILES IDX 65 95 67 96 64 97 60 98 61 99 62 100 63 101
REMARK H PARENT 87 54 55 65
REMARK Flexibility Score: inf
ROOT
ATOM      1  C   UNL A   1      36.173  22.755  25.388  1.00  0.00     0.188 C 
ENDROOT
BRANCH   1   2
ATOM      2  O   UNL A   1      36.051  24.171  25.527  1.00  0.00    -0.377 OA
BRANCH   2   3
ATOM      3  C   UNL A   1      35.097  24.818  24.700  1.00  0.00     0.188 C 
BRANCH   3   4
ATOM      4  C   UNL A   1      34.956  24.132  23.328  1.00  0.00     0.188 C 
BRANCH   4   5
ATOM      5  O   UNL A   1      34.109  24.845  22.436  1.00  0.00    -0.376 OA
BRANCH   5   6
ATOM      6  C   UNL A   1      33.709  26.165  22.784  1.00  0.00     0.202 C 
BRANCH   6   7
ATOM      7  C   UNL A   1      32.215  26.529  22.860  1.00  0.00     0.261 C 
BRANCH   7   8
ATOM      8  O   UNL A   1      31.549  26.210  24.090  1.00  0.00    -0.460 OA
BRANCH   8   9
ATOM      9  C   UNL A   1      30.622  25.238  24.079  1.00  0.00     0.338 C 
ATOM     10  O   UNL A   1      29.438  25.353  23.816  1.00  0.00    -0.246 OA
BRANCH   9  11
ATOM     11  C   UNL A   1      31.328  23.948  24.256  1.00  0.00     0.087 C 
ATOM     12  C   UNL A   1      32.938  19.173  23.858  1.00  0.00    -0.020 A 
ATOM     13  C   UNL A   1      33.114  20.230  24.784  1.00  0.00     0.053 A 
ATOM     14  C   UNL A   1      32.384  19.538  22.613  1.00  0.00     0.045 A 
ATOM     15  C   UNL A   1      32.604  21.514  24.568  1.00  0.00     0.128 A 
ATOM     16  C   UNL A   1      31.854  20.824  22.405  1.00  0.00     0.032 A 
ATOM     17  Cl  UNL A   1      32.333  18.509  21.225  1.00  0.00    -0.084 Cl
ATOM     18  C   UNL A   1      31.907  21.792  23.405  1.00  0.00     0.019 A 
ATOM     19  O   UNL A   1      32.808  22.417  25.568  1.00  0.00    -0.475 OA
ATOM     20  C   UNL A   1      31.213  23.059  23.261  1.00  0.00     0.027 C 
ATOM     21  C   UNL A   1      32.201  23.738  25.470  1.00  0.00     0.316 C 
BRANCH  12  22
ATOM     22  C   UNL A   1      33.343  17.738  24.285  1.00  0.00    -0.012 C 
ATOM     23  C   UNL A   1      34.769  17.624  24.878  1.00  0.00     0.016 C 
ATOM     24  C   UNL A   1      33.355  16.763  23.071  1.00  0.00     0.016 C 
ATOM     25  C   UNL A   1      32.326  17.211  25.312  1.00  0.00     0.016 C 
ENDBRANCH  12  22
BRANCH  21  26
ATOM     26  C   UNL A   1      31.453  24.002  26.786  1.00  0.00     0.430 C 
ATOM     27  F   UNL A   1      31.977  23.274  27.800  1.00  0.00    -0.167 F 
ATOM     28  F   UNL A   1      31.513  25.299  27.159  1.00  0.00    -0.167 F 
ATOM     29  F   UNL A   1      30.144  23.669  26.685  1.00  0.00    -0.167 F 
ENDBRANCH  21  26
ENDBRANCH   9  11
ENDBRANCH   8   9
ENDBRANCH   7   8
ENDBRANCH   6   7
ENDBRANCH   5   6
ENDBRANCH   4   5
ENDBRANCH   3   4
ENDBRANCH   2   3
ENDBRANCH   1   2
BRANCH   1  30
ATOM     30  C   UNL A   1      37.559  22.093  25.220  1.00  0.00     0.188 C 
BRANCH  30  31
ATOM     31  O   UNL A   1      37.494  20.726  24.810  1.00  0.00    -0.376 OA
BRANCH  31  32
ATOM     32  C   UNL A   1      38.547  19.879  25.250  1.00  0.00     0.202 C 
BRANCH  32  33
ATOM     33  C   UNL A   1      39.611  20.591  26.094  1.00  0.00     0.261 C 
BRANCH  33  34
ATOM     34  O   UNL A   1      40.545  19.730  26.761  1.00  0.00    -0.460 OA
BRANCH  34  35
ATOM     35  C   UNL A   1      41.809  19.677  26.284  1.00  0.00     0.338 C 
ATOM     36  O   UNL A   1      42.315  18.767  25.653  1.00  0.00    -0.246 OA
BRANCH  35  37
ATOM     37  C   UNL A   1      42.408  21.015  26.483  1.00  0.00     0.060 A 
ATOM     38  C   UNL A   1      42.743  21.806  25.381  1.00  0.00     0.016 A 
ATOM     39  C   UNL A   1      42.676  21.459  27.783  1.00  0.00     0.016 A 
ATOM     40  C   UNL A   1      43.322  23.059  25.583  1.00  0.00     0.010 A 
ATOM     41  C   UNL A   1      43.260  22.714  27.984  1.00  0.00     0.010 A 
ATOM     42  C   UNL A   1      43.565  23.531  26.885  1.00  0.00    -0.014 A 
BRANCH  42  43
ATOM     43  C   UNL A   1      43.936  24.953  27.081  1.00  0.00     0.031 A 
ATOM     44  C   UNL A   1      42.971  25.972  27.601  1.00  0.00     0.074 A 
ATOM     45  C   UNL A   1      45.199  25.309  26.776  1.00  0.00     0.049 A 
ATOM     46  N   UNL A   1      43.201  27.217  27.932  1.00  0.00    -0.248 NA
ATOM     47  C   UNL A   1      41.573  25.552  27.763  1.00  0.00     0.031 C 
ATOM     48  C   UNL A   1      46.205  24.399  26.226  1.00  0.00     0.029 A 
ATOM     49  N   UNL A   1      45.856  26.507  26.889  1.00  0.00    -0.354 N 
ATOM     50  C   UNL A   1      41.985  27.728  28.367  1.00  0.00     0.074 A 
ATOM     51  C   UNL A   1      41.009  26.670  28.207  1.00  0.00     0.031 C 
ATOM     52  C   UNL A   1      47.357  25.063  26.071  1.00  0.00     0.029 A 
ATOM     53  C   UNL A   1      47.169  26.453  26.485  1.00  0.00     0.049 A 
ATOM     54  H   UNL A   1      45.429  27.327  27.226  1.00  0.00     0.167 HD
ATOM     55  C   UNL A   1      41.725  28.960  28.870  1.00  0.00     0.034 A 
ATOM     56  C   UNL A   1      48.123  27.405  26.456  1.00  0.00     0.034 A 
ATOM     57  C   UNL A   1      42.716  30.003  29.003  1.00  0.00     0.049 A 
ATOM     58  C   UNL A   1      47.799  28.772  26.999  1.00  0.00     0.074 A 
ATOM     59  C   UNL A   1      42.560  31.263  29.558  1.00  0.00     0.029 A 
ATOM     60  N   UNL A   1      44.032  29.925  28.567  1.00  0.00    -0.354 N 
ATOM     61  N   UNL A   1      46.680  29.203  27.530  1.00  0.00    -0.248 NA
ATOM     62  C   UNL A   1      48.869  29.778  26.961  1.00  0.00     0.031 C 
ATOM     63  C   UNL A   1      43.752  31.968  29.390  1.00  0.00     0.029 A 
ATOM     64  C   UNL A   1      44.683  31.126  28.803  1.00  0.00     0.049 A 
ATOM     65  H   UNL A   1      44.442  29.133  28.150  1.00  0.00     0.167 HD
ATOM     66  C   UNL A   1      46.915  30.522  27.906  1.00  0.00     0.074 A 
ATOM     67  C   UNL A   1      48.294  30.807  27.570  1.00  0.00     0.031 C 
ATOM     68  C   UNL A   1      46.061  31.413  28.471  1.00  0.00     0.034 A 
BRANCH  55  69
ATOM     69  C   UNL A   1      40.328  29.270  29.357  1.00  0.00     0.023 A 
ATOM     70  C   UNL A   1      40.045  29.291  30.736  1.00  0.00     0.031 A 
ATOM     71  C   UNL A   1      39.253  29.375  28.457  1.00  0.00     0.131 A 
ATOM     72  C   UNL A   1      38.716  29.372  31.174  1.00  0.00     0.055 A 
ATOM     73  C   UNL A   1      37.934  29.497  28.898  1.00  0.00     0.041 A 
ATOM     74  F   UNL A   1      39.468  29.351  27.131  1.00  0.00    -0.206 F 
ATOM     75  C   UNL A   1      37.660  29.481  30.262  1.00  0.00     0.022 A 
BRANCH  72  76
ATOM     76  S   UNL A   1      38.297  29.261  32.936  1.00  0.00     0.124 S 
ATOM     77  O   UNL A   1      39.617  29.150  33.552  1.00  0.00    -0.237 OA
ATOM     78  O   UNL A   1      37.607  30.528  33.166  1.00  0.00    -0.237 OA
ATOM     79  O   UNL A   1      37.467  28.065  33.025  1.00  0.00    -0.744 OA
ENDBRANCH  72  76
ENDBRANCH  55  69
BRANCH  56  80
ATOM     80  C   UNL A   1      49.483  27.046  25.963  1.00  0.00     0.023 A 
ATOM     81  C   UNL A   1      50.525  26.766  26.866  1.00  0.00     0.031 A 
ATOM     82  C   UNL A   1      49.791  27.106  24.595  1.00  0.00     0.131 A 
ATOM     83  C   UNL A   1      51.837  26.631  26.396  1.00  0.00     0.055 A 
ATOM     84  C   UNL A   1      51.088  26.895  24.123  1.00  0.00     0.041 A 
ATOM     85  F   UNL A   1      48.835  27.388  23.698  1.00  0.00    -0.206 F 
ATOM     86  C   UNL A   1      52.123  26.676  25.027  1.00  0.00     0.022 A 
BRANCH  83  87
ATOM     87  S   UNL A   1      53.234  26.543  27.551  1.00  0.00     0.124 S 
ATOM     88  O   UNL A   1      53.984  25.403  27.035  1.00  0.00    -0.237 OA
ATOM     89  O   UNL A   1      53.861  27.849  27.361  1.00  0.00    -0.237 OA
ATOM     90  O   UNL A   1      52.596  26.346  28.848  1.00  0.00    -0.744 OA
ENDBRANCH  83  87
ENDBRANCH  56  80
BRANCH  68  91
ATOM     91  C   UNL A   1      46.564  32.809  28.765  1.00  0.00     0.023 A 
ATOM     92  C   UNL A   1      46.595  33.781  27.745  1.00  0.00     0.031 A 
ATOM     93  C   UNL A   1      47.145  33.132  30.004  1.00  0.00     0.131 A 
ATOM     94  C   UNL A   1      47.233  35.008  27.969  1.00  0.00     0.055 A 
ATOM     95  C   UNL A   1      47.732  34.376  30.239  1.00  0.00     0.041 A 
ATOM     96  F   UNL A   1      47.152  32.239  31.007  1.00  0.00    -0.206 F 
ATOM     97  C   UNL A   1      47.792  35.314  29.214  1.00  0.00     0.022 A 
BRANCH  94  98
ATOM     98  S   UNL A   1      47.443  36.215  26.630  1.00  0.00     0.124 S 
ATOM     99  O   UNL A   1      46.214  36.999  26.734  1.00  0.00    -0.237 OA
ATOM    100  O   UNL A   1      48.662  36.911  27.032  1.00  0.00    -0.237 OA
ATOM    101  O   UNL A   1      47.554  35.393  25.429  1.00  0.00    -0.744 OA
ENDBRANCH  94  98
ENDBRANCH  68  91
ENDBRANCH  42  43
ENDBRANCH  35  37
ENDBRANCH  34  35
ENDBRANCH  33  34
ENDBRANCH  32  33
ENDBRANCH  31  32
ENDBRANCH  30  31
ENDBRANCH   1  30
TORSDOF 25
ENDMDL
MODEL 3
REMARK VINA RESULT:      -9.5      2.216      7.495
REMARK SMILES CC(C)(C)c1cc2c(cc1Cl)C=C(C(=O)OCCOCCOCCOCCOC(=O)c1ccc(-c3c4nc(c(-c5cc(S(=O)(=O)[O-])ccc5F)c5ccc([nH]5)c(-c5cc(S(=O)(=O)[O-])ccc5F)c5nc(c(-c6cc(S(=O)(=O)[O-])ccc6F)c6ccc3[nH]6)C=C5)C=C4)cc1)[C@@H](C(F)(F)F)O2
REMARK SMILES IDX 23 1 22 2 21 3 20 4 19 5 18 6 17 7 16 8 14 9 15 10 13 11
REMARK SMILES IDX 5 12 6 13 10 14 7 15 9 16 11 17 8 18 99 19 12 20 94 21 2 22
REMARK SMILES IDX 1 23 3 24 4 25 95 26 96 27 97 28 98 29 24 30 25 31 26 32
REMARK SMILES IDX 27 33 28 34 29 35 30 36 31 37 32 38 93 39 33 40 92 41 34 42
REMARK SMILES IDX 35 43 36 44 86 45 37 46 91 47 85 48 87 49 38 50 90 51 84 52
REMARK SMILES IDX 83 53 39 55 71 56 51 57 70 58 52 59 55 60 69 61 88 62 53 63
REMARK SMILES IDX 54 64 68 66 89 67 56 68 40 69 41 70 49 71 42 72 48 73 50 74
REMARK SMILES IDX 47 75 43 76 44 77 45 78 46 79 72 80 73 81 81 82 74 83 80 84
REMARK SMILES IDX 82 85 79 86 75 87 76 88 77 89 78 90 57 91 58 92 66 93 59 94
REMARK SMILES IDX 65 95 67 96 64 97 60 98 61 99 62 100 63 101
REMARK H PARENT 87 54 55 65
REMARK Flexibility Score: inf
ROOT
ATOM      1  C   UNL A   1      37.256  21.864  25.054  1.00  0.00     0.188 C 
ENDROOT
BRANCH   1   2
ATOM      2  O   UNL A   1      37.271  23.167  24.472  1.00  0.00    -0.377 OA
BRANCH   2   3
ATOM      3  C   UNL A   1      36.018  23.814  24.313  1.00  0.00     0.188 C 
BRANCH   3   4
ATOM      4  C   UNL A   1      35.238  23.278  23.098  1.00  0.00     0.188 C 
BRANCH   4   5
ATOM      5  O   UNL A   1      34.231  24.175  22.646  1.00  0.00    -0.376 OA
BRANCH   5   6
ATOM      6  C   UNL A   1      34.003  25.371  23.382  1.00  0.00     0.202 C 
BRANCH   6   7
ATOM      7  C   UNL A   1      32.628  25.640  24.020  1.00  0.00     0.261 C 
BRANCH   7   8
ATOM      8  O   UNL A   1      32.483  25.252  25.394  1.00  0.00    -0.460 OA
BRANCH   8   9
ATOM      9  C   UNL A   1      31.617  24.269  25.690  1.00  0.00     0.338 C 
ATOM     10  O   UNL A   1      30.431  24.385  25.942  1.00  0.00    -0.246 OA
BRANCH   9  11
ATOM     11  C   UNL A   1      32.313  22.980  25.467  1.00  0.00     0.087 C 
ATOM     12  C   UNL A   1      33.580  18.308  24.016  1.00  0.00    -0.020 A 
ATOM     13  C   UNL A   1      34.092  19.261  24.930  1.00  0.00     0.053 A 
ATOM     14  C   UNL A   1      32.632  18.795  23.092  1.00  0.00     0.045 A 
ATOM     15  C   UNL A   1      33.565  20.551  25.046  1.00  0.00     0.128 A 
ATOM     16  C   UNL A   1      32.090  20.086  23.223  1.00  0.00     0.032 A 
ATOM     17  Cl  UNL A   1      32.076  17.923  21.708  1.00  0.00    -0.084 Cl
ATOM     18  C   UNL A   1      32.510  20.941  24.239  1.00  0.00     0.019 A 
ATOM     19  O   UNL A   1      34.126  21.344  26.002  1.00  0.00    -0.475 OA
ATOM     20  C   UNL A   1      31.837  22.203  24.486  1.00  0.00     0.027 C 
ATOM     21  C   UNL A   1      33.551  22.657  26.267  1.00  0.00     0.316 C 
BRANCH  12  22
ATOM     22  C   UNL A   1      34.078  16.842  24.116  1.00  0.00    -0.012 C 
ATOM     23  C   UNL A   1      34.608  16.254  22.785  1.00  0.00     0.016 C 
ATOM     24  C   UNL A   1      32.930  15.876  24.530  1.00  0.00     0.016 C 
ATOM     25  C   UNL A   1      35.184  16.756  25.181  1.00  0.00     0.016 C 
ENDBRANCH  12  22
BRANCH  21  26
ATOM     26  C   UNL A   1      33.318  22.762  27.782  1.00  0.00     0.430 C 
ATOM     27  F   UNL A   1      32.834  21.601  28.285  1.00  0.00    -0.167 F 
ATOM     28  F   UNL A   1      34.455  23.041  28.457  1.00  0.00    -0.167 F 
ATOM     29  F   UNL A   1      32.423  23.734  28.077  1.00  0.00    -0.167 F 
ENDBRANCH  21  26
ENDBRANCH   9  11
ENDBRANCH   8   9
ENDBRANCH   7   8
ENDBRANCH   6   7
ENDBRANCH   5   6
ENDBRANCH   4   5
ENDBRANCH   3   4
ENDBRANCH   2   3
ENDBRANCH   1   2
BRANCH   1  30
ATOM     30  C   UNL A   1      38.567  21.190  25.518  1.00  0.00     0.188 C 
BRANCH  30  31
ATOM     31  O   UNL A   1      38.594  19.779  25.298  1.00  0.00    -0.376 OA
BRANCH  31  32
ATOM     32  C   UNL A   1      39.760  19.090  25.729  1.00  0.00     0.202 C 
BRANCH  32  33
ATOM     33  C   UNL A   1      40.761  19.970  26.489  1.00  0.00     0.261 C 
BRANCH  33  34
ATOM     34  O   UNL A   1      42.095  19.449  26.574  1.00  0.00    -0.460 OA
BRANCH  34  35
ATOM     35  C   UNL A   1      43.032  19.970  25.750  1.00  0.00     0.338 C 
ATOM     36  O   UNL A   1      43.566  19.415  24.807  1.00  0.00    -0.246 OA
BRANCH  35  37
ATOM     37  C   UNL A   1      43.141  21.411  26.067  1.00  0.00     0.060 A 
ATOM     38  C   UNL A   1      43.344  21.827  27.385  1.00  0.00     0.016 A 
ATOM     39  C   UNL A   1      42.993  22.351  25.040  1.00  0.00     0.016 A 
ATOM     40  C   UNL A   1      43.429  23.190  27.672  1.00  0.00     0.010 A 
ATOM     41  C   UNL A   1      43.075  23.717  25.330  1.00  0.00     0.010 A 
ATOM     42  C   UNL A   1      43.316  24.144  26.645  1.00  0.00    -0.014 A 
BRANCH  42  43
ATOM     43  C   UNL A   1      43.664  25.557  26.929  1.00  0.00     0.031 A 
ATOM     44  C   UNL A   1      42.674  26.533  27.484  1.00  0.00     0.074 A 
ATOM     45  C   UNL A   1      44.928  25.945  26.672  1.00  0.00     0.049 A 
ATOM     46  N   UNL A   1      42.881  27.759  27.891  1.00  0.00    -0.248 NA
ATOM     47  C   UNL A   1      41.279  26.087  27.593  1.00  0.00     0.031 C 
ATOM     48  C   UNL A   1      45.957  25.080  26.092  1.00  0.00     0.029 A 
ATOM     49  N   UNL A   1      45.566  27.143  26.866  1.00  0.00    -0.354 N 
ATOM     50  C   UNL A   1      41.650  28.230  28.328  1.00  0.00     0.074 A 
ATOM     51  C   UNL A   1      40.691  27.171  28.087  1.00  0.00     0.031 C 
ATOM     52  C   UNL A   1      47.103  25.766  26.000  1.00  0.00     0.029 A 
ATOM     53  C   UNL A   1      46.888  27.128  26.488  1.00  0.00     0.049 A 
ATOM     54  H   UNL A   1      45.121  27.937  27.240  1.00  0.00     0.167 HD
ATOM     55  C   UNL A   1      41.362  29.428  28.895  1.00  0.00     0.034 A 
ATOM     56  C   UNL A   1      47.829  28.091  26.534  1.00  0.00     0.034 A 
ATOM     57  C   UNL A   1      42.336  30.474  29.107  1.00  0.00     0.049 A 
ATOM     58  C   UNL A   1      47.476  29.421  27.146  1.00  0.00     0.074 A 
ATOM     59  C   UNL A   1      42.152  31.697  29.729  1.00  0.00     0.029 A 
ATOM     60  N   UNL A   1      43.662  30.437  28.696  1.00  0.00    -0.354 N 
ATOM     61  N   UNL A   1      46.340  29.807  27.676  1.00  0.00    -0.248 NA
ATOM     62  C   UNL A   1      48.533  30.440  27.188  1.00  0.00     0.031 C 
ATOM     63  C   UNL A   1      43.338  32.426  29.627  1.00  0.00     0.029 A 
ATOM     64  C   UNL A   1      44.292  31.630  29.014  1.00  0.00     0.049 A 
ATOM     65  H   UNL A   1      44.092  29.675  28.244  1.00  0.00     0.167 HD
ATOM     66  C   UNL A   1      46.550  31.105  28.131  1.00  0.00     0.074 A 
ATOM     67  C   UNL A   1      47.932  31.426  27.842  1.00  0.00     0.031 C 
ATOM     68  C   UNL A   1      45.673  31.953  28.728  1.00  0.00     0.034 A 
BRANCH  55  69
ATOM     69  C   UNL A   1      39.952  29.693  29.368  1.00  0.00     0.023 A 
ATOM     70  C   UNL A   1      39.654  29.701  30.744  1.00  0.00     0.031 A 
ATOM     71  C   UNL A   1      38.883  29.767  28.457  1.00  0.00     0.131 A 
ATOM     72  C   UNL A   1      38.319  29.739  31.169  1.00  0.00     0.055 A 
ATOM     73  C   UNL A   1      37.557  29.846  28.886  1.00  0.00     0.041 A 
ATOM     74  F   UNL A   1      39.112  29.753  27.133  1.00  0.00    -0.206 F 
ATOM     75  C   UNL A   1      37.270  29.817  30.247  1.00  0.00     0.022 A 
BRANCH  72  76
ATOM     76  S   UNL A   1      37.886  29.609  32.926  1.00  0.00     0.124 S 
ATOM     77  O   UNL A   1      39.167  29.887  33.572  1.00  0.00    -0.237 OA
ATOM     78  O   UNL A   1      36.876  30.655  33.070  1.00  0.00    -0.237 OA
ATOM     79  O   UNL A   1      37.403  28.241  33.069  1.00  0.00    -0.744 OA
ENDBRANCH  72  76
ENDBRANCH  55  69
BRANCH  56  80
ATOM     80  C   UNL A   1      49.204  27.778  26.050  1.00  0.00     0.023 A 
ATOM     81  C   UNL A   1      49.590  28.084  24.732  1.00  0.00     0.031 A 
ATOM     82  C   UNL A   1      50.101  27.056  26.851  1.00  0.00     0.131 A 
ATOM     83  C   UNL A   1      50.808  27.604  24.233  1.00  0.00     0.055 A 
ATOM     84  C   UNL A   1      51.347  26.644  26.375  1.00  0.00     0.041 A 
ATOM     85  F   UNL A   1      49.770  26.724  28.108  1.00  0.00    -0.206 F 
ATOM     86  C   UNL A   1      51.697  26.901  25.052  1.00  0.00     0.022 A 
BRANCH  83  87
ATOM     87  S   UNL A   1      51.211  27.746  22.470  1.00  0.00     0.124 S 
ATOM     88  O   UNL A   1      52.604  27.317  22.440  1.00  0.00    -0.237 OA
ATOM     89  O   UNL A   1      50.252  26.820  21.870  1.00  0.00    -0.237 OA
ATOM     90  O   UNL A   1      50.976  29.155  22.175  1.00  0.00    -0.744 OA
ENDBRANCH  83  87
ENDBRANCH  56  80
BRANCH  68  91
ATOM     91  C   UNL A   1      46.151  33.335  29.111  1.00  0.00     0.023 A 
ATOM     92  C   UNL A   1      46.020  34.407  28.205  1.00  0.00     0.031 A 
ATOM     93  C   UNL A   1      46.862  33.559  30.303  1.00  0.00     0.131 A 
ATOM     94  C   UNL A   1      46.631  35.636  28.486  1.00  0.00     0.055 A 
ATOM     95  C   UNL A   1      47.422  34.802  30.602  1.00  0.00     0.041 A 
ATOM     96  F   UNL A   1      47.024  32.570  31.197  1.00  0.00    -0.206 F 
ATOM     97  C   UNL A   1      47.322  35.843  29.684  1.00  0.00     0.022 A 
BRANCH  94  98
ATOM     98  S   UNL A   1      46.631  36.984  27.270  1.00  0.00     0.124 S 
ATOM     99  O   UNL A   1      47.168  36.321  26.084  1.00  0.00    -0.237 OA
ATOM    100  O   UNL A   1      45.215  37.335  27.201  1.00  0.00    -0.237 OA
ATOM    101  O   UNL A   1      47.501  37.995  27.864  1.00  0.00    -0.744 OA
ENDBRANCH  94  98
ENDBRANCH  68  91
ENDBRANCH  42  43
ENDBRANCH  35  37
ENDBRANCH  34  35
ENDBRANCH  33  34
ENDBRANCH  32  33
ENDBRANCH  31  32
ENDBRANCH  30  31
ENDBRANCH   1  30
TORSDOF 25
ENDMDL
