MODEL 1
REMARK VINA RESULT:      -9.5      0.000      0.000
REMARK SMILES CC(C)(C)C(=O)NCc1ccc(C(=O)OCCOCCOCCOCCOC(=O)c2ccc(-c3c4nc(c(-c5cc(S(=O)(=O)[O-])ccc5F)c5ccc([nH]5)c(-c5cc(S(=O)(=O)[O-])ccc5F)c5nc(c(-c6cc(S(=O)(=O)[O-])ccc6F)c6ccc3[nH]6)C=C5)C=C4)cc2)o1
REMARK SMILES IDX 21 1 20 2 19 3 18 4 17 5 16 6 15 7 13 8 14 9 12 10 9 11
REMARK SMILES IDX 10 12 93 13 11 14 8 15 7 16 5 17 6 18 2 20 1 21 3 22 4 23
REMARK SMILES IDX 22 24 23 25 24 26 25 27 26 28 27 29 28 30 29 31 30 32 31 33
REMARK SMILES IDX 92 34 32 35 91 36 33 37 34 38 35 39 85 40 36 41 90 42 84 43
REMARK SMILES IDX 86 44 37 45 89 46 83 47 82 48 38 50 70 51 50 52 69 53 51 54
REMARK SMILES IDX 54 55 68 56 87 57 52 58 53 59 67 61 88 62 55 63 39 64 40 65
REMARK SMILES IDX 48 66 41 67 47 68 49 69 46 70 42 71 43 72 44 73 45 74 71 75
REMARK SMILES IDX 72 76 80 77 73 78 79 79 81 80 78 81 74 82 75 83 76 84 77 85
REMARK SMILES IDX 56 86 57 87 65 88 58 89 64 90 66 91 63 92 59 93 60 94 61 95
REMARK SMILES IDX 62 96
REMARK H PARENT 7 19 86 49 54 60
REMARK Flexibility Score: inf
ROOT
ATOM      1  O   UNL A   1      34.149  21.175  24.288  1.00  0.00    -0.377 OA
ENDROOT
BRANCH   1   2
ATOM      2  C   UNL A   1      33.412  20.555  25.334  1.00  0.00     0.188 C 
BRANCH   2   3
ATOM      3  C   UNL A   1      33.265  21.482  26.551  1.00  0.00     0.188 C 
BRANCH   3   4
ATOM      4  O   UNL A   1      32.002  22.136  26.581  1.00  0.00    -0.376 OA
BRANCH   4   5
ATOM      5  C   UNL A   1      31.828  23.302  25.785  1.00  0.00     0.202 C 
BRANCH   5   6
ATOM      6  C   UNL A   1      32.185  24.699  26.332  1.00  0.00     0.261 C 
BRANCH   6   7
ATOM      7  O   UNL A   1      33.556  25.111  26.252  1.00  0.00    -0.457 OA
BRANCH   7   8
ATOM      8  C   UNL A   1      33.963  25.866  25.203  1.00  0.00     0.374 C 
ATOM      9  O   UNL A   1      34.394  25.419  24.145  1.00  0.00    -0.242 OA
BRANCH   8  10
ATOM     10  C   UNL A   1      33.648  27.246  25.504  1.00  0.00     0.211 A 
ATOM     11  C   UNL A   1      32.471  29.106  25.311  1.00  0.00     0.124 A 
ATOM     12  C   UNL A   1      33.247  29.256  26.440  1.00  0.00     0.048 A 
ATOM     13  O   UNL A   1      32.731  27.900  24.723  1.00  0.00    -0.452 OA
ATOM     14  C   UNL A   1      33.999  28.064  26.566  1.00  0.00     0.058 A 
BRANCH  11  15
ATOM     15  C   UNL A   1      31.411  29.950  24.699  1.00  0.00     0.191 C 
BRANCH  15  16
ATOM     16  N   UNL A   1      30.913  29.318  23.499  1.00  0.00    -0.348 N 
ATOM     17  C   UNL A   1      29.867  29.587  22.680  1.00  0.00     0.225 C 
ATOM     18  O   UNL A   1      29.745  28.843  21.701  1.00  0.00    -0.275 OA
ATOM     19  H   UNL A   1      31.438  28.533  23.221  1.00  0.00     0.163 HD
BRANCH  17  20
ATOM     20  C   UNL A   1      28.887  30.756  22.920  1.00  0.00     0.041 C 
ATOM     21  C   UNL A   1      27.473  30.157  23.127  1.00  0.00     0.021 C 
ATOM     22  C   UNL A   1      28.811  31.681  21.699  1.00  0.00     0.021 C 
ATOM     23  C   UNL A   1      29.234  31.531  24.200  1.00  0.00     0.021 C 
ENDBRANCH  17  20
ENDBRANCH  15  16
ENDBRANCH  11  15
ENDBRANCH   8  10
ENDBRANCH   7   8
ENDBRANCH   6   7
ENDBRANCH   5   6
ENDBRANCH   4   5
ENDBRANCH   3   4
ENDBRANCH   2   3
ENDBRANCH   1   2
BRANCH   1  24
ATOM     24  C   UNL A   1      35.176  22.073  24.710  1.00  0.00     0.188 C 
BRANCH  24  25
ATOM     25  C   UNL A   1      36.634  21.740  24.335  1.00  0.00     0.188 C 
BRANCH  25  26
ATOM     26  O   UNL A   1      37.286  20.924  25.316  1.00  0.00    -0.376 OA
BRANCH  26  27
ATOM     27  C   UNL A   1      37.821  19.693  24.832  1.00  0.00     0.202 C 
BRANCH  27  28
ATOM     28  C   UNL A   1      39.189  19.345  25.436  1.00  0.00     0.261 C 
BRANCH  28  29
ATOM     29  O   UNL A   1      39.527  20.075  26.626  1.00  0.00    -0.460 OA
BRANCH  29  30
ATOM     30  C   UNL A   1      40.840  20.323  26.835  1.00  0.00     0.338 C 
ATOM     31  O   UNL A   1      41.770  19.576  26.589  1.00  0.00    -0.246 OA
BRANCH  30  32
ATOM     32  C   UNL A   1      40.983  21.733  27.247  1.00  0.00     0.060 A 
ATOM     33  C   UNL A   1      40.371  22.724  26.469  1.00  0.00     0.016 A 
ATOM     34  C   UNL A   1      41.738  22.076  28.371  1.00  0.00     0.016 A 
ATOM     35  C   UNL A   1      40.560  24.070  26.786  1.00  0.00     0.010 A 
ATOM     36  C   UNL A   1      41.939  23.422  28.677  1.00  0.00     0.010 A 
ATOM     37  C   UNL A   1      41.383  24.424  27.863  1.00  0.00    -0.014 A 
BRANCH  37  38
ATOM     38  C   UNL A   1      41.860  25.820  28.007  1.00  0.00     0.031 A 
ATOM     39  C   UNL A   1      43.238  26.150  27.499  1.00  0.00     0.074 A 
ATOM     40  C   UNL A   1      41.103  26.765  28.591  1.00  0.00     0.049 A 
ATOM     41  N   UNL A   1      43.915  27.264  27.588  1.00  0.00    -0.248 NA
ATOM     42  C   UNL A   1      43.948  25.064  26.804  1.00  0.00     0.031 C 
ATOM     43  C   UNL A   1      39.743  26.572  29.088  1.00  0.00     0.029 A 
ATOM     44  N   UNL A   1      41.385  28.078  28.877  1.00  0.00    -0.354 N 
ATOM     45  C   UNL A   1      45.131  27.014  26.962  1.00  0.00     0.074 A 
ATOM     46  C   UNL A   1      45.111  25.633  26.532  1.00  0.00     0.031 C 
ATOM     47  C   UNL A   1      39.314  27.723  29.639  1.00  0.00     0.029 A 
ATOM     48  C   UNL A   1      40.382  28.720  29.563  1.00  0.00     0.049 A 
ATOM     49  H   UNL A   1      42.226  28.517  28.616  1.00  0.00     0.167 HD
ATOM     50  C   UNL A   1      46.170  27.862  26.758  1.00  0.00     0.034 A 
ATOM     51  C   UNL A   1      40.346  29.961  30.091  1.00  0.00     0.034 A 
ATOM     52  C   UNL A   1      46.190  29.226  27.219  1.00  0.00     0.049 A 
ATOM     53  C   UNL A   1      41.547  30.862  29.930  1.00  0.00     0.074 A 
ATOM     54  C   UNL A   1      47.189  30.173  27.075  1.00  0.00     0.029 A 
ATOM     55  N   UNL A   1      45.164  29.836  27.930  1.00  0.00    -0.354 N 
ATOM     56  N   UNL A   1      42.690  30.619  29.330  1.00  0.00    -0.248 NA
ATOM     57  C   UNL A   1      41.451  32.208  30.514  1.00  0.00     0.031 C 
ATOM     58  C   UNL A   1      46.793  31.334  27.751  1.00  0.00     0.029 A 
ATOM     59  C   UNL A   1      45.517  31.135  28.256  1.00  0.00     0.049 A 
ATOM     60  H   UNL A   1      44.311  29.406  28.169  1.00  0.00     0.167 HD
ATOM     61  C   UNL A   1      43.433  31.793  29.437  1.00  0.00     0.074 A 
ATOM     62  C   UNL A   1      42.608  32.743  30.154  1.00  0.00     0.031 C 
ATOM     63  C   UNL A   1      44.681  32.066  28.976  1.00  0.00     0.034 A 
BRANCH  50  64
ATOM     64  C   UNL A   1      47.381  27.301  26.056  1.00  0.00     0.023 A 
ATOM     65  C   UNL A   1      48.333  26.523  26.739  1.00  0.00     0.031 A 
ATOM     66  C   UNL A   1      47.618  27.595  24.702  1.00  0.00     0.131 A 
ATOM     67  C   UNL A   1      49.514  26.134  26.090  1.00  0.00     0.055 A 
ATOM     68  C   UNL A   1      48.759  27.138  24.040  1.00  0.00     0.041 A 
ATOM     69  F   UNL A   1      46.757  28.354  24.007  1.00  0.00    -0.206 F 
ATOM     70  C   UNL A   1      49.723  26.417  24.737  1.00  0.00     0.022 A 
BRANCH  67  71
ATOM     71  S   UNL A   1      50.840  25.387  27.077  1.00  0.00     0.124 S 
ATOM     72  O   UNL A   1      50.099  24.423  27.886  1.00  0.00    -0.237 OA
ATOM     73  O   UNL A   1      51.715  24.824  26.055  1.00  0.00    -0.237 OA
ATOM     74  O   UNL A   1      51.394  26.518  27.819  1.00  0.00    -0.744 OA
ENDBRANCH  67  71
ENDBRANCH  50  64
BRANCH  51  75
ATOM     75  C   UNL A   1      39.156  30.419  30.864  1.00  0.00     0.023 A 
ATOM     76  C   UNL A   1      38.171  31.225  30.271  1.00  0.00     0.031 A 
ATOM     77  C   UNL A   1      39.020  30.106  32.228  1.00  0.00     0.131 A 
ATOM     78  C   UNL A   1      37.118  31.728  31.050  1.00  0.00     0.055 A 
ATOM     79  C   UNL A   1      37.945  30.570  32.987  1.00  0.00     0.041 A 
ATOM     80  F   UNL A   1      39.934  29.339  32.843  1.00  0.00    -0.206 F 
ATOM     81  C   UNL A   1      36.992  31.397  32.401  1.00  0.00     0.022 A 
BRANCH  78  82
ATOM     82  S   UNL A   1      35.950  32.889  30.288  1.00  0.00     0.124 S 
ATOM     83  O   UNL A   1      34.669  32.369  30.752  1.00  0.00    -0.237 OA
ATOM     84  O   UNL A   1      36.373  34.162  30.862  1.00  0.00    -0.237 OA
ATOM     85  O   UNL A   1      36.206  32.738  28.857  1.00  0.00    -0.744 OA
ENDBRANCH  78  82
ENDBRANCH  51  75
BRANCH  63  86
ATOM     86  C   UNL A   1      45.201  33.466  29.187  1.00  0.00     0.023 A 
ATOM     87  C   UNL A   1      44.933  34.503  28.275  1.00  0.00     0.031 A 
ATOM     88  C   UNL A   1      45.973  33.763  30.324  1.00  0.00     0.131 A 
ATOM     89  C   UNL A   1      45.473  35.780  28.495  1.00  0.00     0.055 A 
ATOM     90  C   UNL A   1      46.465  35.048  30.563  1.00  0.00     0.041 A 
ATOM     91  F   UNL A   1      46.256  32.810  31.225  1.00  0.00    -0.206 F 
ATOM     92  C   UNL A   1      46.224  36.061  29.640  1.00  0.00     0.022 A 
BRANCH  89  93
ATOM     93  S   UNL A   1      45.240  37.056  27.228  1.00  0.00     0.124 S 
ATOM     94  O   UNL A   1      46.246  36.688  26.237  1.00  0.00    -0.237 OA
ATOM     95  O   UNL A   1      43.850  36.853  26.832  1.00  0.00    -0.237 OA
ATOM     96  O   UNL A   1      45.502  38.303  27.944  1.00  0.00    -0.744 OA
ENDBRANCH  89  93
ENDBRANCH  63  86
ENDBRANCH  37  38
ENDBRANCH  30  32
ENDBRANCH  29  30
ENDBRANCH  28  29
ENDBRANCH  27  28
ENDBRANCH  26  27
ENDBRANCH  25  26
ENDBRANCH  24  25
ENDBRANCH   1  24
TORSDOF 26
ENDMDL
MODEL 2
REMARK VINA RESULT:      -9.3      5.700     11.732
REMARK SMILES CC(C)(C)C(=O)NCc1ccc(C(=O)OCCOCCOCCOCCOC(=O)c2ccc(-c3c4nc(c(-c5cc(S(=O)(=O)[O-])ccc5F)c5ccc([nH]5)c(-c5cc(S(=O)(=O)[O-])ccc5F)c5nc(c(-c6cc(S(=O)(=O)[O-])ccc6F)c6ccc3[nH]6)C=C5)C=C4)cc2)o1
REMARK SMILES IDX 21 1 20 2 19 3 18 4 17 5 16 6 15 7 13 8 14 9 12 10 9 11
REMARK SMILES IDX 10 12 93 13 11 14 8 15 7 16 5 17 6 18 2 20 1 21 3 22 4 23
REMARK SMILES IDX 22 24 23 25 24 26 25 27 26 28 27 29 28 30 29 31 30 32 31 33
REMARK SMILES IDX 92 34 32 35 91 36 33 37 34 38 35 39 85 40 36 41 90 42 84 43
REMARK SMILES IDX 86 44 37 45 89 46 83 47 82 48 38 50 70 51 50 52 69 53 51 54
REMARK SMILES IDX 54 55 68 56 87 57 52 58 53 59 67 61 88 62 55 63 39 64 40 65
REMARK SMILES IDX 48 66 41 67 47 68 49 69 46 70 42 71 43 72 44 73 45 74 71 75
REMARK SMILES IDX 72 76 80 77 73 78 79 79 81 80 78 81 74 82 75 83 76 84 77 85
REMARK SMILES IDX 56 86 57 87 65 88 58 89 64 90 66 91 63 92 59 93 60 94 61 95
REMARK SMILES IDX 62 96
REMARK H PARENT 7 19 86 49 54 60
REMARK Flexibility Score: inf
ROOT
ATOM      1  O   UNL A   1      35.542  32.244  28.118  1.00  0.00    -0.377 OA
ENDROOT
BRANCH   1   2
ATOM      2  C   UNL A   1      35.456  30.827  28.045  1.00  0.00     0.188 C 
BRANCH   2   3
ATOM      3  C   UNL A   1      34.199  30.373  27.285  1.00  0.00     0.188 C 
BRANCH   3   4
ATOM      4  O   UNL A   1      34.123  28.958  27.166  1.00  0.00    -0.376 OA
BRANCH   4   5
ATOM      5  C   UNL A   1      33.301  28.411  26.142  1.00  0.00     0.202 C 
BRANCH   5   6
ATOM      6  C   UNL A   1      32.473  29.323  25.214  1.00  0.00     0.261 C 
BRANCH   6   7
ATOM      7  O   UNL A   1      31.156  28.884  24.856  1.00  0.00    -0.457 OA
BRANCH   7   8
ATOM      8  C   UNL A   1      30.848  28.705  23.548  1.00  0.00     0.374 C 
ATOM      9  O   UNL A   1      30.368  29.567  22.818  1.00  0.00    -0.242 OA
BRANCH   8  10
ATOM     10  C   UNL A   1      31.330  27.398  23.156  1.00  0.00     0.211 A 
ATOM     11  C   UNL A   1      31.214  25.197  23.009  1.00  0.00     0.124 A 
ATOM     12  C   UNL A   1      32.190  25.592  22.119  1.00  0.00     0.048 A 
ATOM     13  O   UNL A   1      30.709  26.286  23.662  1.00  0.00    -0.452 OA
ATOM     14  C   UNL A   1      32.262  27.002  22.210  1.00  0.00     0.058 A 
BRANCH  11  15
ATOM     15  C   UNL A   1      30.604  23.875  23.312  1.00  0.00     0.191 C 
BRANCH  15  16
ATOM     16  N   UNL A   1      31.077  23.399  24.592  1.00  0.00    -0.348 N 
ATOM     17  C   UNL A   1      32.056  22.533  24.950  1.00  0.00     0.225 C 
ATOM     18  O   UNL A   1      32.216  22.375  26.166  1.00  0.00    -0.275 OA
ATOM     19  H   UNL A   1      30.589  23.781  25.358  1.00  0.00     0.163 HD
BRANCH  17  20
ATOM     20  C   UNL A   1      32.943  21.793  23.927  1.00  0.00     0.041 C 
ATOM     21  C   UNL A   1      34.017  22.787  23.420  1.00  0.00     0.021 C 
ATOM     22  C   UNL A   1      32.131  21.345  22.704  1.00  0.00     0.021 C 
ATOM     23  C   UNL A   1      33.692  20.618  24.573  1.00  0.00     0.021 C 
ENDBRANCH  17  20
ENDBRANCH  15  16
ENDBRANCH  11  15
ENDBRANCH   8  10
ENDBRANCH   7   8
ENDBRANCH   6   7
ENDBRANCH   5   6
ENDBRANCH   4   5
ENDBRANCH   3   4
ENDBRANCH   2   3
ENDBRANCH   1   2
BRANCH   1  24
ATOM     24  C   UNL A   1      34.825  32.848  29.194  1.00  0.00     0.188 C 
BRANCH  24  25
ATOM     25  C   UNL A   1      33.696  33.840  28.851  1.00  0.00     0.188 C 
BRANCH  25  26
ATOM     26  O   UNL A   1      34.135  35.204  28.853  1.00  0.00    -0.376 OA
BRANCH  26  27
ATOM     27  C   UNL A   1      33.100  36.182  28.918  1.00  0.00     0.202 C 
BRANCH  27  28
ATOM     28  C   UNL A   1      32.966  36.835  30.301  1.00  0.00     0.261 C 
BRANCH  28  29
ATOM     29  O   UNL A   1      32.518  35.953  31.344  1.00  0.00    -0.460 OA
BRANCH  29  30
ATOM     30  C   UNL A   1      33.149  36.053  32.536  1.00  0.00     0.338 C 
ATOM     31  O   UNL A   1      32.787  36.704  33.499  1.00  0.00    -0.246 OA
BRANCH  30  32
ATOM     32  C   UNL A   1      34.266  35.088  32.548  1.00  0.00     0.060 A 
ATOM     33  C   UNL A   1      34.042  33.808  33.070  1.00  0.00     0.016 A 
ATOM     34  C   UNL A   1      35.530  35.454  32.077  1.00  0.00     0.016 A 
ATOM     35  C   UNL A   1      35.102  32.904  33.171  1.00  0.00     0.010 A 
ATOM     36  C   UNL A   1      36.591  34.556  32.193  1.00  0.00     0.010 A 
ATOM     37  C   UNL A   1      36.389  33.293  32.777  1.00  0.00    -0.014 A 
BRANCH  37  38
ATOM     38  C   UNL A   1      37.565  32.487  33.182  1.00  0.00     0.031 A 
ATOM     39  C   UNL A   1      38.236  32.826  34.485  1.00  0.00     0.074 A 
ATOM     40  C   UNL A   1      38.040  31.496  32.407  1.00  0.00     0.049 A 
ATOM     41  N   UNL A   1      39.326  32.335  35.015  1.00  0.00    -0.248 NA
ATOM     42  C   UNL A   1      37.588  33.871  35.294  1.00  0.00     0.031 C 
ATOM     43  C   UNL A   1      37.453  31.055  31.143  1.00  0.00     0.029 A 
ATOM     44  N   UNL A   1      39.140  30.691  32.569  1.00  0.00    -0.354 N 
ATOM     45  C   UNL A   1      39.495  33.012  36.218  1.00  0.00     0.074 A 
ATOM     46  C   UNL A   1      38.417  33.972  36.320  1.00  0.00     0.031 C 
ATOM     47  C   UNL A   1      38.213  30.070  30.632  1.00  0.00     0.029 A 
ATOM     48  C   UNL A   1      39.356  29.836  31.514  1.00  0.00     0.049 A 
ATOM     49  H   UNL A   1      39.719  30.724  33.364  1.00  0.00     0.167 HD
ATOM     50  C   UNL A   1      40.460  32.845  37.157  1.00  0.00     0.034 A 
ATOM     51  C   UNL A   1      40.377  28.985  31.280  1.00  0.00     0.034 A 
ATOM     52  C   UNL A   1      41.546  31.907  37.029  1.00  0.00     0.049 A 
ATOM     53  C   UNL A   1      41.488  28.876  32.297  1.00  0.00     0.074 A 
ATOM     54  C   UNL A   1      42.581  31.657  37.911  1.00  0.00     0.029 A 
ATOM     55  N   UNL A   1      41.745  31.073  35.935  1.00  0.00    -0.354 N 
ATOM     56  N   UNL A   1      41.636  29.515  33.435  1.00  0.00    -0.248 NA
ATOM     57  C   UNL A   1      42.569  27.925  31.999  1.00  0.00     0.031 C 
ATOM     58  C   UNL A   1      43.438  30.717  37.326  1.00  0.00     0.029 A 
ATOM     59  C   UNL A   1      42.900  30.329  36.109  1.00  0.00     0.049 A 
ATOM     60  H   UNL A   1      41.152  31.020  35.151  1.00  0.00     0.167 HD
ATOM     61  C   UNL A   1      42.808  29.018  34.001  1.00  0.00     0.074 A 
ATOM     62  C   UNL A   1      43.324  28.024  33.083  1.00  0.00     0.031 C 
ATOM     63  C   UNL A   1      43.400  29.345  35.178  1.00  0.00     0.034 A 
BRANCH  50  64
ATOM     64  C   UNL A   1      40.398  33.744  38.365  1.00  0.00     0.023 A 
ATOM     65  C   UNL A   1      39.557  33.456  39.455  1.00  0.00     0.031 A 
ATOM     66  C   UNL A   1      41.144  34.935  38.405  1.00  0.00     0.131 A 
ATOM     67  C   UNL A   1      39.422  34.384  40.499  1.00  0.00     0.055 A 
ATOM     68  C   UNL A   1      41.065  35.817  39.484  1.00  0.00     0.041 A 
ATOM     69  F   UNL A   1      41.944  35.274  37.382  1.00  0.00    -0.206 F 
ATOM     70  C   UNL A   1      40.188  35.552  40.532  1.00  0.00     0.022 A 
BRANCH  67  71
ATOM     71  S   UNL A   1      38.121  34.116  41.734  1.00  0.00     0.124 S 
ATOM     72  O   UNL A   1      37.256  33.160  41.049  1.00  0.00    -0.237 OA
ATOM     73  O   UNL A   1      38.870  33.598  42.874  1.00  0.00    -0.237 OA
ATOM     74  O   UNL A   1      37.544  35.446  41.920  1.00  0.00    -0.744 OA
ENDBRANCH  67  71
ENDBRANCH  50  64
BRANCH  51  75
ATOM     75  C   UNL A   1      40.430  28.200  30.015  1.00  0.00     0.023 A 
ATOM     76  C   UNL A   1      41.331  28.533  28.991  1.00  0.00     0.031 A 
ATOM     77  C   UNL A   1      39.535  27.139  29.788  1.00  0.00     0.131 A 
ATOM     78  C   UNL A   1      41.287  27.842  27.770  1.00  0.00     0.055 A 
ATOM     79  C   UNL A   1      39.527  26.424  28.589  1.00  0.00     0.041 A 
ATOM     80  F   UNL A   1      38.653  26.780  30.734  1.00  0.00    -0.206 F 
ATOM     81  C   UNL A   1      40.398  26.783  27.566  1.00  0.00     0.022 A 
BRANCH  78  82
ATOM     82  S   UNL A   1      42.359  28.399  26.416  1.00  0.00     0.124 S 
ATOM     83  O   UNL A   1      41.474  28.272  25.265  1.00  0.00    -0.237 OA
ATOM     84  O   UNL A   1      42.684  29.760  26.830  1.00  0.00    -0.237 OA
ATOM     85  O   UNL A   1      43.474  27.456  26.456  1.00  0.00    -0.744 OA
ENDBRANCH  78  82
ENDBRANCH  51  75
BRANCH  63  86
ATOM     86  C   UNL A   1      44.641  28.578  35.560  1.00  0.00     0.023 A 
ATOM     87  C   UNL A   1      44.578  27.375  36.286  1.00  0.00     0.031 A 
ATOM     88  C   UNL A   1      45.908  29.062  35.185  1.00  0.00     0.131 A 
ATOM     89  C   UNL A   1      45.764  26.719  36.652  1.00  0.00     0.055 A 
ATOM     90  C   UNL A   1      47.081  28.378  35.509  1.00  0.00     0.041 A 
ATOM     91  F   UNL A   1      46.024  30.205  34.491  1.00  0.00    -0.206 F 
ATOM     92  C   UNL A   1      47.012  27.206  36.255  1.00  0.00     0.022 A 
BRANCH  89  93
ATOM     93  S   UNL A   1      45.658  25.255  37.717  1.00  0.00     0.124 S 
ATOM     94  O   UNL A   1      45.204  24.230  36.782  1.00  0.00    -0.237 OA
ATOM     95  O   UNL A   1      47.031  25.118  38.195  1.00  0.00    -0.237 OA
ATOM     96  O   UNL A   1      44.685  25.641  38.736  1.00  0.00    -0.744 OA
ENDBRANCH  89  93
ENDBRANCH  63  86
ENDBRANCH  37  38
ENDBRANCH  30  32
ENDBRANCH  29  30
ENDBRANCH  28  29
ENDBRANCH  27  28
ENDBRANCH  26  27
ENDBRANCH  25  26
ENDBRANCH  24  25
ENDBRANCH   1  24
TORSDOF 26
ENDMDL
MODEL 3
REMARK VINA RESULT:      -8.8      4.809     10.610
REMARK SMILES CC(C)(C)C(=O)NCc1ccc(C(=O)OCCOCCOCCOCCOC(=O)c2ccc(-c3c4nc(c(-c5cc(S(=O)(=O)[O-])ccc5F)c5ccc([nH]5)c(-c5cc(S(=O)(=O)[O-])ccc5F)c5nc(c(-c6cc(S(=O)(=O)[O-])ccc6F)c6ccc3[nH]6)C=C5)C=C4)cc2)o1
REMARK SMILES IDX 21 1 20 2 19 3 18 4 17 5 16 6 15 7 13 8 14 9 12 10 9 11
REMARK SMILES IDX 10 12 93 13 11 14 8 15 7 16 5 17 6 18 2 20 1 21 3 22 4 23
REMARK SMILES IDX 22 24 23 25 24 26 25 27 26 28 27 29 28 30 29 31 30 32 31 33
REMARK SMILES IDX 92 34 32 35 91 36 33 37 34 38 35 39 85 40 36 41 90 42 84 43
REMARK SMILES IDX 86 44 37 45 89 46 83 47 82 48 38 50 70 51 50 52 69 53 51 54
REMARK SMILES IDX 54 55 68 56 87 57 52 58 53 59 67 61 88 62 55 63 39 64 40 65
REMARK SMILES IDX 48 66 41 67 47 68 49 69 46 70 42 71 43 72 44 73 45 74 71 75
REMARK SMILES IDX 72 76 80 77 73 78 79 79 81 80 78 81 74 82 75 83 76 84 77 85
REMARK SMILES IDX 56 86 57 87 65 88 58 89 64 90 66 91 63 92 59 93 60 94 61 95
REMARK SMILES IDX 62 96
REMARK H PARENT 7 19 86 49 54 60
REMARK Flexibility Score: inf
ROOT
ATOM      1  O   UNL A   1      35.571  31.379  27.825  1.00  0.00    -0.377 OA
ENDROOT
BRANCH   1   2
ATOM      2  C   UNL A   1      35.178  30.026  28.013  1.00  0.00     0.188 C 
BRANCH   2   3
ATOM      3  C   UNL A   1      34.444  29.472  26.782  1.00  0.00     0.188 C 
BRANCH   3   4
ATOM      4  O   UNL A   1      33.374  28.605  27.137  1.00  0.00    -0.376 OA
BRANCH   4   5
ATOM      5  C   UNL A   1      33.058  27.530  26.261  1.00  0.00     0.202 C 
BRANCH   5   6
ATOM      6  C   UNL A   1      33.766  27.379  24.899  1.00  0.00     0.261 C 
BRANCH   6   7
ATOM      7  O   UNL A   1      33.147  27.987  23.758  1.00  0.00    -0.457 OA
BRANCH   7   8
ATOM      8  C   UNL A   1      33.348  27.452  22.529  1.00  0.00     0.374 C 
ATOM      9  O   UNL A   1      34.073  27.936  21.665  1.00  0.00    -0.242 OA
BRANCH   8  10
ATOM     10  C   UNL A   1      32.693  26.161  22.496  1.00  0.00     0.211 A 
ATOM     11  C   UNL A   1      32.648  23.953  22.519  1.00  0.00     0.124 A 
ATOM     12  C   UNL A   1      31.356  24.368  22.760  1.00  0.00     0.048 A 
ATOM     13  O   UNL A   1      33.458  25.037  22.330  1.00  0.00    -0.452 OA
ATOM     14  C   UNL A   1      31.385  25.783  22.749  1.00  0.00     0.058 A 
BRANCH  11  15
ATOM     15  C   UNL A   1      33.286  22.610  22.500  1.00  0.00     0.191 C 
BRANCH  15  16
ATOM     16  N   UNL A   1      32.550  21.706  23.353  1.00  0.00    -0.348 N 
ATOM     17  C   UNL A   1      32.642  21.400  24.670  1.00  0.00     0.225 C 
ATOM     18  O   UNL A   1      31.814  20.586  25.093  1.00  0.00    -0.275 OA
ATOM     19  H   UNL A   1      31.840  21.212  22.884  1.00  0.00     0.163 HD
BRANCH  17  20
ATOM     20  C   UNL A   1      33.692  22.030  25.611  1.00  0.00     0.041 C 
ATOM     21  C   UNL A   1      33.763  21.164  26.894  1.00  0.00     0.021 C 
ATOM     22  C   UNL A   1      33.279  23.443  26.043  1.00  0.00     0.021 C 
ATOM     23  C   UNL A   1      35.094  22.014  24.985  1.00  0.00     0.021 C 
ENDBRANCH  17  20
ENDBRANCH  15  16
ENDBRANCH  11  15
ENDBRANCH   8  10
ENDBRANCH   7   8
ENDBRANCH   6   7
ENDBRANCH   5   6
ENDBRANCH   4   5
ENDBRANCH   3   4
ENDBRANCH   2   3
ENDBRANCH   1   2
BRANCH   1  24
ATOM     24  C   UNL A   1      34.926  32.329  28.673  1.00  0.00     0.188 C 
BRANCH  24  25
ATOM     25  C   UNL A   1      34.093  33.446  28.014  1.00  0.00     0.188 C 
BRANCH  25  26
ATOM     26  O   UNL A   1      34.366  34.740  28.565  1.00  0.00    -0.376 OA
BRANCH  26  27
ATOM     27  C   UNL A   1      33.227  35.574  28.770  1.00  0.00     0.202 C 
BRANCH  27  28
ATOM     28  C   UNL A   1      32.923  35.836  30.251  1.00  0.00     0.261 C 
BRANCH  28  29
ATOM     29  O   UNL A   1      33.164  34.721  31.124  1.00  0.00    -0.460 OA
BRANCH  29  30
ATOM     30  C   UNL A   1      34.028  34.923  32.145  1.00  0.00     0.338 C 
ATOM     31  O   UNL A   1      33.848  35.621  33.125  1.00  0.00    -0.246 OA
BRANCH  30  32
ATOM     32  C   UNL A   1      35.171  34.005  31.968  1.00  0.00     0.060 A 
ATOM     33  C   UNL A   1      35.068  32.701  32.467  1.00  0.00     0.016 A 
ATOM     34  C   UNL A   1      36.343  34.437  31.343  1.00  0.00     0.016 A 
ATOM     35  C   UNL A   1      36.163  31.839  32.390  1.00  0.00     0.010 A 
ATOM     36  C   UNL A   1      37.442  33.580  31.280  1.00  0.00     0.010 A 
ATOM     37  C   UNL A   1      37.369  32.292  31.839  1.00  0.00    -0.014 A 
BRANCH  37  38
ATOM     38  C   UNL A   1      38.618  31.522  32.049  1.00  0.00     0.031 A 
ATOM     39  C   UNL A   1      39.459  31.860  33.251  1.00  0.00     0.074 A 
ATOM     40  C   UNL A   1      39.008  30.565  31.189  1.00  0.00     0.049 A 
ATOM     41  N   UNL A   1      40.630  31.400  33.605  1.00  0.00    -0.248 NA
ATOM     42  C   UNL A   1      38.900  32.864  34.170  1.00  0.00     0.031 C 
ATOM     43  C   UNL A   1      38.259  30.128  30.013  1.00  0.00     0.029 A 
ATOM     44  N   UNL A   1      40.147  29.799  31.171  1.00  0.00    -0.354 N 
ATOM     45  C   UNL A   1      40.949  32.059  34.788  1.00  0.00     0.074 A 
ATOM     46  C   UNL A   1      39.865  32.975  35.068  1.00  0.00     0.031 C 
ATOM     47  C   UNL A   1      38.971  29.183  29.372  1.00  0.00     0.029 A 
ATOM     48  C   UNL A   1      40.237  28.974  30.075  1.00  0.00     0.049 A 
ATOM     49  H   UNL A   1      40.834  29.837  31.874  1.00  0.00     0.167 HD
ATOM     50  C   UNL A   1      42.045  31.909  35.573  1.00  0.00     0.034 A 
ATOM     51  C   UNL A   1      41.241  28.166  29.675  1.00  0.00     0.034 A 
ATOM     52  C   UNL A   1      43.132  31.015  35.266  1.00  0.00     0.049 A 
ATOM     53  C   UNL A   1      42.491  28.078  30.517  1.00  0.00     0.074 A 
ATOM     54  C   UNL A   1      44.292  30.786  35.984  1.00  0.00     0.029 A 
ATOM     55  N   UNL A   1      43.198  30.211  34.135  1.00  0.00    -0.354 N 
ATOM     56  N   UNL A   1      42.781  28.700  31.637  1.00  0.00    -0.248 NA
ATOM     57  C   UNL A   1      43.549  27.174  30.043  1.00  0.00     0.031 C 
ATOM     58  C   UNL A   1      45.086  29.890  35.258  1.00  0.00     0.029 A 
ATOM     59  C   UNL A   1      44.391  29.506  34.122  1.00  0.00     0.049 A 
ATOM     60  H   UNL A   1      42.500  30.151  33.443  1.00  0.00     0.167 HD
ATOM     61  C   UNL A   1      44.039  28.236  32.016  1.00  0.00     0.074 A 
ATOM     62  C   UNL A   1      44.450  27.280  31.008  1.00  0.00     0.031 C 
ATOM     63  C   UNL A   1      44.784  28.561  33.104  1.00  0.00     0.034 A 
BRANCH  50  64
ATOM     64  C   UNL A   1      42.128  32.780  36.800  1.00  0.00     0.023 A 
ATOM     65  C   UNL A   1      41.699  32.324  38.058  1.00  0.00     0.031 A 
ATOM     66  C   UNL A   1      42.587  34.106  36.701  1.00  0.00     0.131 A 
ATOM     67  C   UNL A   1      41.663  33.206  39.149  1.00  0.00     0.055 A 
ATOM     68  C   UNL A   1      42.623  34.956  37.807  1.00  0.00     0.041 A 
ATOM     69  F   UNL A   1      42.986  34.604  35.520  1.00  0.00    -0.206 F 
ATOM     70  C   UNL A   1      42.144  34.514  39.037  1.00  0.00     0.022 A 
BRANCH  67  71
ATOM     71  S   UNL A   1      40.838  32.669  40.672  1.00  0.00     0.124 S 
ATOM     72  O   UNL A   1      41.697  31.568  41.101  1.00  0.00    -0.237 OA
ATOM     73  O   UNL A   1      40.882  33.872  41.496  1.00  0.00    -0.237 OA
ATOM     74  O   UNL A   1      39.506  32.271  40.219  1.00  0.00    -0.744 OA
ENDBRANCH  67  71
ENDBRANCH  50  64
BRANCH  51  75
ATOM     75  C   UNL A   1      41.137  27.409  28.395  1.00  0.00     0.023 A 
ATOM     76  C   UNL A   1      40.950  26.017  28.388  1.00  0.00     0.031 A 
ATOM     77  C   UNL A   1      41.286  28.062  27.159  1.00  0.00     0.131 A 
ATOM     78  C   UNL A   1      40.962  25.317  27.172  1.00  0.00     0.055 A 
ATOM     79  C   UNL A   1      41.249  27.367  25.949  1.00  0.00     0.041 A 
ATOM     80  F   UNL A   1      41.467  29.391  27.110  1.00  0.00    -0.206 F 
ATOM     81  C   UNL A   1      41.099  25.984  25.952  1.00  0.00     0.022 A 
BRANCH  78  82
ATOM     82  S   UNL A   1      40.872  23.505  27.211  1.00  0.00     0.124 S 
ATOM     83  O   UNL A   1      41.616  23.146  26.009  1.00  0.00    -0.237 OA
ATOM     84  O   UNL A   1      41.519  23.198  28.482  1.00  0.00    -0.237 OA
ATOM     85  O   UNL A   1      39.437  23.235  27.163  1.00  0.00    -0.744 OA
ENDBRANCH  78  82
ENDBRANCH  51  75
BRANCH  63  86
ATOM     86  C   UNL A   1      46.093  27.833  33.283  1.00  0.00     0.023 A 
ATOM     87  C   UNL A   1      47.308  28.362  32.814  1.00  0.00     0.031 A 
ATOM     88  C   UNL A   1      46.119  26.591  33.942  1.00  0.00     0.131 A 
ATOM     89  C   UNL A   1      48.494  27.628  32.970  1.00  0.00     0.055 A 
ATOM     90  C   UNL A   1      47.310  25.889  34.140  1.00  0.00     0.041 A 
ATOM     91  F   UNL A   1      44.988  26.042  34.411  1.00  0.00    -0.206 F 
ATOM     92  C   UNL A   1      48.504  26.403  33.643  1.00  0.00     0.022 A 
BRANCH  89  93
ATOM     93  S   UNL A   1      50.019  28.262  32.220  1.00  0.00     0.124 S 
ATOM     94  O   UNL A   1      50.427  29.285  33.177  1.00  0.00    -0.237 OA
ATOM     95  O   UNL A   1      50.858  27.069  32.164  1.00  0.00    -0.237 OA
ATOM     96  O   UNL A   1      49.577  28.768  30.922  1.00  0.00    -0.744 OA
ENDBRANCH  89  93
ENDBRANCH  63  86
ENDBRANCH  37  38
ENDBRANCH  30  32
ENDBRANCH  29  30
ENDBRANCH  28  29
ENDBRANCH  27  28
ENDBRANCH  26  27
ENDBRANCH  25  26
ENDBRANCH  24  25
ENDBRANCH   1  24
TORSDOF 26
ENDMDL
