MODEL 1
REMARK VINA RESULT:      -7.6      0.000      0.000
REMARK SMILES Cc1c(CC(=O)OCCOCCOCCOCCOC(=O)c2ccc(-c3c4nc(c(-c5cc(S(=O)(=O)[O-])ccc5F)c5ccc([nH]5)c(-c5cc(S(=O)(=O)[O-])ccc5F)c5nc(c(-c6cc(S(=O)(=O)[O-])ccc6F)c6ccc3[nH]6)C=C5)C=C4)cc2)cc(-c2ccc(S(C)(=O)=O)cc2)n1-c1ccccc1
REMARK SMILES IDX 13 1 12 2 11 3 10 4 9 5 8 6 7 7 5 8 6 9 4 10 3 11 1 12 2 13
REMARK SMILES IDX 97 14 85 15 86 16 98 17 99 18 103 19 100 20 102 21 101 22
REMARK SMILES IDX 87 23 88 24 96 25 89 26 95 27 90 28 91 29 92 30 93 31 94 32
REMARK SMILES IDX 14 33 15 34 16 35 17 36 18 37 19 38 20 39 21 40 22 41 23 42
REMARK SMILES IDX 84 43 24 44 83 45 25 46 26 47 27 48 77 49 28 50 82 51 76 52
REMARK SMILES IDX 78 53 29 54 81 55 75 56 74 57 30 59 62 60 42 61 61 62 43 63
REMARK SMILES IDX 46 64 60 65 79 66 44 67 45 68 59 70 80 71 47 72 31 73 32 74
REMARK SMILES IDX 40 75 33 76 39 77 41 78 38 79 34 80 35 81 36 82 37 83 63 84
REMARK SMILES IDX 64 85 72 86 65 87 71 88 73 89 70 90 66 91 67 92 68 93 69 94
REMARK SMILES IDX 48 95 49 96 57 97 50 98 56 99 58 100 55 101 51 102 52 103
REMARK SMILES IDX 53 104 54 105
REMARK H PARENT 78 58 46 69
REMARK Flexibility Score: inf
ROOT
ATOM      1  O   UNL A   1      33.940  34.279  31.574  1.00  0.00    -0.377 OA
ENDROOT
BRANCH   1   2
ATOM      2  C   UNL A   1      34.505  33.079  31.080  1.00  0.00     0.188 C 
BRANCH   2   3
ATOM      3  C   UNL A   1      35.407  33.318  29.851  1.00  0.00     0.188 C 
BRANCH   3   4
ATOM      4  O   UNL A   1      36.801  33.508  30.089  1.00  0.00    -0.376 OA
BRANCH   4   5
ATOM      5  C   UNL A   1      37.663  32.401  29.803  1.00  0.00     0.202 C 
BRANCH   5   6
ATOM      6  C   UNL A   1      37.629  31.198  30.772  1.00  0.00     0.261 C 
BRANCH   6   7
ATOM      7  O   UNL A   1      38.247  29.985  30.265  1.00  0.00    -0.463 OA
BRANCH   7   8
ATOM      8  C   UNL A   1      37.774  29.510  29.086  1.00  0.00     0.310 C 
ATOM      9  O   UNL A   1      36.579  29.296  28.875  1.00  0.00    -0.252 OA
BRANCH   8  10
ATOM     10  C   UNL A   1      38.776  29.427  27.947  1.00  0.00     0.160 C 
BRANCH  10  11
ATOM     11  C   UNL A   1      39.702  28.249  27.769  1.00  0.00    -0.015 A 
ATOM     12  C   UNL A   1      41.650  29.261  26.314  1.00  0.00     0.065 C 
ATOM     13  C   UNL A   1      40.900  28.195  27.045  1.00  0.00     0.024 A 
ATOM     14  N   UNL A   1      41.337  26.877  27.016  1.00  0.00    -0.314 N 
ATOM     15  C   UNL A   1      39.385  26.891  28.091  1.00  0.00     0.033 A 
ATOM     16  C   UNL A   1      40.363  26.064  27.568  1.00  0.00     0.053 A 
BRANCH  14  17
ATOM     17  C   UNL A   1      42.579  26.411  26.512  1.00  0.00     0.046 A 
ATOM     18  C   UNL A   1      42.661  25.742  25.292  1.00  0.00     0.026 A 
ATOM     19  C   UNL A   1      43.689  26.481  27.349  1.00  0.00     0.026 A 
ATOM     20  C   UNL A   1      43.884  25.185  24.898  1.00  0.00     0.002 A 
ATOM     21  C   UNL A   1      44.910  25.955  26.930  1.00  0.00     0.002 A 
ATOM     22  C   UNL A   1      45.011  25.306  25.709  1.00  0.00     0.000 A 
ENDBRANCH  14  17
BRANCH  16  23
ATOM     23  C   UNL A   1      40.424  24.605  27.480  1.00  0.00    -0.001 A 
ATOM     24  C   UNL A   1      41.313  23.876  28.281  1.00  0.00     0.011 A 
ATOM     25  C   UNL A   1      39.673  23.942  26.500  1.00  0.00     0.011 A 
ATOM     26  C   UNL A   1      41.469  22.501  28.093  1.00  0.00     0.021 A 
ATOM     27  C   UNL A   1      39.823  22.568  26.305  1.00  0.00     0.021 A 
ATOM     28  C   UNL A   1      40.728  21.857  27.096  1.00  0.00     0.067 A 
BRANCH  28  29
ATOM     29  S   UNL A   1      40.914  20.101  26.885  1.00  0.00     0.175 S 
ATOM     30  C   UNL A   1      42.416  19.918  25.957  1.00  0.00     0.163 C 
ATOM     31  O   UNL A   1      41.085  19.538  28.190  1.00  0.00    -0.224 OA
ATOM     32  O   UNL A   1      39.815  19.661  26.015  1.00  0.00    -0.224 OA
ENDBRANCH  28  29
ENDBRANCH  16  23
ENDBRANCH  10  11
ENDBRANCH   8  10
ENDBRANCH   7   8
ENDBRANCH   6   7
ENDBRANCH   5   6
ENDBRANCH   4   5
ENDBRANCH   3   4
ENDBRANCH   2   3
ENDBRANCH   1   2
BRANCH   1  33
ATOM     33  C   UNL A   1      34.198  34.723  32.900  1.00  0.00     0.188 C 
BRANCH  33  34
ATOM     34  C   UNL A   1      34.958  33.790  33.852  1.00  0.00     0.188 C 
BRANCH  34  35
ATOM     35  O   UNL A   1      36.308  33.491  33.476  1.00  0.00    -0.376 OA
BRANCH  35  36
ATOM     36  C   UNL A   1      37.041  32.643  34.375  1.00  0.00     0.202 C 
BRANCH  36  37
ATOM     37  C   UNL A   1      38.541  32.439  34.030  1.00  0.00     0.261 C 
BRANCH  37  38
ATOM     38  O   UNL A   1      39.521  33.056  34.952  1.00  0.00    -0.460 OA
BRANCH  38  39
ATOM     39  C   UNL A   1      40.846  32.732  34.802  1.00  0.00     0.338 C 
ATOM     40  O   UNL A   1      41.731  33.577  34.827  1.00  0.00    -0.246 OA
BRANCH  39  41
ATOM     41  C   UNL A   1      41.186  31.232  34.709  1.00  0.00     0.060 A 
ATOM     42  C   UNL A   1      41.165  30.480  35.886  1.00  0.00     0.016 A 
ATOM     43  C   UNL A   1      41.776  30.583  33.606  1.00  0.00     0.016 A 
ATOM     44  C   UNL A   1      41.703  29.146  35.955  1.00  0.00     0.010 A 
ATOM     45  C   UNL A   1      42.391  29.248  33.699  1.00  0.00     0.010 A 
ATOM     46  C   UNL A   1      42.400  28.482  34.888  1.00  0.00    -0.014 A 
BRANCH  46  47
ATOM     47  C   UNL A   1      43.545  27.431  35.334  1.00  0.00     0.031 A 
ATOM     48  C   UNL A   1      44.533  28.315  36.022  1.00  0.00     0.074 A 
ATOM     49  C   UNL A   1      43.935  26.091  35.260  1.00  0.00     0.049 A 
ATOM     50  N   UNL A   1      45.001  29.382  35.434  1.00  0.00    -0.248 NA
ATOM     51  C   UNL A   1      44.737  28.271  37.471  1.00  0.00     0.031 C 
ATOM     52  C   UNL A   1      43.265  24.987  34.554  1.00  0.00     0.029 A 
ATOM     53  N   UNL A   1      45.048  25.372  35.818  1.00  0.00    -0.354 N 
ATOM     54  C   UNL A   1      45.825  29.983  36.353  1.00  0.00     0.074 A 
ATOM     55  C   UNL A   1      45.436  29.399  37.630  1.00  0.00     0.031 C 
ATOM     56  C   UNL A   1      43.856  23.782  34.812  1.00  0.00     0.029 A 
ATOM     57  C   UNL A   1      45.033  23.934  35.669  1.00  0.00     0.049 A 
ATOM     58  H   UNL A   1      45.784  25.835  36.278  1.00  0.00     0.167 HD
ATOM     59  C   UNL A   1      47.090  30.274  35.931  1.00  0.00     0.034 A 
ATOM     60  C   UNL A   1      45.903  22.940  36.128  1.00  0.00     0.034 A 
ATOM     61  C   UNL A   1      48.045  29.313  36.412  1.00  0.00     0.049 A 
ATOM     62  C   UNL A   1      47.204  23.576  36.354  1.00  0.00     0.074 A 
ATOM     63  C   UNL A   1      48.335  28.822  37.667  1.00  0.00     0.029 A 
ATOM     64  N   UNL A   1      48.534  28.400  35.499  1.00  0.00    -0.354 N 
ATOM     65  N   UNL A   1      47.989  23.887  35.373  1.00  0.00    -0.248 NA
ATOM     66  C   UNL A   1      47.742  23.815  37.689  1.00  0.00     0.031 C 
ATOM     67  C   UNL A   1      48.607  27.448  37.477  1.00  0.00     0.029 A 
ATOM     68  C   UNL A   1      48.773  27.190  36.120  1.00  0.00     0.049 A 
ATOM     69  H   UNL A   1      48.689  28.583  34.544  1.00  0.00     0.167 HD
ATOM     70  C   UNL A   1      48.827  24.804  35.925  1.00  0.00     0.074 A 
ATOM     71  C   UNL A   1      48.830  24.506  37.344  1.00  0.00     0.031 C 
ATOM     72  C   UNL A   1      48.918  26.002  35.293  1.00  0.00     0.034 A 
BRANCH  59  73
ATOM     73  C   UNL A   1      47.157  30.946  34.593  1.00  0.00     0.023 A 
ATOM     74  C   UNL A   1      47.987  30.398  33.605  1.00  0.00     0.031 A 
ATOM     75  C   UNL A   1      46.520  32.172  34.315  1.00  0.00     0.131 A 
ATOM     76  C   UNL A   1      48.198  31.097  32.406  1.00  0.00     0.055 A 
ATOM     77  C   UNL A   1      46.766  32.884  33.142  1.00  0.00     0.041 A 
ATOM     78  F   UNL A   1      45.646  32.700  35.187  1.00  0.00    -0.206 F 
ATOM     79  C   UNL A   1      47.618  32.350  32.182  1.00  0.00     0.022 A 
BRANCH  76  80
ATOM     80  S   UNL A   1      49.239  30.336  31.131  1.00  0.00     0.124 S 
ATOM     81  O   UNL A   1      49.617  29.068  31.748  1.00  0.00    -0.237 OA
ATOM     82  O   UNL A   1      48.321  30.238  30.000  1.00  0.00    -0.237 OA
ATOM     83  O   UNL A   1      50.331  31.292  30.959  1.00  0.00    -0.744 OA
ENDBRANCH  76  80
ENDBRANCH  59  73
BRANCH  60  84
ATOM     84  C   UNL A   1      46.036  21.402  36.317  1.00  0.00     0.023 A 
ATOM     85  C   UNL A   1      46.363  20.816  37.607  1.00  0.00     0.031 A 
ATOM     86  C   UNL A   1      45.556  20.485  35.378  1.00  0.00     0.131 A 
ATOM     87  C   UNL A   1      46.148  19.444  37.915  1.00  0.00     0.055 A 
ATOM     88  C   UNL A   1      45.366  19.112  35.680  1.00  0.00     0.041 A 
ATOM     89  F   UNL A   1      45.169  20.899  34.163  1.00  0.00    -0.206 F 
ATOM     90  C   UNL A   1      45.635  18.592  36.947  1.00  0.00     0.022 A 
BRANCH  87  91
ATOM     91  S   UNL A   1      46.320  18.784  39.630  1.00  0.00     0.124 S 
ATOM     92  O   UNL A   1      47.754  18.553  39.746  1.00  0.00    -0.237 OA
ATOM     93  O   UNL A   1      45.764  19.853  40.454  1.00  0.00    -0.237 OA
ATOM     94  O   UNL A   1      45.506  17.566  39.603  1.00  0.00    -0.744 OA
ENDBRANCH  87  91
ENDBRANCH  60  84
BRANCH  72  95
ATOM     95  C   UNL A   1      48.973  25.980  33.760  1.00  0.00     0.023 A 
ATOM     96  C   UNL A   1      47.876  26.156  32.870  1.00  0.00     0.031 A 
ATOM     97  C   UNL A   1      50.204  25.669  33.160  1.00  0.00     0.131 A 
ATOM     98  C   UNL A   1      48.021  25.970  31.479  1.00  0.00     0.055 A 
ATOM     99  C   UNL A   1      50.360  25.534  31.777  1.00  0.00     0.041 A 
ATOM    100  F   UNL A   1      51.295  25.472  33.918  1.00  0.00    -0.206 F 
ATOM    101  C   UNL A   1      49.265  25.665  30.932  1.00  0.00     0.022 A 
BRANCH  98 102
ATOM    102  S   UNL A   1      46.565  26.038  30.376  1.00  0.00     0.124 S 
ATOM    103  O   UNL A   1      45.462  25.650  31.246  1.00  0.00    -0.237 OA
ATOM    104  O   UNL A   1      46.569  27.428  29.928  1.00  0.00    -0.237 OA
ATOM    105  O   UNL A   1      46.885  25.061  29.332  1.00  0.00    -0.744 OA
ENDBRANCH  98 102
ENDBRANCH  72  95
ENDBRANCH  46  47
ENDBRANCH  39  41
ENDBRANCH  38  39
ENDBRANCH  37  38
ENDBRANCH  36  37
ENDBRANCH  35  36
ENDBRANCH  34  35
ENDBRANCH  33  34
ENDBRANCH   1  33
TORSDOF 27
ENDMDL
MODEL 2
REMARK VINA RESULT:      -7.6      4.953      9.136
REMARK SMILES Cc1c(CC(=O)OCCOCCOCCOCCOC(=O)c2ccc(-c3c4nc(c(-c5cc(S(=O)(=O)[O-])ccc5F)c5ccc([nH]5)c(-c5cc(S(=O)(=O)[O-])ccc5F)c5nc(c(-c6cc(S(=O)(=O)[O-])ccc6F)c6ccc3[nH]6)C=C5)C=C4)cc2)cc(-c2ccc(S(C)(=O)=O)cc2)n1-c1ccccc1
REMARK SMILES IDX 13 1 12 2 11 3 10 4 9 5 8 6 7 7 5 8 6 9 4 10 3 11 1 12 2 13
REMARK SMILES IDX 97 14 85 15 86 16 98 17 99 18 103 19 100 20 102 21 101 22
REMARK SMILES IDX 87 23 88 24 96 25 89 26 95 27 90 28 91 29 92 30 93 31 94 32
REMARK SMILES IDX 14 33 15 34 16 35 17 36 18 37 19 38 20 39 21 40 22 41 23 42
REMARK SMILES IDX 84 43 24 44 83 45 25 46 26 47 27 48 77 49 28 50 82 51 76 52
REMARK SMILES IDX 78 53 29 54 81 55 75 56 74 57 30 59 62 60 42 61 61 62 43 63
REMARK SMILES IDX 46 64 60 65 79 66 44 67 45 68 59 70 80 71 47 72 31 73 32 74
REMARK SMILES IDX 40 75 33 76 39 77 41 78 38 79 34 80 35 81 36 82 37 83 63 84
REMARK SMILES IDX 64 85 72 86 65 87 71 88 73 89 70 90 66 91 67 92 68 93 69 94
REMARK SMILES IDX 48 95 49 96 57 97 50 98 56 99 58 100 55 101 51 102 52 103
REMARK SMILES IDX 53 104 54 105
REMARK H PARENT 78 58 46 69
REMARK Flexibility Score: inf
ROOT
ATOM      1  O   UNL A   1      46.493  24.739  26.089  1.00  0.00    -0.377 OA
ENDROOT
BRANCH   1   2
ATOM      2  C   UNL A   1      45.318  25.411  25.678  1.00  0.00     0.188 C 
BRANCH   2   3
ATOM      3  C   UNL A   1      44.167  24.437  25.351  1.00  0.00     0.188 C 
BRANCH   3   4
ATOM      4  O   UNL A   1      44.270  23.108  25.860  1.00  0.00    -0.376 OA
BRANCH   4   5
ATOM      5  C   UNL A   1      43.704  22.064  25.061  1.00  0.00     0.202 C 
BRANCH   5   6
ATOM      6  C   UNL A   1      43.905  20.608  25.536  1.00  0.00     0.261 C 
BRANCH   6   7
ATOM      7  O   UNL A   1      42.749  19.743  25.371  1.00  0.00    -0.463 OA
BRANCH   7   8
ATOM      8  C   UNL A   1      42.331  19.072  26.473  1.00  0.00     0.310 C 
ATOM      9  O   UNL A   1      42.934  18.106  26.945  1.00  0.00    -0.252 OA
BRANCH   8  10
ATOM     10  C   UNL A   1      41.167  19.686  27.230  1.00  0.00     0.160 C 
BRANCH  10  11
ATOM     11  C   UNL A   1      40.541  21.000  26.826  1.00  0.00    -0.015 A 
ATOM     12  C   UNL A   1      41.780  22.730  28.377  1.00  0.00     0.065 C 
ATOM     13  C   UNL A   1      40.795  22.273  27.349  1.00  0.00     0.024 A 
ATOM     14  N   UNL A   1      39.884  23.165  26.799  1.00  0.00    -0.314 N 
ATOM     15  C   UNL A   1      39.374  21.144  26.011  1.00  0.00     0.033 A 
ATOM     16  C   UNL A   1      38.951  22.461  26.058  1.00  0.00     0.053 A 
BRANCH  14  17
ATOM     17  C   UNL A   1      39.887  24.575  26.951  1.00  0.00     0.046 A 
ATOM     18  C   UNL A   1      40.612  25.397  26.089  1.00  0.00     0.026 A 
ATOM     19  C   UNL A   1      39.291  25.108  28.092  1.00  0.00     0.026 A 
ATOM     20  C   UNL A   1      40.691  26.769  26.357  1.00  0.00     0.002 A 
ATOM     21  C   UNL A   1      39.347  26.481  28.328  1.00  0.00     0.002 A 
ATOM     22  C   UNL A   1      40.046  27.312  27.466  1.00  0.00     0.000 A 
ENDBRANCH  14  17
BRANCH  16  23
ATOM     23  C   UNL A   1      37.735  23.086  25.539  1.00  0.00    -0.001 A 
ATOM     24  C   UNL A   1      36.778  23.621  26.410  1.00  0.00     0.011 A 
ATOM     25  C   UNL A   1      37.471  23.040  24.163  1.00  0.00     0.011 A 
ATOM     26  C   UNL A   1      35.556  24.088  25.919  1.00  0.00     0.021 A 
ATOM     27  C   UNL A   1      36.253  23.504  23.664  1.00  0.00     0.021 A 
ATOM     28  C   UNL A   1      35.298  24.016  24.546  1.00  0.00     0.067 A 
BRANCH  28  29
ATOM     29  S   UNL A   1      33.751  24.639  23.927  1.00  0.00     0.175 S 
ATOM     30  C   UNL A   1      33.648  26.292  24.564  1.00  0.00     0.163 C 
ATOM     31  O   UNL A   1      33.858  24.680  22.500  1.00  0.00    -0.224 OA
ATOM     32  O   UNL A   1      32.691  23.860  24.579  1.00  0.00    -0.224 OA
ENDBRANCH  28  29
ENDBRANCH  16  23
ENDBRANCH  10  11
ENDBRANCH   8  10
ENDBRANCH   7   8
ENDBRANCH   6   7
ENDBRANCH   5   6
ENDBRANCH   4   5
ENDBRANCH   3   4
ENDBRANCH   2   3
ENDBRANCH   1   2
BRANCH   1  33
ATOM     33  C   UNL A   1      47.377  25.317  27.041  1.00  0.00     0.188 C 
BRANCH  33  34
ATOM     34  C   UNL A   1      48.010  26.678  26.723  1.00  0.00     0.188 C 
BRANCH  34  35
ATOM     35  O   UNL A   1      48.321  26.908  25.342  1.00  0.00    -0.376 OA
BRANCH  35  36
ATOM     36  C   UNL A   1      49.516  26.279  24.852  1.00  0.00     0.202 C 
BRANCH  36  37
ATOM     37  C   UNL A   1      50.509  25.788  25.941  1.00  0.00     0.261 C 
BRANCH  37  38
ATOM     38  O   UNL A   1      51.949  25.976  25.655  1.00  0.00    -0.460 OA
BRANCH  38  39
ATOM     39  C   UNL A   1      52.533  27.162  26.024  1.00  0.00     0.338 C 
ATOM     40  O   UNL A   1      53.050  27.916  25.209  1.00  0.00    -0.246 OA
BRANCH  39  41
ATOM     41  C   UNL A   1      52.413  27.561  27.507  1.00  0.00     0.060 A 
ATOM     42  C   UNL A   1      52.806  26.630  28.472  1.00  0.00     0.016 A 
ATOM     43  C   UNL A   1      51.702  28.668  28.013  1.00  0.00     0.016 A 
ATOM     44  C   UNL A   1      52.506  26.799  29.870  1.00  0.00     0.010 A 
ATOM     45  C   UNL A   1      51.333  28.800  29.432  1.00  0.00     0.010 A 
ATOM     46  C   UNL A   1      51.702  27.856  30.418  1.00  0.00    -0.014 A 
BRANCH  46  47
ATOM     47  C   UNL A   1      50.856  27.487  31.746  1.00  0.00     0.031 A 
ATOM     48  C   UNL A   1      51.592  28.240  32.807  1.00  0.00     0.074 A 
ATOM     49  C   UNL A   1      49.788  26.724  32.227  1.00  0.00     0.049 A 
ATOM     50  N   UNL A   1      52.882  28.105  32.953  1.00  0.00    -0.248 NA
ATOM     51  C   UNL A   1      51.018  29.415  33.465  1.00  0.00     0.031 C 
ATOM     52  C   UNL A   1      48.939  25.780  31.483  1.00  0.00     0.029 A 
ATOM     53  N   UNL A   1      49.184  26.610  33.527  1.00  0.00    -0.354 N 
ATOM     54  C   UNL A   1      53.235  28.967  33.961  1.00  0.00     0.074 A 
ATOM     55  C   UNL A   1      52.115  29.893  34.059  1.00  0.00     0.031 C 
ATOM     56  C   UNL A   1      47.904  25.315  32.245  1.00  0.00     0.029 A 
ATOM     57  C   UNL A   1      47.966  25.836  33.612  1.00  0.00     0.049 A 
ATOM     58  H   UNL A   1      49.581  27.037  34.320  1.00  0.00     0.167 HD
ATOM     59  C   UNL A   1      53.956  28.431  34.988  1.00  0.00     0.034 A 
ATOM     60  C   UNL A   1      47.102  25.571  34.679  1.00  0.00     0.034 A 
ATOM     61  C   UNL A   1      53.131  28.179  36.139  1.00  0.00     0.049 A 
ATOM     62  C   UNL A   1      47.876  25.739  35.912  1.00  0.00     0.074 A 
ATOM     63  C   UNL A   1      52.259  28.965  36.862  1.00  0.00     0.029 A 
ATOM     64  N   UNL A   1      52.802  26.865  36.403  1.00  0.00    -0.354 N 
ATOM     65  N   UNL A   1      48.727  24.848  36.308  1.00  0.00    -0.248 NA
ATOM     66  C   UNL A   1      47.676  26.864  36.819  1.00  0.00     0.031 C 
ATOM     67  C   UNL A   1      51.181  28.115  37.197  1.00  0.00     0.029 A 
ATOM     68  C   UNL A   1      51.535  26.793  36.949  1.00  0.00     0.049 A 
ATOM     69  H   UNL A   1      53.384  26.090  36.227  1.00  0.00     0.167 HD
ATOM     70  C   UNL A   1      49.512  25.535  37.181  1.00  0.00     0.074 A 
ATOM     71  C   UNL A   1      48.679  26.618  37.665  1.00  0.00     0.031 C 
ATOM     72  C   UNL A   1      50.848  25.511  36.944  1.00  0.00     0.034 A 
BRANCH  59  73
ATOM     73  C   UNL A   1      55.103  27.569  34.558  1.00  0.00     0.023 A 
ATOM     74  C   UNL A   1      54.922  26.180  34.508  1.00  0.00     0.031 A 
ATOM     75  C   UNL A   1      56.397  28.075  34.316  1.00  0.00     0.131 A 
ATOM     76  C   UNL A   1      56.022  25.341  34.273  1.00  0.00     0.055 A 
ATOM     77  C   UNL A   1      57.494  27.238  34.126  1.00  0.00     0.041 A 
ATOM     78  F   UNL A   1      56.613  29.400  34.264  1.00  0.00    -0.206 F 
ATOM     79  C   UNL A   1      57.312  25.859  34.112  1.00  0.00     0.022 A 
BRANCH  76  80
ATOM     80  S   UNL A   1      55.742  23.553  34.167  1.00  0.00     0.124 S 
ATOM     81  O   UNL A   1      54.389  23.477  33.623  1.00  0.00    -0.237 OA
ATOM     82  O   UNL A   1      56.808  23.125  33.267  1.00  0.00    -0.237 OA
ATOM     83  O   UNL A   1      55.880  23.098  35.549  1.00  0.00    -0.744 OA
ENDBRANCH  76  80
ENDBRANCH  59  73
BRANCH  60  84
ATOM     84  C   UNL A   1      45.694  25.006  35.021  1.00  0.00     0.023 A 
ATOM     85  C   UNL A   1      44.666  25.834  35.631  1.00  0.00     0.031 A 
ATOM     86  C   UNL A   1      45.220  23.800  34.497  1.00  0.00     0.131 A 
ATOM     87  C   UNL A   1      43.287  25.486  35.633  1.00  0.00     0.055 A 
ATOM     88  C   UNL A   1      43.847  23.444  34.523  1.00  0.00     0.041 A 
ATOM     89  F   UNL A   1      46.053  22.965  33.861  1.00  0.00    -0.206 F 
ATOM     90  C   UNL A   1      42.877  24.289  35.065  1.00  0.00     0.022 A 
BRANCH  87  91
ATOM     91  S   UNL A   1      41.977  26.668  36.174  1.00  0.00     0.124 S 
ATOM     92  O   UNL A   1      42.612  27.966  35.984  1.00  0.00    -0.237 OA
ATOM     93  O   UNL A   1      40.861  26.354  35.287  1.00  0.00    -0.237 OA
ATOM     94  O   UNL A   1      41.750  26.299  37.574  1.00  0.00    -0.744 OA
ENDBRANCH  87  91
ENDBRANCH  60  84
BRANCH  72  95
ATOM     95  C   UNL A   1      51.457  24.171  36.510  1.00  0.00     0.023 A 
ATOM     96  C   UNL A   1      51.153  23.446  35.324  1.00  0.00     0.031 A 
ATOM     97  C   UNL A   1      52.339  23.541  37.403  1.00  0.00     0.131 A 
ATOM     98  C   UNL A   1      51.668  22.152  35.101  1.00  0.00     0.055 A 
ATOM     99  C   UNL A   1      52.889  22.279  37.160  1.00  0.00     0.041 A 
ATOM    100  F   UNL A   1      52.676  24.141  38.556  1.00  0.00    -0.206 F 
ATOM    101  C   UNL A   1      52.541  21.571  36.016  1.00  0.00     0.022 A 
BRANCH  98 102
ATOM    102  S   UNL A   1      51.132  21.176  33.651  1.00  0.00     0.124 S 
ATOM    103  O   UNL A   1      51.714  21.894  32.524  1.00  0.00    -0.237 OA
ATOM    104  O   UNL A   1      51.694  19.857  33.929  1.00  0.00    -0.237 OA
ATOM    105  O   UNL A   1      49.670  21.242  33.721  1.00  0.00    -0.744 OA
ENDBRANCH  98 102
ENDBRANCH  72  95
ENDBRANCH  46  47
ENDBRANCH  39  41
ENDBRANCH  38  39
ENDBRANCH  37  38
ENDBRANCH  36  37
ENDBRANCH  35  36
ENDBRANCH  34  35
ENDBRANCH  33  34
ENDBRANCH   1  33
TORSDOF 27
ENDMDL
MODEL 3
REMARK VINA RESULT:      -7.5      1.654      2.648
REMARK SMILES Cc1c(CC(=O)OCCOCCOCCOCCOC(=O)c2ccc(-c3c4nc(c(-c5cc(S(=O)(=O)[O-])ccc5F)c5ccc([nH]5)c(-c5cc(S(=O)(=O)[O-])ccc5F)c5nc(c(-c6cc(S(=O)(=O)[O-])ccc6F)c6ccc3[nH]6)C=C5)C=C4)cc2)cc(-c2ccc(S(C)(=O)=O)cc2)n1-c1ccccc1
REMARK SMILES IDX 13 1 12 2 11 3 10 4 9 5 8 6 7 7 5 8 6 9 4 10 3 11 1 12 2 13
REMARK SMILES IDX 97 14 85 15 86 16 98 17 99 18 103 19 100 20 102 21 101 22
REMARK SMILES IDX 87 23 88 24 96 25 89 26 95 27 90 28 91 29 92 30 93 31 94 32
REMARK SMILES IDX 14 33 15 34 16 35 17 36 18 37 19 38 20 39 21 40 22 41 23 42
REMARK SMILES IDX 84 43 24 44 83 45 25 46 26 47 27 48 77 49 28 50 82 51 76 52
REMARK SMILES IDX 78 53 29 54 81 55 75 56 74 57 30 59 62 60 42 61 61 62 43 63
REMARK SMILES IDX 46 64 60 65 79 66 44 67 45 68 59 70 80 71 47 72 31 73 32 74
REMARK SMILES IDX 40 75 33 76 39 77 41 78 38 79 34 80 35 81 36 82 37 83 63 84
REMARK SMILES IDX 64 85 72 86 65 87 71 88 73 89 70 90 66 91 67 92 68 93 69 94
REMARK SMILES IDX 48 95 49 96 57 97 50 98 56 99 58 100 55 101 51 102 52 103
REMARK SMILES IDX 53 104 54 105
REMARK H PARENT 78 58 46 69
REMARK Flexibility Score: inf
ROOT
ATOM      1  O   UNL A   1      33.928  34.299  31.599  1.00  0.00    -0.377 OA
ENDROOT
BRANCH   1   2
ATOM      2  C   UNL A   1      34.587  33.176  31.046  1.00  0.00     0.188 C 
BRANCH   2   3
ATOM      3  C   UNL A   1      35.220  33.483  29.674  1.00  0.00     0.188 C 
BRANCH   3   4
ATOM      4  O   UNL A   1      36.557  33.982  29.666  1.00  0.00    -0.376 OA
BRANCH   4   5
ATOM      5  C   UNL A   1      37.593  33.050  29.337  1.00  0.00     0.202 C 
BRANCH   5   6
ATOM      6  C   UNL A   1      38.092  32.109  30.456  1.00  0.00     0.261 C 
BRANCH   6   7
ATOM      7  O   UNL A   1      38.724  30.886  29.992  1.00  0.00    -0.463 OA
BRANCH   7   8
ATOM      8  C   UNL A   1      37.951  30.042  29.265  1.00  0.00     0.310 C 
ATOM      9  O   UNL A   1      36.832  29.672  29.625  1.00  0.00    -0.252 OA
BRANCH   8  10
ATOM     10  C   UNL A   1      38.451  29.709  27.870  1.00  0.00     0.160 C 
BRANCH  10  11
ATOM     11  C   UNL A   1      39.499  28.653  27.617  1.00  0.00    -0.015 A 
ATOM     12  C   UNL A   1      38.991  26.874  29.491  1.00  0.00     0.065 C 
ATOM     13  C   UNL A   1      39.728  27.474  28.338  1.00  0.00     0.024 A 
ATOM     14  N   UNL A   1      40.889  26.883  27.857  1.00  0.00    -0.314 N 
ATOM     15  C   UNL A   1      40.626  28.797  26.747  1.00  0.00     0.033 A 
ATOM     16  C   UNL A   1      41.494  27.739  26.954  1.00  0.00     0.053 A 
BRANCH  14  17
ATOM     17  C   UNL A   1      41.396  25.607  28.213  1.00  0.00     0.046 A 
ATOM     18  C   UNL A   1      42.510  25.474  29.039  1.00  0.00     0.026 A 
ATOM     19  C   UNL A   1      40.860  24.492  27.573  1.00  0.00     0.026 A 
ATOM     20  C   UNL A   1      43.053  24.201  29.257  1.00  0.00     0.002 A 
ATOM     21  C   UNL A   1      41.387  23.226  27.826  1.00  0.00     0.002 A 
ATOM     22  C   UNL A   1      42.483  23.077  28.663  1.00  0.00     0.000 A 
ENDBRANCH  14  17
BRANCH  16  23
ATOM     23  C   UNL A   1      42.844  27.506  26.443  1.00  0.00    -0.001 A 
ATOM     24  C   UNL A   1      43.071  26.584  25.413  1.00  0.00     0.011 A 
ATOM     25  C   UNL A   1      43.934  28.122  27.072  1.00  0.00     0.011 A 
ATOM     26  C   UNL A   1      44.373  26.261  25.027  1.00  0.00     0.021 A 
ATOM     27  C   UNL A   1      45.239  27.805  26.693  1.00  0.00     0.021 A 
ATOM     28  C   UNL A   1      45.452  26.868  25.679  1.00  0.00     0.067 A 
BRANCH  28  29
ATOM     29  S   UNL A   1      47.106  26.470  25.160  1.00  0.00     0.175 S 
ATOM     30  C   UNL A   1      47.199  24.702  25.279  1.00  0.00     0.163 C 
ATOM     31  O   UNL A   1      47.220  26.865  23.788  1.00  0.00    -0.224 OA
ATOM     32  O   UNL A   1      48.012  27.018  26.177  1.00  0.00    -0.224 OA
ENDBRANCH  28  29
ENDBRANCH  16  23
ENDBRANCH  10  11
ENDBRANCH   8  10
ENDBRANCH   7   8
ENDBRANCH   6   7
ENDBRANCH   5   6
ENDBRANCH   4   5
ENDBRANCH   3   4
ENDBRANCH   2   3
ENDBRANCH   1   2
BRANCH   1  33
ATOM     33  C   UNL A   1      34.175  34.712  32.938  1.00  0.00     0.188 C 
BRANCH  33  34
ATOM     34  C   UNL A   1      34.910  33.749  33.879  1.00  0.00     0.188 C 
BRANCH  34  35
ATOM     35  O   UNL A   1      36.276  33.477  33.542  1.00  0.00    -0.376 OA
BRANCH  35  36
ATOM     36  C   UNL A   1      36.982  32.595  34.429  1.00  0.00     0.202 C 
BRANCH  36  37
ATOM     37  C   UNL A   1      38.497  32.419  34.133  1.00  0.00     0.261 C 
BRANCH  37  38
ATOM     38  O   UNL A   1      39.434  32.995  35.123  1.00  0.00    -0.460 OA
BRANCH  38  39
ATOM     39  C   UNL A   1      40.766  32.680  35.015  1.00  0.00     0.338 C 
ATOM     40  O   UNL A   1      41.645  33.526  35.102  1.00  0.00    -0.246 OA
BRANCH  39  41
ATOM     41  C   UNL A   1      41.115  31.185  34.889  1.00  0.00     0.060 A 
ATOM     42  C   UNL A   1      41.114  30.410  36.051  1.00  0.00     0.016 A 
ATOM     43  C   UNL A   1      41.695  30.561  33.766  1.00  0.00     0.016 A 
ATOM     44  C   UNL A   1      41.662  29.079  36.087  1.00  0.00     0.010 A 
ATOM     45  C   UNL A   1      42.320  29.229  33.825  1.00  0.00     0.010 A 
ATOM     46  C   UNL A   1      42.349  28.440  34.999  1.00  0.00    -0.014 A 
BRANCH  46  47
ATOM     47  C   UNL A   1      43.507  27.389  35.410  1.00  0.00     0.031 A 
ATOM     48  C   UNL A   1      44.511  28.271  36.079  1.00  0.00     0.074 A 
ATOM     49  C   UNL A   1      43.899  26.050  35.318  1.00  0.00     0.049 A 
ATOM     50  N   UNL A   1      44.962  29.343  35.488  1.00  0.00    -0.248 NA
ATOM     51  C   UNL A   1      44.750  28.218  37.522  1.00  0.00     0.031 C 
ATOM     52  C   UNL A   1      43.214  24.949  34.621  1.00  0.00     0.029 A 
ATOM     53  N   UNL A   1      45.027  25.330  35.843  1.00  0.00    -0.354 N 
ATOM     54  C   UNL A   1      45.807  29.939  36.390  1.00  0.00     0.074 A 
ATOM     55  C   UNL A   1      45.449  29.346  37.672  1.00  0.00     0.031 C 
ATOM     56  C   UNL A   1      43.814  23.744  34.857  1.00  0.00     0.029 A 
ATOM     57  C   UNL A   1      45.011  23.893  35.686  1.00  0.00     0.049 A 
ATOM     58  H   UNL A   1      45.772  25.793  36.288  1.00  0.00     0.167 HD
ATOM     59  C   UNL A   1      47.060  30.237  35.939  1.00  0.00     0.034 A 
ATOM     60  C   UNL A   1      45.895  22.898  36.117  1.00  0.00     0.034 A 
ATOM     61  C   UNL A   1      48.028  29.275  36.390  1.00  0.00     0.049 A 
ATOM     62  C   UNL A   1      47.199  23.536  36.315  1.00  0.00     0.074 A 
ATOM     63  C   UNL A   1      48.350  28.776  37.634  1.00  0.00     0.029 A 
ATOM     64  N   UNL A   1      48.497  28.368  35.460  1.00  0.00    -0.354 N 
ATOM     65  N   UNL A   1      47.959  23.855  35.318  1.00  0.00    -0.248 NA
ATOM     66  C   UNL A   1      47.768  23.768  37.638  1.00  0.00     0.031 C 
ATOM     67  C   UNL A   1      48.620  27.404  37.429  1.00  0.00     0.029 A 
ATOM     68  C   UNL A   1      48.753  27.155  36.067  1.00  0.00     0.049 A 
ATOM     69  H   UNL A   1      48.628  28.559  34.503  1.00  0.00     0.167 HD
ATOM     70  C   UNL A   1      48.808  24.771  35.855  1.00  0.00     0.074 A 
ATOM     71  C   UNL A   1      48.847  24.463  37.272  1.00  0.00     0.031 C 
ATOM     72  C   UNL A   1      48.882  25.973  35.229  1.00  0.00     0.034 A 
BRANCH  59  73
ATOM     73  C   UNL A   1      47.093  30.917  34.604  1.00  0.00     0.023 A 
ATOM     74  C   UNL A   1      47.958  30.425  33.618  1.00  0.00     0.031 A 
ATOM     75  C   UNL A   1      46.385  32.104  34.328  1.00  0.00     0.131 A 
ATOM     76  C   UNL A   1      48.133  31.140  32.423  1.00  0.00     0.055 A 
ATOM     77  C   UNL A   1      46.593  32.835  33.160  1.00  0.00     0.041 A 
ATOM     78  F   UNL A   1      45.476  32.575  35.198  1.00  0.00    -0.206 F 
ATOM     79  C   UNL A   1      47.480  32.357  32.201  1.00  0.00     0.022 A 
BRANCH  76  80
ATOM     80  S   UNL A   1      49.223  30.449  31.151  1.00  0.00     0.124 S 
ATOM     81  O   UNL A   1      50.395  31.316  31.233  1.00  0.00    -0.237 OA
ATOM     82  O   UNL A   1      49.418  29.080  31.619  1.00  0.00    -0.237 OA
ATOM     83  O   UNL A   1      48.444  30.575  29.920  1.00  0.00    -0.744 OA
ENDBRANCH  76  80
ENDBRANCH  59  73
BRANCH  60  84
ATOM     84  C   UNL A   1      46.035  21.359  36.293  1.00  0.00     0.023 A 
ATOM     85  C   UNL A   1      46.391  20.766  37.571  1.00  0.00     0.031 A 
ATOM     86  C   UNL A   1      45.537  20.447  35.358  1.00  0.00     0.131 A 
ATOM     87  C   UNL A   1      46.186  19.392  37.875  1.00  0.00     0.055 A 
ATOM     88  C   UNL A   1      45.357  19.072  35.655  1.00  0.00     0.041 A 
ATOM     89  F   UNL A   1      45.123  20.869  34.155  1.00  0.00    -0.206 F 
ATOM     90  C   UNL A   1      45.655  18.545  36.913  1.00  0.00     0.022 A 
BRANCH  87  91
ATOM     91  S   UNL A   1      46.397  18.720  39.581  1.00  0.00     0.124 S 
ATOM     92  O   UNL A   1      47.836  18.506  39.670  1.00  0.00    -0.237 OA
ATOM     93  O   UNL A   1      45.843  19.776  40.423  1.00  0.00    -0.237 OA
ATOM     94  O   UNL A   1      45.598  17.493  39.559  1.00  0.00    -0.744 OA
ENDBRANCH  87  91
ENDBRANCH  60  84
BRANCH  72  95
ATOM     95  C   UNL A   1      48.899  25.961  33.695  1.00  0.00     0.023 A 
ATOM     96  C   UNL A   1      47.795  26.215  32.832  1.00  0.00     0.031 A 
ATOM     97  C   UNL A   1      50.093  25.577  33.063  1.00  0.00     0.131 A 
ATOM     98  C   UNL A   1      47.896  26.033  31.437  1.00  0.00     0.055 A 
ATOM     99  C   UNL A   1      50.207  25.444  31.676  1.00  0.00     0.041 A 
ATOM    100  F   UNL A   1      51.186  25.303  33.793  1.00  0.00    -0.206 F 
ATOM    101  C   UNL A   1      49.104  25.652  30.858  1.00  0.00     0.022 A 
BRANCH  98 102
ATOM    102  S   UNL A   1      46.422  26.204  30.370  1.00  0.00     0.124 S 
ATOM    103  O   UNL A   1      45.313  25.926  31.275  1.00  0.00    -0.237 OA
ATOM    104  O   UNL A   1      46.530  27.581  29.894  1.00  0.00    -0.237 OA
ATOM    105  O   UNL A   1      46.630  25.185  29.338  1.00  0.00    -0.744 OA
ENDBRANCH  98 102
ENDBRANCH  72  95
ENDBRANCH  46  47
ENDBRANCH  39  41
ENDBRANCH  38  39
ENDBRANCH  37  38
ENDBRANCH  36  37
ENDBRANCH  35  36
ENDBRANCH  34  35
ENDBRANCH  33  34
ENDBRANCH   1  33
TORSDOF 27
ENDMDL
