MODEL 1
REMARK VINA RESULT:      -9.9      0.000      0.000
REMARK SMILES Cc1cc(C(=O)OCCOCCOCCOCCOC(=O)c2ccc(-c3c4nc(c(-c5cc(S(=O)(=O)[O-])ccc5F)c5ccc([nH]5)c(-c5cc(S(=O)(=O)[O-])ccc5F)c5nc(c(-c6cc(S(=O)(=O)[O-])ccc6F)c6ccc3[nH]6)C=C5)C=C4)cc2)ccc1NC(=O)c1ccc(=O)n(CCOc2ccccc2)n1
REMARK SMILES IDX 11 1 10 2 9 3 8 4 7 5 5 6 6 7 4 8 1 9 2 10 3 11 87 12 86 13
REMARK SMILES IDX 85 14 88 15 89 16 90 18 91 19 92 20 106 21 93 22 96 23 94 24
REMARK SMILES IDX 95 25 97 26 98 27 99 28 100 29 101 30 105 31 102 32 104 33
REMARK SMILES IDX 103 34 12 35 13 36 14 37 15 38 16 39 17 40 18 41 19 42 20 43
REMARK SMILES IDX 21 44 22 45 23 46 84 47 24 48 83 49 25 50 26 51 27 52 77 53
REMARK SMILES IDX 28 54 82 55 76 56 78 57 29 58 81 59 75 60 74 61 30 63 62 64
REMARK SMILES IDX 42 65 61 66 43 67 46 68 60 69 79 70 44 71 45 72 59 74 80 75
REMARK SMILES IDX 47 76 31 77 32 78 40 79 33 80 39 81 41 82 38 83 34 84 35 85
REMARK SMILES IDX 36 86 37 87 63 88 64 89 72 90 65 91 71 92 73 93 70 94 66 95
REMARK SMILES IDX 67 96 68 97 69 98 48 99 49 100 57 101 50 102 56 103 58 104
REMARK SMILES IDX 55 105 51 106 52 107 53 108 54 109
REMARK H PARENT 88 17 78 62 46 73
REMARK Flexibility Score: inf
ROOT
ATOM      1  C   UNL A   1      32.342  24.586  25.563  1.00  0.00     0.188 C 
ENDROOT
BRANCH   1   2
ATOM      2  O   UNL A   1      31.120  24.404  24.856  1.00  0.00    -0.376 OA
BRANCH   2   3
ATOM      3  C   UNL A   1      30.854  23.061  24.440  1.00  0.00     0.202 C 
BRANCH   3   4
ATOM      4  C   UNL A   1      31.127  21.968  25.476  1.00  0.00     0.261 C 
BRANCH   4   5
ATOM      5  O   UNL A   1      31.616  20.805  24.808  1.00  0.00    -0.460 OA
BRANCH   5   6
ATOM      6  C   UNL A   1      32.548  20.099  25.481  1.00  0.00     0.338 C 
ATOM      7  O   UNL A   1      32.605  18.896  25.629  1.00  0.00    -0.246 OA
BRANCH   6   8
ATOM      8  C   UNL A   1      33.694  21.010  25.671  1.00  0.00     0.060 A 
ATOM      9  C   UNL A   1      35.559  23.251  23.292  1.00  0.00     0.046 C 
ATOM     10  C   UNL A   1      35.219  22.592  24.601  1.00  0.00    -0.027 A 
ATOM     11  C   UNL A   1      34.286  21.537  24.525  1.00  0.00     0.021 A 
ATOM     12  C   UNL A   1      35.627  23.062  25.867  1.00  0.00     0.044 A 
ATOM     13  C   UNL A   1      34.928  22.586  26.978  1.00  0.00     0.027 A 
ATOM     14  C   UNL A   1      33.994  21.560  26.904  1.00  0.00     0.018 A 
BRANCH  12  15
ATOM     15  N   UNL A   1      36.745  23.926  25.973  1.00  0.00    -0.320 N 
ATOM     16  C   UNL A   1      38.110  23.682  26.022  1.00  0.00     0.276 C 
ATOM     17  H   UNL A   1      36.508  24.880  26.021  1.00  0.00     0.170 HD
ATOM     18  O   UNL A   1      38.922  24.601  25.962  1.00  0.00    -0.267 OA
BRANCH  16  19
ATOM     19  C   UNL A   1      38.621  22.276  26.262  1.00  0.00     0.149 A 
ATOM     20  C   UNL A   1      37.917  21.238  25.482  1.00  0.00     0.042 A 
ATOM     21  N   UNL A   1      39.654  22.075  27.025  1.00  0.00    -0.164 NA
ATOM     22  C   UNL A   1      38.605  20.118  25.260  1.00  0.00     0.076 A 
ATOM     23  N   UNL A   1      40.260  20.822  26.898  1.00  0.00    -0.226 N 
ATOM     24  C   UNL A   1      39.942  19.930  25.871  1.00  0.00     0.266 A 
ATOM     25  O   UNL A   1      40.650  18.991  25.524  1.00  0.00    -0.268 OA
BRANCH  23  26
ATOM     26  C   UNL A   1      41.432  20.546  27.731  1.00  0.00     0.190 C 
BRANCH  26  27
ATOM     27  C   UNL A   1      42.691  21.285  27.255  1.00  0.00     0.253 C 
BRANCH  27  28
ATOM     28  O   UNL A   1      43.270  20.702  26.068  1.00  0.00    -0.492 OA
BRANCH  28  29
ATOM     29  C   UNL A   1      44.110  21.574  25.433  1.00  0.00     0.119 A 
ATOM     30  C   UNL A   1      43.703  22.866  25.121  1.00  0.00     0.046 A 
ATOM     31  C   UNL A   1      45.364  21.132  25.031  1.00  0.00     0.046 A 
ATOM     32  C   UNL A   1      44.607  23.744  24.513  1.00  0.00     0.004 A 
ATOM     33  C   UNL A   1      46.292  22.020  24.496  1.00  0.00     0.004 A 
ATOM     34  C   UNL A   1      45.915  23.334  24.244  1.00  0.00     0.000 A 
ENDBRANCH  28  29
ENDBRANCH  27  28
ENDBRANCH  26  27
ENDBRANCH  23  26
ENDBRANCH  16  19
ENDBRANCH  12  15
ENDBRANCH   6   8
ENDBRANCH   5   6
ENDBRANCH   4   5
ENDBRANCH   3   4
ENDBRANCH   2   3
ENDBRANCH   1   2
BRANCH   1  35
ATOM     35  C   UNL A   1      33.070  25.923  25.396  1.00  0.00     0.188 C 
BRANCH  35  36
ATOM     36  O   UNL A   1      32.627  26.771  24.348  1.00  0.00    -0.377 OA
BRANCH  36  37
ATOM     37  C   UNL A   1      32.411  28.158  24.637  1.00  0.00     0.188 C 
BRANCH  37  38
ATOM     38  C   UNL A   1      31.578  28.501  25.872  1.00  0.00     0.188 C 
BRANCH  38  39
ATOM     39  O   UNL A   1      32.472  28.903  26.924  1.00  0.00    -0.376 OA
BRANCH  39  40
ATOM     40  C   UNL A   1      33.443  29.874  26.554  1.00  0.00     0.202 C 
BRANCH  40  41
ATOM     41  C   UNL A   1      33.642  30.979  27.597  1.00  0.00     0.261 C 
BRANCH  41  42
ATOM     42  O   UNL A   1      35.008  31.431  27.574  1.00  0.00    -0.460 OA
BRANCH  42  43
ATOM     43  C   UNL A   1      35.654  31.318  28.766  1.00  0.00     0.338 C 
ATOM     44  O   UNL A   1      35.249  31.775  29.820  1.00  0.00    -0.246 OA
BRANCH  43  45
ATOM     45  C   UNL A   1      36.950  30.616  28.576  1.00  0.00     0.060 A 
ATOM     46  C   UNL A   1      36.991  29.216  28.505  1.00  0.00     0.016 A 
ATOM     47  C   UNL A   1      38.139  31.337  28.666  1.00  0.00     0.016 A 
ATOM     48  C   UNL A   1      38.209  28.540  28.676  1.00  0.00     0.010 A 
ATOM     49  C   UNL A   1      39.320  30.665  28.911  1.00  0.00     0.010 A 
ATOM     50  C   UNL A   1      39.367  29.265  28.982  1.00  0.00    -0.014 A 
BRANCH  50  51
ATOM     51  C   UNL A   1      40.564  28.706  29.647  1.00  0.00     0.031 A 
ATOM     52  C   UNL A   1      41.465  27.720  28.968  1.00  0.00     0.074 A 
ATOM     53  C   UNL A   1      41.057  29.416  30.697  1.00  0.00     0.049 A 
ATOM     54  N   UNL A   1      42.527  27.216  29.505  1.00  0.00    -0.248 NA
ATOM     55  C   UNL A   1      41.256  27.198  27.616  1.00  0.00     0.031 C 
ATOM     56  C   UNL A   1      42.453  29.498  31.132  1.00  0.00     0.029 A 
ATOM     57  N   UNL A   1      40.406  30.239  31.613  1.00  0.00    -0.354 N 
ATOM     58  C   UNL A   1      43.315  26.689  28.502  1.00  0.00     0.074 A 
ATOM     59  C   UNL A   1      42.412  26.556  27.388  1.00  0.00     0.031 C 
ATOM     60  C   UNL A   1      42.544  30.188  32.275  1.00  0.00     0.029 A 
ATOM     61  C   UNL A   1      41.196  30.340  32.763  1.00  0.00     0.049 A 
ATOM     62  H   UNL A   1      39.536  30.677  31.474  1.00  0.00     0.167 HD
ATOM     63  C   UNL A   1      44.669  26.597  28.689  1.00  0.00     0.034 A 
ATOM     64  C   UNL A   1      40.789  29.901  33.989  1.00  0.00     0.034 A 
ATOM     65  C   UNL A   1      45.058  26.870  30.088  1.00  0.00     0.049 A 
ATOM     66  C   UNL A   1      41.617  28.697  34.412  1.00  0.00     0.074 A 
ATOM     67  C   UNL A   1      46.012  27.671  30.695  1.00  0.00     0.029 A 
ATOM     68  N   UNL A   1      44.292  26.347  31.135  1.00  0.00    -0.354 N 
ATOM     69  N   UNL A   1      42.337  28.001  33.562  1.00  0.00    -0.248 NA
ATOM     70  C   UNL A   1      41.804  28.225  35.779  1.00  0.00     0.031 C 
ATOM     71  C   UNL A   1      45.719  27.730  32.090  1.00  0.00     0.029 A 
ATOM     72  C   UNL A   1      44.650  26.885  32.350  1.00  0.00     0.049 A 
ATOM     73  H   UNL A   1      43.582  25.674  31.016  1.00  0.00     0.167 HD
ATOM     74  C   UNL A   1      43.132  27.112  34.222  1.00  0.00     0.074 A 
ATOM     75  C   UNL A   1      42.720  27.249  35.610  1.00  0.00     0.031 C 
ATOM     76  C   UNL A   1      44.086  26.360  33.589  1.00  0.00     0.034 A 
BRANCH  63  77
ATOM     77  C   UNL A   1      45.715  26.470  27.568  1.00  0.00     0.023 A 
ATOM     78  C   UNL A   1      47.024  26.010  27.866  1.00  0.00     0.031 A 
ATOM     79  C   UNL A   1      45.538  26.899  26.232  1.00  0.00     0.131 A 
ATOM     80  C   UNL A   1      48.052  25.997  26.892  1.00  0.00     0.055 A 
ATOM     81  C   UNL A   1      46.536  26.812  25.247  1.00  0.00     0.041 A 
ATOM     82  F   UNL A   1      44.414  27.495  25.814  1.00  0.00    -0.206 F 
ATOM     83  C   UNL A   1      47.803  26.365  25.575  1.00  0.00     0.022 A 
BRANCH  80  84
ATOM     84  S   UNL A   1      49.749  25.519  27.351  1.00  0.00     0.124 S 
ATOM     85  O   UNL A   1      50.128  26.572  28.286  1.00  0.00    -0.237 OA
ATOM     86  O   UNL A   1      49.565  24.187  27.916  1.00  0.00    -0.237 OA
ATOM     87  O   UNL A   1      50.465  25.546  26.075  1.00  0.00    -0.744 OA
ENDBRANCH  80  84
ENDBRANCH  63  77
BRANCH  64  88
ATOM     88  C   UNL A   1      39.385  30.307  34.281  1.00  0.00     0.023 A 
ATOM     89  C   UNL A   1      39.260  31.638  34.760  1.00  0.00     0.031 A 
ATOM     90  C   UNL A   1      38.302  29.765  33.568  1.00  0.00     0.131 A 
ATOM     91  C   UNL A   1      38.204  32.452  34.325  1.00  0.00     0.055 A 
ATOM     92  C   UNL A   1      37.220  30.572  33.176  1.00  0.00     0.041 A 
ATOM     93  F   UNL A   1      38.376  28.531  33.049  1.00  0.00    -0.206 F 
ATOM     94  C   UNL A   1      37.198  31.929  33.505  1.00  0.00     0.022 A 
BRANCH  91  95
ATOM     95  S   UNL A   1      38.282  34.258  34.580  1.00  0.00     0.124 S 
ATOM     96  O   UNL A   1      38.109  34.367  36.025  1.00  0.00    -0.237 OA
ATOM     97  O   UNL A   1      39.594  34.639  34.070  1.00  0.00    -0.237 OA
ATOM     98  O   UNL A   1      37.164  34.747  33.774  1.00  0.00    -0.744 OA
ENDBRANCH  91  95
ENDBRANCH  64  88
BRANCH  76  99
ATOM     99  C   UNL A   1      44.635  25.053  34.110  1.00  0.00     0.023 A 
ATOM    100  C   UNL A   1      45.996  24.869  34.373  1.00  0.00     0.031 A 
ATOM    101  C   UNL A   1      43.778  24.002  34.532  1.00  0.00     0.131 A 
ATOM    102  C   UNL A   1      46.467  23.683  34.957  1.00  0.00     0.055 A 
ATOM    103  C   UNL A   1      44.241  22.857  35.184  1.00  0.00     0.041 A 
ATOM    104  F   UNL A   1      42.449  24.050  34.364  1.00  0.00    -0.206 F 
ATOM    105  C   UNL A   1      45.598  22.685  35.390  1.00  0.00     0.022 A 
BRANCH 102 106
ATOM    106  S   UNL A   1      48.256  23.466  35.089  1.00  0.00     0.124 S 
ATOM    107  O   UNL A   1      48.667  23.541  33.689  1.00  0.00    -0.237 OA
ATOM    108  O   UNL A   1      48.649  24.596  35.924  1.00  0.00    -0.237 OA
ATOM    109  O   UNL A   1      48.399  22.152  35.710  1.00  0.00    -0.744 OA
ENDBRANCH 102 106
ENDBRANCH  76  99
ENDBRANCH  50  51
ENDBRANCH  43  45
ENDBRANCH  42  43
ENDBRANCH  41  42
ENDBRANCH  40  41
ENDBRANCH  39  40
ENDBRANCH  38  39
ENDBRANCH  37  38
ENDBRANCH  36  37
ENDBRANCH  35  36
ENDBRANCH   1  35
TORSDOF 29
ENDMDL
MODEL 2
REMARK VINA RESULT:      -9.6      1.823      2.314
REMARK SMILES Cc1cc(C(=O)OCCOCCOCCOCCOC(=O)c2ccc(-c3c4nc(c(-c5cc(S(=O)(=O)[O-])ccc5F)c5ccc([nH]5)c(-c5cc(S(=O)(=O)[O-])ccc5F)c5nc(c(-c6cc(S(=O)(=O)[O-])ccc6F)c6ccc3[nH]6)C=C5)C=C4)cc2)ccc1NC(=O)c1ccc(=O)n(CCOc2ccccc2)n1
REMARK SMILES IDX 11 1 10 2 9 3 8 4 7 5 5 6 6 7 4 8 1 9 2 10 3 11 87 12 86 13
REMARK SMILES IDX 85 14 88 15 89 16 90 18 91 19 92 20 106 21 93 22 96 23 94 24
REMARK SMILES IDX 95 25 97 26 98 27 99 28 100 29 101 30 105 31 102 32 104 33
REMARK SMILES IDX 103 34 12 35 13 36 14 37 15 38 16 39 17 40 18 41 19 42 20 43
REMARK SMILES IDX 21 44 22 45 23 46 84 47 24 48 83 49 25 50 26 51 27 52 77 53
REMARK SMILES IDX 28 54 82 55 76 56 78 57 29 58 81 59 75 60 74 61 30 63 62 64
REMARK SMILES IDX 42 65 61 66 43 67 46 68 60 69 79 70 44 71 45 72 59 74 80 75
REMARK SMILES IDX 47 76 31 77 32 78 40 79 33 80 39 81 41 82 38 83 34 84 35 85
REMARK SMILES IDX 36 86 37 87 63 88 64 89 72 90 65 91 71 92 73 93 70 94 66 95
REMARK SMILES IDX 67 96 68 97 69 98 48 99 49 100 57 101 50 102 56 103 58 104
REMARK SMILES IDX 55 105 51 106 52 107 53 108 54 109
REMARK H PARENT 88 17 78 62 46 73
REMARK Flexibility Score: inf
ROOT
ATOM      1  C   UNL A   1      32.459  25.344  25.377  1.00  0.00     0.188 C 
ENDROOT
BRANCH   1   2
ATOM      2  O   UNL A   1      31.257  24.670  25.732  1.00  0.00    -0.376 OA
BRANCH   2   3
ATOM      3  C   UNL A   1      30.939  23.532  24.925  1.00  0.00     0.202 C 
BRANCH   3   4
ATOM      4  C   UNL A   1      30.915  22.181  25.642  1.00  0.00     0.261 C 
BRANCH   4   5
ATOM      5  O   UNL A   1      31.619  21.223  24.852  1.00  0.00    -0.460 OA
BRANCH   5   6
ATOM      6  C   UNL A   1      32.512  20.464  25.520  1.00  0.00     0.338 C 
ATOM      7  O   UNL A   1      32.503  19.259  25.665  1.00  0.00    -0.246 OA
BRANCH   6   8
ATOM      8  C   UNL A   1      33.707  21.310  25.711  1.00  0.00     0.060 A 
ATOM      9  C   UNL A   1      35.770  23.343  23.309  1.00  0.00     0.046 C 
ATOM     10  C   UNL A   1      35.355  22.755  24.630  1.00  0.00    -0.027 A 
ATOM     11  C   UNL A   1      34.361  21.757  24.564  1.00  0.00     0.021 A 
ATOM     12  C   UNL A   1      35.757  23.246  25.890  1.00  0.00     0.044 A 
ATOM     13  C   UNL A   1      35.001  22.855  26.996  1.00  0.00     0.027 A 
ATOM     14  C   UNL A   1      34.007  21.886  26.932  1.00  0.00     0.018 A 
BRANCH  12  15
ATOM     15  N   UNL A   1      36.923  24.044  25.998  1.00  0.00    -0.320 N 
ATOM     16  C   UNL A   1      38.272  23.722  26.028  1.00  0.00     0.276 C 
ATOM     17  H   UNL A   1      36.742  25.009  26.063  1.00  0.00     0.170 HD
ATOM     18  O   UNL A   1      39.135  24.594  25.974  1.00  0.00    -0.267 OA
BRANCH  16  19
ATOM     19  C   UNL A   1      38.705  22.286  26.241  1.00  0.00     0.149 A 
ATOM     20  C   UNL A   1      37.881  21.296  25.519  1.00  0.00     0.042 A 
ATOM     21  N   UNL A   1      39.774  22.019  26.932  1.00  0.00    -0.164 NA
ATOM     22  C   UNL A   1      38.477  20.132  25.256  1.00  0.00     0.076 A 
ATOM     23  N   UNL A   1      40.286  20.728  26.770  1.00  0.00    -0.226 N 
ATOM     24  C   UNL A   1      39.838  19.856  25.774  1.00  0.00     0.266 A 
ATOM     25  O   UNL A   1      40.456  18.872  25.385  1.00  0.00    -0.268 OA
BRANCH  23  26
ATOM     26  C   UNL A   1      41.493  20.376  27.520  1.00  0.00     0.190 C 
BRANCH  26  27
ATOM     27  C   UNL A   1      42.774  20.493  26.682  1.00  0.00     0.253 C 
BRANCH  27  28
ATOM     28  O   UNL A   1      42.700  21.535  25.686  1.00  0.00    -0.492 OA
BRANCH  28  29
ATOM     29  C   UNL A   1      43.904  22.160  25.515  1.00  0.00     0.119 A 
ATOM     30  C   UNL A   1      44.645  22.602  26.606  1.00  0.00     0.046 A 
ATOM     31  C   UNL A   1      44.355  22.420  24.228  1.00  0.00     0.046 A 
ATOM     32  C   UNL A   1      45.894  23.195  26.394  1.00  0.00     0.004 A 
ATOM     33  C   UNL A   1      45.627  22.939  24.011  1.00  0.00     0.004 A 
ATOM     34  C   UNL A   1      46.404  23.321  25.099  1.00  0.00     0.000 A 
ENDBRANCH  28  29
ENDBRANCH  27  28
ENDBRANCH  26  27
ENDBRANCH  23  26
ENDBRANCH  16  19
ENDBRANCH  12  15
ENDBRANCH   6   8
ENDBRANCH   5   6
ENDBRANCH   4   5
ENDBRANCH   3   4
ENDBRANCH   2   3
ENDBRANCH   1   2
BRANCH   1  35
ATOM     35  C   UNL A   1      32.596  26.816  25.779  1.00  0.00     0.188 C 
BRANCH  35  36
ATOM     36  O   UNL A   1      31.952  27.219  26.977  1.00  0.00    -0.377 OA
BRANCH  36  37
ATOM     37  C   UNL A   1      31.865  28.621  27.267  1.00  0.00     0.188 C 
BRANCH  37  38
ATOM     38  C   UNL A   1      31.862  29.588  26.083  1.00  0.00     0.188 C 
BRANCH  38  39
ATOM     39  O   UNL A   1      31.724  30.926  26.591  1.00  0.00    -0.376 OA
BRANCH  39  40
ATOM     40  C   UNL A   1      32.925  31.519  27.069  1.00  0.00     0.202 C 
BRANCH  40  41
ATOM     41  C   UNL A   1      32.721  32.891  27.721  1.00  0.00     0.261 C 
BRANCH  41  42
ATOM     42  O   UNL A   1      33.997  33.470  28.046  1.00  0.00    -0.460 OA
BRANCH  42  43
ATOM     43  C   UNL A   1      34.460  33.143  29.283  1.00  0.00     0.338 C 
ATOM     44  O   UNL A   1      34.120  33.688  30.318  1.00  0.00    -0.246 OA
BRANCH  43  45
ATOM     45  C   UNL A   1      35.485  32.072  29.174  1.00  0.00     0.060 A 
ATOM     46  C   UNL A   1      35.319  30.862  29.864  1.00  0.00     0.016 A 
ATOM     47  C   UNL A   1      36.698  32.347  28.547  1.00  0.00     0.016 A 
ATOM     48  C   UNL A   1      36.414  30.004  30.050  1.00  0.00     0.010 A 
ATOM     49  C   UNL A   1      37.789  31.538  28.800  1.00  0.00     0.010 A 
ATOM     50  C   UNL A   1      37.682  30.392  29.601  1.00  0.00    -0.014 A 
BRANCH  50  51
ATOM     51  C   UNL A   1      38.961  29.866  30.125  1.00  0.00     0.031 A 
ATOM     52  C   UNL A   1      39.682  28.726  29.470  1.00  0.00     0.074 A 
ATOM     53  C   UNL A   1      39.669  30.697  30.935  1.00  0.00     0.049 A 
ATOM     54  N   UNL A   1      40.806  28.243  29.884  1.00  0.00    -0.248 NA
ATOM     55  C   UNL A   1      39.203  28.012  28.285  1.00  0.00     0.031 C 
ATOM     56  C   UNL A   1      41.124  30.753  31.092  1.00  0.00     0.029 A 
ATOM     57  N   UNL A   1      39.233  31.697  31.801  1.00  0.00    -0.354 N 
ATOM     58  C   UNL A   1      41.371  27.513  28.858  1.00  0.00     0.074 A 
ATOM     59  C   UNL A   1      40.270  27.266  27.963  1.00  0.00     0.031 C 
ATOM     60  C   UNL A   1      41.454  31.608  32.068  1.00  0.00     0.029 A 
ATOM     61  C   UNL A   1      40.229  31.925  32.758  1.00  0.00     0.049 A 
ATOM     62  H   UNL A   1      38.370  32.165  31.749  1.00  0.00     0.167 HD
ATOM     63  C   UNL A   1      42.732  27.361  28.812  1.00  0.00     0.034 A 
ATOM     64  C   UNL A   1      40.044  31.714  34.093  1.00  0.00     0.034 A 
ATOM     65  C   UNL A   1      43.388  27.825  30.052  1.00  0.00     0.049 A 
ATOM     66  C   UNL A   1      40.892  30.538  34.555  1.00  0.00     0.074 A 
ATOM     67  C   UNL A   1      44.467  28.645  30.335  1.00  0.00     0.029 A 
ATOM     68  N   UNL A   1      42.814  27.525  31.293  1.00  0.00    -0.354 N 
ATOM     69  N   UNL A   1      41.413  29.671  33.719  1.00  0.00    -0.248 NA
ATOM     70  C   UNL A   1      41.315  30.277  35.927  1.00  0.00     0.031 C 
ATOM     71  C   UNL A   1      44.445  28.943  31.730  1.00  0.00     0.029 A 
ATOM     72  C   UNL A   1      43.414  28.224  32.316  1.00  0.00     0.049 A 
ATOM     73  H   UNL A   1      42.070  26.892  31.418  1.00  0.00     0.167 HD
ATOM     74  C   UNL A   1      42.284  28.846  34.365  1.00  0.00     0.074 A 
ATOM     75  C   UNL A   1      42.147  29.228  35.761  1.00  0.00     0.031 C 
ATOM     76  C   UNL A   1      43.073  27.940  33.706  1.00  0.00     0.034 A 
BRANCH  63  77
ATOM     77  C   UNL A   1      43.543  26.988  27.560  1.00  0.00     0.023 A 
ATOM     78  C   UNL A   1      44.886  27.425  27.425  1.00  0.00     0.031 A 
ATOM     79  C   UNL A   1      43.028  26.328  26.419  1.00  0.00     0.131 A 
ATOM     80  C   UNL A   1      45.627  27.213  26.236  1.00  0.00     0.055 A 
ATOM     81  C   UNL A   1      43.789  26.048  25.271  1.00  0.00     0.041 A 
ATOM     82  F   UNL A   1      41.741  25.975  26.315  1.00  0.00    -0.206 F 
ATOM     83  C   UNL A   1      45.093  26.497  25.171  1.00  0.00     0.022 A 
BRANCH  80  84
ATOM     84  S   UNL A   1      47.303  27.904  26.061  1.00  0.00     0.124 S 
ATOM     85  O   UNL A   1      47.653  28.230  27.439  1.00  0.00    -0.237 OA
ATOM     86  O   UNL A   1      48.040  26.805  25.448  1.00  0.00    -0.237 OA
ATOM     87  O   UNL A   1      47.101  29.063  25.190  1.00  0.00    -0.744 OA
ENDBRANCH  80  84
ENDBRANCH  63  77
BRANCH  64  88
ATOM     88  C   UNL A   1      38.736  32.255  34.560  1.00  0.00     0.023 A 
ATOM     89  C   UNL A   1      38.229  31.609  35.719  1.00  0.00     0.031 A 
ATOM     90  C   UNL A   1      38.383  33.599  34.354  1.00  0.00     0.131 A 
ATOM     91  C   UNL A   1      37.609  32.355  36.732  1.00  0.00     0.055 A 
ATOM     92  C   UNL A   1      37.718  34.332  35.352  1.00  0.00     0.041 A 
ATOM     93  F   UNL A   1      38.868  34.279  33.304  1.00  0.00    -0.206 F 
ATOM     94  C   UNL A   1      37.382  33.725  36.564  1.00  0.00     0.022 A 
BRANCH  91  95
ATOM     95  S   UNL A   1      37.359  31.616  38.383  1.00  0.00     0.124 S 
ATOM     96  O   UNL A   1      38.596  31.980  39.067  1.00  0.00    -0.237 OA
ATOM     97  O   UNL A   1      36.148  32.256  38.885  1.00  0.00    -0.237 OA
ATOM     98  O   UNL A   1      37.202  30.194  38.080  1.00  0.00    -0.744 OA
ENDBRANCH  91  95
ENDBRANCH  64  88
BRANCH  76  99
ATOM     99  C   UNL A   1      43.663  26.698  34.332  1.00  0.00     0.023 A 
ATOM    100  C   UNL A   1      45.043  26.504  34.446  1.00  0.00     0.031 A 
ATOM    101  C   UNL A   1      42.849  25.745  35.000  1.00  0.00     0.131 A 
ATOM    102  C   UNL A   1      45.564  25.393  35.126  1.00  0.00     0.055 A 
ATOM    103  C   UNL A   1      43.372  24.684  35.742  1.00  0.00     0.041 A 
ATOM    104  F   UNL A   1      41.510  25.816  34.994  1.00  0.00    -0.206 F 
ATOM    105  C   UNL A   1      44.741  24.494  35.799  1.00  0.00     0.022 A 
BRANCH 102 106
ATOM    106  S   UNL A   1      47.351  25.134  35.062  1.00  0.00     0.124 S 
ATOM    107  O   UNL A   1      47.432  23.720  34.706  1.00  0.00    -0.237 OA
ATOM    108  O   UNL A   1      47.769  26.072  34.025  1.00  0.00    -0.237 OA
ATOM    109  O   UNL A   1      47.796  25.461  36.415  1.00  0.00    -0.744 OA
ENDBRANCH 102 106
ENDBRANCH  76  99
ENDBRANCH  50  51
ENDBRANCH  43  45
ENDBRANCH  42  43
ENDBRANCH  41  42
ENDBRANCH  40  41
ENDBRANCH  39  40
ENDBRANCH  38  39
ENDBRANCH  37  38
ENDBRANCH  36  37
ENDBRANCH  35  36
ENDBRANCH   1  35
TORSDOF 29
ENDMDL
MODEL 3
REMARK VINA RESULT:      -9.2      1.983      2.349
REMARK SMILES Cc1cc(C(=O)OCCOCCOCCOCCOC(=O)c2ccc(-c3c4nc(c(-c5cc(S(=O)(=O)[O-])ccc5F)c5ccc([nH]5)c(-c5cc(S(=O)(=O)[O-])ccc5F)c5nc(c(-c6cc(S(=O)(=O)[O-])ccc6F)c6ccc3[nH]6)C=C5)C=C4)cc2)ccc1NC(=O)c1ccc(=O)n(CCOc2ccccc2)n1
REMARK SMILES IDX 11 1 10 2 9 3 8 4 7 5 5 6 6 7 4 8 1 9 2 10 3 11 87 12 86 13
REMARK SMILES IDX 85 14 88 15 89 16 90 18 91 19 92 20 106 21 93 22 96 23 94 24
REMARK SMILES IDX 95 25 97 26 98 27 99 28 100 29 101 30 105 31 102 32 104 33
REMARK SMILES IDX 103 34 12 35 13 36 14 37 15 38 16 39 17 40 18 41 19 42 20 43
REMARK SMILES IDX 21 44 22 45 23 46 84 47 24 48 83 49 25 50 26 51 27 52 77 53
REMARK SMILES IDX 28 54 82 55 76 56 78 57 29 58 81 59 75 60 74 61 30 63 62 64
REMARK SMILES IDX 42 65 61 66 43 67 46 68 60 69 79 70 44 71 45 72 59 74 80 75
REMARK SMILES IDX 47 76 31 77 32 78 40 79 33 80 39 81 41 82 38 83 34 84 35 85
REMARK SMILES IDX 36 86 37 87 63 88 64 89 72 90 65 91 71 92 73 93 70 94 66 95
REMARK SMILES IDX 67 96 68 97 69 98 48 99 49 100 57 101 50 102 56 103 58 104
REMARK SMILES IDX 55 105 51 106 52 107 53 108 54 109
REMARK H PARENT 88 17 78 62 46 73
REMARK Flexibility Score: inf
ROOT
ATOM      1  C   UNL A   1      32.333  24.834  25.038  1.00  0.00     0.188 C 
ENDROOT
BRANCH   1   2
ATOM      2  O   UNL A   1      31.134  24.069  24.963  1.00  0.00    -0.376 OA
BRANCH   2   3
ATOM      3  C   UNL A   1      31.270  22.787  24.343  1.00  0.00     0.202 C 
BRANCH   3   4
ATOM      4  C   UNL A   1      31.438  21.595  25.287  1.00  0.00     0.261 C 
BRANCH   4   5
ATOM      5  O   UNL A   1      32.197  20.582  24.628  1.00  0.00    -0.460 OA
BRANCH   5   6
ATOM      6  C   UNL A   1      33.134  19.974  25.384  1.00  0.00     0.338 C 
ATOM      7  O   UNL A   1      33.266  18.785  25.590  1.00  0.00    -0.246 OA
BRANCH   6   8
ATOM      8  C   UNL A   1      34.199  20.973  25.599  1.00  0.00     0.060 A 
ATOM      9  C   UNL A   1      36.169  23.115  23.214  1.00  0.00     0.046 C 
ATOM     10  C   UNL A   1      35.733  22.554  24.540  1.00  0.00    -0.027 A 
ATOM     11  C   UNL A   1      34.876  21.436  24.472  1.00  0.00     0.021 A 
ATOM     12  C   UNL A   1      35.978  23.160  25.789  1.00  0.00     0.044 A 
ATOM     13  C   UNL A   1      35.196  22.738  26.865  1.00  0.00     0.027 A 
ATOM     14  C   UNL A   1      34.336  21.649  26.798  1.00  0.00     0.018 A 
BRANCH  12  15
ATOM     15  N   UNL A   1      37.027  24.103  25.922  1.00  0.00    -0.320 N 
ATOM     16  C   UNL A   1      38.400  23.957  26.059  1.00  0.00     0.276 C 
ATOM     17  H   UNL A   1      36.724  25.040  25.917  1.00  0.00     0.170 HD
ATOM     18  O   UNL A   1      39.150  24.927  26.007  1.00  0.00    -0.267 OA
BRANCH  16  19
ATOM     19  C   UNL A   1      38.990  22.601  26.386  1.00  0.00     0.149 A 
ATOM     20  C   UNL A   1      38.408  21.488  25.608  1.00  0.00     0.042 A 
ATOM     21  N   UNL A   1      39.984  22.501  27.219  1.00  0.00    -0.164 NA
ATOM     22  C   UNL A   1      39.184  20.412  25.473  1.00  0.00     0.076 A 
ATOM     23  N   UNL A   1      40.680  21.290  27.179  1.00  0.00    -0.226 N 
ATOM     24  C   UNL A   1      40.490  20.341  26.172  1.00  0.00     0.266 A 
ATOM     25  O   UNL A   1      41.280  19.442  25.907  1.00  0.00    -0.268 OA
BRANCH  23  26
ATOM     26  C   UNL A   1      41.814  21.128  28.091  1.00  0.00     0.190 C 
BRANCH  26  27
ATOM     27  C   UNL A   1      42.377  22.466  28.591  1.00  0.00     0.253 C 
BRANCH  27  28
ATOM     28  O   UNL A   1      43.796  22.600  28.360  1.00  0.00    -0.492 OA
BRANCH  28  29
ATOM     29  C   UNL A   1      44.071  22.892  27.054  1.00  0.00     0.119 A 
ATOM     30  C   UNL A   1      45.128  22.282  26.388  1.00  0.00     0.046 A 
ATOM     31  C   UNL A   1      43.326  23.870  26.408  1.00  0.00     0.046 A 
ATOM     32  C   UNL A   1      45.351  22.572  25.038  1.00  0.00     0.004 A 
ATOM     33  C   UNL A   1      43.492  24.108  25.047  1.00  0.00     0.004 A 
ATOM     34  C   UNL A   1      44.504  23.449  24.357  1.00  0.00     0.000 A 
ENDBRANCH  28  29
ENDBRANCH  27  28
ENDBRANCH  26  27
ENDBRANCH  23  26
ENDBRANCH  16  19
ENDBRANCH  12  15
ENDBRANCH   6   8
ENDBRANCH   5   6
ENDBRANCH   4   5
ENDBRANCH   3   4
ENDBRANCH   2   3
ENDBRANCH   1   2
BRANCH   1  35
ATOM     35  C   UNL A   1      32.210  26.359  24.984  1.00  0.00     0.188 C 
BRANCH  35  36
ATOM     36  O   UNL A   1      31.053  26.934  25.570  1.00  0.00    -0.377 OA
BRANCH  36  37
ATOM     37  C   UNL A   1      31.095  28.316  25.949  1.00  0.00     0.188 C 
BRANCH  37  38
ATOM     38  C   UNL A   1      32.068  29.225  25.199  1.00  0.00     0.188 C 
BRANCH  38  39
ATOM     39  O   UNL A   1      32.464  30.290  26.079  1.00  0.00    -0.376 OA
BRANCH  39  40
ATOM     40  C   UNL A   1      33.858  30.360  26.355  1.00  0.00     0.202 C 
BRANCH  40  41
ATOM     41  C   UNL A   1      34.184  30.804  27.785  1.00  0.00     0.261 C 
BRANCH  41  42
ATOM     42  O   UNL A   1      35.611  30.889  27.955  1.00  0.00    -0.460 OA
BRANCH  42  43
ATOM     43  C   UNL A   1      36.019  30.885  29.253  1.00  0.00     0.338 C 
ATOM     44  O   UNL A   1      35.527  31.563  30.137  1.00  0.00    -0.246 OA
BRANCH  43  45
ATOM     45  C   UNL A   1      37.191  29.985  29.413  1.00  0.00     0.060 A 
ATOM     46  C   UNL A   1      37.262  29.104  30.502  1.00  0.00     0.016 A 
ATOM     47  C   UNL A   1      38.304  30.158  28.593  1.00  0.00     0.016 A 
ATOM     48  C   UNL A   1      38.487  28.517  30.852  1.00  0.00     0.010 A 
ATOM     49  C   UNL A   1      39.522  29.640  28.988  1.00  0.00     0.010 A 
ATOM     50  C   UNL A   1      39.647  28.867  30.151  1.00  0.00    -0.014 A 
BRANCH  50  51
ATOM     51  C   UNL A   1      41.024  28.733  30.675  1.00  0.00     0.031 A 
ATOM     52  C   UNL A   1      41.974  27.693  30.162  1.00  0.00     0.074 A 
ATOM     53  C   UNL A   1      41.538  29.822  31.306  1.00  0.00     0.049 A 
ATOM     54  N   UNL A   1      43.188  27.548  30.581  1.00  0.00    -0.248 NA
ATOM     55  C   UNL A   1      41.649  26.707  29.129  1.00  0.00     0.031 C 
ATOM     56  C   UNL A   1      42.944  30.228  31.369  1.00  0.00     0.029 A 
ATOM     57  N   UNL A   1      40.901  30.826  32.033  1.00  0.00    -0.354 N 
ATOM     58  C   UNL A   1      43.885  26.807  29.648  1.00  0.00     0.074 A 
ATOM     59  C   UNL A   1      42.853  26.178  28.865  1.00  0.00     0.031 C 
ATOM     60  C   UNL A   1      43.088  31.282  32.182  1.00  0.00     0.029 A 
ATOM     61  C   UNL A   1      41.837  31.423  32.885  1.00  0.00     0.049 A 
ATOM     62  H   UNL A   1      39.952  31.073  31.959  1.00  0.00     0.167 HD
ATOM     63  C   UNL A   1      45.244  26.959  29.547  1.00  0.00     0.034 A 
ATOM     64  C   UNL A   1      41.733  31.395  34.245  1.00  0.00     0.034 A 
ATOM     65  C   UNL A   1      45.800  27.753  30.663  1.00  0.00     0.049 A 
ATOM     66  C   UNL A   1      42.839  30.531  34.832  1.00  0.00     0.074 A 
ATOM     67  C   UNL A   1      46.667  28.829  30.755  1.00  0.00     0.029 A 
ATOM     68  N   UNL A   1      45.336  27.538  31.965  1.00  0.00    -0.354 N 
ATOM     69  N   UNL A   1      43.529  29.678  34.110  1.00  0.00    -0.248 NA
ATOM     70  C   UNL A   1      43.339  30.597  36.201  1.00  0.00     0.031 C 
ATOM     71  C   UNL A   1      46.605  29.337  32.086  1.00  0.00     0.029 A 
ATOM     72  C   UNL A   1      45.780  28.509  32.833  1.00  0.00     0.049 A 
ATOM     73  H   UNL A   1      44.761  26.783  32.228  1.00  0.00     0.167 HD
ATOM     74  C   UNL A   1      44.580  29.186  34.824  1.00  0.00     0.074 A 
ATOM     75  C   UNL A   1      44.387  29.749  36.151  1.00  0.00     0.031 C 
ATOM     76  C   UNL A   1      45.543  28.386  34.267  1.00  0.00     0.034 A 
BRANCH  63  77
ATOM     77  C   UNL A   1      46.092  26.579  28.323  1.00  0.00     0.023 A 
ATOM     78  C   UNL A   1      46.172  27.459  27.212  1.00  0.00     0.031 A 
ATOM     79  C   UNL A   1      46.732  25.333  28.126  1.00  0.00     0.131 A 
ATOM     80  C   UNL A   1      46.837  27.096  26.015  1.00  0.00     0.055 A 
ATOM     81  C   UNL A   1      47.459  25.005  26.969  1.00  0.00     0.041 A 
ATOM     82  F   UNL A   1      46.636  24.331  29.008  1.00  0.00    -0.206 F 
ATOM     83  C   UNL A   1      47.509  25.884  25.903  1.00  0.00     0.022 A 
BRANCH  80  84
ATOM     84  S   UNL A   1      46.805  28.205  24.571  1.00  0.00     0.124 S 
ATOM     85  O   UNL A   1      48.024  27.834  23.863  1.00  0.00    -0.237 OA
ATOM     86  O   UNL A   1      45.547  27.851  23.923  1.00  0.00    -0.237 OA
ATOM     87  O   UNL A   1      46.826  29.541  25.170  1.00  0.00    -0.744 OA
ENDBRANCH  80  84
ENDBRANCH  63  77
BRANCH  64  88
ATOM     88  C   UNL A   1      40.345  31.697  34.697  1.00  0.00     0.023 A 
ATOM     89  C   UNL A   1      39.797  32.873  34.120  1.00  0.00     0.031 A 
ATOM     90  C   UNL A   1      39.456  30.673  35.066  1.00  0.00     0.131 A 
ATOM     91  C   UNL A   1      38.455  32.902  33.714  1.00  0.00     0.055 A 
ATOM     92  C   UNL A   1      38.101  30.729  34.700  1.00  0.00     0.041 A 
ATOM     93  F   UNL A   1      39.916  29.519  35.572  1.00  0.00    -0.206 F 
ATOM     94  C   UNL A   1      37.612  31.817  33.973  1.00  0.00     0.022 A 
BRANCH  91  95
ATOM     95  S   UNL A   1      37.872  34.221  32.593  1.00  0.00     0.124 S 
ATOM     96  O   UNL A   1      39.128  34.748  32.068  1.00  0.00    -0.237 OA
ATOM     97  O   UNL A   1      37.026  33.528  31.628  1.00  0.00    -0.237 OA
ATOM     98  O   UNL A   1      37.143  35.113  33.494  1.00  0.00    -0.744 OA
ENDBRANCH  91  95
ENDBRANCH  64  88
BRANCH  76  99
ATOM     99  C   UNL A   1      46.415  27.426  35.041  1.00  0.00     0.023 A 
ATOM    100  C   UNL A   1      46.170  26.049  35.064  1.00  0.00     0.031 A 
ATOM    101  C   UNL A   1      47.634  27.844  35.638  1.00  0.00     0.131 A 
ATOM    102  C   UNL A   1      47.055  25.166  35.701  1.00  0.00     0.055 A 
ATOM    103  C   UNL A   1      48.551  26.955  36.202  1.00  0.00     0.041 A 
ATOM    104  F   UNL A   1      48.010  29.131  35.672  1.00  0.00    -0.206 F 
ATOM    105  C   UNL A   1      48.258  25.603  36.248  1.00  0.00     0.022 A 
BRANCH 102 106
ATOM    106  S   UNL A   1      46.560  23.433  35.833  1.00  0.00     0.124 S 
ATOM    107  O   UNL A   1      47.455  22.950  36.881  1.00  0.00    -0.237 OA
ATOM    108  O   UNL A   1      45.152  23.535  36.203  1.00  0.00    -0.237 OA
ATOM    109  O   UNL A   1      46.817  22.898  34.499  1.00  0.00    -0.744 OA
ENDBRANCH 102 106
ENDBRANCH  76  99
ENDBRANCH  50  51
ENDBRANCH  43  45
ENDBRANCH  42  43
ENDBRANCH  41  42
ENDBRANCH  40  41
ENDBRANCH  39  40
ENDBRANCH  38  39
ENDBRANCH  37  38
ENDBRANCH  36  37
ENDBRANCH  35  36
ENDBRANCH   1  35
TORSDOF 29
ENDMDL
