MODEL 1
REMARK VINA RESULT:      -8.1      0.000      0.000
REMARK SMILES CC[N@@H+]1CCO[C@H](C[NH2+][C@@H]2CCC[C@H](C(=O)OCCOCCOCCOCCOC(=O)c3ccc(-c4c5nc(c(-c6cc(S(=O)(=O)[O-])ccc6F)c6ccc([nH]6)c(-c6cc(S(=O)(=O)[O-])ccc6F)c6nc(c(-c7cc(S(=O)(=O)[O-])ccc7F)c7ccc4[nH]7)C=C6)C=C5)cc3)C2)C1
REMARK SMILES IDX 22 1 21 2 20 3 19 4 18 5 17 6 15 7 16 8 14 9 10 10 11 11
REMARK SMILES IDX 95 12 12 13 13 14 9 15 8 18 7 19 3 20 4 21 96 22 5 24 6 25
REMARK SMILES IDX 2 26 1 27 23 28 24 29 25 30 26 31 27 32 28 33 29 34 30 35
REMARK SMILES IDX 31 36 32 37 33 38 94 39 34 40 93 41 35 42 36 43 37 44 87 45
REMARK SMILES IDX 38 46 92 47 86 48 88 49 39 50 91 51 85 52 84 53 40 55 72 56
REMARK SMILES IDX 52 57 71 58 53 59 56 60 70 61 89 62 54 63 55 64 69 66 90 67
REMARK SMILES IDX 57 68 41 69 42 70 50 71 43 72 49 73 51 74 48 75 44 76 45 77
REMARK SMILES IDX 46 78 47 79 73 80 74 81 82 82 75 83 81 84 83 85 80 86 76 87
REMARK SMILES IDX 77 88 78 89 79 90 58 91 59 92 67 93 60 94 66 95 68 96 65 97
REMARK SMILES IDX 61 98 62 99 63 100 64 101
REMARK H PARENT 9 16 9 17 3 23 88 54 56 65
REMARK Flexibility Score: inf
ROOT
ATOM      1  C   UNL A   1      33.276  35.334  30.841  1.00  0.00     0.188 C 
ENDROOT
BRANCH   1   2
ATOM      2  C   UNL A   1      33.602  35.444  29.346  1.00  0.00     0.188 C 
BRANCH   2   3
ATOM      3  O   UNL A   1      34.853  35.040  28.825  1.00  0.00    -0.376 OA
BRANCH   3   4
ATOM      4  C   UNL A   1      35.047  33.871  28.046  1.00  0.00     0.202 C 
BRANCH   4   5
ATOM      5  C   UNL A   1      35.544  32.512  28.571  1.00  0.00     0.261 C 
BRANCH   5   6
ATOM      6  O   UNL A   1      35.701  31.447  27.626  1.00  0.00    -0.463 OA
BRANCH   6   7
ATOM      7  C   UNL A   1      35.237  30.253  28.044  1.00  0.00     0.309 C 
ATOM      8  O   UNL A   1      35.910  29.434  28.669  1.00  0.00    -0.252 OA
BRANCH   7   9
ATOM      9  C   UNL A   1      33.801  29.945  27.634  1.00  0.00     0.105 C 
ATOM     10  C   UNL A   1      32.735  28.086  26.154  1.00  0.00     0.183 C 
ATOM     11  C   UNL A   1      31.829  29.162  25.527  1.00  0.00     0.065 C 
ATOM     12  C   UNL A   1      33.972  28.682  26.815  1.00  0.00     0.080 C 
ATOM     13  C   UNL A   1      31.648  30.379  26.431  1.00  0.00     0.007 C 
ATOM     14  C   UNL A   1      32.998  30.974  26.832  1.00  0.00     0.016 C 
BRANCH  10  15
ATOM     15  N   UNL A   1      33.046  27.043  25.157  1.00  0.00    -0.341 N 
ATOM     16  H   UNL A   1      32.247  26.975  24.528  1.00  0.00     0.346 HD
ATOM     17  H   UNL A   1      33.918  27.350  24.728  1.00  0.00     0.346 HD
BRANCH  15  18
ATOM     18  C   UNL A   1      33.333  25.690  25.650  1.00  0.00     0.299 C 
BRANCH  18  19
ATOM     19  C   UNL A   1      32.567  24.501  25.009  1.00  0.00     0.227 C 
ATOM     20  N   UNL A   1      34.258  22.811  24.050  1.00  0.00    -0.331 N 
ATOM     21  C   UNL A   1      33.616  23.034  22.758  1.00  0.00     0.291 C 
ATOM     22  C   UNL A   1      33.337  23.154  25.139  1.00  0.00     0.300 C 
ATOM     23  H   UNL A   1      34.429  21.807  24.109  1.00  0.00     0.348 HD
ATOM     24  C   UNL A   1      32.968  24.419  22.624  1.00  0.00     0.222 C 
ATOM     25  O   UNL A   1      32.065  24.745  23.685  1.00  0.00    -0.361 OA
BRANCH  20  26
ATOM     26  C   UNL A   1      35.655  23.213  24.202  1.00  0.00     0.258 C 
ATOM     27  C   UNL A   1      36.650  22.822  23.115  1.00  0.00     0.071 C 
ENDBRANCH  20  26
ENDBRANCH  18  19
ENDBRANCH  15  18
ENDBRANCH  10  15
ENDBRANCH   7   9
ENDBRANCH   6   7
ENDBRANCH   5   6
ENDBRANCH   4   5
ENDBRANCH   3   4
ENDBRANCH   2   3
ENDBRANCH   1   2
BRANCH   1  28
ATOM     28  O   UNL A   1      33.687  34.149  31.485  1.00  0.00    -0.377 OA
BRANCH  28  29
ATOM     29  C   UNL A   1      33.851  34.155  32.898  1.00  0.00     0.188 C 
BRANCH  29  30
ATOM     30  C   UNL A   1      34.681  35.268  33.566  1.00  0.00     0.188 C 
BRANCH  30  31
ATOM     31  O   UNL A   1      36.043  35.313  33.171  1.00  0.00    -0.376 OA
BRANCH  31  32
ATOM     32  C   UNL A   1      36.976  34.446  33.799  1.00  0.00     0.202 C 
BRANCH  32  33
ATOM     33  C   UNL A   1      37.506  33.236  33.011  1.00  0.00     0.261 C 
BRANCH  33  34
ATOM     34  O   UNL A   1      36.908  31.963  33.297  1.00  0.00    -0.460 OA
BRANCH  34  35
ATOM     35  C   UNL A   1      36.891  31.034  32.319  1.00  0.00     0.338 C 
ATOM     36  O   UNL A   1      35.911  30.461  31.872  1.00  0.00    -0.246 OA
BRANCH  35  37
ATOM     37  C   UNL A   1      38.243  30.978  31.727  1.00  0.00     0.060 A 
ATOM     38  C   UNL A   1      39.349  30.829  32.574  1.00  0.00     0.016 A 
ATOM     39  C   UNL A   1      38.419  31.078  30.345  1.00  0.00     0.016 A 
ATOM     40  C   UNL A   1      40.639  30.824  32.045  1.00  0.00     0.010 A 
ATOM     41  C   UNL A   1      39.712  31.100  29.819  1.00  0.00     0.010 A 
ATOM     42  C   UNL A   1      40.829  31.012  30.671  1.00  0.00    -0.014 A 
BRANCH  42  43
ATOM     43  C   UNL A   1      42.182  31.345  30.160  1.00  0.00     0.031 A 
ATOM     44  C   UNL A   1      42.570  32.797  30.084  1.00  0.00     0.074 A 
ATOM     45  C   UNL A   1      43.060  30.388  29.812  1.00  0.00     0.049 A 
ATOM     46  N   UNL A   1      43.665  33.345  29.626  1.00  0.00    -0.248 NA
ATOM     47  C   UNL A   1      41.581  33.760  30.594  1.00  0.00     0.031 C 
ATOM     48  C   UNL A   1      42.822  28.950  29.907  1.00  0.00     0.029 A 
ATOM     49  N   UNL A   1      44.330  30.488  29.304  1.00  0.00    -0.354 N 
ATOM     50  C   UNL A   1      43.495  34.717  29.788  1.00  0.00     0.074 A 
ATOM     51  C   UNL A   1      42.173  34.915  30.342  1.00  0.00     0.031 C 
ATOM     52  C   UNL A   1      43.914  28.300  29.468  1.00  0.00     0.029 A 
ATOM     53  C   UNL A   1      44.908  29.274  29.016  1.00  0.00     0.049 A 
ATOM     54  H   UNL A   1      44.786  31.349  29.160  1.00  0.00     0.167 HD
ATOM     55  C   UNL A   1      44.367  35.718  29.510  1.00  0.00     0.034 A 
ATOM     56  C   UNL A   1      46.088  28.987  28.431  1.00  0.00     0.034 A 
ATOM     57  C   UNL A   1      45.673  35.502  28.939  1.00  0.00     0.049 A 
ATOM     58  C   UNL A   1      46.994  30.124  28.015  1.00  0.00     0.074 A 
ATOM     59  C   UNL A   1      46.636  36.440  28.612  1.00  0.00     0.029 A 
ATOM     60  N   UNL A   1      46.196  34.262  28.594  1.00  0.00    -0.354 N 
ATOM     61  N   UNL A   1      46.823  31.418  28.163  1.00  0.00    -0.248 NA
ATOM     62  C   UNL A   1      48.257  29.758  27.358  1.00  0.00     0.031 C 
ATOM     63  C   UNL A   1      47.701  35.778  27.993  1.00  0.00     0.029 A 
ATOM     64  C   UNL A   1      47.450  34.414  28.022  1.00  0.00     0.049 A 
ATOM     65  H   UNL A   1      45.742  33.399  28.736  1.00  0.00     0.167 HD
ATOM     66  C   UNL A   1      47.974  32.015  27.652  1.00  0.00     0.074 A 
ATOM     67  C   UNL A   1      48.834  30.940  27.204  1.00  0.00     0.031 C 
ATOM     68  C   UNL A   1      48.296  33.333  27.569  1.00  0.00     0.034 A 
BRANCH  55  69
ATOM     69  C   UNL A   1      43.900  37.132  29.767  1.00  0.00     0.023 A 
ATOM     70  C   UNL A   1      43.251  37.889  28.776  1.00  0.00     0.031 A 
ATOM     71  C   UNL A   1      44.151  37.749  31.005  1.00  0.00     0.131 A 
ATOM     72  C   UNL A   1      42.955  39.241  29.008  1.00  0.00     0.055 A 
ATOM     73  C   UNL A   1      43.768  39.067  31.263  1.00  0.00     0.041 A 
ATOM     74  F   UNL A   1      44.792  37.088  31.981  1.00  0.00    -0.206 F 
ATOM     75  C   UNL A   1      43.182  39.827  30.255  1.00  0.00     0.022 A 
BRANCH  72  76
ATOM     76  S   UNL A   1      42.431  40.265  27.606  1.00  0.00     0.124 S 
ATOM     77  O   UNL A   1      41.123  40.734  28.057  1.00  0.00    -0.237 OA
ATOM     78  O   UNL A   1      43.484  41.272  27.539  1.00  0.00    -0.237 OA
ATOM     79  O   UNL A   1      42.395  39.324  26.488  1.00  0.00    -0.744 OA
ENDBRANCH  72  76
ENDBRANCH  55  69
BRANCH  56  80
ATOM     80  C   UNL A   1      46.477  27.571  28.162  1.00  0.00     0.023 A 
ATOM     81  C   UNL A   1      46.134  26.942  26.955  1.00  0.00     0.031 A 
ATOM     82  C   UNL A   1      47.145  26.807  29.135  1.00  0.00     0.131 A 
ATOM     83  C   UNL A   1      46.418  25.579  26.769  1.00  0.00     0.055 A 
ATOM     84  C   UNL A   1      47.478  25.468  28.923  1.00  0.00     0.041 A 
ATOM     85  F   UNL A   1      47.490  27.354  30.311  1.00  0.00    -0.206 F 
ATOM     86  C   UNL A   1      47.103  24.843  27.738  1.00  0.00     0.022 A 
BRANCH  83  87
ATOM     87  S   UNL A   1      45.793  24.758  25.278  1.00  0.00     0.124 S 
ATOM     88  O   UNL A   1      44.455  25.329  25.165  1.00  0.00    -0.237 OA
ATOM     89  O   UNL A   1      46.760  25.182  24.271  1.00  0.00    -0.237 OA
ATOM     90  O   UNL A   1      45.841  23.340  25.626  1.00  0.00    -0.744 OA
ENDBRANCH  83  87
ENDBRANCH  56  80
BRANCH  68  91
ATOM     91  C   UNL A   1      49.662  33.681  27.022  1.00  0.00     0.023 A 
ATOM     92  C   UNL A   1      50.839  33.453  27.755  1.00  0.00     0.031 A 
ATOM     93  C   UNL A   1      49.783  34.256  25.744  1.00  0.00     0.131 A 
ATOM     94  C   UNL A   1      52.078  33.853  27.231  1.00  0.00     0.055 A 
ATOM     95  C   UNL A   1      51.025  34.587  25.198  1.00  0.00     0.041 A 
ATOM     96  F   UNL A   1      48.694  34.503  24.998  1.00  0.00    -0.206 F 
ATOM     97  C   UNL A   1      52.181  34.399  25.948  1.00  0.00     0.022 A 
BRANCH  94  98
ATOM     98  S   UNL A   1      53.548  33.751  28.290  1.00  0.00     0.124 S 
ATOM     99  O   UNL A   1      54.555  34.424  27.475  1.00  0.00    -0.237 OA
ATOM    100  O   UNL A   1      53.118  34.463  29.488  1.00  0.00    -0.237 OA
ATOM    101  O   UNL A   1      53.749  32.313  28.461  1.00  0.00    -0.744 OA
ENDBRANCH  94  98
ENDBRANCH  68  91
ENDBRANCH  42  43
ENDBRANCH  35  37
ENDBRANCH  34  35
ENDBRANCH  33  34
ENDBRANCH  32  33
ENDBRANCH  31  32
ENDBRANCH  30  31
ENDBRANCH  29  30
ENDBRANCH  28  29
ENDBRANCH   1  28
TORSDOF 27
ENDMDL
MODEL 2
REMARK VINA RESULT:      -7.8      3.076      8.001
REMARK SMILES CC[N@@H+]1CCO[C@H](C[NH2+][C@@H]2CCC[C@H](C(=O)OCCOCCOCCOCCOC(=O)c3ccc(-c4c5nc(c(-c6cc(S(=O)(=O)[O-])ccc6F)c6ccc([nH]6)c(-c6cc(S(=O)(=O)[O-])ccc6F)c6nc(c(-c7cc(S(=O)(=O)[O-])ccc7F)c7ccc4[nH]7)C=C6)C=C5)cc3)C2)C1
REMARK SMILES IDX 22 1 21 2 20 3 19 4 18 5 17 6 15 7 16 8 14 9 10 10 11 11
REMARK SMILES IDX 95 12 12 13 13 14 9 15 8 18 7 19 3 20 4 21 96 22 5 24 6 25
REMARK SMILES IDX 2 26 1 27 23 28 24 29 25 30 26 31 27 32 28 33 29 34 30 35
REMARK SMILES IDX 31 36 32 37 33 38 94 39 34 40 93 41 35 42 36 43 37 44 87 45
REMARK SMILES IDX 38 46 92 47 86 48 88 49 39 50 91 51 85 52 84 53 40 55 72 56
REMARK SMILES IDX 52 57 71 58 53 59 56 60 70 61 89 62 54 63 55 64 69 66 90 67
REMARK SMILES IDX 57 68 41 69 42 70 50 71 43 72 49 73 51 74 48 75 44 76 45 77
REMARK SMILES IDX 46 78 47 79 73 80 74 81 82 82 75 83 81 84 83 85 80 86 76 87
REMARK SMILES IDX 77 88 78 89 79 90 58 91 59 92 67 93 60 94 66 95 68 96 65 97
REMARK SMILES IDX 61 98 62 99 63 100 64 101
REMARK H PARENT 9 16 9 17 3 23 88 54 56 65
REMARK Flexibility Score: inf
ROOT
ATOM      1  C   UNL A   1      35.829  31.886  29.901  1.00  0.00     0.188 C 
ENDROOT
BRANCH   1   2
ATOM      2  C   UNL A   1      35.317  32.597  28.642  1.00  0.00     0.188 C 
BRANCH   2   3
ATOM      3  O   UNL A   1      33.947  32.608  28.297  1.00  0.00    -0.376 OA
BRANCH   3   4
ATOM      4  C   UNL A   1      33.381  31.811  27.269  1.00  0.00     0.202 C 
BRANCH   4   5
ATOM      5  C   UNL A   1      33.194  30.284  27.315  1.00  0.00     0.261 C 
BRANCH   5   6
ATOM      6  O   UNL A   1      32.583  29.651  26.185  1.00  0.00    -0.463 OA
BRANCH   6   7
ATOM      7  C   UNL A   1      31.832  28.573  26.483  1.00  0.00     0.309 C 
ATOM      8  O   UNL A   1      31.654  28.153  27.625  1.00  0.00    -0.252 OA
BRANCH   7   9
ATOM      9  C   UNL A   1      31.242  27.850  25.276  1.00  0.00     0.105 C 
ATOM     10  C   UNL A   1      32.247  26.199  23.529  1.00  0.00     0.183 C 
ATOM     11  C   UNL A   1      31.480  26.960  22.431  1.00  0.00     0.065 C 
ATOM     12  C   UNL A   1      32.422  27.029  24.796  1.00  0.00     0.080 C 
ATOM     13  C   UNL A   1      30.268  27.713  22.973  1.00  0.00     0.007 C 
ATOM     14  C   UNL A   1      30.668  28.657  24.108  1.00  0.00     0.016 C 
BRANCH  10  15
ATOM     15  N   UNL A   1      33.516  25.674  22.990  1.00  0.00    -0.341 N 
ATOM     16  H   UNL A   1      33.345  25.397  22.024  1.00  0.00     0.346 HD
ATOM     17  H   UNL A   1      34.183  26.434  23.118  1.00  0.00     0.346 HD
BRANCH  15  18
ATOM     18  C   UNL A   1      34.127  24.527  23.674  1.00  0.00     0.299 C 
BRANCH  18  19
ATOM     19  C   UNL A   1      33.220  23.646  24.575  1.00  0.00     0.227 C 
ATOM     20  N   UNL A   1      34.551  21.593  25.382  1.00  0.00    -0.331 N 
ATOM     21  C   UNL A   1      33.527  20.782  24.730  1.00  0.00     0.291 C 
ATOM     22  C   UNL A   1      34.018  22.922  25.699  1.00  0.00     0.300 C 
ATOM     23  H   UNL A   1      34.751  21.133  26.270  1.00  0.00     0.348 HD
ATOM     24  C   UNL A   1      32.844  21.486  23.550  1.00  0.00     0.222 C 
ATOM     25  O   UNL A   1      32.319  22.779  23.867  1.00  0.00    -0.361 OA
BRANCH  20  26
ATOM     26  C   UNL A   1      35.916  21.525  24.864  1.00  0.00     0.258 C 
ATOM     27  C   UNL A   1      36.659  20.197  24.935  1.00  0.00     0.071 C 
ENDBRANCH  20  26
ENDBRANCH  18  19
ENDBRANCH  15  18
ENDBRANCH  10  15
ENDBRANCH   7   9
ENDBRANCH   6   7
ENDBRANCH   5   6
ENDBRANCH   4   5
ENDBRANCH   3   4
ENDBRANCH   2   3
ENDBRANCH   1   2
BRANCH   1  28
ATOM     28  O   UNL A   1      36.349  30.588  29.717  1.00  0.00    -0.377 OA
BRANCH  28  29
ATOM     29  C   UNL A   1      37.570  30.430  29.006  1.00  0.00     0.188 C 
BRANCH  29  30
ATOM     30  C   UNL A   1      37.716  29.288  27.982  1.00  0.00     0.188 C 
BRANCH  30  31
ATOM     31  O   UNL A   1      38.218  28.072  28.514  1.00  0.00    -0.376 OA
BRANCH  31  32
ATOM     32  C   UNL A   1      39.577  27.727  28.293  1.00  0.00     0.202 C 
BRANCH  32  33
ATOM     33  C   UNL A   1      39.895  26.439  27.513  1.00  0.00     0.261 C 
BRANCH  33  34
ATOM     34  O   UNL A   1      40.522  26.596  26.231  1.00  0.00    -0.460 OA
BRANCH  34  35
ATOM     35  C   UNL A   1      41.866  26.505  26.166  1.00  0.00     0.338 C 
ATOM     36  O   UNL A   1      42.513  25.634  25.608  1.00  0.00    -0.246 OA
BRANCH  35  37
ATOM     37  C   UNL A   1      42.430  27.757  26.707  1.00  0.00     0.060 A 
ATOM     38  C   UNL A   1      43.297  27.692  27.805  1.00  0.00     0.016 A 
ATOM     39  C   UNL A   1      42.101  28.990  26.138  1.00  0.00     0.016 A 
ATOM     40  C   UNL A   1      43.803  28.863  28.368  1.00  0.00     0.010 A 
ATOM     41  C   UNL A   1      42.587  30.164  26.718  1.00  0.00     0.010 A 
ATOM     42  C   UNL A   1      43.410  30.107  27.859  1.00  0.00    -0.014 A 
BRANCH  42  43
ATOM     43  C   UNL A   1      43.667  31.334  28.652  1.00  0.00     0.031 A 
ATOM     44  C   UNL A   1      42.806  31.587  29.861  1.00  0.00     0.074 A 
ATOM     45  C   UNL A   1      44.661  32.183  28.336  1.00  0.00     0.049 A 
ATOM     46  N   UNL A   1      42.796  32.608  30.679  1.00  0.00    -0.248 NA
ATOM     47  C   UNL A   1      41.821  30.543  30.185  1.00  0.00     0.031 C 
ATOM     48  C   UNL A   1      45.601  32.008  27.232  1.00  0.00     0.029 A 
ATOM     49  N   UNL A   1      45.041  33.364  28.920  1.00  0.00    -0.354 N 
ATOM     50  C   UNL A   1      41.802  32.330  31.612  1.00  0.00     0.074 A 
ATOM     51  C   UNL A   1      41.202  31.071  31.228  1.00  0.00     0.031 C 
ATOM     52  C   UNL A   1      46.451  33.049  27.216  1.00  0.00     0.029 A 
ATOM     53  C   UNL A   1      46.085  33.987  28.277  1.00  0.00     0.049 A 
ATOM     54  H   UNL A   1      44.608  33.732  29.724  1.00  0.00     0.167 HD
ATOM     55  C   UNL A   1      41.431  33.056  32.697  1.00  0.00     0.034 A 
ATOM     56  C   UNL A   1      46.658  35.187  28.504  1.00  0.00     0.034 A 
ATOM     57  C   UNL A   1      42.027  34.320  33.052  1.00  0.00     0.049 A 
ATOM     58  C   UNL A   1      46.146  36.038  29.646  1.00  0.00     0.074 A 
ATOM     59  C   UNL A   1      41.728  35.143  34.124  1.00  0.00     0.029 A 
ATOM     60  N   UNL A   1      43.034  34.954  32.336  1.00  0.00    -0.354 N 
ATOM     61  N   UNL A   1      45.199  35.773  30.518  1.00  0.00    -0.248 NA
ATOM     62  C   UNL A   1      46.787  37.347  29.834  1.00  0.00     0.031 C 
ATOM     63  C   UNL A   1      42.490  36.309  34.008  1.00  0.00     0.029 A 
ATOM     64  C   UNL A   1      43.340  36.175  32.920  1.00  0.00     0.049 A 
ATOM     65  H   UNL A   1      43.469  34.590  31.531  1.00  0.00     0.167 HD
ATOM     66  C   UNL A   1      45.161  36.868  31.381  1.00  0.00     0.074 A 
ATOM     67  C   UNL A   1      46.185  37.787  30.929  1.00  0.00     0.031 C 
ATOM     68  C   UNL A   1      44.358  37.089  32.455  1.00  0.00     0.034 A 
BRANCH  55  69
ATOM     69  C   UNL A   1      40.290  32.519  33.529  1.00  0.00     0.023 A 
ATOM     70  C   UNL A   1      38.988  33.038  33.424  1.00  0.00     0.031 A 
ATOM     71  C   UNL A   1      40.518  31.507  34.478  1.00  0.00     0.131 A 
ATOM     72  C   UNL A   1      37.988  32.607  34.309  1.00  0.00     0.055 A 
ATOM     73  C   UNL A   1      39.495  31.015  35.292  1.00  0.00     0.041 A 
ATOM     74  F   UNL A   1      41.746  30.991  34.646  1.00  0.00    -0.206 F 
ATOM     75  C   UNL A   1      38.225  31.578  35.222  1.00  0.00     0.022 A 
BRANCH  72  76
ATOM     76  S   UNL A   1      36.427  33.530  34.365  1.00  0.00     0.124 S 
ATOM     77  O   UNL A   1      36.836  34.832  33.846  1.00  0.00    -0.237 OA
ATOM     78  O   UNL A   1      35.561  32.738  33.498  1.00  0.00    -0.237 OA
ATOM     79  O   UNL A   1      36.072  33.516  35.783  1.00  0.00    -0.744 OA
ENDBRANCH  72  76
ENDBRANCH  55  69
BRANCH  56  80
ATOM     80  C   UNL A   1      47.753  35.685  27.621  1.00  0.00     0.023 A 
ATOM     81  C   UNL A   1      49.099  35.406  27.907  1.00  0.00     0.031 A 
ATOM     82  C   UNL A   1      47.472  36.499  26.509  1.00  0.00     0.131 A 
ATOM     83  C   UNL A   1      50.115  35.974  27.122  1.00  0.00     0.055 A 
ATOM     84  C   UNL A   1      48.484  37.012  25.695  1.00  0.00     0.041 A 
ATOM     85  F   UNL A   1      46.204  36.804  26.193  1.00  0.00    -0.206 F 
ATOM     86  C   UNL A   1      49.816  36.761  26.008  1.00  0.00     0.022 A 
BRANCH  83  87
ATOM     87  S   UNL A   1      51.839  35.745  27.636  1.00  0.00     0.124 S 
ATOM     88  O   UNL A   1      52.174  34.480  26.990  1.00  0.00    -0.237 OA
ATOM     89  O   UNL A   1      52.478  36.935  27.087  1.00  0.00    -0.237 OA
ATOM     90  O   UNL A   1      51.756  35.700  29.094  1.00  0.00    -0.744 OA
ENDBRANCH  83  87
ENDBRANCH  56  80
BRANCH  68  91
ATOM     91  C   UNL A   1      44.595  38.352  33.250  1.00  0.00     0.023 A 
ATOM     92  C   UNL A   1      43.774  39.485  33.114  1.00  0.00     0.031 A 
ATOM     93  C   UNL A   1      45.668  38.422  34.158  1.00  0.00     0.131 A 
ATOM     94  C   UNL A   1      44.074  40.657  33.827  1.00  0.00     0.055 A 
ATOM     95  C   UNL A   1      45.920  39.566  34.917  1.00  0.00     0.041 A 
ATOM     96  F   UNL A   1      46.490  37.374  34.327  1.00  0.00    -0.206 F 
ATOM     97  C   UNL A   1      45.129  40.697  34.743  1.00  0.00     0.022 A 
BRANCH  94  98
ATOM     98  S   UNL A   1      43.134  42.165  33.462  1.00  0.00     0.124 S 
ATOM     99  O   UNL A   1      43.606  43.074  34.503  1.00  0.00    -0.237 OA
ATOM    100  O   UNL A   1      43.562  42.477  32.102  1.00  0.00    -0.237 OA
ATOM    101  O   UNL A   1      41.741  41.742  33.593  1.00  0.00    -0.744 OA
ENDBRANCH  94  98
ENDBRANCH  68  91
ENDBRANCH  42  43
ENDBRANCH  35  37
ENDBRANCH  34  35
ENDBRANCH  33  34
ENDBRANCH  32  33
ENDBRANCH  31  32
ENDBRANCH  30  31
ENDBRANCH  29  30
ENDBRANCH  28  29
ENDBRANCH   1  28
TORSDOF 27
ENDMDL
MODEL 3
REMARK VINA RESULT:      -7.8      4.757     12.012
REMARK SMILES CC[N@@H+]1CCO[C@H](C[NH2+][C@@H]2CCC[C@H](C(=O)OCCOCCOCCOCCOC(=O)c3ccc(-c4c5nc(c(-c6cc(S(=O)(=O)[O-])ccc6F)c6ccc([nH]6)c(-c6cc(S(=O)(=O)[O-])ccc6F)c6nc(c(-c7cc(S(=O)(=O)[O-])ccc7F)c7ccc4[nH]7)C=C6)C=C5)cc3)C2)C1
REMARK SMILES IDX 22 1 21 2 20 3 19 4 18 5 17 6 15 7 16 8 14 9 10 10 11 11
REMARK SMILES IDX 95 12 12 13 13 14 9 15 8 18 7 19 3 20 4 21 96 22 5 24 6 25
REMARK SMILES IDX 2 26 1 27 23 28 24 29 25 30 26 31 27 32 28 33 29 34 30 35
REMARK SMILES IDX 31 36 32 37 33 38 94 39 34 40 93 41 35 42 36 43 37 44 87 45
REMARK SMILES IDX 38 46 92 47 86 48 88 49 39 50 91 51 85 52 84 53 40 55 72 56
REMARK SMILES IDX 52 57 71 58 53 59 56 60 70 61 89 62 54 63 55 64 69 66 90 67
REMARK SMILES IDX 57 68 41 69 42 70 50 71 43 72 49 73 51 74 48 75 44 76 45 77
REMARK SMILES IDX 46 78 47 79 73 80 74 81 82 82 75 83 81 84 83 85 80 86 76 87
REMARK SMILES IDX 77 88 78 89 79 90 58 91 59 92 67 93 60 94 66 95 68 96 65 97
REMARK SMILES IDX 61 98 62 99 63 100 64 101
REMARK H PARENT 9 16 9 17 3 23 88 54 56 65
REMARK Flexibility Score: inf
ROOT
ATOM      1  C   UNL A   1      48.156  25.918  29.925  1.00  0.00     0.188 C 
ENDROOT
BRANCH   1   2
ATOM      2  C   UNL A   1      46.797  25.830  29.218  1.00  0.00     0.188 C 
BRANCH   2   3
ATOM      3  O   UNL A   1      46.559  26.468  27.980  1.00  0.00    -0.376 OA
BRANCH   3   4
ATOM      4  C   UNL A   1      47.161  27.692  27.589  1.00  0.00     0.202 C 
BRANCH   4   5
ATOM      5  C   UNL A   1      46.433  28.890  26.954  1.00  0.00     0.261 C 
BRANCH   5   6
ATOM      6  O   UNL A   1      46.632  30.181  27.541  1.00  0.00    -0.463 OA
BRANCH   6   7
ATOM      7  C   UNL A   1      46.495  31.214  26.686  1.00  0.00     0.309 C 
ATOM      8  O   UNL A   1      45.973  31.124  25.577  1.00  0.00    -0.252 OA
BRANCH   7   9
ATOM      9  C   UNL A   1      47.098  32.529  27.171  1.00  0.00     0.105 C 
ATOM     10  C   UNL A   1      46.377  34.251  28.988  1.00  0.00     0.183 C 
ATOM     11  C   UNL A   1      46.742  35.379  28.005  1.00  0.00     0.065 C 
ATOM     12  C   UNL A   1      46.145  32.919  28.283  1.00  0.00     0.080 C 
ATOM     13  C   UNL A   1      47.753  34.936  26.950  1.00  0.00     0.007 C 
ATOM     14  C   UNL A   1      47.258  33.700  26.197  1.00  0.00     0.016 C 
BRANCH  10  15
ATOM     15  N   UNL A   1      45.247  34.668  29.840  1.00  0.00    -0.341 N 
ATOM     16  H   UNL A   1      45.407  35.641  30.102  1.00  0.00     0.346 HD
ATOM     17  H   UNL A   1      44.419  34.497  29.272  1.00  0.00     0.346 HD
BRANCH  15  18
ATOM     18  C   UNL A   1      45.009  33.914  31.078  1.00  0.00     0.299 C 
BRANCH  18  19
ATOM     19  C   UNL A   1      43.586  33.956  31.696  1.00  0.00     0.227 C 
ATOM     20  N   UNL A   1      42.126  32.132  30.609  1.00  0.00    -0.331 N 
ATOM     21  C   UNL A   1      41.237  33.214  30.195  1.00  0.00     0.291 C 
ATOM     22  C   UNL A   1      42.924  32.549  31.768  1.00  0.00     0.300 C 
ATOM     23  H   UNL A   1      41.520  31.374  30.921  1.00  0.00     0.348 HD
ATOM     24  C   UNL A   1      41.948  34.563  30.021  1.00  0.00     0.222 C 
ATOM     25  O   UNL A   1      42.719  34.967  31.157  1.00  0.00    -0.361 OA
BRANCH  20  26
ATOM     26  C   UNL A   1      42.807  31.365  29.568  1.00  0.00     0.258 C 
ATOM     27  C   UNL A   1      44.133  30.694  29.904  1.00  0.00     0.071 C 
ENDBRANCH  20  26
ENDBRANCH  18  19
ENDBRANCH  15  18
ENDBRANCH  10  15
ENDBRANCH   7   9
ENDBRANCH   6   7
ENDBRANCH   5   6
ENDBRANCH   4   5
ENDBRANCH   3   4
ENDBRANCH   2   3
ENDBRANCH   1   2
BRANCH   1  28
ATOM     28  O   UNL A   1      48.357  27.039  30.755  1.00  0.00    -0.377 OA
BRANCH  28  29
ATOM     29  C   UNL A   1      48.296  26.871  32.166  1.00  0.00     0.188 C 
BRANCH  29  30
ATOM     30  C   UNL A   1      48.967  25.647  32.819  1.00  0.00     0.188 C 
BRANCH  30  31
ATOM     31  O   UNL A   1      48.149  24.940  33.739  1.00  0.00    -0.376 OA
BRANCH  31  32
ATOM     32  C   UNL A   1      48.555  24.844  35.095  1.00  0.00     0.202 C 
BRANCH  32  33
ATOM     33  C   UNL A   1      48.419  26.084  35.996  1.00  0.00     0.261 C 
BRANCH  33  34
ATOM     34  O   UNL A   1      47.448  26.015  37.051  1.00  0.00    -0.460 OA
BRANCH  34  35
ATOM     35  C   UNL A   1      46.756  27.133  37.351  1.00  0.00     0.338 C 
ATOM     36  O   UNL A   1      46.979  27.907  38.269  1.00  0.00    -0.246 OA
BRANCH  35  37
ATOM     37  C   UNL A   1      45.804  27.383  36.251  1.00  0.00     0.060 A 
ATOM     38  C   UNL A   1      46.034  28.461  35.386  1.00  0.00     0.016 A 
ATOM     39  C   UNL A   1      44.686  26.563  36.076  1.00  0.00     0.016 A 
ATOM     40  C   UNL A   1      45.123  28.750  34.371  1.00  0.00     0.010 A 
ATOM     41  C   UNL A   1      43.761  26.868  35.075  1.00  0.00     0.010 A 
ATOM     42  C   UNL A   1      43.956  27.987  34.243  1.00  0.00    -0.014 A 
BRANCH  42  43
ATOM     43  C   UNL A   1      42.842  28.491  33.403  1.00  0.00     0.031 A 
ATOM     44  C   UNL A   1      41.901  29.497  34.008  1.00  0.00     0.074 A 
ATOM     45  C   UNL A   1      42.690  28.101  32.125  1.00  0.00     0.049 A 
ATOM     46  N   UNL A   1      40.826  30.044  33.502  1.00  0.00    -0.248 NA
ATOM     47  C   UNL A   1      42.219  29.943  35.374  1.00  0.00     0.031 C 
ATOM     48  C   UNL A   1      43.577  27.187  31.410  1.00  0.00     0.029 A 
ATOM     49  N   UNL A   1      41.729  28.429  31.203  1.00  0.00    -0.354 N 
ATOM     50  C   UNL A   1      40.337  30.894  34.489  1.00  0.00     0.074 A 
ATOM     51  C   UNL A   1      41.206  30.752  35.637  1.00  0.00     0.031 C 
ATOM     52  C   UNL A   1      43.115  27.023  30.159  1.00  0.00     0.029 A 
ATOM     53  C   UNL A   1      41.875  27.783  29.998  1.00  0.00     0.049 A 
ATOM     54  H   UNL A   1      41.002  29.067  31.387  1.00  0.00     0.167 HD
ATOM     55  C   UNL A   1      39.266  31.726  34.438  1.00  0.00     0.034 A 
ATOM     56  C   UNL A   1      41.084  27.784  28.906  1.00  0.00     0.034 A 
ATOM     57  C   UNL A   1      38.399  31.839  33.292  1.00  0.00     0.049 A 
ATOM     58  C   UNL A   1      39.827  28.625  28.915  1.00  0.00     0.074 A 
ATOM     59  C   UNL A   1      37.284  32.643  33.130  1.00  0.00     0.029 A 
ATOM     60  N   UNL A   1      38.538  31.114  32.114  1.00  0.00    -0.354 N 
ATOM     61  N   UNL A   1      39.365  29.418  29.855  1.00  0.00    -0.248 NA
ATOM     62  C   UNL A   1      38.986  28.571  27.710  1.00  0.00     0.031 C 
ATOM     63  C   UNL A   1      36.702  32.343  31.894  1.00  0.00     0.029 A 
ATOM     64  C   UNL A   1      37.507  31.424  31.238  1.00  0.00     0.049 A 
ATOM     65  H   UNL A   1      39.263  30.475  31.928  1.00  0.00     0.167 HD
ATOM     66  C   UNL A   1      38.203  29.987  29.337  1.00  0.00     0.074 A 
ATOM     67  C   UNL A   1      38.042  29.453  28.000  1.00  0.00     0.031 C 
ATOM     68  C   UNL A   1      37.351  30.877  29.910  1.00  0.00     0.034 A 
BRANCH  55  69
ATOM     69  C   UNL A   1      38.951  32.523  35.682  1.00  0.00     0.023 A 
ATOM     70  C   UNL A   1      39.360  33.861  35.828  1.00  0.00     0.031 A 
ATOM     71  C   UNL A   1      38.276  31.922  36.758  1.00  0.00     0.131 A 
ATOM     72  C   UNL A   1      39.167  34.523  37.049  1.00  0.00     0.055 A 
ATOM     73  C   UNL A   1      38.003  32.618  37.938  1.00  0.00     0.041 A 
ATOM     74  F   UNL A   1      37.886  30.640  36.691  1.00  0.00    -0.206 F 
ATOM     75  C   UNL A   1      38.465  33.921  38.096  1.00  0.00     0.022 A 
BRANCH  72  76
ATOM     76  S   UNL A   1      39.997  36.114  37.311  1.00  0.00     0.124 S 
ATOM     77  O   UNL A   1      39.970  36.685  35.967  1.00  0.00    -0.237 OA
ATOM     78  O   UNL A   1      39.138  36.760  38.297  1.00  0.00    -0.237 OA
ATOM     79  O   UNL A   1      41.324  35.734  37.792  1.00  0.00    -0.744 OA
ENDBRANCH  72  76
ENDBRANCH  55  69
BRANCH  56  80
ATOM     80  C   UNL A   1      41.424  26.941  27.722  1.00  0.00     0.023 A 
ATOM     81  C   UNL A   1      41.200  25.555  27.731  1.00  0.00     0.031 A 
ATOM     82  C   UNL A   1      42.034  27.501  26.586  1.00  0.00     0.131 A 
ATOM     83  C   UNL A   1      41.625  24.770  26.648  1.00  0.00     0.055 A 
ATOM     84  C   UNL A   1      42.401  26.724  25.486  1.00  0.00     0.041 A 
ATOM     85  F   UNL A   1      42.279  28.820  26.526  1.00  0.00    -0.206 F 
ATOM     86  C   UNL A   1      42.209  25.347  25.519  1.00  0.00     0.022 A 
BRANCH  83  87
ATOM     87  S   UNL A   1      41.490  22.966  26.779  1.00  0.00     0.124 S 
ATOM     88  O   UNL A   1      40.127  22.738  26.313  1.00  0.00    -0.237 OA
ATOM     89  O   UNL A   1      42.557  22.518  25.890  1.00  0.00    -0.237 OA
ATOM     90  O   UNL A   1      41.717  22.710  28.200  1.00  0.00    -0.744 OA
ENDBRANCH  83  87
ENDBRANCH  56  80
BRANCH  68  91
ATOM     91  C   UNL A   1      36.197  31.373  29.069  1.00  0.00     0.023 A 
ATOM     92  C   UNL A   1      35.211  30.506  28.569  1.00  0.00     0.031 A 
ATOM     93  C   UNL A   1      36.087  32.742  28.760  1.00  0.00     0.131 A 
ATOM     94  C   UNL A   1      34.195  31.004  27.739  1.00  0.00     0.055 A 
ATOM     95  C   UNL A   1      35.034  33.243  27.993  1.00  0.00     0.041 A 
ATOM     96  F   UNL A   1      37.001  33.619  29.204  1.00  0.00    -0.206 F 
ATOM     97  C   UNL A   1      34.088  32.371  27.465  1.00  0.00     0.022 A 
BRANCH  94  98
ATOM     98  S   UNL A   1      33.073  29.830  26.931  1.00  0.00     0.124 S 
ATOM     99  O   UNL A   1      33.355  28.594  27.656  1.00  0.00    -0.237 OA
ATOM    100  O   UNL A   1      31.765  30.428  27.176  1.00  0.00    -0.237 OA
ATOM    101  O   UNL A   1      33.509  29.842  25.536  1.00  0.00    -0.744 OA
ENDBRANCH  94  98
ENDBRANCH  68  91
ENDBRANCH  42  43
ENDBRANCH  35  37
ENDBRANCH  34  35
ENDBRANCH  33  34
ENDBRANCH  32  33
ENDBRANCH  31  32
ENDBRANCH  30  31
ENDBRANCH  29  30
ENDBRANCH  28  29
ENDBRANCH   1  28
TORSDOF 27
ENDMDL
