MODEL 1
REMARK VINA RESULT:      -9.9      0.000      0.000
REMARK SMILES C#Cc1ccc2c(c1)C=C(C(=O)OCCOCCOCCOCCOC(=O)c1ccc(-c3c4nc(c(-c5cc(S(=O)(=O)[O-])ccc5F)c5ccc([nH]5)c(-c5cc(S(=O)(=O)[O-])ccc5F)c5nc(c(-c6cc(S(=O)(=O)[O-])ccc6F)c6ccc3[nH]6)C=C5)C=C4)cc1)[C@@H](C(F)(F)F)O2
REMARK SMILES IDX 20 1 19 2 18 3 17 4 16 5 15 6 14 7 13 8 11 9 12 10 10 11
REMARK SMILES IDX 3 12 4 13 8 14 5 15 7 16 6 17 9 18 96 19 91 20 2 21 1 22
REMARK SMILES IDX 92 23 93 24 94 25 95 26 21 27 22 28 23 29 24 30 25 31 26 32
REMARK SMILES IDX 27 33 28 34 29 35 90 36 30 37 89 38 31 39 32 40 33 41 83 42
REMARK SMILES IDX 34 43 88 44 82 45 84 46 35 47 87 48 81 49 80 50 36 52 68 53
REMARK SMILES IDX 48 54 67 55 49 56 52 57 66 58 85 59 50 60 51 61 65 63 86 64
REMARK SMILES IDX 53 65 37 66 38 67 46 68 39 69 45 70 47 71 44 72 40 73 41 74
REMARK SMILES IDX 42 75 43 76 69 77 70 78 78 79 71 80 77 81 79 82 76 83 72 84
REMARK SMILES IDX 73 85 74 86 75 87 54 88 55 89 63 90 56 91 62 92 64 93 61 94
REMARK SMILES IDX 57 95 58 96 59 97 60 98
REMARK H PARENT 84 51 52 62
REMARK Flexibility Score: inf
ROOT
ATOM      1  C   UNL A   1      35.354  32.028  28.212  1.00  0.00     0.188 C 
ENDROOT
BRANCH   1   2
ATOM      2  O   UNL A   1      34.521  31.067  27.565  1.00  0.00    -0.377 OA
BRANCH   2   3
ATOM      3  C   UNL A   1      34.848  29.695  27.655  1.00  0.00     0.188 C 
BRANCH   3   4
ATOM      4  C   UNL A   1      34.100  28.761  26.681  1.00  0.00     0.188 C 
BRANCH   4   5
ATOM      5  O   UNL A   1      33.303  29.367  25.687  1.00  0.00    -0.376 OA
BRANCH   5   6
ATOM      6  C   UNL A   1      33.518  29.212  24.295  1.00  0.00     0.202 C 
BRANCH   6   7
ATOM      7  C   UNL A   1      33.844  27.903  23.552  1.00  0.00     0.261 C 
BRANCH   7   8
ATOM      8  O   UNL A   1      33.178  26.721  23.978  1.00  0.00    -0.460 OA
BRANCH   8   9
ATOM      9  C   UNL A   1      32.419  26.101  23.057  1.00  0.00     0.338 C 
ATOM     10  O   UNL A   1      32.707  25.106  22.415  1.00  0.00    -0.246 OA
BRANCH   9  11
ATOM     11  C   UNL A   1      31.076  26.718  23.085  1.00  0.00     0.087 C 
ATOM     12  C   UNL A   1      28.259  30.424  21.922  1.00  0.00     0.025 A 
ATOM     13  C   UNL A   1      27.261  29.920  22.757  1.00  0.00     0.021 A 
ATOM     14  C   UNL A   1      29.437  29.700  21.729  1.00  0.00     0.029 A 
ATOM     15  C   UNL A   1      27.431  28.681  23.380  1.00  0.00     0.048 A 
ATOM     16  C   UNL A   1      29.631  28.489  22.403  1.00  0.00     0.018 A 
ATOM     17  C   UNL A   1      28.616  27.967  23.205  1.00  0.00     0.128 A 
ATOM     18  C   UNL A   1      30.918  27.826  22.350  1.00  0.00     0.027 C 
ATOM     19  O   UNL A   1      28.706  26.778  23.869  1.00  0.00    -0.475 OA
ATOM     20  C   UNL A   1      29.974  26.063  23.876  1.00  0.00     0.316 C 
BRANCH  12  21
ATOM     21  C   UNL A   1      28.105  31.709  21.306  1.00  0.00    -0.070 C 
ATOM     22  C   UNL A   1      27.953  32.788  20.814  1.00  0.00     0.010 C 
ENDBRANCH  12  21
BRANCH  20  23
ATOM     23  C   UNL A   1      30.385  25.828  25.335  1.00  0.00     0.430 C 
ATOM     24  F   UNL A   1      31.011  26.910  25.855  1.00  0.00    -0.167 F 
ATOM     25  F   UNL A   1      29.319  25.571  26.126  1.00  0.00    -0.167 F 
ATOM     26  F   UNL A   1      31.232  24.778  25.447  1.00  0.00    -0.167 F 
ENDBRANCH  20  23
ENDBRANCH   9  11
ENDBRANCH   8   9
ENDBRANCH   7   8
ENDBRANCH   6   7
ENDBRANCH   5   6
ENDBRANCH   4   5
ENDBRANCH   3   4
ENDBRANCH   2   3
ENDBRANCH   1   2
BRANCH   1  27
ATOM     27  C   UNL A   1      34.810  33.084  29.210  1.00  0.00     0.188 C 
BRANCH  27  28
ATOM     28  O   UNL A   1      34.680  34.391  28.691  1.00  0.00    -0.376 OA
BRANCH  28  29
ATOM     29  C   UNL A   1      33.422  35.020  28.578  1.00  0.00     0.202 C 
BRANCH  29  30
ATOM     30  C   UNL A   1      32.909  35.966  29.671  1.00  0.00     0.261 C 
BRANCH  30  31
ATOM     31  O   UNL A   1      32.360  35.372  30.849  1.00  0.00    -0.460 OA
BRANCH  31  32
ATOM     32  C   UNL A   1      32.809  35.824  32.045  1.00  0.00     0.338 C 
ATOM     33  O   UNL A   1      32.256  36.626  32.772  1.00  0.00    -0.246 OA
BRANCH  32  34
ATOM     34  C   UNL A   1      33.990  35.000  32.388  1.00  0.00     0.060 A 
ATOM     35  C   UNL A   1      35.274  35.475  32.108  1.00  0.00     0.016 A 
ATOM     36  C   UNL A   1      33.814  33.715  32.920  1.00  0.00     0.016 A 
ATOM     37  C   UNL A   1      36.381  34.669  32.380  1.00  0.00     0.010 A 
ATOM     38  C   UNL A   1      34.925  32.905  33.181  1.00  0.00     0.010 A 
ATOM     39  C   UNL A   1      36.218  33.386  32.936  1.00  0.00    -0.014 A 
BRANCH  39  40
ATOM     40  C   UNL A   1      37.409  32.648  33.432  1.00  0.00     0.031 A 
ATOM     41  C   UNL A   1      38.058  31.542  32.654  1.00  0.00     0.074 A 
ATOM     42  C   UNL A   1      37.906  33.007  34.633  1.00  0.00     0.049 A 
ATOM     43  N   UNL A   1      39.155  30.887  32.931  1.00  0.00    -0.248 NA
ATOM     44  C   UNL A   1      37.395  31.110  31.415  1.00  0.00     0.031 C 
ATOM     45  C   UNL A   1      37.322  34.038  35.492  1.00  0.00     0.029 A 
ATOM     46  N   UNL A   1      39.000  32.567  35.333  1.00  0.00    -0.354 N 
ATOM     47  C   UNL A   1      39.331  29.975  31.897  1.00  0.00     0.074 A 
ATOM     48  C   UNL A   1      38.195  30.129  31.011  1.00  0.00     0.031 C 
ATOM     49  C   UNL A   1      38.087  34.183  36.582  1.00  0.00     0.029 A 
ATOM     50  C   UNL A   1      39.187  33.224  36.529  1.00  0.00     0.049 A 
ATOM     51  H   UNL A   1      39.596  31.852  35.012  1.00  0.00     0.167 HD
ATOM     52  C   UNL A   1      40.357  29.110  31.705  1.00  0.00     0.034 A 
ATOM     53  C   UNL A   1      40.134  33.077  37.479  1.00  0.00     0.034 A 
ATOM     54  C   UNL A   1      41.478  28.974  32.609  1.00  0.00     0.049 A 
ATOM     55  C   UNL A   1      41.249  32.092  37.248  1.00  0.00     0.074 A 
ATOM     56  C   UNL A   1      42.593  28.166  32.464  1.00  0.00     0.029 A 
ATOM     57  N   UNL A   1      41.629  29.641  33.816  1.00  0.00    -0.354 N 
ATOM     58  N   UNL A   1      41.465  31.323  36.207  1.00  0.00    -0.248 NA
ATOM     59  C   UNL A   1      42.260  31.960  38.307  1.00  0.00     0.031 C 
ATOM     60  C   UNL A   1      43.365  28.272  33.620  1.00  0.00     0.029 A 
ATOM     61  C   UNL A   1      42.796  29.229  34.444  1.00  0.00     0.049 A 
ATOM     62  H   UNL A   1      41.000  30.309  34.175  1.00  0.00     0.167 HD
ATOM     63  C   UNL A   1      42.651  30.643  36.472  1.00  0.00     0.074 A 
ATOM     64  C   UNL A   1      43.120  31.113  37.757  1.00  0.00     0.031 C 
ATOM     65  C   UNL A   1      43.284  29.710  35.715  1.00  0.00     0.034 A 
BRANCH  52  66
ATOM     66  C   UNL A   1      40.374  28.245  30.463  1.00  0.00     0.023 A 
ATOM     67  C   UNL A   1      41.234  28.565  29.394  1.00  0.00     0.031 A 
ATOM     68  C   UNL A   1      39.410  27.242  30.260  1.00  0.00     0.131 A 
ATOM     69  C   UNL A   1      41.073  27.933  28.154  1.00  0.00     0.055 A 
ATOM     70  C   UNL A   1      39.290  26.577  29.038  1.00  0.00     0.041 A 
ATOM     71  F   UNL A   1      38.556  26.907  31.240  1.00  0.00    -0.206 F 
ATOM     72  C   UNL A   1      40.111  26.935  27.973  1.00  0.00     0.022 A 
BRANCH  69  73
ATOM     73  S   UNL A   1      42.028  28.457  26.703  1.00  0.00     0.124 S 
ATOM     74  O   UNL A   1      42.652  29.689  27.185  1.00  0.00    -0.237 OA
ATOM     75  O   UNL A   1      42.938  27.331  26.514  1.00  0.00    -0.237 OA
ATOM     76  O   UNL A   1      41.020  28.639  25.665  1.00  0.00    -0.744 OA
ENDBRANCH  69  73
ENDBRANCH  52  66
BRANCH  53  77
ATOM     77  C   UNL A   1      40.078  33.939  38.698  1.00  0.00     0.023 A 
ATOM     78  C   UNL A   1      39.301  33.562  39.808  1.00  0.00     0.031 A 
ATOM     79  C   UNL A   1      40.705  35.195  38.728  1.00  0.00     0.131 A 
ATOM     80  C   UNL A   1      39.108  34.462  40.863  1.00  0.00     0.055 A 
ATOM     81  C   UNL A   1      40.582  36.054  39.821  1.00  0.00     0.041 A 
ATOM     82  F   UNL A   1      41.443  35.610  37.685  1.00  0.00    -0.206 F 
ATOM     83  C   UNL A   1      39.762  35.697  40.888  1.00  0.00     0.022 A 
BRANCH  80  84
ATOM     84  S   UNL A   1      37.887  34.120  42.160  1.00  0.00     0.124 S 
ATOM     85  O   UNL A   1      38.582  33.134  42.982  1.00  0.00    -0.237 OA
ATOM     86  O   UNL A   1      37.719  35.439  42.763  1.00  0.00    -0.237 OA
ATOM     87  O   UNL A   1      36.730  33.624  41.422  1.00  0.00    -0.744 OA
ENDBRANCH  80  84
ENDBRANCH  53  77
BRANCH  65  88
ATOM     88  C   UNL A   1      44.580  29.114  36.220  1.00  0.00     0.023 A 
ATOM     89  C   UNL A   1      44.547  28.009  37.095  1.00  0.00     0.031 A 
ATOM     90  C   UNL A   1      45.820  29.732  35.986  1.00  0.00     0.131 A 
ATOM     91  C   UNL A   1      45.715  27.599  37.751  1.00  0.00     0.055 A 
ATOM     92  C   UNL A   1      46.994  29.277  36.590  1.00  0.00     0.041 A 
ATOM     93  F   UNL A   1      45.909  30.797  35.172  1.00  0.00    -0.206 F 
ATOM     94  C   UNL A   1      46.941  28.219  37.492  1.00  0.00     0.022 A 
BRANCH  91  95
ATOM     95  S   UNL A   1      45.666  26.329  39.046  1.00  0.00     0.124 S 
ATOM     96  O   UNL A   1      47.046  25.848  39.051  1.00  0.00    -0.237 OA
ATOM     97  O   UNL A   1      45.271  27.104  40.219  1.00  0.00    -0.237 OA
ATOM     98  O   UNL A   1      44.677  25.370  38.563  1.00  0.00    -0.744 OA
ENDBRANCH  91  95
ENDBRANCH  65  88
ENDBRANCH  39  40
ENDBRANCH  32  34
ENDBRANCH  31  32
ENDBRANCH  30  31
ENDBRANCH  29  30
ENDBRANCH  28  29
ENDBRANCH  27  28
ENDBRANCH   1  27
TORSDOF 25
ENDMDL
MODEL 2
REMARK VINA RESULT:      -9.7      2.286      8.455
REMARK SMILES C#Cc1ccc2c(c1)C=C(C(=O)OCCOCCOCCOCCOC(=O)c1ccc(-c3c4nc(c(-c5cc(S(=O)(=O)[O-])ccc5F)c5ccc([nH]5)c(-c5cc(S(=O)(=O)[O-])ccc5F)c5nc(c(-c6cc(S(=O)(=O)[O-])ccc6F)c6ccc3[nH]6)C=C5)C=C4)cc1)[C@@H](C(F)(F)F)O2
REMARK SMILES IDX 20 1 19 2 18 3 17 4 16 5 15 6 14 7 13 8 11 9 12 10 10 11
REMARK SMILES IDX 3 12 4 13 8 14 5 15 7 16 6 17 9 18 96 19 91 20 2 21 1 22
REMARK SMILES IDX 92 23 93 24 94 25 95 26 21 27 22 28 23 29 24 30 25 31 26 32
REMARK SMILES IDX 27 33 28 34 29 35 90 36 30 37 89 38 31 39 32 40 33 41 83 42
REMARK SMILES IDX 34 43 88 44 82 45 84 46 35 47 87 48 81 49 80 50 36 52 68 53
REMARK SMILES IDX 48 54 67 55 49 56 52 57 66 58 85 59 50 60 51 61 65 63 86 64
REMARK SMILES IDX 53 65 37 66 38 67 46 68 39 69 45 70 47 71 44 72 40 73 41 74
REMARK SMILES IDX 42 75 43 76 69 77 70 78 78 79 71 80 77 81 79 82 76 83 72 84
REMARK SMILES IDX 73 85 74 86 75 87 54 88 55 89 63 90 56 91 62 92 64 93 61 94
REMARK SMILES IDX 57 95 58 96 59 97 60 98
REMARK H PARENT 84 51 52 62
REMARK Flexibility Score: inf
ROOT
ATOM      1  C   UNL A   1      35.381  31.797  28.512  1.00  0.00     0.188 C 
ENDROOT
BRANCH   1   2
ATOM      2  O   UNL A   1      34.603  31.348  27.403  1.00  0.00    -0.377 OA
BRANCH   2   3
ATOM      3  C   UNL A   1      33.429  30.598  27.640  1.00  0.00     0.188 C 
BRANCH   3   4
ATOM      4  C   UNL A   1      32.300  30.772  26.602  1.00  0.00     0.188 C 
BRANCH   4   5
ATOM      5  O   UNL A   1      32.431  30.078  25.380  1.00  0.00    -0.376 OA
BRANCH   5   6
ATOM      6  C   UNL A   1      32.599  28.675  25.278  1.00  0.00     0.202 C 
BRANCH   6   7
ATOM      7  C   UNL A   1      31.502  27.635  24.985  1.00  0.00     0.261 C 
BRANCH   7   8
ATOM      8  O   UNL A   1      31.917  26.338  24.574  1.00  0.00    -0.460 OA
BRANCH   8   9
ATOM      9  C   UNL A   1      31.528  25.313  25.353  1.00  0.00     0.338 C 
ATOM     10  O   UNL A   1      30.457  25.187  25.921  1.00  0.00    -0.246 OA
BRANCH   9  11
ATOM     11  C   UNL A   1      32.552  24.253  25.253  1.00  0.00     0.087 C 
ATOM     12  C   UNL A   1      37.124  22.922  25.843  1.00  0.00     0.025 A 
ATOM     13  C   UNL A   1      36.869  21.751  25.129  1.00  0.00     0.021 A 
ATOM     14  C   UNL A   1      36.082  23.806  26.127  1.00  0.00     0.029 A 
ATOM     15  C   UNL A   1      35.567  21.451  24.720  1.00  0.00     0.048 A 
ATOM     16  C   UNL A   1      34.790  23.535  25.662  1.00  0.00     0.018 A 
ATOM     17  C   UNL A   1      34.529  22.343  24.985  1.00  0.00     0.128 A 
ATOM     18  C   UNL A   1      33.745  24.529  25.795  1.00  0.00     0.027 C 
ATOM     19  O   UNL A   1      33.294  21.981  24.530  1.00  0.00    -0.475 OA
ATOM     20  C   UNL A   1      32.198  22.937  24.612  1.00  0.00     0.316 C 
BRANCH  12  21
ATOM     21  C   UNL A   1      38.463  23.252  26.237  1.00  0.00    -0.070 C 
ATOM     22  C   UNL A   1      39.576  23.506  26.590  1.00  0.00     0.010 C 
ENDBRANCH  12  21
BRANCH  20  23
ATOM     23  C   UNL A   1      31.621  23.128  23.204  1.00  0.00     0.430 C 
ATOM     24  F   UNL A   1      32.293  24.083  22.518  1.00  0.00    -0.167 F 
ATOM     25  F   UNL A   1      31.687  21.995  22.471  1.00  0.00    -0.167 F 
ATOM     26  F   UNL A   1      30.321  23.503  23.250  1.00  0.00    -0.167 F 
ENDBRANCH  20  23
ENDBRANCH   9  11
ENDBRANCH   8   9
ENDBRANCH   7   8
ENDBRANCH   6   7
ENDBRANCH   5   6
ENDBRANCH   4   5
ENDBRANCH   3   4
ENDBRANCH   2   3
ENDBRANCH   1   2
BRANCH   1  27
ATOM     27  C   UNL A   1      35.024  33.058  29.341  1.00  0.00     0.188 C 
BRANCH  27  28
ATOM     28  O   UNL A   1      34.456  34.121  28.605  1.00  0.00    -0.376 OA
BRANCH  28  29
ATOM     29  C   UNL A   1      33.150  34.587  28.866  1.00  0.00     0.202 C 
BRANCH  29  30
ATOM     30  C   UNL A   1      32.887  35.639  29.951  1.00  0.00     0.261 C 
BRANCH  30  31
ATOM     31  O   UNL A   1      32.425  35.172  31.220  1.00  0.00    -0.460 OA
BRANCH  31  32
ATOM     32  C   UNL A   1      32.967  35.732  32.328  1.00  0.00     0.338 C 
ATOM     33  O   UNL A   1      32.454  36.571  33.042  1.00  0.00    -0.246 OA
BRANCH  32  34
ATOM     34  C   UNL A   1      34.208  34.978  32.616  1.00  0.00     0.060 A 
ATOM     35  C   UNL A   1      35.443  35.495  32.217  1.00  0.00     0.016 A 
ATOM     36  C   UNL A   1      34.133  33.713  33.214  1.00  0.00     0.016 A 
ATOM     37  C   UNL A   1      36.605  34.752  32.439  1.00  0.00     0.010 A 
ATOM     38  C   UNL A   1      35.297  32.966  33.425  1.00  0.00     0.010 A 
ATOM     39  C   UNL A   1      36.544  33.490  33.060  1.00  0.00    -0.014 A 
BRANCH  39  40
ATOM     40  C   UNL A   1      37.802  32.829  33.496  1.00  0.00     0.031 A 
ATOM     41  C   UNL A   1      38.547  33.239  34.731  1.00  0.00     0.074 A 
ATOM     42  C   UNL A   1      38.271  31.822  32.731  1.00  0.00     0.049 A 
ATOM     43  N   UNL A   1      39.600  32.681  35.270  1.00  0.00    -0.248 NA
ATOM     44  C   UNL A   1      38.059  34.424  35.450  1.00  0.00     0.031 C 
ATOM     45  C   UNL A   1      37.648  31.375  31.485  1.00  0.00     0.029 A 
ATOM     46  N   UNL A   1      39.353  30.992  32.881  1.00  0.00    -0.354 N 
ATOM     47  C   UNL A   1      39.896  33.431  36.402  1.00  0.00     0.074 A 
ATOM     48  C   UNL A   1      38.938  34.517  36.442  1.00  0.00     0.031 C 
ATOM     49  C   UNL A   1      38.331  30.327  31.006  1.00  0.00     0.029 A 
ATOM     50  C   UNL A   1      39.469  30.054  31.880  1.00  0.00     0.049 A 
ATOM     51  H   UNL A   1      39.985  31.060  33.632  1.00  0.00     0.167 HD
ATOM     52  C   UNL A   1      40.865  33.213  37.325  1.00  0.00     0.034 A 
ATOM     53  C   UNL A   1      40.384  29.082  31.682  1.00  0.00     0.034 A 
ATOM     54  C   UNL A   1      41.811  32.121  37.257  1.00  0.00     0.049 A 
ATOM     55  C   UNL A   1      41.463  28.879  32.712  1.00  0.00     0.074 A 
ATOM     56  C   UNL A   1      42.790  31.787  38.178  1.00  0.00     0.029 A 
ATOM     57  N   UNL A   1      41.912  31.200  36.225  1.00  0.00    -0.354 N 
ATOM     58  N   UNL A   1      41.656  29.521  33.840  1.00  0.00    -0.248 NA
ATOM     59  C   UNL A   1      42.440  27.811  32.460  1.00  0.00     0.031 C 
ATOM     60  C   UNL A   1      43.539  30.732  37.660  1.00  0.00     0.029 A 
ATOM     61  C   UNL A   1      42.964  30.328  36.467  1.00  0.00     0.049 A 
ATOM     62  H   UNL A   1      41.324  31.169  35.436  1.00  0.00     0.167 HD
ATOM     63  C   UNL A   1      42.754  28.915  34.444  1.00  0.00     0.074 A 
ATOM     64  C   UNL A   1      43.165  27.837  33.571  1.00  0.00     0.031 C 
ATOM     65  C   UNL A   1      43.365  29.234  35.613  1.00  0.00     0.034 A 
BRANCH  52  66
ATOM     66  C   UNL A   1      40.967  34.131  38.523  1.00  0.00     0.023 A 
ATOM     67  C   UNL A   1      40.138  33.920  39.643  1.00  0.00     0.031 A 
ATOM     68  C   UNL A   1      41.725  35.313  38.474  1.00  0.00     0.131 A 
ATOM     69  C   UNL A   1      40.042  34.904  40.636  1.00  0.00     0.055 A 
ATOM     70  C   UNL A   1      41.667  36.265  39.494  1.00  0.00     0.041 A 
ATOM     71  F   UNL A   1      42.521  35.571  37.424  1.00  0.00    -0.206 F 
ATOM     72  C   UNL A   1      40.808  36.071  40.571  1.00  0.00     0.022 A 
BRANCH  69  73
ATOM     73  S   UNL A   1      38.842  34.756  41.989  1.00  0.00     0.124 S 
ATOM     74  O   UNL A   1      38.856  36.108  42.549  1.00  0.00    -0.237 OA
ATOM     75  O   UNL A   1      37.621  34.390  41.277  1.00  0.00    -0.237 OA
ATOM     76  O   UNL A   1      39.408  33.724  42.850  1.00  0.00    -0.744 OA
ENDBRANCH  69  73
ENDBRANCH  52  66
BRANCH  53  77
ATOM     77  C   UNL A   1      40.259  28.204  30.480  1.00  0.00     0.023 A 
ATOM     78  C   UNL A   1      41.000  28.472  29.315  1.00  0.00     0.031 A 
ATOM     79  C   UNL A   1      39.323  27.158  30.440  1.00  0.00     0.131 A 
ATOM     80  C   UNL A   1      40.737  27.758  28.141  1.00  0.00     0.055 A 
ATOM     81  C   UNL A   1      39.126  26.390  29.291  1.00  0.00     0.041 A 
ATOM     82  F   UNL A   1      38.577  26.873  31.520  1.00  0.00    -0.206 F 
ATOM     83  C   UNL A   1      39.821  26.702  28.127  1.00  0.00     0.022 A 
BRANCH  80  84
ATOM     84  S   UNL A   1      41.465  28.274  26.561  1.00  0.00     0.124 S 
ATOM     85  O   UNL A   1      41.617  27.000  25.864  1.00  0.00    -0.237 OA
ATOM     86  O   UNL A   1      40.431  29.162  26.036  1.00  0.00    -0.237 OA
ATOM     87  O   UNL A   1      42.707  28.933  26.952  1.00  0.00    -0.744 OA
ENDBRANCH  80  84
ENDBRANCH  53  77
BRANCH  65  88
ATOM     88  C   UNL A   1      44.552  28.411  36.068  1.00  0.00     0.023 A 
ATOM     89  C   UNL A   1      45.836  28.698  35.561  1.00  0.00     0.031 A 
ATOM     90  C   UNL A   1      44.395  27.254  36.849  1.00  0.00     0.131 A 
ATOM     91  C   UNL A   1      46.893  27.806  35.786  1.00  0.00     0.055 A 
ATOM     92  C   UNL A   1      45.466  26.404  37.128  1.00  0.00     0.041 A 
ATOM     93  F   UNL A   1      43.191  26.925  37.347  1.00  0.00    -0.206 F 
ATOM     94  C   UNL A   1      46.718  26.668  36.579  1.00  0.00     0.022 A 
BRANCH  91  95
ATOM     95  S   UNL A   1      48.496  28.028  34.966  1.00  0.00     0.124 S 
ATOM     96  O   UNL A   1      49.131  29.037  35.811  1.00  0.00    -0.237 OA
ATOM     97  O   UNL A   1      49.072  26.689  35.054  1.00  0.00    -0.237 OA
ATOM     98  O   UNL A   1      48.146  28.475  33.621  1.00  0.00    -0.744 OA
ENDBRANCH  91  95
ENDBRANCH  65  88
ENDBRANCH  39  40
ENDBRANCH  32  34
ENDBRANCH  31  32
ENDBRANCH  30  31
ENDBRANCH  29  30
ENDBRANCH  28  29
ENDBRANCH  27  28
ENDBRANCH   1  27
TORSDOF 25
ENDMDL
MODEL 3
REMARK VINA RESULT:      -9.4      8.403     11.658
REMARK SMILES C#Cc1ccc2c(c1)C=C(C(=O)OCCOCCOCCOCCOC(=O)c1ccc(-c3c4nc(c(-c5cc(S(=O)(=O)[O-])ccc5F)c5ccc([nH]5)c(-c5cc(S(=O)(=O)[O-])ccc5F)c5nc(c(-c6cc(S(=O)(=O)[O-])ccc6F)c6ccc3[nH]6)C=C5)C=C4)cc1)[C@@H](C(F)(F)F)O2
REMARK SMILES IDX 20 1 19 2 18 3 17 4 16 5 15 6 14 7 13 8 11 9 12 10 10 11
REMARK SMILES IDX 3 12 4 13 8 14 5 15 7 16 6 17 9 18 96 19 91 20 2 21 1 22
REMARK SMILES IDX 92 23 93 24 94 25 95 26 21 27 22 28 23 29 24 30 25 31 26 32
REMARK SMILES IDX 27 33 28 34 29 35 90 36 30 37 89 38 31 39 32 40 33 41 83 42
REMARK SMILES IDX 34 43 88 44 82 45 84 46 35 47 87 48 81 49 80 50 36 52 68 53
REMARK SMILES IDX 48 54 67 55 49 56 52 57 66 58 85 59 50 60 51 61 65 63 86 64
REMARK SMILES IDX 53 65 37 66 38 67 46 68 39 69 45 70 47 71 44 72 40 73 41 74
REMARK SMILES IDX 42 75 43 76 69 77 70 78 78 79 71 80 77 81 79 82 76 83 72 84
REMARK SMILES IDX 73 85 74 86 75 87 54 88 55 89 63 90 56 91 62 92 64 93 61 94
REMARK SMILES IDX 57 95 58 96 59 97 60 98
REMARK H PARENT 84 51 52 62
REMARK Flexibility Score: inf
ROOT
ATOM      1  C   UNL A   1      36.428  29.931  28.210  1.00  0.00     0.188 C 
ENDROOT
BRANCH   1   2
ATOM      2  O   UNL A   1      35.533  29.645  27.135  1.00  0.00    -0.377 OA
BRANCH   2   3
ATOM      3  C   UNL A   1      34.175  29.376  27.418  1.00  0.00     0.188 C 
BRANCH   3   4
ATOM      4  C   UNL A   1      33.201  30.557  27.218  1.00  0.00     0.188 C 
BRANCH   4   5
ATOM      5  O   UNL A   1      32.418  30.558  26.044  1.00  0.00    -0.376 OA
BRANCH   5   6
ATOM      6  C   UNL A   1      31.586  29.483  25.645  1.00  0.00     0.202 C 
BRANCH   6   7
ATOM      7  C   UNL A   1      31.439  28.911  24.222  1.00  0.00     0.261 C 
BRANCH   7   8
ATOM      8  O   UNL A   1      32.251  27.797  23.873  1.00  0.00    -0.460 OA
BRANCH   8   9
ATOM      9  C   UNL A   1      31.690  26.583  24.014  1.00  0.00     0.338 C 
ATOM     10  O   UNL A   1      30.506  26.332  24.155  1.00  0.00    -0.246 OA
BRANCH   9  11
ATOM     11  C   UNL A   1      32.738  25.569  23.776  1.00  0.00     0.087 C 
ATOM     12  C   UNL A   1      36.890  23.586  25.136  1.00  0.00     0.025 A 
ATOM     13  C   UNL A   1      36.954  22.901  23.923  1.00  0.00     0.021 A 
ATOM     14  C   UNL A   1      35.771  24.363  25.440  1.00  0.00     0.029 A 
ATOM     15  C   UNL A   1      35.889  22.974  23.022  1.00  0.00     0.048 A 
ATOM     16  C   UNL A   1      34.733  24.485  24.509  1.00  0.00     0.018 A 
ATOM     17  C   UNL A   1      34.779  23.766  23.314  1.00  0.00     0.128 A 
ATOM     18  C   UNL A   1      33.657  25.428  24.739  1.00  0.00     0.027 C 
ATOM     19  O   UNL A   1      33.796  23.797  22.369  1.00  0.00    -0.475 OA
ATOM     20  C   UNL A   1      32.692  24.735  22.522  1.00  0.00     0.316 C 
BRANCH  12  21
ATOM     21  C   UNL A   1      37.994  23.542  26.050  1.00  0.00    -0.070 C 
ATOM     22  C   UNL A   1      38.928  23.530  26.797  1.00  0.00     0.010 C 
ENDBRANCH  12  21
BRANCH  20  23
ATOM     23  C   UNL A   1      32.625  25.607  21.262  1.00  0.00     0.430 C 
ATOM     24  F   UNL A   1      32.898  24.890  20.147  1.00  0.00    -0.167 F 
ATOM     25  F   UNL A   1      31.401  26.156  21.090  1.00  0.00    -0.167 F 
ATOM     26  F   UNL A   1      33.518  26.624  21.317  1.00  0.00    -0.167 F 
ENDBRANCH  20  23
ENDBRANCH   9  11
ENDBRANCH   8   9
ENDBRANCH   7   8
ENDBRANCH   6   7
ENDBRANCH   5   6
ENDBRANCH   4   5
ENDBRANCH   3   4
ENDBRANCH   2   3
ENDBRANCH   1   2
BRANCH   1  27
ATOM     27  C   UNL A   1      37.141  31.298  28.375  1.00  0.00     0.188 C 
BRANCH  27  28
ATOM     28  O   UNL A   1      36.292  32.426  28.359  1.00  0.00    -0.376 OA
BRANCH  28  29
ATOM     29  C   UNL A   1      35.279  32.603  29.325  1.00  0.00     0.202 C 
BRANCH  29  30
ATOM     30  C   UNL A   1      35.526  33.440  30.587  1.00  0.00     0.261 C 
BRANCH  30  31
ATOM     31  O   UNL A   1      36.737  34.196  30.646  1.00  0.00    -0.460 OA
BRANCH  31  32
ATOM     32  C   UNL A   1      37.725  33.734  31.449  1.00  0.00     0.338 C 
ATOM     33  O   UNL A   1      37.597  32.999  32.410  1.00  0.00    -0.246 OA
BRANCH  32  34
ATOM     34  C   UNL A   1      39.002  34.123  30.809  1.00  0.00     0.060 A 
ATOM     35  C   UNL A   1      40.173  34.175  31.570  1.00  0.00     0.016 A 
ATOM     36  C   UNL A   1      39.017  34.515  29.463  1.00  0.00     0.016 A 
ATOM     37  C   UNL A   1      41.362  34.600  30.975  1.00  0.00     0.010 A 
ATOM     38  C   UNL A   1      40.208  34.951  28.873  1.00  0.00     0.010 A 
ATOM     39  C   UNL A   1      41.395  34.974  29.618  1.00  0.00    -0.014 A 
BRANCH  39  40
ATOM     40  C   UNL A   1      42.706  35.194  28.952  1.00  0.00     0.031 A 
ATOM     41  C   UNL A   1      43.181  36.552  28.531  1.00  0.00     0.074 A 
ATOM     42  C   UNL A   1      43.478  34.111  28.729  1.00  0.00     0.049 A 
ATOM     43  N   UNL A   1      44.341  36.889  28.030  1.00  0.00    -0.248 NA
ATOM     44  C   UNL A   1      42.242  37.672  28.682  1.00  0.00     0.031 C 
ATOM     45  C   UNL A   1      43.089  32.739  29.058  1.00  0.00     0.029 A 
ATOM     46  N   UNL A   1      44.734  33.984  28.194  1.00  0.00    -0.354 N 
ATOM     47  C   UNL A   1      44.286  38.262  27.819  1.00  0.00     0.074 A 
ATOM     48  C   UNL A   1      42.954  38.686  28.201  1.00  0.00     0.031 C 
ATOM     49  C   UNL A   1      44.101  31.915  28.759  1.00  0.00     0.029 A 
ATOM     50  C   UNL A   1      45.193  32.686  28.170  1.00  0.00     0.049 A 
ATOM     51  H   UNL A   1      45.258  34.747  27.859  1.00  0.00     0.167 HD
ATOM     52  C   UNL A   1      45.266  39.083  27.368  1.00  0.00     0.034 A 
ATOM     53  C   UNL A   1      46.358  32.169  27.729  1.00  0.00     0.034 A 
ATOM     54  C   UNL A   1      46.586  38.631  26.990  1.00  0.00     0.049 A 
ATOM     55  C   UNL A   1      47.419  33.104  27.211  1.00  0.00     0.074 A 
ATOM     56  C   UNL A   1      47.662  39.400  26.578  1.00  0.00     0.029 A 
ATOM     57  N   UNL A   1      47.013  37.311  26.962  1.00  0.00    -0.354 N 
ATOM     58  N   UNL A   1      47.394  34.413  27.132  1.00  0.00    -0.248 NA
ATOM     59  C   UNL A   1      48.673  32.501  26.739  1.00  0.00     0.031 C 
ATOM     60  C   UNL A   1      48.699  38.543  26.213  1.00  0.00     0.029 A 
ATOM     61  C   UNL A   1      48.319  37.243  26.499  1.00  0.00     0.049 A 
ATOM     62  H   UNL A   1      46.469  36.536  27.232  1.00  0.00     0.167 HD
ATOM     63  C   UNL A   1      48.638  34.791  26.632  1.00  0.00     0.074 A 
ATOM     64  C   UNL A   1      49.400  33.574  26.455  1.00  0.00     0.031 C 
ATOM     65  C   UNL A   1      49.096  36.035  26.343  1.00  0.00     0.034 A 
BRANCH  52  66
ATOM     66  C   UNL A   1      45.001  40.570  27.275  1.00  0.00     0.023 A 
ATOM     67  C   UNL A   1      44.785  41.169  26.018  1.00  0.00     0.031 A 
ATOM     68  C   UNL A   1      45.162  41.411  28.390  1.00  0.00     0.131 A 
ATOM     69  C   UNL A   1      44.797  42.564  25.898  1.00  0.00     0.055 A 
ATOM     70  C   UNL A   1      45.118  42.801  28.273  1.00  0.00     0.041 A 
ATOM     71  F   UNL A   1      45.384  40.894  29.609  1.00  0.00    -0.206 F 
ATOM     72  C   UNL A   1      44.955  43.384  27.019  1.00  0.00     0.022 A 
BRANCH  69  73
ATOM     73  S   UNL A   1      44.719  43.366  24.272  1.00  0.00     0.124 S 
ATOM     74  O   UNL A   1      45.830  44.314  24.353  1.00  0.00    -0.237 OA
ATOM     75  O   UNL A   1      44.924  42.241  23.365  1.00  0.00    -0.237 OA
ATOM     76  O   UNL A   1      43.391  43.971  24.242  1.00  0.00    -0.744 OA
ENDBRANCH  69  73
ENDBRANCH  52  66
BRANCH  53  77
ATOM     77  C   UNL A   1      46.578  30.695  27.824  1.00  0.00     0.023 A 
ATOM     78  C   UNL A   1      46.230  29.846  26.758  1.00  0.00     0.031 A 
ATOM     79  C   UNL A   1      47.034  30.104  29.014  1.00  0.00     0.131 A 
ATOM     80  C   UNL A   1      46.267  28.457  26.929  1.00  0.00     0.055 A 
ATOM     81  C   UNL A   1      47.153  28.720  29.151  1.00  0.00     0.041 A 
ATOM     82  F   UNL A   1      47.362  30.869  30.068  1.00  0.00    -0.206 F 
ATOM     83  C   UNL A   1      46.748  27.888  28.111  1.00  0.00     0.022 A 
BRANCH  80  84
ATOM     84  S   UNL A   1      45.551  27.351  25.682  1.00  0.00     0.124 S 
ATOM     85  O   UNL A   1      45.580  26.062  26.365  1.00  0.00    -0.237 OA
ATOM     86  O   UNL A   1      44.226  27.936  25.494  1.00  0.00    -0.237 OA
ATOM     87  O   UNL A   1      46.454  27.484  24.544  1.00  0.00    -0.744 OA
ENDBRANCH  80  84
ENDBRANCH  53  77
BRANCH  65  88
ATOM     88  C   UNL A   1      50.504  36.192  25.810  1.00  0.00     0.023 A 
ATOM     89  C   UNL A   1      51.593  36.205  26.705  1.00  0.00     0.031 A 
ATOM     90  C   UNL A   1      50.755  36.501  24.463  1.00  0.00     0.131 A 
ATOM     91  C   UNL A   1      52.865  36.583  26.257  1.00  0.00     0.055 A 
ATOM     92  C   UNL A   1      52.038  36.810  24.006  1.00  0.00     0.041 A 
ATOM     93  F   UNL A   1      49.754  36.517  23.568  1.00  0.00    -0.206 F 
ATOM     94  C   UNL A   1      53.096  36.872  24.909  1.00  0.00     0.022 A 
BRANCH  91  95
ATOM     95  S   UNL A   1      54.236  36.825  27.421  1.00  0.00     0.124 S 
ATOM     96  O   UNL A   1      55.307  37.279  26.536  1.00  0.00    -0.237 OA
ATOM     97  O   UNL A   1      53.697  37.841  28.320  1.00  0.00    -0.237 OA
ATOM     98  O   UNL A   1      54.435  35.505  28.010  1.00  0.00    -0.744 OA
ENDBRANCH  91  95
ENDBRANCH  65  88
ENDBRANCH  39  40
ENDBRANCH  32  34
ENDBRANCH  31  32
ENDBRANCH  30  31
ENDBRANCH  29  30
ENDBRANCH  28  29
ENDBRANCH  27  28
ENDBRANCH   1  27
TORSDOF 25
ENDMDL
