MODEL 1
REMARK VINA RESULT:     -10.8      0.000      0.000
REMARK SMILES O=C(OCCOCCOCCOCCOC(=O)c1ccc(-c2c3nc(c(-c4cc(S(=O)(=O)[O-])ccc4F)c4ccc([nH]4)c(-c4cc(S(=O)(=O)[O-])ccc4F)c4nc(c(-c5cc(S(=O)(=O)[O-])ccc5F)c5ccc2[nH]5)C=C4)C=C3)cc1)C1=Cc2cc(S(F)(F)(F)(F)F)ccc2O[C@H]1C(F)(F)F
REMARK SMILES IDX 10 1 9 2 8 3 7 4 6 5 5 6 4 7 3 8 2 9 1 10 81 11 82 12 96 13
REMARK SMILES IDX 83 14 95 15 84 16 94 17 85 18 93 19 92 20 97 21 98 22 99 23
REMARK SMILES IDX 100 24 86 25 87 26 88 27 89 28 90 29 91 30 11 31 12 32 13 33
REMARK SMILES IDX 14 34 15 35 16 36 17 37 18 38 19 39 80 40 20 41 79 42 21 43
REMARK SMILES IDX 22 44 23 45 73 46 24 47 78 48 72 49 74 50 25 51 77 52 71 53
REMARK SMILES IDX 70 54 26 56 58 57 38 58 57 59 39 60 42 61 56 62 75 63 40 64
REMARK SMILES IDX 41 65 55 67 76 68 43 69 27 70 28 71 36 72 29 73 35 74 37 75
REMARK SMILES IDX 34 76 30 77 31 78 32 79 33 80 59 81 60 82 68 83 61 84 67 85
REMARK SMILES IDX 69 86 66 87 62 88 63 89 64 90 65 91 44 92 45 93 53 94 46 95
REMARK SMILES IDX 52 96 54 97 51 98 47 99 48 100 49 101 50 102
REMARK H PARENT 74 55 42 66
REMARK Flexibility Score: inf
ROOT
ATOM      1  C   UNL A   1      33.388  23.434  24.622  1.00  0.00     0.188 C 
ENDROOT
BRANCH   1   2
ATOM      2  O   UNL A   1      32.431  23.553  23.579  1.00  0.00    -0.377 OA
BRANCH   2   3
ATOM      3  C   UNL A   1      32.276  24.922  23.235  1.00  0.00     0.188 C 
BRANCH   3   4
ATOM      4  C   UNL A   1      32.750  25.143  21.808  1.00  0.00     0.188 C 
BRANCH   4   5
ATOM      5  O   UNL A   1      33.795  26.105  21.801  1.00  0.00    -0.376 OA
BRANCH   5   6
ATOM      6  C   UNL A   1      33.276  27.371  22.180  1.00  0.00     0.202 C 
BRANCH   6   7
ATOM      7  C   UNL A   1      34.288  28.091  23.056  1.00  0.00     0.261 C 
BRANCH   7   8
ATOM      8  O   UNL A   1      33.634  29.113  23.794  1.00  0.00    -0.460 OA
BRANCH   8   9
ATOM      9  C   UNL A   1      33.219  28.868  25.130  1.00  0.00     0.338 C 
ATOM     10  O   UNL A   1      33.325  27.703  25.625  1.00  0.00    -0.246 OA
BRANCH   9  11
ATOM     11  C   UNL A   1      32.648  30.001  25.967  1.00  0.00     0.087 C 
ATOM     12  C   UNL A   1      31.412  30.495  25.689  1.00  0.00     0.027 C 
ATOM     13  C   UNL A   1      33.458  30.580  27.116  1.00  0.00     0.316 C 
ATOM     14  C   UNL A   1      30.602  29.916  24.541  1.00  0.00     0.019 A 
ATOM     15  O   UNL A   1      31.162  27.697  25.183  1.00  0.00    -0.475 OA
ATOM     16  C   UNL A   1      30.084  30.836  23.645  1.00  0.00     0.036 A 
ATOM     17  C   UNL A   1      30.482  28.610  24.333  1.00  0.00     0.128 A 
ATOM     18  C   UNL A   1      29.197  30.276  22.696  1.00  0.00     0.107 A 
ATOM     19  C   UNL A   1      29.708  28.134  23.302  1.00  0.00     0.048 A 
ATOM     20  C   UNL A   1      29.118  28.988  22.414  1.00  0.00     0.028 A 
BRANCH  13  21
ATOM     21  C   UNL A   1      34.791  29.857  27.212  1.00  0.00     0.430 C 
ATOM     22  F   UNL A   1      35.080  29.304  26.037  1.00  0.00    -0.167 F 
ATOM     23  F   UNL A   1      35.745  30.723  27.539  1.00  0.00    -0.167 F 
ATOM     24  F   UNL A   1      34.716  28.909  28.141  1.00  0.00    -0.167 F 
ENDBRANCH  13  21
BRANCH  18  25
ATOM     25  S   UNL A   1      28.094  31.402  21.806  1.00  0.00     0.310 S 
ATOM     26  F   UNL A   1      28.979  32.659  22.199  1.00  0.00    -0.094 F 
ATOM     27  F   UNL A   1      27.285  31.642  23.137  1.00  0.00    -0.094 F 
ATOM     28  F   UNL A   1      27.163  32.376  21.031  1.00  0.00    -0.094 F 
ATOM     29  F   UNL A   1      29.000  31.258  20.520  1.00  0.00    -0.094 F 
ATOM     30  F   UNL A   1      29.114  30.499  22.607  1.00  0.00    -0.094 F 
ENDBRANCH  18  25
ENDBRANCH   9  11
ENDBRANCH   8   9
ENDBRANCH   7   8
ENDBRANCH   6   7
ENDBRANCH   5   6
ENDBRANCH   4   5
ENDBRANCH   3   4
ENDBRANCH   2   3
ENDBRANCH   1   2
BRANCH   1  31
ATOM     31  C   UNL A   1      34.511  22.510  24.176  1.00  0.00     0.188 C 
BRANCH  31  32
ATOM     32  O   UNL A   1      35.755  23.182  24.300  1.00  0.00    -0.376 OA
BRANCH  32  33
ATOM     33  C   UNL A   1      36.776  22.406  23.690  1.00  0.00     0.202 C 
BRANCH  33  34
ATOM     34  C   UNL A   1      37.454  21.544  24.742  1.00  0.00     0.261 C 
BRANCH  34  35
ATOM     35  O   UNL A   1      37.622  22.297  25.935  1.00  0.00    -0.460 OA
BRANCH  35  36
ATOM     36  C   UNL A   1      38.928  22.583  26.414  1.00  0.00     0.338 C 
ATOM     37  O   UNL A   1      39.797  21.659  26.482  1.00  0.00    -0.246 OA
BRANCH  36  38
ATOM     38  C   UNL A   1      39.286  23.997  26.845  1.00  0.00     0.060 A 
ATOM     39  C   UNL A   1      39.153  24.248  28.201  1.00  0.00     0.016 A 
ATOM     40  C   UNL A   1      39.825  24.893  26.028  1.00  0.00     0.016 A 
ATOM     41  C   UNL A   1      39.358  25.603  28.555  1.00  0.00     0.010 A 
ATOM     42  C   UNL A   1      40.126  26.156  26.476  1.00  0.00     0.010 A 
ATOM     43  C   UNL A   1      39.964  26.493  27.792  1.00  0.00    -0.014 A 
BRANCH  43  44
ATOM     44  C   UNL A   1      40.456  27.821  28.345  1.00  0.00     0.031 A 
ATOM     45  C   UNL A   1      39.552  28.763  28.839  1.00  0.00     0.074 A 
ATOM     46  C   UNL A   1      41.805  28.067  28.158  1.00  0.00     0.049 A 
ATOM     47  N   UNL A   1      39.812  30.009  29.237  1.00  0.00    -0.248 NA
ATOM     48  C   UNL A   1      38.112  28.515  29.006  1.00  0.00     0.031 C 
ATOM     49  C   UNL A   1      42.725  27.119  27.669  1.00  0.00     0.029 A 
ATOM     50  N   UNL A   1      42.493  29.235  28.400  1.00  0.00    -0.354 N 
ATOM     51  C   UNL A   1      38.694  30.599  29.665  1.00  0.00     0.074 A 
ATOM     52  C   UNL A   1      37.583  29.649  29.516  1.00  0.00     0.031 C 
ATOM     53  C   UNL A   1      43.947  27.710  27.606  1.00  0.00     0.029 A 
ATOM     54  C   UNL A   1      43.812  29.037  28.055  1.00  0.00     0.049 A 
ATOM     55  H   UNL A   1      42.108  30.067  28.758  1.00  0.00     0.167 HD
ATOM     56  C   UNL A   1      38.558  31.892  30.173  1.00  0.00     0.034 A 
ATOM     57  C   UNL A   1      44.852  29.951  28.120  1.00  0.00     0.034 A 
ATOM     58  C   UNL A   1      39.607  32.791  30.278  1.00  0.00     0.049 A 
ATOM     59  C   UNL A   1      44.704  31.264  28.575  1.00  0.00     0.074 A 
ATOM     60  C   UNL A   1      39.488  34.095  30.797  1.00  0.00     0.029 A 
ATOM     61  N   UNL A   1      40.921  32.602  29.911  1.00  0.00    -0.354 N 
ATOM     62  N   UNL A   1      43.594  31.840  29.038  1.00  0.00    -0.248 NA
ATOM     63  C   UNL A   1      45.791  32.249  28.617  1.00  0.00     0.031 C 
ATOM     64  C   UNL A   1      40.711  34.688  30.733  1.00  0.00     0.029 A 
ATOM     65  C   UNL A   1      41.613  33.763  30.174  1.00  0.00     0.049 A 
ATOM     66  H   UNL A   1      41.299  31.778  29.526  1.00  0.00     0.167 HD
ATOM     67  C   UNL A   1      43.847  33.100  29.398  1.00  0.00     0.074 A 
ATOM     68  C   UNL A   1      45.263  33.383  29.125  1.00  0.00     0.031 C 
ATOM     69  C   UNL A   1      42.955  34.023  29.946  1.00  0.00     0.034 A 
BRANCH  56  70
ATOM     70  C   UNL A   1      37.181  32.338  30.639  1.00  0.00     0.023 A 
ATOM     71  C   UNL A   1      36.248  32.938  29.810  1.00  0.00     0.031 A 
ATOM     72  C   UNL A   1      36.875  31.989  31.883  1.00  0.00     0.131 A 
ATOM     73  C   UNL A   1      35.091  33.394  30.485  1.00  0.00     0.055 A 
ATOM     74  C   UNL A   1      35.669  32.351  32.434  1.00  0.00     0.041 A 
ATOM     75  F   UNL A   1      37.741  31.282  32.602  1.00  0.00    -0.206 F 
ATOM     76  C   UNL A   1      34.721  32.999  31.690  1.00  0.00     0.022 A 
BRANCH  73  77
ATOM     77  S   UNL A   1      34.043  34.603  29.637  1.00  0.00     0.124 S 
ATOM     78  O   UNL A   1      32.797  33.904  29.092  1.00  0.00    -0.237 OA
ATOM     79  O   UNL A   1      33.626  35.696  30.624  1.00  0.00    -0.237 OA
ATOM     80  O   UNL A   1      34.916  35.305  28.345  1.00  0.00    -0.744 OA
ENDBRANCH  73  77
ENDBRANCH  56  70
BRANCH  57  81
ATOM     81  C   UNL A   1      46.232  29.499  27.670  1.00  0.00     0.023 A 
ATOM     82  C   UNL A   1      46.541  29.346  26.328  1.00  0.00     0.031 A 
ATOM     83  C   UNL A   1      47.073  29.106  28.619  1.00  0.00     0.131 A 
ATOM     84  C   UNL A   1      47.646  28.495  26.088  1.00  0.00     0.055 A 
ATOM     85  C   UNL A   1      48.204  28.395  28.300  1.00  0.00     0.041 A 
ATOM     86  F   UNL A   1      46.816  29.402  29.890  1.00  0.00    -0.206 F 
ATOM     87  C   UNL A   1      48.541  28.155  26.997  1.00  0.00     0.022 A 
BRANCH  84  88
ATOM     88  S   UNL A   1      47.846  27.827  24.417  1.00  0.00     0.124 S 
ATOM     89  O   UNL A   1      46.974  28.621  23.442  1.00  0.00    -0.237 OA
ATOM     90  O   UNL A   1      49.313  27.936  23.996  1.00  0.00    -0.237 OA
ATOM     91  O   UNL A   1      47.369  26.184  24.401  1.00  0.00    -0.744 OA
ENDBRANCH  84  88
ENDBRANCH  57  81
BRANCH  69  92
ATOM     92  C   UNL A   1      43.488  35.399  30.315  1.00  0.00     0.023 A 
ATOM     93  C   UNL A   1      43.939  35.530  31.618  1.00  0.00     0.031 A 
ATOM     94  C   UNL A   1      43.623  36.385  29.436  1.00  0.00     0.131 A 
ATOM     95  C   UNL A   1      44.262  36.859  31.981  1.00  0.00     0.055 A 
ATOM     96  C   UNL A   1      44.074  37.620  29.836  1.00  0.00     0.041 A 
ATOM     97  F   UNL A   1      43.318  36.175  28.159  1.00  0.00    -0.206 F 
ATOM     98  C   UNL A   1      44.481  37.837  31.122  1.00  0.00     0.022 A 
BRANCH  95  99
ATOM     99  S   UNL A   1      44.386  37.243  33.746  1.00  0.00     0.124 S 
ATOM    100  O   UNL A   1      44.759  38.717  33.921  1.00  0.00    -0.237 OA
ATOM    101  O   UNL A   1      43.041  36.972  34.422  1.00  0.00    -0.237 OA
ATOM    102  O   UNL A   1      45.592  36.261  34.458  1.00  0.00    -0.744 OA
ENDBRANCH  95  99
ENDBRANCH  69  92
ENDBRANCH  43  44
ENDBRANCH  36  38
ENDBRANCH  35  36
ENDBRANCH  34  35
ENDBRANCH  33  34
ENDBRANCH  32  33
ENDBRANCH  31  32
ENDBRANCH   1  31
TORSDOF 25
ENDMDL
MODEL 2
REMARK VINA RESULT:     -10.3      1.984      2.260
REMARK SMILES O=C(OCCOCCOCCOCCOC(=O)c1ccc(-c2c3nc(c(-c4cc(S(=O)(=O)[O-])ccc4F)c4ccc([nH]4)c(-c4cc(S(=O)(=O)[O-])ccc4F)c4nc(c(-c5cc(S(=O)(=O)[O-])ccc5F)c5ccc2[nH]5)C=C4)C=C3)cc1)C1=Cc2cc(S(F)(F)(F)(F)F)ccc2O[C@H]1C(F)(F)F
REMARK SMILES IDX 10 1 9 2 8 3 7 4 6 5 5 6 4 7 3 8 2 9 1 10 81 11 82 12 96 13
REMARK SMILES IDX 83 14 95 15 84 16 94 17 85 18 93 19 92 20 97 21 98 22 99 23
REMARK SMILES IDX 100 24 86 25 87 26 88 27 89 28 90 29 91 30 11 31 12 32 13 33
REMARK SMILES IDX 14 34 15 35 16 36 17 37 18 38 19 39 80 40 20 41 79 42 21 43
REMARK SMILES IDX 22 44 23 45 73 46 24 47 78 48 72 49 74 50 25 51 77 52 71 53
REMARK SMILES IDX 70 54 26 56 58 57 38 58 57 59 39 60 42 61 56 62 75 63 40 64
REMARK SMILES IDX 41 65 55 67 76 68 43 69 27 70 28 71 36 72 29 73 35 74 37 75
REMARK SMILES IDX 34 76 30 77 31 78 32 79 33 80 59 81 60 82 68 83 61 84 67 85
REMARK SMILES IDX 69 86 66 87 62 88 63 89 64 90 65 91 44 92 45 93 53 94 46 95
REMARK SMILES IDX 52 96 54 97 51 98 47 99 48 100 49 101 50 102
REMARK H PARENT 74 55 42 66
REMARK Flexibility Score: inf
ROOT
ATOM      1  C   UNL A   1      33.605  23.065  25.040  1.00  0.00     0.188 C 
ENDROOT
BRANCH   1   2
ATOM      2  O   UNL A   1      32.564  23.098  24.074  1.00  0.00    -0.377 OA
BRANCH   2   3
ATOM      3  C   UNL A   1      32.325  24.442  23.682  1.00  0.00     0.188 C 
BRANCH   3   4
ATOM      4  C   UNL A   1      32.908  24.678  22.299  1.00  0.00     0.188 C 
BRANCH   4   5
ATOM      5  O   UNL A   1      33.921  25.670  22.376  1.00  0.00    -0.376 OA
BRANCH   5   6
ATOM      6  C   UNL A   1      33.374  26.934  22.031  1.00  0.00     0.202 C 
BRANCH   6   7
ATOM      7  C   UNL A   1      34.069  28.022  22.833  1.00  0.00     0.261 C 
BRANCH   7   8
ATOM      8  O   UNL A   1      33.095  28.835  23.472  1.00  0.00    -0.460 OA
BRANCH   8   9
ATOM      9  C   UNL A   1      32.653  28.516  24.782  1.00  0.00     0.338 C 
ATOM     10  O   UNL A   1      32.649  27.307  25.175  1.00  0.00    -0.246 OA
BRANCH   9  11
ATOM     11  C   UNL A   1      32.182  29.619  25.715  1.00  0.00     0.087 C 
ATOM     12  C   UNL A   1      31.030  30.291  25.447  1.00  0.00     0.027 C 
ATOM     13  C   UNL A   1      32.998  29.972  26.948  1.00  0.00     0.316 C 
ATOM     14  C   UNL A   1      30.214  29.938  24.215  1.00  0.00     0.019 A 
ATOM     15  O   UNL A   1      30.468  27.613  24.635  1.00  0.00    -0.475 OA
ATOM     16  C   UNL A   1      29.855  31.003  23.405  1.00  0.00     0.036 A 
ATOM     17  C   UNL A   1      29.947  28.685  23.864  1.00  0.00     0.128 A 
ATOM     18  C   UNL A   1      28.955  30.658  22.370  1.00  0.00     0.107 A 
ATOM     19  C   UNL A   1      29.173  28.419  22.760  1.00  0.00     0.048 A 
ATOM     20  C   UNL A   1      28.735  29.427  21.948  1.00  0.00     0.028 A 
BRANCH  13  21
ATOM     21  C   UNL A   1      34.228  29.081  27.014  1.00  0.00     0.430 C 
ATOM     22  F   UNL A   1      34.881  29.142  25.857  1.00  0.00    -0.167 F 
ATOM     23  F   UNL A   1      35.025  29.495  27.994  1.00  0.00    -0.167 F 
ATOM     24  F   UNL A   1      33.854  27.826  27.247  1.00  0.00    -0.167 F 
ENDBRANCH  13  21
BRANCH  18  25
ATOM     25  S   UNL A   1      28.042  31.999  21.566  1.00  0.00     0.310 S 
ATOM     26  F   UNL A   1      29.128  33.069  22.006  1.00  0.00    -0.094 F 
ATOM     27  F   UNL A   1      27.302  32.294  22.927  1.00  0.00    -0.094 F 
ATOM     28  F   UNL A   1      27.275  33.156  20.866  1.00  0.00    -0.094 F 
ATOM     29  F   UNL A   1      28.894  31.781  20.254  1.00  0.00    -0.094 F 
ATOM     30  F   UNL A   1      28.909  30.897  22.295  1.00  0.00    -0.094 F 
ENDBRANCH  18  25
ENDBRANCH   9  11
ENDBRANCH   8   9
ENDBRANCH   7   8
ENDBRANCH   6   7
ENDBRANCH   5   6
ENDBRANCH   4   5
ENDBRANCH   3   4
ENDBRANCH   2   3
ENDBRANCH   1   2
BRANCH   1  31
ATOM     31  C   UNL A   1      34.749  22.207  24.523  1.00  0.00     0.188 C 
BRANCH  31  32
ATOM     32  O   UNL A   1      35.947  22.970  24.517  1.00  0.00    -0.376 OA
BRANCH  32  33
ATOM     33  C   UNL A   1      36.990  22.210  23.924  1.00  0.00     0.202 C 
BRANCH  33  34
ATOM     34  C   UNL A   1      37.719  21.424  25.001  1.00  0.00     0.261 C 
BRANCH  34  35
ATOM     35  O   UNL A   1      37.944  22.259  26.127  1.00  0.00    -0.460 OA
BRANCH  35  36
ATOM     36  C   UNL A   1      39.265  22.651  26.467  1.00  0.00     0.338 C 
ATOM     37  O   UNL A   1      40.219  21.817  26.378  1.00  0.00    -0.246 OA
BRANCH  36  38
ATOM     38  C   UNL A   1      39.540  24.072  26.935  1.00  0.00     0.060 A 
ATOM     39  C   UNL A   1      39.494  24.256  28.308  1.00  0.00     0.016 A 
ATOM     40  C   UNL A   1      39.938  25.043  26.123  1.00  0.00     0.016 A 
ATOM     41  C   UNL A   1      39.615  25.607  28.708  1.00  0.00     0.010 A 
ATOM     42  C   UNL A   1      40.169  26.308  26.606  1.00  0.00     0.010 A 
ATOM     43  C   UNL A   1      40.085  26.576  27.944  1.00  0.00    -0.014 A 
BRANCH  43  44
ATOM     44  C   UNL A   1      40.508  27.917  28.520  1.00  0.00     0.031 A 
ATOM     45  C   UNL A   1      39.552  28.856  28.913  1.00  0.00     0.074 A 
ATOM     46  C   UNL A   1      41.866  28.177  28.457  1.00  0.00     0.049 A 
ATOM     47  N   UNL A   1      39.761  30.111  29.315  1.00  0.00    -0.248 NA
ATOM     48  C   UNL A   1      38.106  28.593  28.949  1.00  0.00     0.031 C 
ATOM     49  C   UNL A   1      42.838  27.233  28.070  1.00  0.00     0.029 A 
ATOM     50  N   UNL A   1      42.516  29.357  28.744  1.00  0.00    -0.354 N 
ATOM     51  C   UNL A   1      38.602  30.693  29.627  1.00  0.00     0.074 A 
ATOM     52  C   UNL A   1      37.520  29.728  29.390  1.00  0.00     0.031 C 
ATOM     53  C   UNL A   1      44.054  27.838  28.113  1.00  0.00     0.029 A 
ATOM     54  C   UNL A   1      43.864  29.170  28.527  1.00  0.00     0.049 A 
ATOM     55  H   UNL A   1      42.091  30.189  29.051  1.00  0.00     0.167 HD
ATOM     56  C   UNL A   1      38.405  31.991  30.101  1.00  0.00     0.034 A 
ATOM     57  C   UNL A   1      44.883  30.097  28.675  1.00  0.00     0.034 A 
ATOM     58  C   UNL A   1      39.429  32.905  30.290  1.00  0.00     0.049 A 
ATOM     59  C   UNL A   1      44.680  31.414  29.094  1.00  0.00     0.074 A 
ATOM     60  C   UNL A   1      39.249  34.214  30.775  1.00  0.00     0.029 A 
ATOM     61  N   UNL A   1      40.774  32.726  30.049  1.00  0.00    -0.354 N 
ATOM     62  N   UNL A   1      43.525  31.983  29.442  1.00  0.00    -0.248 NA
ATOM     63  C   UNL A   1      45.748  32.413  29.222  1.00  0.00     0.031 C 
ATOM     64  C   UNL A   1      40.466  34.820  30.816  1.00  0.00     0.029 A 
ATOM     65  C   UNL A   1      41.427  33.899  30.358  1.00  0.00     0.049 A 
ATOM     66  H   UNL A   1      41.195  31.901  29.714  1.00  0.00     0.167 HD
ATOM     67  C   UNL A   1      43.730  33.251  29.804  1.00  0.00     0.074 A 
ATOM     68  C   UNL A   1      45.162  33.548  29.661  1.00  0.00     0.031 C 
ATOM     69  C   UNL A   1      42.781  34.172  30.253  1.00  0.00     0.034 A 
BRANCH  56  70
ATOM     70  C   UNL A   1      36.986  32.428  30.429  1.00  0.00     0.023 A 
ATOM     71  C   UNL A   1      36.133  33.018  29.511  1.00  0.00     0.031 A 
ATOM     72  C   UNL A   1      36.562  32.079  31.638  1.00  0.00     0.131 A 
ATOM     73  C   UNL A   1      34.912  33.466  30.069  1.00  0.00     0.055 A 
ATOM     74  C   UNL A   1      35.306  32.433  32.069  1.00  0.00     0.041 A 
ATOM     75  F   UNL A   1      37.360  31.381  32.440  1.00  0.00    -0.206 F 
ATOM     76  C   UNL A   1      34.430  33.071  31.234  1.00  0.00     0.022 A 
BRANCH  73  77
ATOM     77  S   UNL A   1      33.943  34.665  29.120  1.00  0.00     0.124 S 
ATOM     78  O   UNL A   1      34.780  35.185  27.949  1.00  0.00    -0.237 OA
ATOM     79  O   UNL A   1      32.679  33.988  28.583  1.00  0.00    -0.237 OA
ATOM     80  O   UNL A   1      33.504  35.971  30.132  1.00  0.00    -0.744 OA
ENDBRANCH  73  77
ENDBRANCH  56  70
BRANCH  57  81
ATOM     81  C   UNL A   1      46.304  29.655  28.362  1.00  0.00     0.023 A 
ATOM     82  C   UNL A   1      47.137  29.150  29.347  1.00  0.00     0.031 A 
ATOM     83  C   UNL A   1      46.761  29.922  27.144  1.00  0.00     0.131 A 
ATOM     84  C   UNL A   1      48.514  29.233  29.031  1.00  0.00     0.055 A 
ATOM     85  C   UNL A   1      48.105  29.852  26.871  1.00  0.00     0.041 A 
ATOM     86  F   UNL A   1      45.909  30.262  26.181  1.00  0.00    -0.206 F 
ATOM     87  C   UNL A   1      48.994  29.418  27.814  1.00  0.00     0.022 A 
BRANCH  84  88
ATOM     88  S   UNL A   1      49.700  29.076  30.389  1.00  0.00     0.124 S 
ATOM     89  O   UNL A   1      49.803  30.408  31.135  1.00  0.00    -0.237 OA
ATOM     90  O   UNL A   1      49.229  27.985  31.354  1.00  0.00    -0.237 OA
ATOM     91  O   UNL A   1      51.234  28.656  29.759  1.00  0.00    -0.744 OA
ENDBRANCH  84  88
ENDBRANCH  57  81
BRANCH  69  92
ATOM     92  C   UNL A   1      43.263  35.558  30.649  1.00  0.00     0.023 A 
ATOM     93  C   UNL A   1      43.237  36.507  29.640  1.00  0.00     0.031 A 
ATOM     94  C   UNL A   1      43.586  35.886  31.895  1.00  0.00     0.131 A 
ATOM     95  C   UNL A   1      43.852  37.732  29.989  1.00  0.00     0.055 A 
ATOM     96  C   UNL A   1      44.052  37.145  32.187  1.00  0.00     0.041 A 
ATOM     97  F   UNL A   1      43.456  34.988  32.867  1.00  0.00    -0.206 F 
ATOM     98  C   UNL A   1      44.109  38.115  31.226  1.00  0.00     0.022 A 
BRANCH  95  99
ATOM     99  S   UNL A   1      44.318  38.852  28.646  1.00  0.00     0.124 S 
ATOM    100  O   UNL A   1      43.058  39.483  28.048  1.00  0.00    -0.237 OA
ATOM    101  O   UNL A   1      45.229  39.953  29.193  1.00  0.00    -0.237 OA
ATOM    102  O   UNL A   1      45.146  37.974  27.434  1.00  0.00    -0.744 OA
ENDBRANCH  95  99
ENDBRANCH  69  92
ENDBRANCH  43  44
ENDBRANCH  36  38
ENDBRANCH  35  36
ENDBRANCH  34  35
ENDBRANCH  33  34
ENDBRANCH  32  33
ENDBRANCH  31  32
ENDBRANCH   1  31
TORSDOF 25
ENDMDL
MODEL 3
REMARK VINA RESULT:     -10.1      3.517      4.873
REMARK SMILES O=C(OCCOCCOCCOCCOC(=O)c1ccc(-c2c3nc(c(-c4cc(S(=O)(=O)[O-])ccc4F)c4ccc([nH]4)c(-c4cc(S(=O)(=O)[O-])ccc4F)c4nc(c(-c5cc(S(=O)(=O)[O-])ccc5F)c5ccc2[nH]5)C=C4)C=C3)cc1)C1=Cc2cc(S(F)(F)(F)(F)F)ccc2O[C@H]1C(F)(F)F
REMARK SMILES IDX 10 1 9 2 8 3 7 4 6 5 5 6 4 7 3 8 2 9 1 10 81 11 82 12 96 13
REMARK SMILES IDX 83 14 95 15 84 16 94 17 85 18 93 19 92 20 97 21 98 22 99 23
REMARK SMILES IDX 100 24 86 25 87 26 88 27 89 28 90 29 91 30 11 31 12 32 13 33
REMARK SMILES IDX 14 34 15 35 16 36 17 37 18 38 19 39 80 40 20 41 79 42 21 43
REMARK SMILES IDX 22 44 23 45 73 46 24 47 78 48 72 49 74 50 25 51 77 52 71 53
REMARK SMILES IDX 70 54 26 56 58 57 38 58 57 59 39 60 42 61 56 62 75 63 40 64
REMARK SMILES IDX 41 65 55 67 76 68 43 69 27 70 28 71 36 72 29 73 35 74 37 75
REMARK SMILES IDX 34 76 30 77 31 78 32 79 33 80 59 81 60 82 68 83 61 84 67 85
REMARK SMILES IDX 69 86 66 87 62 88 63 89 64 90 65 91 44 92 45 93 53 94 46 95
REMARK SMILES IDX 52 96 54 97 51 98 47 99 48 100 49 101 50 102
REMARK H PARENT 74 55 42 66
REMARK Flexibility Score: inf
ROOT
ATOM      1  C   UNL A   1      36.838  21.871  24.941  1.00  0.00     0.188 C 
ENDROOT
BRANCH   1   2
ATOM      2  O   UNL A   1      36.803  22.328  23.597  1.00  0.00    -0.377 OA
BRANCH   2   3
ATOM      3  C   UNL A   1      35.851  23.375  23.478  1.00  0.00     0.188 C 
BRANCH   3   4
ATOM      4  C   UNL A   1      35.412  23.820  24.863  1.00  0.00     0.188 C 
BRANCH   4   5
ATOM      5  O   UNL A   1      34.680  25.033  24.760  1.00  0.00    -0.376 OA
BRANCH   5   6
ATOM      6  C   UNL A   1      34.491  25.584  26.055  1.00  0.00     0.202 C 
BRANCH   6   7
ATOM      7  C   UNL A   1      33.712  26.884  25.943  1.00  0.00     0.261 C 
BRANCH   7   8
ATOM      8  O   UNL A   1      33.088  26.954  24.669  1.00  0.00    -0.460 OA
BRANCH   8   9
ATOM      9  C   UNL A   1      31.675  27.042  24.574  1.00  0.00     0.338 C 
ATOM     10  O   UNL A   1      31.003  27.539  25.532  1.00  0.00    -0.246 OA
BRANCH   9  11
ATOM     11  C   UNL A   1      30.965  26.542  23.327  1.00  0.00     0.087 C 
ATOM     12  C   UNL A   1      30.765  25.209  23.147  1.00  0.00     0.027 C 
ATOM     13  C   UNL A   1      30.477  27.531  22.281  1.00  0.00     0.316 C 
ATOM     14  C   UNL A   1      31.251  24.219  24.193  1.00  0.00     0.019 A 
ATOM     15  O   UNL A   1      30.426  25.581  25.957  1.00  0.00    -0.475 OA
ATOM     16  C   UNL A   1      32.007  23.161  23.715  1.00  0.00     0.036 A 
ATOM     17  C   UNL A   1      31.067  24.401  25.495  1.00  0.00     0.128 A 
ATOM     18  C   UNL A   1      32.293  22.175  24.689  1.00  0.00     0.107 A 
ATOM     19  C   UNL A   1      31.494  23.459  26.400  1.00  0.00     0.048 A 
ATOM     20  C   UNL A   1      32.195  22.360  25.992  1.00  0.00     0.028 A 
BRANCH  13  21
ATOM     21  C   UNL A   1      30.824  28.944  22.719  1.00  0.00     0.430 C 
ATOM     22  F   UNL A   1      32.117  29.008  23.027  1.00  0.00    -0.167 F 
ATOM     23  F   UNL A   1      30.561  29.794  21.731  1.00  0.00    -0.167 F 
ATOM     24  F   UNL A   1      30.099  29.268  23.786  1.00  0.00    -0.167 F 
ENDBRANCH  13  21
BRANCH  18  25
ATOM     25  S   UNL A   1      32.829  20.547  24.106  1.00  0.00     0.310 S 
ATOM     26  F   UNL A   1      31.735  19.815  24.993  1.00  0.00    -0.094 F 
ATOM     27  F   UNL A   1      33.802  20.439  25.342  1.00  0.00    -0.094 F 
ATOM     28  F   UNL A   1      33.270  19.144  23.601  1.00  0.00    -0.094 F 
ATOM     29  F   UNL A   1      31.748  20.612  22.956  1.00  0.00    -0.094 F 
ATOM     30  F   UNL A   1      32.290  21.921  24.671  1.00  0.00    -0.094 F 
ENDBRANCH  18  25
ENDBRANCH   9  11
ENDBRANCH   8   9
ENDBRANCH   7   8
ENDBRANCH   6   7
ENDBRANCH   5   6
ENDBRANCH   4   5
ENDBRANCH   3   4
ENDBRANCH   2   3
ENDBRANCH   1   2
BRANCH   1  31
ATOM     31  C   UNL A   1      36.950  20.355  24.958  1.00  0.00     0.188 C 
BRANCH  31  32
ATOM     32  O   UNL A   1      38.317  19.981  25.042  1.00  0.00    -0.376 OA
BRANCH  32  33
ATOM     33  C   UNL A   1      39.027  20.949  25.801  1.00  0.00     0.202 C 
BRANCH  33  34
ATOM     34  C   UNL A   1      40.380  20.385  26.203  1.00  0.00     0.261 C 
BRANCH  34  35
ATOM     35  O   UNL A   1      41.096  21.358  26.949  1.00  0.00    -0.460 OA
BRANCH  35  36
ATOM     36  C   UNL A   1      41.826  22.372  26.276  1.00  0.00     0.338 C 
ATOM     37  O   UNL A   1      42.481  22.093  25.224  1.00  0.00    -0.246 OA
BRANCH  36  38
ATOM     38  C   UNL A   1      41.824  23.795  26.814  1.00  0.00     0.060 A 
ATOM     39  C   UNL A   1      42.115  23.912  28.163  1.00  0.00     0.016 A 
ATOM     40  C   UNL A   1      41.699  24.866  26.040  1.00  0.00     0.016 A 
ATOM     41  C   UNL A   1      41.971  25.226  28.668  1.00  0.00     0.010 A 
ATOM     42  C   UNL A   1      41.704  26.127  26.585  1.00  0.00     0.010 A 
ATOM     43  C   UNL A   1      41.927  26.314  27.922  1.00  0.00    -0.014 A 
BRANCH  43  44
ATOM     44  C   UNL A   1      42.113  27.701  28.515  1.00  0.00     0.031 A 
ATOM     45  C   UNL A   1      41.007  28.482  28.858  1.00  0.00     0.074 A 
ATOM     46  C   UNL A   1      43.417  28.164  28.518  1.00  0.00     0.049 A 
ATOM     47  N   UNL A   1      41.003  29.752  29.267  1.00  0.00    -0.248 NA
ATOM     48  C   UNL A   1      39.618  28.003  28.823  1.00  0.00     0.031 C 
ATOM     49  C   UNL A   1      44.539  27.380  28.182  1.00  0.00     0.029 A 
ATOM     50  N   UNL A   1      43.866  29.427  28.835  1.00  0.00    -0.354 N 
ATOM     51  C   UNL A   1      39.755  30.150  29.520  1.00  0.00     0.074 A 
ATOM     52  C   UNL A   1      38.845  29.033  29.232  1.00  0.00     0.031 C 
ATOM     53  C   UNL A   1      45.645  28.162  28.283  1.00  0.00     0.029 A 
ATOM     54  C   UNL A   1      45.235  29.448  28.684  1.00  0.00     0.049 A 
ATOM     55  H   UNL A   1      43.305  30.184  29.119  1.00  0.00     0.167 HD
ATOM     56  C   UNL A   1      39.340  31.401  29.981  1.00  0.00     0.034 A 
ATOM     57  C   UNL A   1      46.094  30.518  28.881  1.00  0.00     0.034 A 
ATOM     58  C   UNL A   1      40.204  32.458  30.218  1.00  0.00     0.049 A 
ATOM     59  C   UNL A   1      45.673  31.787  29.286  1.00  0.00     0.074 A 
ATOM     60  C   UNL A   1      39.804  33.722  30.691  1.00  0.00     0.029 A 
ATOM     61  N   UNL A   1      41.570  32.486  30.045  1.00  0.00    -0.354 N 
ATOM     62  N   UNL A   1      44.429  32.173  29.576  1.00  0.00    -0.248 NA
ATOM     63  C   UNL A   1      46.569  32.935  29.465  1.00  0.00     0.031 C 
ATOM     64  C   UNL A   1      40.911  34.505  30.792  1.00  0.00     0.029 A 
ATOM     65  C   UNL A   1      42.022  33.743  30.384  1.00  0.00     0.049 A 
ATOM     66  H   UNL A   1      42.128  31.737  29.733  1.00  0.00     0.167 HD
ATOM     67  C   UNL A   1      44.421  33.455  29.946  1.00  0.00     0.074 A 
ATOM     68  C   UNL A   1      45.797  33.966  29.873  1.00  0.00     0.031 C 
ATOM     69  C   UNL A   1      43.323  34.218  30.344  1.00  0.00     0.034 A 
BRANCH  56  70
ATOM     70  C   UNL A   1      37.857  31.615  30.238  1.00  0.00     0.023 A 
ATOM     71  C   UNL A   1      36.935  31.874  29.237  1.00  0.00     0.031 A 
ATOM     72  C   UNL A   1      37.474  31.402  31.491  1.00  0.00     0.131 A 
ATOM     73  C   UNL A   1      35.638  32.175  29.717  1.00  0.00     0.055 A 
ATOM     74  C   UNL A   1      36.163  31.584  31.862  1.00  0.00     0.041 A 
ATOM     75  F   UNL A   1      38.364  31.009  32.396  1.00  0.00    -0.206 F 
ATOM     76  C   UNL A   1      35.207  31.899  30.935  1.00  0.00     0.022 A 
BRANCH  73  77
ATOM     77  S   UNL A   1      34.491  32.996  28.583  1.00  0.00     0.124 S 
ATOM     78  O   UNL A   1      35.283  33.800  27.550  1.00  0.00    -0.237 OA
ATOM     79  O   UNL A   1      33.639  31.944  27.869  1.00  0.00    -0.237 OA
ATOM     80  O   UNL A   1      33.473  34.049  29.467  1.00  0.00    -0.744 OA
ENDBRANCH  73  77
ENDBRANCH  56  70
BRANCH  57  81
ATOM     81  C   UNL A   1      47.578  30.298  28.640  1.00  0.00     0.023 A 
ATOM     82  C   UNL A   1      48.424  29.887  29.658  1.00  0.00     0.031 A 
ATOM     83  C   UNL A   1      48.055  30.670  27.458  1.00  0.00     0.131 A 
ATOM     84  C   UNL A   1      49.788  30.180  29.424  1.00  0.00     0.055 A 
ATOM     85  C   UNL A   1      49.408  30.806  27.261  1.00  0.00     0.041 A 
ATOM     86  F   UNL A   1      47.215  30.915  26.456  1.00  0.00    -0.206 F 
ATOM     87  C   UNL A   1      50.299  30.474  28.243  1.00  0.00     0.022 A 
BRANCH  84  88
ATOM     88  S   UNL A   1      50.910  30.151  30.844  1.00  0.00     0.124 S 
ATOM     89  O   UNL A   1      51.949  31.265  30.698  1.00  0.00    -0.237 OA
ATOM     90  O   UNL A   1      50.110  30.365  32.131  1.00  0.00    -0.237 OA
ATOM     91  O   UNL A   1      51.703  28.637  30.912  1.00  0.00    -0.744 OA
ENDBRANCH  84  88
ENDBRANCH  57  81
BRANCH  69  92
ATOM     92  C   UNL A   1      43.568  35.660  30.761  1.00  0.00     0.023 A 
ATOM     93  C   UNL A   1      43.469  36.597  29.745  1.00  0.00     0.031 A 
ATOM     94  C   UNL A   1      43.758  36.029  32.023  1.00  0.00     0.131 A 
ATOM     95  C   UNL A   1      43.873  37.898  30.125  1.00  0.00     0.055 A 
ATOM     96  C   UNL A   1      44.014  37.342  32.336  1.00  0.00     0.041 A 
ATOM     97  F   UNL A   1      43.698  35.119  32.991  1.00  0.00    -0.206 F 
ATOM     98  C   UNL A   1      43.990  38.312  31.373  1.00  0.00     0.022 A 
BRANCH  95  99
ATOM     99  S   UNL A   1      44.257  39.078  28.807  1.00  0.00     0.124 S 
ATOM    100  O   UNL A   1      43.205  38.965  27.700  1.00  0.00    -0.237 OA
ATOM    101  O   UNL A   1      44.248  40.498  29.375  1.00  0.00    -0.237 OA
ATOM    102  O   UNL A   1      45.802  38.730  28.163  1.00  0.00    -0.744 OA
ENDBRANCH  95  99
ENDBRANCH  69  92
ENDBRANCH  43  44
ENDBRANCH  36  38
ENDBRANCH  35  36
ENDBRANCH  34  35
ENDBRANCH  33  34
ENDBRANCH  32  33
ENDBRANCH  31  32
ENDBRANCH   1  31
TORSDOF 25
ENDMDL
