MODEL 1
REMARK VINA RESULT:      -7.3      0.000      0.000
REMARK SMILES C[NH2+][C@@](C)(CC[N@@H+](C)C1CCC(C)(C)CC1)C(=O)OCCOCCOCCOCCOC(=O)c1ccc(-c2c3nc(c(-c4cc(S(=O)(=O)[O-])ccc4F)c4ccc([nH]4)c(-c4cc(S(=O)(=O)[O-])ccc4F)c4nc(c(-c5cc(S(=O)(=O)[O-])ccc5F)c5ccc2[nH]5)C=C4)C=C3)cc1
REMARK SMILES IDX 24 1 23 2 22 3 21 4 20 5 19 6 17 7 18 8 3 9 4 10 2 11 1 12
REMARK SMILES IDX 5 15 6 16 7 17 8 18 9 20 10 21 16 22 11 23 15 24 12 25 13 26
REMARK SMILES IDX 14 27 25 28 26 29 27 30 28 31 29 32 30 33 31 34 32 35 33 36
REMARK SMILES IDX 34 37 35 38 96 39 36 40 95 41 37 42 38 43 39 44 89 45 40 46
REMARK SMILES IDX 94 47 88 48 90 49 41 50 93 51 87 52 86 53 42 55 74 56 54 57
REMARK SMILES IDX 73 58 55 59 58 60 72 61 91 62 56 63 57 64 71 66 92 67 59 68
REMARK SMILES IDX 43 69 44 70 52 71 45 72 51 73 53 74 50 75 46 76 47 77 48 78
REMARK SMILES IDX 49 79 75 80 76 81 84 82 77 83 83 84 85 85 82 86 78 87 79 88
REMARK SMILES IDX 80 89 81 90 60 91 61 92 69 93 62 94 68 95 70 96 67 97 63 98
REMARK SMILES IDX 64 99 65 100 66 101
REMARK H PARENT 2 13 2 14 7 19 90 54 58 65
REMARK Flexibility Score: inf
ROOT
ATOM      1  C   UNL A   1      44.784  29.918  32.335  1.00  0.00     0.188 C 
ENDROOT
BRANCH   1   2
ATOM      2  C   UNL A   1      43.895  28.416  33.512  1.00  0.00     0.188 C 
BRANCH   2   3
ATOM      3  O   UNL A   1      42.931  28.392  34.678  1.00  0.00    -0.376 OA
BRANCH   3   4
ATOM      4  C   UNL A   1      43.033  27.783  35.970  1.00  0.00     0.202 C 
BRANCH   4   5
ATOM      5  C   UNL A   1      41.957  26.888  36.636  1.00  0.00     0.261 C 
BRANCH   5   6
ATOM      6  O   UNL A   1      42.404  25.953  37.625  1.00  0.00    -0.459 OA
BRANCH   6   7
ATOM      7  C   UNL A   1      43.672  26.134  38.056  1.00  0.00     0.368 C 
ATOM      8  O   UNL A   1      44.036  27.166  38.620  1.00  0.00    -0.245 OA
BRANCH   7   9
ATOM      9  C   UNL A   1      44.651  24.942  37.754  1.00  0.00     0.196 C 
ATOM     10  C   UNL A   1      46.043  25.632  37.769  1.00  0.00     0.092 C 
BRANCH   9  11
ATOM     11  N   UNL A   1      44.624  23.899  38.826  1.00  0.00    -0.335 N 
ATOM     12  C   UNL A   1      45.727  23.916  39.776  1.00  0.00     0.331 C 
ATOM     13  H   UNL A   1      43.759  24.017  39.353  1.00  0.00     0.347 HD
ATOM     14  H   UNL A   1      44.704  23.007  38.336  1.00  0.00     0.347 HD
ENDBRANCH   9  11
BRANCH   9  15
ATOM     15  C   UNL A   1      44.542  24.235  36.351  1.00  0.00     0.142 C 
BRANCH  15  16
ATOM     16  C   UNL A   1      45.785  23.514  35.738  1.00  0.00     0.269 C 
BRANCH  16  17
ATOM     17  N   UNL A   1      46.355  22.405  36.541  1.00  0.00    -0.335 N 
ATOM     18  C   UNL A   1      45.639  21.167  36.223  1.00  0.00     0.332 C 
ATOM     19  H   UNL A   1      46.224  22.592  37.535  1.00  0.00     0.348 HD
BRANCH  17  20
ATOM     20  C   UNL A   1      47.828  22.301  36.358  1.00  0.00     0.183 C 
ATOM     21  C   UNL A   1      48.998  22.376  37.925  1.00  0.00     0.065 C 
ATOM     22  C   UNL A   1      48.474  21.396  34.778  1.00  0.00     0.065 C 
ATOM     23  C   UNL A   1      50.705  21.365  37.928  1.00  0.00     0.012 C 
ATOM     24  C   UNL A   1      50.103  20.362  34.812  1.00  0.00     0.012 C 
ATOM     25  C   UNL A   1      51.307  20.439  36.310  1.00  0.00    -0.035 C 
ATOM     26  C   UNL A   1      51.663  18.931  36.650  1.00  0.00     0.011 C 
ATOM     27  C   UNL A   1      52.692  20.972  35.836  1.00  0.00     0.011 C 
ENDBRANCH  17  20
ENDBRANCH  16  17
ENDBRANCH  15  16
ENDBRANCH   9  15
ENDBRANCH   7   9
ENDBRANCH   6   7
ENDBRANCH   5   6
ENDBRANCH   4   5
ENDBRANCH   3   4
ENDBRANCH   2   3
ENDBRANCH   1   2
BRANCH   1  28
ATOM     28  O   UNL A   1      44.897  30.078  30.857  1.00  0.00    -0.377 OA
BRANCH  28  29
ATOM     29  C   UNL A   1      46.139  30.310  30.185  1.00  0.00     0.188 C 
BRANCH  29  30
ATOM     30  C   UNL A   1      46.257  31.485  29.214  1.00  0.00     0.188 C 
BRANCH  30  31
ATOM     31  O   UNL A   1      47.461  31.682  28.493  1.00  0.00    -0.376 OA
BRANCH  31  32
ATOM     32  C   UNL A   1      47.400  31.884  27.090  1.00  0.00     0.202 C 
BRANCH  32  33
ATOM     33  C   UNL A   1      47.316  33.329  26.586  1.00  0.00     0.261 C 
BRANCH  33  34
ATOM     34  O   UNL A   1      46.005  33.735  26.156  1.00  0.00    -0.460 OA
BRANCH  34  35
ATOM     35  C   UNL A   1      45.601  34.948  26.610  1.00  0.00     0.338 C 
ATOM     36  O   UNL A   1      45.989  36.035  26.224  1.00  0.00    -0.246 OA
BRANCH  35  37
ATOM     37  C   UNL A   1      44.479  34.799  27.561  1.00  0.00     0.060 A 
ATOM     38  C   UNL A   1      44.072  35.933  28.280  1.00  0.00     0.016 A 
ATOM     39  C   UNL A   1      43.934  33.545  27.846  1.00  0.00     0.016 A 
ATOM     40  C   UNL A   1      43.184  35.803  29.346  1.00  0.00     0.010 A 
ATOM     41  C   UNL A   1      43.064  33.411  28.932  1.00  0.00     0.010 A 
ATOM     42  C   UNL A   1      42.741  34.531  29.723  1.00  0.00    -0.014 A 
BRANCH  42  43
ATOM     43  C   UNL A   1      42.226  34.332  31.100  1.00  0.00     0.031 A 
ATOM     44  C   UNL A   1      40.729  34.330  31.285  1.00  0.00     0.074 A 
ATOM     45  C   UNL A   1      43.049  34.120  32.140  1.00  0.00     0.049 A 
ATOM     46  N   UNL A   1      40.021  34.254  32.381  1.00  0.00    -0.248 NA
ATOM     47  C   UNL A   1      39.922  34.432  30.056  1.00  0.00     0.031 C 
ATOM     48  C   UNL A   1      44.505  34.019  32.059  1.00  0.00     0.029 A 
ATOM     49  N   UNL A   1      42.774  33.955  33.474  1.00  0.00    -0.354 N 
ATOM     50  C   UNL A   1      38.691  34.309  31.974  1.00  0.00     0.074 A 
ATOM     51  C   UNL A   1      38.690  34.450  30.536  1.00  0.00     0.031 C 
ATOM     52  C   UNL A   1      44.997  33.827  33.295  1.00  0.00     0.029 A 
ATOM     53  C   UNL A   1      43.898  33.837  34.258  1.00  0.00     0.049 A 
ATOM     54  H   UNL A   1      41.858  33.926  33.836  1.00  0.00     0.167 HD
ATOM     55  C   UNL A   1      37.570  34.249  32.735  1.00  0.00     0.034 A 
ATOM     56  C   UNL A   1      44.016  33.780  35.601  1.00  0.00     0.034 A 
ATOM     57  C   UNL A   1      37.598  34.130  34.171  1.00  0.00     0.049 A 
ATOM     58  C   UNL A   1      42.756  33.819  36.439  1.00  0.00     0.074 A 
ATOM     59  C   UNL A   1      36.536  34.072  35.054  1.00  0.00     0.029 A 
ATOM     60  N   UNL A   1      38.757  34.066  34.935  1.00  0.00    -0.354 N 
ATOM     61  N   UNL A   1      41.503  33.888  36.047  1.00  0.00    -0.248 NA
ATOM     62  C   UNL A   1      42.929  33.771  37.896  1.00  0.00     0.031 C 
ATOM     63  C   UNL A   1      37.051  34.046  36.355  1.00  0.00     0.029 A 
ATOM     64  C   UNL A   1      38.436  34.004  36.281  1.00  0.00     0.049 A 
ATOM     65  H   UNL A   1      39.672  34.065  34.573  1.00  0.00     0.167 HD
ATOM     66  C   UNL A   1      40.739  33.857  37.212  1.00  0.00     0.074 A 
ATOM     67  C   UNL A   1      41.673  33.752  38.315  1.00  0.00     0.031 C 
ATOM     68  C   UNL A   1      39.389  33.906  37.361  1.00  0.00     0.034 A 
BRANCH  55  69
ATOM     69  C   UNL A   1      36.243  34.389  32.027  1.00  0.00     0.023 A 
ATOM     70  C   UNL A   1      35.451  35.546  32.147  1.00  0.00     0.031 A 
ATOM     71  C   UNL A   1      35.740  33.325  31.256  1.00  0.00     0.131 A 
ATOM     72  C   UNL A   1      34.173  35.582  31.566  1.00  0.00     0.055 A 
ATOM     73  C   UNL A   1      34.501  33.399  30.617  1.00  0.00     0.041 A 
ATOM     74  F   UNL A   1      36.438  32.185  31.128  1.00  0.00    -0.206 F 
ATOM     75  C   UNL A   1      33.704  34.526  30.782  1.00  0.00     0.022 A 
BRANCH  72  76
ATOM     76  S   UNL A   1      33.075  36.971  31.965  1.00  0.00     0.124 S 
ATOM     77  O   UNL A   1      33.916  37.768  32.853  1.00  0.00    -0.237 OA
ATOM     78  O   UNL A   1      32.805  37.547  30.652  1.00  0.00    -0.237 OA
ATOM     79  O   UNL A   1      31.931  36.329  32.611  1.00  0.00    -0.744 OA
ENDBRANCH  72  76
ENDBRANCH  55  69
BRANCH  56  80
ATOM     80  C   UNL A   1      45.361  33.731  36.247  1.00  0.00     0.023 A 
ATOM     81  C   UNL A   1      45.956  34.886  36.780  1.00  0.00     0.031 A 
ATOM     82  C   UNL A   1      46.100  32.535  36.285  1.00  0.00     0.131 A 
ATOM     83  C   UNL A   1      47.265  34.830  37.288  1.00  0.00     0.055 A 
ATOM     84  C   UNL A   1      47.380  32.473  36.840  1.00  0.00     0.041 A 
ATOM     85  F   UNL A   1      45.585  31.401  35.784  1.00  0.00    -0.206 F 
ATOM     86  C   UNL A   1      47.976  33.629  37.334  1.00  0.00     0.022 A 
BRANCH  83  87
ATOM     87  S   UNL A   1      48.064  36.374  37.808  1.00  0.00     0.124 S 
ATOM     88  O   UNL A   1      47.770  37.255  36.684  1.00  0.00    -0.237 OA
ATOM     89  O   UNL A   1      47.367  36.669  39.055  1.00  0.00    -0.237 OA
ATOM     90  O   UNL A   1      49.469  35.997  37.957  1.00  0.00    -0.744 OA
ENDBRANCH  83  87
ENDBRANCH  56  80
BRANCH  68  91
ATOM     91  C   UNL A   1      38.851  33.792  38.767  1.00  0.00     0.023 A 
ATOM     92  C   UNL A   1      38.279  32.604  39.247  1.00  0.00     0.031 A 
ATOM     93  C   UNL A   1      38.915  34.897  39.636  1.00  0.00     0.131 A 
ATOM     94  C   UNL A   1      37.738  32.563  40.541  1.00  0.00     0.055 A 
ATOM     95  C   UNL A   1      38.433  34.831  40.943  1.00  0.00     0.041 A 
ATOM     96  F   UNL A   1      39.452  36.059  39.228  1.00  0.00    -0.206 F 
ATOM     97  C   UNL A   1      37.828  33.663  41.398  1.00  0.00     0.022 A 
BRANCH  94  98
ATOM     98  S   UNL A   1      36.829  31.082  41.058  1.00  0.00     0.124 S 
ATOM     99  O   UNL A   1      37.538  30.025  40.344  1.00  0.00    -0.237 OA
ATOM    100  O   UNL A   1      37.002  31.099  42.507  1.00  0.00    -0.237 OA
ATOM    101  O   UNL A   1      35.466  31.337  40.595  1.00  0.00    -0.744 OA
ENDBRANCH  94  98
ENDBRANCH  68  91
ENDBRANCH  42  43
ENDBRANCH  35  37
ENDBRANCH  34  35
ENDBRANCH  33  34
ENDBRANCH  32  33
ENDBRANCH  31  32
ENDBRANCH  30  31
ENDBRANCH  29  30
ENDBRANCH  28  29
ENDBRANCH   1  28
TORSDOF 28
ENDMDL
MODEL 2
REMARK VINA RESULT:      -6.6      5.782     10.651
REMARK SMILES C[NH2+][C@@](C)(CC[N@@H+](C)C1CCC(C)(C)CC1)C(=O)OCCOCCOCCOCCOC(=O)c1ccc(-c2c3nc(c(-c4cc(S(=O)(=O)[O-])ccc4F)c4ccc([nH]4)c(-c4cc(S(=O)(=O)[O-])ccc4F)c4nc(c(-c5cc(S(=O)(=O)[O-])ccc5F)c5ccc2[nH]5)C=C4)C=C3)cc1
REMARK SMILES IDX 24 1 23 2 22 3 21 4 20 5 19 6 17 7 18 8 3 9 4 10 2 11 1 12
REMARK SMILES IDX 5 15 6 16 7 17 8 18 9 20 10 21 16 22 11 23 15 24 12 25 13 26
REMARK SMILES IDX 14 27 25 28 26 29 27 30 28 31 29 32 30 33 31 34 32 35 33 36
REMARK SMILES IDX 34 37 35 38 96 39 36 40 95 41 37 42 38 43 39 44 89 45 40 46
REMARK SMILES IDX 94 47 88 48 90 49 41 50 93 51 87 52 86 53 42 55 74 56 54 57
REMARK SMILES IDX 73 58 55 59 58 60 72 61 91 62 56 63 57 64 71 66 92 67 59 68
REMARK SMILES IDX 43 69 44 70 52 71 45 72 51 73 53 74 50 75 46 76 47 77 48 78
REMARK SMILES IDX 49 79 75 80 76 81 84 82 77 83 83 84 85 85 82 86 78 87 79 88
REMARK SMILES IDX 80 89 81 90 60 91 61 92 69 93 62 94 68 95 70 96 67 97 63 98
REMARK SMILES IDX 64 99 65 100 66 101
REMARK H PARENT 2 13 2 14 7 19 90 54 58 65
REMARK Flexibility Score: inf
ROOT
ATOM      1  C   UNL A   1      44.615  26.704  31.059  1.00  0.00     0.188 C 
ENDROOT
BRANCH   1   2
ATOM      2  C   UNL A   1      43.788  26.992  32.973  1.00  0.00     0.188 C 
BRANCH   2   3
ATOM      3  O   UNL A   1      43.094  26.112  33.989  1.00  0.00    -0.376 OA
BRANCH   3   4
ATOM      4  C   UNL A   1      42.287  26.443  35.125  1.00  0.00     0.202 C 
BRANCH   4   5
ATOM      5  C   UNL A   1      42.352  25.757  36.512  1.00  0.00     0.261 C 
BRANCH   5   6
ATOM      6  O   UNL A   1      43.349  24.745  36.695  1.00  0.00    -0.459 OA
BRANCH   6   7
ATOM      7  C   UNL A   1      44.479  25.154  37.312  1.00  0.00     0.368 C 
ATOM      8  O   UNL A   1      44.599  26.283  37.790  1.00  0.00    -0.245 OA
BRANCH   7   9
ATOM      9  C   UNL A   1      45.638  24.093  37.345  1.00  0.00     0.196 C 
ATOM     10  C   UNL A   1      46.853  24.930  37.832  1.00  0.00     0.092 C 
BRANCH   9  11
ATOM     11  N   UNL A   1      45.383  23.003  38.336  1.00  0.00    -0.335 N 
ATOM     12  C   UNL A   1      45.494  23.364  39.743  1.00  0.00     0.331 C 
ATOM     13  H   UNL A   1      44.437  22.655  38.180  1.00  0.00     0.347 HD
ATOM     14  H   UNL A   1      46.119  22.314  38.176  1.00  0.00     0.347 HD
ENDBRANCH   9  11
BRANCH   9  15
ATOM     15  C   UNL A   1      46.087  23.447  35.981  1.00  0.00     0.142 C 
BRANCH  15  16
ATOM     16  C   UNL A   1      47.220  22.372  35.957  1.00  0.00     0.269 C 
BRANCH  16  17
ATOM     17  N   UNL A   1      46.774  20.957  35.983  1.00  0.00    -0.335 N 
ATOM     18  C   UNL A   1      46.577  20.493  34.608  1.00  0.00     0.332 C 
ATOM     19  H   UNL A   1      45.879  20.884  36.467  1.00  0.00     0.348 HD
BRANCH  17  20
ATOM     20  C   UNL A   1      47.708  20.107  36.769  1.00  0.00     0.183 C 
ATOM     21  C   UNL A   1      49.625  20.171  36.380  1.00  0.00     0.065 C 
ATOM     22  C   UNL A   1      47.153  19.565  38.539  1.00  0.00     0.065 C 
ATOM     23  C   UNL A   1      50.937  19.882  37.839  1.00  0.00     0.012 C 
ATOM     24  C   UNL A   1      48.433  19.351  39.967  1.00  0.00     0.012 C 
ATOM     25  C   UNL A   1      50.326  19.360  39.626  1.00  0.00    -0.035 C 
ATOM     26  C   UNL A   1      50.952  20.328  40.716  1.00  0.00     0.011 C 
ATOM     27  C   UNL A   1      50.938  17.993  40.055  1.00  0.00     0.011 C 
ENDBRANCH  17  20
ENDBRANCH  16  17
ENDBRANCH  15  16
ENDBRANCH   9  15
ENDBRANCH   7   9
ENDBRANCH   6   7
ENDBRANCH   5   6
ENDBRANCH   4   5
ENDBRANCH   3   4
ENDBRANCH   2   3
ENDBRANCH   1   2
BRANCH   1  28
ATOM     28  O   UNL A   1      44.202  25.828  29.925  1.00  0.00    -0.377 OA
BRANCH  28  29
ATOM     29  C   UNL A   1      44.835  24.580  29.626  1.00  0.00     0.188 C 
BRANCH  29  30
ATOM     30  C   UNL A   1      44.687  23.983  28.227  1.00  0.00     0.188 C 
BRANCH  30  31
ATOM     31  O   UNL A   1      45.740  23.207  27.679  1.00  0.00    -0.376 OA
BRANCH  31  32
ATOM     32  C   UNL A   1      46.326  23.610  26.452  1.00  0.00     0.202 C 
BRANCH  32  33
ATOM     33  C   UNL A   1      47.083  24.943  26.432  1.00  0.00     0.261 C 
BRANCH  33  34
ATOM     34  O   UNL A   1      48.514  24.814  26.378  1.00  0.00    -0.460 OA
BRANCH  34  35
ATOM     35  C   UNL A   1      49.175  25.272  27.471  1.00  0.00     0.338 C 
ATOM     36  O   UNL A   1      49.875  24.622  28.223  1.00  0.00    -0.246 OA
BRANCH  35  37
ATOM     37  C   UNL A   1      49.065  26.744  27.564  1.00  0.00     0.060 A 
ATOM     38  C   UNL A   1      48.885  27.310  28.835  1.00  0.00     0.016 A 
ATOM     39  C   UNL A   1      48.997  27.538  26.418  1.00  0.00     0.016 A 
ATOM     40  C   UNL A   1      48.548  28.657  28.959  1.00  0.00     0.010 A 
ATOM     41  C   UNL A   1      48.633  28.883  26.541  1.00  0.00     0.010 A 
ATOM     42  C   UNL A   1      48.344  29.425  27.808  1.00  0.00    -0.014 A 
BRANCH  42  43
ATOM     43  C   UNL A   1      47.529  30.661  27.908  1.00  0.00     0.031 A 
ATOM     44  C   UNL A   1      48.178  31.953  27.478  1.00  0.00     0.074 A 
ATOM     45  C   UNL A   1      46.253  30.636  28.325  1.00  0.00     0.049 A 
ATOM     46  N   UNL A   1      47.723  33.176  27.533  1.00  0.00    -0.248 NA
ATOM     47  C   UNL A   1      49.532  31.842  26.908  1.00  0.00     0.031 C 
ATOM     48  C   UNL A   1      45.505  29.433  28.684  1.00  0.00     0.029 A 
ATOM     49  N   UNL A   1      45.360  31.659  28.520  1.00  0.00    -0.354 N 
ATOM     50  C   UNL A   1      48.736  33.979  27.016  1.00  0.00     0.074 A 
ATOM     51  C   UNL A   1      49.838  33.108  26.676  1.00  0.00     0.031 C 
ATOM     52  C   UNL A   1      44.268  29.790  29.075  1.00  0.00     0.029 A 
ATOM     53  C   UNL A   1      44.153  31.246  29.036  1.00  0.00     0.049 A 
ATOM     54  H   UNL A   1      45.564  32.600  28.312  1.00  0.00     0.167 HD
ATOM     55  C   UNL A   1      48.746  35.323  26.842  1.00  0.00     0.034 A 
ATOM     56  C   UNL A   1      43.097  31.973  29.457  1.00  0.00     0.034 A 
ATOM     57  C   UNL A   1      47.642  36.174  27.210  1.00  0.00     0.049 A 
ATOM     58  C   UNL A   1      43.169  33.480  29.351  1.00  0.00     0.074 A 
ATOM     59  C   UNL A   1      47.534  37.547  27.097  1.00  0.00     0.029 A 
ATOM     60  N   UNL A   1      46.456  35.725  27.778  1.00  0.00    -0.354 N 
ATOM     61  N   UNL A   1      44.137  34.232  28.877  1.00  0.00    -0.248 NA
ATOM     62  C   UNL A   1      42.006  34.234  29.836  1.00  0.00     0.031 C 
ATOM     63  C   UNL A   1      46.315  37.936  27.663  1.00  0.00     0.029 A 
ATOM     64  C   UNL A   1      45.625  36.798  28.053  1.00  0.00     0.049 A 
ATOM     65  H   UNL A   1      46.238  34.782  27.959  1.00  0.00     0.167 HD
ATOM     66  C   UNL A   1      43.683  35.545  28.976  1.00  0.00     0.074 A 
ATOM     67  C   UNL A   1      42.352  35.479  29.544  1.00  0.00     0.031 C 
ATOM     68  C   UNL A   1      44.303  36.703  28.627  1.00  0.00     0.034 A 
BRANCH  55  69
ATOM     69  C   UNL A   1      50.013  35.944  26.305  1.00  0.00     0.023 A 
ATOM     70  C   UNL A   1      50.982  36.518  27.150  1.00  0.00     0.031 A 
ATOM     71  C   UNL A   1      50.235  36.004  24.917  1.00  0.00     0.131 A 
ATOM     72  C   UNL A   1      52.086  37.186  26.597  1.00  0.00     0.055 A 
ATOM     73  C   UNL A   1      51.375  36.604  24.377  1.00  0.00     0.041 A 
ATOM     74  F   UNL A   1      49.333  35.500  24.059  1.00  0.00    -0.206 F 
ATOM     75  C   UNL A   1      52.301  37.212  25.217  1.00  0.00     0.022 A 
BRANCH  72  76
ATOM     76  S   UNL A   1      53.165  38.144  27.698  1.00  0.00     0.124 S 
ATOM     77  O   UNL A   1      54.182  37.157  28.048  1.00  0.00    -0.237 OA
ATOM     78  O   UNL A   1      53.604  39.236  26.837  1.00  0.00    -0.237 OA
ATOM     79  O   UNL A   1      52.279  38.531  28.794  1.00  0.00    -0.744 OA
ENDBRANCH  72  76
ENDBRANCH  55  69
BRANCH  56  80
ATOM     80  C   UNL A   1      41.906  31.306  30.062  1.00  0.00     0.023 A 
ATOM     81  C   UNL A   1      40.845  30.845  29.266  1.00  0.00     0.031 A 
ATOM     82  C   UNL A   1      41.785  31.175  31.458  1.00  0.00     0.131 A 
ATOM     83  C   UNL A   1      39.693  30.316  29.872  1.00  0.00     0.055 A 
ATOM     84  C   UNL A   1      40.660  30.599  32.052  1.00  0.00     0.041 A 
ATOM     85  F   UNL A   1      42.765  31.604  32.269  1.00  0.00    -0.206 F 
ATOM     86  C   UNL A   1      39.599  30.177  31.259  1.00  0.00     0.022 A 
BRANCH  83  87
ATOM     87  S   UNL A   1      38.274  29.892  28.823  1.00  0.00     0.124 S 
ATOM     88  O   UNL A   1      37.538  28.966  29.678  1.00  0.00    -0.237 OA
ATOM     89  O   UNL A   1      37.657  31.196  28.609  1.00  0.00    -0.237 OA
ATOM     90  O   UNL A   1      38.892  29.294  27.640  1.00  0.00    -0.744 OA
ENDBRANCH  83  87
ENDBRANCH  56  80
BRANCH  68  91
ATOM     91  C   UNL A   1      43.519  37.980  28.804  1.00  0.00     0.023 A 
ATOM     92  C   UNL A   1      43.680  38.797  29.935  1.00  0.00     0.031 A 
ATOM     93  C   UNL A   1      42.594  38.380  27.822  1.00  0.00     0.131 A 
ATOM     94  C   UNL A   1      42.886  39.944  30.085  1.00  0.00     0.055 A 
ATOM     95  C   UNL A   1      41.854  39.555  27.947  1.00  0.00     0.041 A 
ATOM     96  F   UNL A   1      42.400  37.636  26.722  1.00  0.00    -0.206 F 
ATOM     97  C   UNL A   1      41.988  40.338  29.091  1.00  0.00     0.022 A 
BRANCH  94  98
ATOM     98  S   UNL A   1      42.975  40.865  31.645  1.00  0.00     0.124 S 
ATOM     99  O   UNL A   1      43.794  42.014  31.273  1.00  0.00    -0.237 OA
ATOM    100  O   UNL A   1      41.570  41.147  31.922  1.00  0.00    -0.237 OA
ATOM    101  O   UNL A   1      43.610  39.922  32.564  1.00  0.00    -0.744 OA
ENDBRANCH  94  98
ENDBRANCH  68  91
ENDBRANCH  42  43
ENDBRANCH  35  37
ENDBRANCH  34  35
ENDBRANCH  33  34
ENDBRANCH  32  33
ENDBRANCH  31  32
ENDBRANCH  30  31
ENDBRANCH  29  30
ENDBRANCH  28  29
ENDBRANCH   1  28
TORSDOF 28
ENDMDL
MODEL 3
REMARK VINA RESULT:      -6.5      4.344      9.731
REMARK SMILES C[NH2+][C@@](C)(CC[N@@H+](C)C1CCC(C)(C)CC1)C(=O)OCCOCCOCCOCCOC(=O)c1ccc(-c2c3nc(c(-c4cc(S(=O)(=O)[O-])ccc4F)c4ccc([nH]4)c(-c4cc(S(=O)(=O)[O-])ccc4F)c4nc(c(-c5cc(S(=O)(=O)[O-])ccc5F)c5ccc2[nH]5)C=C4)C=C3)cc1
REMARK SMILES IDX 24 1 23 2 22 3 21 4 20 5 19 6 17 7 18 8 3 9 4 10 2 11 1 12
REMARK SMILES IDX 5 15 6 16 7 17 8 18 9 20 10 21 16 22 11 23 15 24 12 25 13 26
REMARK SMILES IDX 14 27 25 28 26 29 27 30 28 31 29 32 30 33 31 34 32 35 33 36
REMARK SMILES IDX 34 37 35 38 96 39 36 40 95 41 37 42 38 43 39 44 89 45 40 46
REMARK SMILES IDX 94 47 88 48 90 49 41 50 93 51 87 52 86 53 42 55 74 56 54 57
REMARK SMILES IDX 73 58 55 59 58 60 72 61 91 62 56 63 57 64 71 66 92 67 59 68
REMARK SMILES IDX 43 69 44 70 52 71 45 72 51 73 53 74 50 75 46 76 47 77 48 78
REMARK SMILES IDX 49 79 75 80 76 81 84 82 77 83 83 84 85 85 82 86 78 87 79 88
REMARK SMILES IDX 80 89 81 90 60 91 61 92 69 93 62 94 68 95 70 96 67 97 63 98
REMARK SMILES IDX 64 99 65 100 66 101
REMARK H PARENT 2 13 2 14 7 19 90 54 58 65
REMARK Flexibility Score: inf
ROOT
ATOM      1  C   UNL A   1      55.929  24.215  32.105  1.00  0.00     0.188 C 
ENDROOT
BRANCH   1   2
ATOM      2  C   UNL A   1      54.994  23.175  33.678  1.00  0.00     0.188 C 
BRANCH   2   3
ATOM      3  O   UNL A   1      54.307  21.834  33.825  1.00  0.00    -0.376 OA
BRANCH   3   4
ATOM      4  C   UNL A   1      53.512  21.080  32.903  1.00  0.00     0.202 C 
BRANCH   4   5
ATOM      5  C   UNL A   1      51.963  21.033  32.872  1.00  0.00     0.261 C 
BRANCH   5   6
ATOM      6  O   UNL A   1      51.279  21.177  34.123  1.00  0.00    -0.459 OA
BRANCH   6   7
ATOM      7  C   UNL A   1      51.332  20.098  34.935  1.00  0.00     0.368 C 
ATOM      8  O   UNL A   1      51.476  18.954  34.505  1.00  0.00    -0.245 OA
BRANCH   7   9
ATOM      9  C   UNL A   1      51.165  20.413  36.466  1.00  0.00     0.196 C 
ATOM     10  C   UNL A   1      51.420  19.031  37.128  1.00  0.00     0.092 C 
BRANCH   9  11
ATOM     11  N   UNL A   1      52.193  21.378  36.965  1.00  0.00    -0.335 N 
ATOM     12  C   UNL A   1      51.719  22.434  37.847  1.00  0.00     0.331 C 
ATOM     13  H   UNL A   1      52.899  20.845  37.472  1.00  0.00     0.347 HD
ATOM     14  H   UNL A   1      52.540  21.856  36.132  1.00  0.00     0.347 HD
ENDBRANCH   9  11
BRANCH   9  15
ATOM     15  C   UNL A   1      49.746  20.873  36.974  1.00  0.00     0.142 C 
BRANCH  15  16
ATOM     16  C   UNL A   1      48.455  20.394  36.236  1.00  0.00     0.269 C 
BRANCH  16  17
ATOM     17  N   UNL A   1      48.198  21.008  34.911  1.00  0.00    -0.335 N 
ATOM     18  C   UNL A   1      47.746  19.970  33.983  1.00  0.00     0.332 C 
ATOM     19  H   UNL A   1      49.062  21.403  34.538  1.00  0.00     0.348 HD
BRANCH  17  20
ATOM     20  C   UNL A   1      47.262  22.159  35.017  1.00  0.00     0.183 C 
ATOM     21  C   UNL A   1      45.663  21.998  36.133  1.00  0.00     0.065 C 
ATOM     22  C   UNL A   1      47.974  23.927  34.690  1.00  0.00     0.065 C 
ATOM     23  C   UNL A   1      44.939  23.599  37.054  1.00  0.00     0.012 C 
ATOM     24  C   UNL A   1      47.304  25.466  35.641  1.00  0.00     0.012 C 
ATOM     25  C   UNL A   1      45.709  25.367  36.713  1.00  0.00    -0.035 C 
ATOM     26  C   UNL A   1      46.072  26.074  38.086  1.00  0.00     0.011 C 
ATOM     27  C   UNL A   1      44.641  26.349  36.147  1.00  0.00     0.011 C 
ENDBRANCH  17  20
ENDBRANCH  16  17
ENDBRANCH  15  16
ENDBRANCH   9  15
ENDBRANCH   7   9
ENDBRANCH   6   7
ENDBRANCH   5   6
ENDBRANCH   4   5
ENDBRANCH   3   4
ENDBRANCH   2   3
ENDBRANCH   1   2
BRANCH   1  28
ATOM     28  O   UNL A   1      55.592  25.503  31.433  1.00  0.00    -0.377 OA
BRANCH  28  29
ATOM     29  C   UNL A   1      55.384  25.621  30.022  1.00  0.00     0.188 C 
BRANCH  29  30
ATOM     30  C   UNL A   1      54.111  26.294  29.508  1.00  0.00     0.188 C 
BRANCH  30  31
ATOM     31  O   UNL A   1      53.019  26.496  30.388  1.00  0.00    -0.376 OA
BRANCH  31  32
ATOM     32  C   UNL A   1      51.727  26.714  29.845  1.00  0.00     0.202 C 
BRANCH  32  33
ATOM     33  C   UNL A   1      50.618  25.731  30.237  1.00  0.00     0.261 C 
BRANCH  33  34
ATOM     34  O   UNL A   1      49.357  26.348  30.547  1.00  0.00    -0.460 OA
BRANCH  34  35
ATOM     35  C   UNL A   1      49.107  26.513  31.870  1.00  0.00     0.338 C 
ATOM     36  O   UNL A   1      49.814  26.157  32.794  1.00  0.00    -0.246 OA
BRANCH  35  37
ATOM     37  C   UNL A   1      47.900  27.343  32.070  1.00  0.00     0.060 A 
ATOM     38  C   UNL A   1      48.053  28.738  32.062  1.00  0.00     0.016 A 
ATOM     39  C   UNL A   1      46.672  26.766  32.398  1.00  0.00     0.016 A 
ATOM     40  C   UNL A   1      47.003  29.559  32.470  1.00  0.00     0.010 A 
ATOM     41  C   UNL A   1      45.627  27.588  32.832  1.00  0.00     0.010 A 
ATOM     42  C   UNL A   1      45.815  28.980  32.930  1.00  0.00    -0.014 A 
BRANCH  42  43
ATOM     43  C   UNL A   1      44.922  29.781  33.803  1.00  0.00     0.031 A 
ATOM     44  C   UNL A   1      45.315  29.919  35.253  1.00  0.00     0.074 A 
ATOM     45  C   UNL A   1      43.828  30.397  33.324  1.00  0.00     0.049 A 
ATOM     46  N   UNL A   1      44.681  30.493  36.241  1.00  0.00    -0.248 NA
ATOM     47  C   UNL A   1      46.605  29.319  35.637  1.00  0.00     0.031 C 
ATOM     48  C   UNL A   1      43.404  30.398  31.926  1.00  0.00     0.029 A 
ATOM     49  N   UNL A   1      42.871  31.139  33.968  1.00  0.00    -0.354 N 
ATOM     50  C   UNL A   1      45.489  30.316  37.361  1.00  0.00     0.074 A 
ATOM     51  C   UNL A   1      46.645  29.559  36.937  1.00  0.00     0.031 C 
ATOM     52  C   UNL A   1      42.258  31.093  31.820  1.00  0.00     0.029 A 
ATOM     53  C   UNL A   1      41.846  31.547  33.147  1.00  0.00     0.049 A 
ATOM     54  H   UNL A   1      42.913  31.357  34.927  1.00  0.00     0.167 HD
ATOM     55  C   UNL A   1      45.283  30.744  38.630  1.00  0.00     0.034 A 
ATOM     56  C   UNL A   1      40.694  32.182  33.448  1.00  0.00     0.034 A 
ATOM     57  C   UNL A   1      44.110  31.479  39.033  1.00  0.00     0.049 A 
ATOM     58  C   UNL A   1      40.434  32.560  34.889  1.00  0.00     0.074 A 
ATOM     59  C   UNL A   1      43.777  31.957  40.287  1.00  0.00     0.029 A 
ATOM     60  N   UNL A   1      43.067  31.829  38.183  1.00  0.00    -0.354 N 
ATOM     61  N   UNL A   1      41.195  32.374  35.945  1.00  0.00    -0.248 NA
ATOM     62  C   UNL A   1      39.162  33.235  35.178  1.00  0.00     0.031 C 
ATOM     63  C   UNL A   1      42.503  32.531  40.211  1.00  0.00     0.029 A 
ATOM     64  C   UNL A   1      42.075  32.486  38.893  1.00  0.00     0.049 A 
ATOM     65  H   UNL A   1      43.037  31.637  37.218  1.00  0.00     0.167 HD
ATOM     66  C   UNL A   1      40.506  32.939  37.015  1.00  0.00     0.074 A 
ATOM     67  C   UNL A   1      39.277  33.483  36.474  1.00  0.00     0.031 C 
ATOM     68  C   UNL A   1      40.855  33.011  38.327  1.00  0.00     0.034 A 
BRANCH  55  69
ATOM     69  C   UNL A   1      46.308  30.358  39.669  1.00  0.00     0.023 A 
ATOM     70  C   UNL A   1      47.454  31.137  39.914  1.00  0.00     0.031 A 
ATOM     71  C   UNL A   1      46.161  29.161  40.393  1.00  0.00     0.131 A 
ATOM     72  C   UNL A   1      48.437  30.676  40.806  1.00  0.00     0.055 A 
ATOM     73  C   UNL A   1      47.105  28.747  41.335  1.00  0.00     0.041 A 
ATOM     74  F   UNL A   1      45.103  28.361  40.182  1.00  0.00    -0.206 F 
ATOM     75  C   UNL A   1      48.258  29.499  41.535  1.00  0.00     0.022 A 
BRANCH  72  76
ATOM     76  S   UNL A   1      50.017  31.564  40.894  1.00  0.00     0.124 S 
ATOM     77  O   UNL A   1      50.026  32.280  39.622  1.00  0.00    -0.237 OA
ATOM     78  O   UNL A   1      49.850  32.385  42.088  1.00  0.00    -0.237 OA
ATOM     79  O   UNL A   1      51.006  30.494  41.007  1.00  0.00    -0.744 OA
ENDBRANCH  72  76
ENDBRANCH  55  69
BRANCH  56  80
ATOM     80  C   UNL A   1      39.677  32.459  32.390  1.00  0.00     0.023 A 
ATOM     81  C   UNL A   1      38.688  31.516  32.066  1.00  0.00     0.031 A 
ATOM     82  C   UNL A   1      39.718  33.650  31.644  1.00  0.00     0.131 A 
ATOM     83  C   UNL A   1      37.809  31.762  30.997  1.00  0.00     0.055 A 
ATOM     84  C   UNL A   1      38.808  33.913  30.617  1.00  0.00     0.041 A 
ATOM     85  F   UNL A   1      40.646  34.585  31.905  1.00  0.00    -0.206 F 
ATOM     86  C   UNL A   1      37.854  32.959  30.279  1.00  0.00     0.022 A 
BRANCH  83  87
ATOM     87  S   UNL A   1      36.660  30.450  30.496  1.00  0.00     0.124 S 
ATOM     88  O   UNL A   1      35.541  31.221  29.965  1.00  0.00    -0.237 OA
ATOM     89  O   UNL A   1      37.452  29.712  29.518  1.00  0.00    -0.237 OA
ATOM     90  O   UNL A   1      36.392  29.737  31.743  1.00  0.00    -0.744 OA
ENDBRANCH  83  87
ENDBRANCH  56  80
BRANCH  68  91
ATOM     91  C   UNL A   1      39.913  33.749  39.247  1.00  0.00     0.023 A 
ATOM     92  C   UNL A   1      38.931  33.078  39.994  1.00  0.00     0.031 A 
ATOM     93  C   UNL A   1      40.003  35.148  39.372  1.00  0.00     0.131 A 
ATOM     94  C   UNL A   1      38.039  33.812  40.791  1.00  0.00     0.055 A 
ATOM     95  C   UNL A   1      39.155  35.864  40.214  1.00  0.00     0.041 A 
ATOM     96  F   UNL A   1      40.923  35.838  38.680  1.00  0.00    -0.206 F 
ATOM     97  C   UNL A   1      38.156  35.198  40.920  1.00  0.00     0.022 A 
BRANCH  94  98
ATOM     98  S   UNL A   1      36.661  32.940  41.583  1.00  0.00     0.124 S 
ATOM     99  O   UNL A   1      35.634  33.975  41.632  1.00  0.00    -0.237 OA
ATOM    100  O   UNL A   1      36.414  31.840  40.656  1.00  0.00    -0.237 OA
ATOM    101  O   UNL A   1      37.206  32.544  42.881  1.00  0.00    -0.744 OA
ENDBRANCH  94  98
ENDBRANCH  68  91
ENDBRANCH  42  43
ENDBRANCH  35  37
ENDBRANCH  34  35
ENDBRANCH  33  34
ENDBRANCH  32  33
ENDBRANCH  31  32
ENDBRANCH  30  31
ENDBRANCH  29  30
ENDBRANCH  28  29
ENDBRANCH   1  28
TORSDOF 28
ENDMDL
