MODEL 1
REMARK VINA RESULT:      -6.9      0.000      0.000
REMARK SMILES NC(=O)c1c(-c2ccc(Cl)cc2)csc1NC(=O)[C@H]1[C@@H](C(=O)OCCOCCOCCOCCOC(=O)c2ccc(-c3c4nc(c(-c5cc(S(=O)(=O)[O-])ccc5F)c5ccc([nH]5)c(-c5cc(S(=O)(=O)[O-])ccc5F)c5nc(c(-c6cc(S(=O)(=O)[O-])ccc6F)c6ccc3[nH]6)C=C5)C=C4)cc2)[C@@H]2CC[C@H]1O2
REMARK SMILES IDX 29 1 28 2 27 3 26 4 25 5 24 6 23 7 21 8 22 9 20 10 19 11
REMARK SMILES IDX 104 12 101 13 103 14 105 15 102 16 17 17 16 18 18 20 15 21
REMARK SMILES IDX 4 22 5 23 13 24 14 25 2 26 1 27 3 30 6 31 7 32 12 33 8 34
REMARK SMILES IDX 11 35 9 36 10 37 30 38 31 39 32 40 33 41 34 42 35 43 36 44
REMARK SMILES IDX 37 45 38 46 39 47 100 48 40 49 99 50 41 51 42 52 43 53 93 54
REMARK SMILES IDX 44 55 98 56 92 57 94 58 45 59 97 60 91 61 90 62 46 64 78 65
REMARK SMILES IDX 58 66 77 67 59 68 62 69 76 70 95 71 60 72 61 73 75 75 96 76
REMARK SMILES IDX 63 77 47 78 48 79 56 80 49 81 55 82 57 83 54 84 50 85 51 86
REMARK SMILES IDX 52 87 53 88 79 89 80 90 88 91 81 92 87 93 89 94 86 95 82 96
REMARK SMILES IDX 83 97 84 98 85 99 64 100 65 101 73 102 66 103 72 104 74 105
REMARK SMILES IDX 71 106 67 107 68 108 69 109 70 110
REMARK H PARENT 16 19 1 28 1 29 94 63 62 74
REMARK Flexibility Score: inf
ROOT
ATOM      1  O   UNL A   1      46.141  41.418  39.964  1.00  0.00    -0.377 OA
ENDROOT
BRANCH   1   2
ATOM      2  C   UNL A   1      46.324  41.545  38.574  1.00  0.00     0.188 C 
BRANCH   2   3
ATOM      3  C   UNL A   1      46.748  42.936  38.081  1.00  0.00     0.188 C 
BRANCH   3   4
ATOM      4  O   UNL A   1      45.974  43.685  37.162  1.00  0.00    -0.376 OA
BRANCH   4   5
ATOM      5  C   UNL A   1      45.626  43.237  35.857  1.00  0.00     0.202 C 
BRANCH   5   6
ATOM      6  C   UNL A   1      46.609  43.067  34.692  1.00  0.00     0.261 C 
BRANCH   6   7
ATOM      7  O   UNL A   1      46.398  43.930  33.577  1.00  0.00    -0.463 OA
BRANCH   7   8
ATOM      8  C   UNL A   1      45.123  44.319  33.417  1.00  0.00     0.312 C 
ATOM      9  O   UNL A   1      44.706  45.471  33.538  1.00  0.00    -0.252 OA
BRANCH   8  10
ATOM     10  C   UNL A   1      44.184  43.231  32.993  1.00  0.00     0.143 C 
ATOM     11  C   UNL A   1      44.082  43.137  31.478  1.00  0.00     0.124 C 
ATOM     12  C   UNL A   1      42.579  42.905  31.276  1.00  0.00     0.132 C 
ATOM     13  C   UNL A   1      42.713  43.178  33.418  1.00  0.00     0.133 C 
ATOM     14  C   UNL A   1      42.174  41.521  31.785  1.00  0.00     0.035 C 
ATOM     15  O   UNL A   1      42.014  43.750  32.296  1.00  0.00    -0.373 OA
ATOM     16  C   UNL A   1      42.237  41.715  33.305  1.00  0.00     0.036 C 
BRANCH  11  17
ATOM     17  C   UNL A   1      44.536  44.350  30.665  1.00  0.00     0.231 C 
ATOM     18  N   UNL A   1      45.520  44.202  29.722  1.00  0.00    -0.317 N 
ATOM     19  H   UNL A   1      45.982  45.010  29.402  1.00  0.00     0.170 HD
ATOM     20  O   UNL A   1      44.013  45.461  30.756  1.00  0.00    -0.274 OA
BRANCH  18  21
ATOM     21  C   UNL A   1      45.896  42.989  29.198  1.00  0.00     0.108 A 
ATOM     22  C   UNL A   1      47.043  42.292  29.502  1.00  0.00     0.082 A 
ATOM     23  C   UNL A   1      47.134  41.127  28.660  1.00  0.00     0.007 A 
ATOM     24  C   UNL A   1      46.061  41.004  27.798  1.00  0.00     0.076 A 
ATOM     25  S   UNL A   1      44.866  42.170  28.127  1.00  0.00    -0.125 S 
BRANCH  22  26
ATOM     26  C   UNL A   1      47.978  42.779  30.514  1.00  0.00     0.252 C 
ATOM     27  N   UNL A   1      47.987  42.122  31.707  1.00  0.00    -0.365 N 
ATOM     28  H   UNL A   1      48.598  42.410  32.423  1.00  0.00     0.159 HD
ATOM     29  H   UNL A   1      47.383  41.359  31.853  1.00  0.00     0.159 HD
ATOM     30  O   UNL A   1      48.757  43.701  30.299  1.00  0.00    -0.269 OA
ENDBRANCH  22  26
BRANCH  23  31
ATOM     31  C   UNL A   1      48.085  40.047  28.783  1.00  0.00    -0.017 A 
ATOM     32  C   UNL A   1      47.937  39.031  29.730  1.00  0.00     0.010 A 
ATOM     33  C   UNL A   1      49.168  40.045  27.896  1.00  0.00     0.010 A 
ATOM     34  C   UNL A   1      48.883  38.005  29.777  1.00  0.00     0.021 A 
ATOM     35  C   UNL A   1      50.107  39.023  27.947  1.00  0.00     0.021 A 
ATOM     36  C   UNL A   1      49.961  38.008  28.887  1.00  0.00     0.041 A 
ATOM     37  Cl  UNL A   1      51.124  36.744  28.948  1.00  0.00    -0.084 Cl
ENDBRANCH  23  31
ENDBRANCH  18  21
ENDBRANCH  11  17
ENDBRANCH   8  10
ENDBRANCH   7   8
ENDBRANCH   6   7
ENDBRANCH   5   6
ENDBRANCH   4   5
ENDBRANCH   3   4
ENDBRANCH   2   3
ENDBRANCH   1   2
BRANCH   1  38
ATOM     38  C   UNL A   1      44.946  41.903  40.558  1.00  0.00     0.188 C 
BRANCH  38  39
ATOM     39  C   UNL A   1      43.748  40.951  40.741  1.00  0.00     0.188 C 
BRANCH  39  40
ATOM     40  O   UNL A   1      43.551  40.509  42.076  1.00  0.00    -0.376 OA
BRANCH  40  41
ATOM     41  C   UNL A   1      43.647  39.118  42.347  1.00  0.00     0.202 C 
BRANCH  41  42
ATOM     42  C   UNL A   1      42.679  38.517  43.378  1.00  0.00     0.261 C 
BRANCH  42  43
ATOM     43  O   UNL A   1      42.025  37.287  43.024  1.00  0.00    -0.460 OA
BRANCH  43  44
ATOM     44  C   UNL A   1      40.780  37.336  42.504  1.00  0.00     0.338 C 
ATOM     45  O   UNL A   1      39.786  37.800  43.034  1.00  0.00    -0.246 OA
BRANCH  44  46
ATOM     46  C   UNL A   1      40.871  36.911  41.088  1.00  0.00     0.060 A 
ATOM     47  C   UNL A   1      41.550  35.727  40.768  1.00  0.00     0.016 A 
ATOM     48  C   UNL A   1      40.270  37.670  40.083  1.00  0.00     0.016 A 
ATOM     49  C   UNL A   1      41.644  35.308  39.438  1.00  0.00     0.010 A 
ATOM     50  C   UNL A   1      40.391  37.265  38.749  1.00  0.00     0.010 A 
ATOM     51  C   UNL A   1      41.097  36.095  38.416  1.00  0.00    -0.014 A 
BRANCH  51  52
ATOM     52  C   UNL A   1      41.405  35.802  36.992  1.00  0.00     0.031 A 
ATOM     53  C   UNL A   1      42.743  36.233  36.452  1.00  0.00     0.074 A 
ATOM     54  C   UNL A   1      40.517  35.184  36.191  1.00  0.00     0.049 A 
ATOM     55  N   UNL A   1      43.189  36.212  35.224  1.00  0.00    -0.248 NA
ATOM     56  C   UNL A   1      43.706  36.762  37.432  1.00  0.00     0.031 C 
ATOM     57  C   UNL A   1      39.218  34.663  36.614  1.00  0.00     0.029 A 
ATOM     58  N   UNL A   1      40.567  34.909  34.846  1.00  0.00    -0.354 N 
ATOM     59  C   UNL A   1      44.471  36.747  35.278  1.00  0.00     0.074 A 
ATOM     60  C   UNL A   1      44.730  37.089  36.660  1.00  0.00     0.031 C 
ATOM     61  C   UNL A   1      38.582  34.157  35.541  1.00  0.00     0.029 A 
ATOM     62  C   UNL A   1      39.403  34.365  34.349  1.00  0.00     0.049 A 
ATOM     63  H   UNL A   1      41.360  35.082  34.289  1.00  0.00     0.167 HD
ATOM     64  C   UNL A   1      45.348  36.941  34.263  1.00  0.00     0.034 A 
ATOM     65  C   UNL A   1      39.028  34.115  33.076  1.00  0.00     0.034 A 
ATOM     66  C   UNL A   1      45.076  36.593  32.890  1.00  0.00     0.049 A 
ATOM     67  C   UNL A   1      39.993  34.431  31.951  1.00  0.00     0.074 A 
ATOM     68  C   UNL A   1      45.913  36.712  31.795  1.00  0.00     0.029 A 
ATOM     69  N   UNL A   1      43.875  36.081  32.420  1.00  0.00    -0.354 N 
ATOM     70  N   UNL A   1      41.213  34.914  32.018  1.00  0.00    -0.248 NA
ATOM     71  C   UNL A   1      39.532  34.167  30.581  1.00  0.00     0.031 C 
ATOM     72  C   UNL A   1      45.189  36.361  30.652  1.00  0.00     0.029 A 
ATOM     73  C   UNL A   1      43.933  35.927  31.044  1.00  0.00     0.049 A 
ATOM     74  H   UNL A   1      43.097  35.859  32.981  1.00  0.00     0.167 HD
ATOM     75  C   UNL A   1      41.673  34.973  30.702  1.00  0.00     0.074 A 
ATOM     76  C   UNL A   1      40.608  34.458  29.868  1.00  0.00     0.031 C 
ATOM     77  C   UNL A   1      42.864  35.412  30.223  1.00  0.00     0.034 A 
BRANCH  64  78
ATOM     78  C   UNL A   1      46.656  37.621  34.576  1.00  0.00     0.023 A 
ATOM     79  C   UNL A   1      47.807  36.905  34.939  1.00  0.00     0.031 A 
ATOM     80  C   UNL A   1      46.753  39.022  34.473  1.00  0.00     0.131 A 
ATOM     81  C   UNL A   1      49.000  37.594  35.215  1.00  0.00     0.055 A 
ATOM     82  C   UNL A   1      47.956  39.694  34.681  1.00  0.00     0.041 A 
ATOM     83  F   UNL A   1      45.676  39.758  34.157  1.00  0.00    -0.206 F 
ATOM     84  C   UNL A   1      49.088  38.980  35.061  1.00  0.00     0.022 A 
BRANCH  81  85
ATOM     85  S   UNL A   1      50.413  36.666  35.869  1.00  0.00     0.124 S 
ATOM     86  O   UNL A   1      50.497  35.552  34.928  1.00  0.00    -0.237 OA
ATOM     87  O   UNL A   1      51.494  37.644  35.800  1.00  0.00    -0.237 OA
ATOM     88  O   UNL A   1      49.988  36.301  37.220  1.00  0.00    -0.744 OA
ENDBRANCH  81  85
ENDBRANCH  64  78
BRANCH  65  89
ATOM     89  C   UNL A   1      37.654  33.613  32.758  1.00  0.00     0.023 A 
ATOM     90  C   UNL A   1      36.591  34.501  32.521  1.00  0.00     0.031 A 
ATOM     91  C   UNL A   1      37.357  32.238  32.810  1.00  0.00     0.131 A 
ATOM     92  C   UNL A   1      35.277  34.012  32.428  1.00  0.00     0.055 A 
ATOM     93  C   UNL A   1      36.059  31.753  32.637  1.00  0.00     0.041 A 
ATOM     94  F   UNL A   1      38.326  31.341  33.051  1.00  0.00    -0.206 F 
ATOM     95  C   UNL A   1      35.006  32.644  32.467  1.00  0.00     0.022 A 
BRANCH  92  96
ATOM     96  S   UNL A   1      33.908  35.206  32.421  1.00  0.00     0.124 S 
ATOM     97  O   UNL A   1      33.857  35.586  31.014  1.00  0.00    -0.237 OA
ATOM     98  O   UNL A   1      32.797  34.396  32.906  1.00  0.00    -0.237 OA
ATOM     99  O   UNL A   1      34.364  36.251  33.334  1.00  0.00    -0.744 OA
ENDBRANCH  92  96
ENDBRANCH  65  89
BRANCH  77 100
ATOM    100  C   UNL A   1      43.100  35.298  28.734  1.00  0.00     0.023 A 
ATOM    101  C   UNL A   1      43.761  34.195  28.167  1.00  0.00     0.031 A 
ATOM    102  C   UNL A   1      42.658  36.317  27.870  1.00  0.00     0.131 A 
ATOM    103  C   UNL A   1      44.010  34.162  26.786  1.00  0.00     0.055 A 
ATOM    104  C   UNL A   1      42.847  36.246  26.489  1.00  0.00     0.041 A 
ATOM    105  F   UNL A   1      42.023  37.398  28.353  1.00  0.00    -0.206 F 
ATOM    106  C   UNL A   1      43.540  35.171  25.942  1.00  0.00     0.022 A 
BRANCH 103 107
ATOM    107  S   UNL A   1      45.048  32.832  26.118  1.00  0.00     0.124 S 
ATOM    108  O   UNL A   1      44.450  32.611  24.806  1.00  0.00    -0.237 OA
ATOM    109  O   UNL A   1      46.374  33.438  26.121  1.00  0.00    -0.237 OA
ATOM    110  O   UNL A   1      44.864  31.742  27.075  1.00  0.00    -0.744 OA
ENDBRANCH 103 107
ENDBRANCH  77 100
ENDBRANCH  51  52
ENDBRANCH  44  46
ENDBRANCH  43  44
ENDBRANCH  42  43
ENDBRANCH  41  42
ENDBRANCH  40  41
ENDBRANCH  39  40
ENDBRANCH  38  39
ENDBRANCH   1  38
TORSDOF 27
ENDMDL
MODEL 2
REMARK VINA RESULT:      -6.7      9.411     15.000
REMARK SMILES NC(=O)c1c(-c2ccc(Cl)cc2)csc1NC(=O)[C@H]1[C@@H](C(=O)OCCOCCOCCOCCOC(=O)c2ccc(-c3c4nc(c(-c5cc(S(=O)(=O)[O-])ccc5F)c5ccc([nH]5)c(-c5cc(S(=O)(=O)[O-])ccc5F)c5nc(c(-c6cc(S(=O)(=O)[O-])ccc6F)c6ccc3[nH]6)C=C5)C=C4)cc2)[C@@H]2CC[C@H]1O2
REMARK SMILES IDX 29 1 28 2 27 3 26 4 25 5 24 6 23 7 21 8 22 9 20 10 19 11
REMARK SMILES IDX 104 12 101 13 103 14 105 15 102 16 17 17 16 18 18 20 15 21
REMARK SMILES IDX 4 22 5 23 13 24 14 25 2 26 1 27 3 30 6 31 7 32 12 33 8 34
REMARK SMILES IDX 11 35 9 36 10 37 30 38 31 39 32 40 33 41 34 42 35 43 36 44
REMARK SMILES IDX 37 45 38 46 39 47 100 48 40 49 99 50 41 51 42 52 43 53 93 54
REMARK SMILES IDX 44 55 98 56 92 57 94 58 45 59 97 60 91 61 90 62 46 64 78 65
REMARK SMILES IDX 58 66 77 67 59 68 62 69 76 70 95 71 60 72 61 73 75 75 96 76
REMARK SMILES IDX 63 77 47 78 48 79 56 80 49 81 55 82 57 83 54 84 50 85 51 86
REMARK SMILES IDX 52 87 53 88 79 89 80 90 88 91 81 92 87 93 89 94 86 95 82 96
REMARK SMILES IDX 83 97 84 98 85 99 64 100 65 101 73 102 66 103 72 104 74 105
REMARK SMILES IDX 71 106 67 107 68 108 69 109 70 110
REMARK H PARENT 16 19 1 28 1 29 94 63 62 74
REMARK Flexibility Score: inf
ROOT
ATOM      1  O   UNL A   1      55.731  32.675  25.758  1.00  0.00    -0.377 OA
ENDROOT
BRANCH   1   2
ATOM      2  C   UNL A   1      54.981  32.229  26.862  1.00  0.00     0.188 C 
BRANCH   2   3
ATOM      3  C   UNL A   1      53.589  32.859  27.023  1.00  0.00     0.188 C 
BRANCH   3   4
ATOM      4  O   UNL A   1      53.194  34.018  26.312  1.00  0.00    -0.376 OA
BRANCH   4   5
ATOM      5  C   UNL A   1      52.848  35.254  26.925  1.00  0.00     0.202 C 
BRANCH   5   6
ATOM      6  C   UNL A   1      51.562  35.516  27.719  1.00  0.00     0.261 C 
BRANCH   6   7
ATOM      7  O   UNL A   1      50.415  34.783  27.294  1.00  0.00    -0.463 OA
BRANCH   7   8
ATOM      8  C   UNL A   1      49.691  34.266  28.299  1.00  0.00     0.312 C 
ATOM      9  O   UNL A   1      50.148  33.776  29.332  1.00  0.00    -0.252 OA
BRANCH   8  10
ATOM     10  C   UNL A   1      48.207  34.380  28.127  1.00  0.00     0.143 C 
ATOM     11  C   UNL A   1      47.576  33.036  27.793  1.00  0.00     0.124 C 
ATOM     12  C   UNL A   1      46.553  33.425  26.719  1.00  0.00     0.132 C 
ATOM     13  C   UNL A   1      47.550  35.307  27.099  1.00  0.00     0.133 C 
ATOM     14  C   UNL A   1      45.419  34.252  27.328  1.00  0.00     0.035 C 
ATOM     15  O   UNL A   1      47.269  34.436  25.986  1.00  0.00    -0.373 OA
ATOM     16  C   UNL A   1      46.110  35.598  27.572  1.00  0.00     0.036 C 
BRANCH  11  17
ATOM     17  C   UNL A   1      48.498  31.939  27.262  1.00  0.00     0.231 C 
ATOM     18  N   UNL A   1      48.351  30.653  27.716  1.00  0.00    -0.317 N 
ATOM     19  H   UNL A   1      49.096  30.024  27.580  1.00  0.00     0.170 HD
ATOM     20  O   UNL A   1      49.336  32.126  26.380  1.00  0.00    -0.274 OA
BRANCH  18  21
ATOM     21  C   UNL A   1      47.223  30.195  28.351  1.00  0.00     0.108 A 
ATOM     22  C   UNL A   1      46.122  29.629  27.748  1.00  0.00     0.082 A 
ATOM     23  C   UNL A   1      45.103  29.389  28.737  1.00  0.00     0.007 A 
ATOM     24  C   UNL A   1      45.492  29.764  30.009  1.00  0.00     0.076 A 
ATOM     25  S   UNL A   1      47.131  30.223  30.045  1.00  0.00    -0.125 S 
BRANCH  22  26
ATOM     26  C   UNL A   1      46.089  29.393  26.306  1.00  0.00     0.252 C 
ATOM     27  N   UNL A   1      46.002  30.493  25.508  1.00  0.00    -0.365 N 
ATOM     28  H   UNL A   1      45.976  30.390  24.529  1.00  0.00     0.159 HD
ATOM     29  H   UNL A   1      45.966  31.391  25.909  1.00  0.00     0.159 HD
ATOM     30  O   UNL A   1      46.183  28.271  25.822  1.00  0.00    -0.269 OA
ENDBRANCH  22  26
BRANCH  23  31
ATOM     31  C   UNL A   1      43.877  28.650  28.548  1.00  0.00    -0.017 A 
ATOM     32  C   UNL A   1      43.106  28.773  27.391  1.00  0.00     0.010 A 
ATOM     33  C   UNL A   1      43.491  27.780  29.575  1.00  0.00     0.010 A 
ATOM     34  C   UNL A   1      41.943  28.010  27.266  1.00  0.00     0.021 A 
ATOM     35  C   UNL A   1      42.334  27.023  29.447  1.00  0.00     0.021 A 
ATOM     36  C   UNL A   1      41.564  27.142  28.294  1.00  0.00     0.041 A 
ATOM     37  Cl  UNL A   1      40.132  26.205  28.138  1.00  0.00    -0.084 Cl
ENDBRANCH  23  31
ENDBRANCH  18  21
ENDBRANCH  11  17
ENDBRANCH   8  10
ENDBRANCH   7   8
ENDBRANCH   6   7
ENDBRANCH   5   6
ENDBRANCH   4   5
ENDBRANCH   3   4
ENDBRANCH   2   3
ENDBRANCH   1   2
BRANCH   1  38
ATOM     38  C   UNL A   1      55.863  31.838  24.619  1.00  0.00     0.188 C 
BRANCH  38  39
ATOM     39  C   UNL A   1      56.733  30.570  24.705  1.00  0.00     0.188 C 
BRANCH  39  40
ATOM     40  O   UNL A   1      56.031  29.361  24.455  1.00  0.00    -0.376 OA
BRANCH  40  41
ATOM     41  C   UNL A   1      56.532  28.483  23.459  1.00  0.00     0.202 C 
BRANCH  41  42
ATOM     42  C   UNL A   1      55.584  28.064  22.324  1.00  0.00     0.261 C 
BRANCH  42  43
ATOM     43  O   UNL A   1      54.891  26.814  22.477  1.00  0.00    -0.460 OA
BRANCH  43  44
ATOM     44  C   UNL A   1      53.613  26.721  22.049  1.00  0.00     0.338 C 
ATOM     45  O   UNL A   1      53.240  26.465  20.917  1.00  0.00    -0.246 OA
BRANCH  44  46
ATOM     46  C   UNL A   1      52.737  26.782  23.240  1.00  0.00     0.060 A 
ATOM     47  C   UNL A   1      52.918  25.855  24.275  1.00  0.00     0.016 A 
ATOM     48  C   UNL A   1      51.751  27.765  23.342  1.00  0.00     0.016 A 
ATOM     49  C   UNL A   1      52.101  25.898  25.410  1.00  0.00     0.010 A 
ATOM     50  C   UNL A   1      50.915  27.788  24.464  1.00  0.00     0.010 A 
ATOM     51  C   UNL A   1      51.070  26.842  25.494  1.00  0.00    -0.014 A 
BRANCH  51  52
ATOM     52  C   UNL A   1      50.041  26.741  26.561  1.00  0.00     0.031 A 
ATOM     53  C   UNL A   1      50.348  27.351  27.903  1.00  0.00     0.074 A 
ATOM     54  C   UNL A   1      48.869  26.112  26.353  1.00  0.00     0.049 A 
ATOM     55  N   UNL A   1      49.677  27.278  29.022  1.00  0.00    -0.248 NA
ATOM     56  C   UNL A   1      51.583  28.147  27.994  1.00  0.00     0.031 C 
ATOM     57  C   UNL A   1      48.431  25.539  25.081  1.00  0.00     0.029 A 
ATOM     58  N   UNL A   1      47.840  25.831  27.219  1.00  0.00    -0.354 N 
ATOM     59  C   UNL A   1      50.417  27.995  29.955  1.00  0.00     0.074 A 
ATOM     60  C   UNL A   1      51.593  28.490  29.273  1.00  0.00     0.031 C 
ATOM     61  C   UNL A   1      47.235  24.950  25.258  1.00  0.00     0.029 A 
ATOM     62  C   UNL A   1      46.846  25.055  26.663  1.00  0.00     0.049 A 
ATOM     63  H   UNL A   1      47.814  26.153  28.148  1.00  0.00     0.167 HD
ATOM     64  C   UNL A   1      50.141  28.212  31.264  1.00  0.00     0.034 A 
ATOM     65  C   UNL A   1      45.779  24.458  27.237  1.00  0.00     0.034 A 
ATOM     66  C   UNL A   1      48.964  27.713  31.929  1.00  0.00     0.049 A 
ATOM     67  C   UNL A   1      45.547  24.640  28.723  1.00  0.00     0.074 A 
ATOM     68  C   UNL A   1      48.573  27.911  33.242  1.00  0.00     0.029 A 
ATOM     69  N   UNL A   1      48.001  26.901  31.346  1.00  0.00    -0.354 N 
ATOM     70  N   UNL A   1      46.242  25.342  29.590  1.00  0.00    -0.248 NA
ATOM     71  C   UNL A   1      44.388  23.951  29.308  1.00  0.00     0.031 C 
ATOM     72  C   UNL A   1      47.427  27.146  33.476  1.00  0.00     0.029 A 
ATOM     73  C   UNL A   1      47.045  26.550  32.286  1.00  0.00     0.049 A 
ATOM     74  H   UNL A   1      47.997  26.617  30.403  1.00  0.00     0.167 HD
ATOM     75  C   UNL A   1      45.579  25.206  30.810  1.00  0.00     0.074 A 
ATOM     76  C   UNL A   1      44.420  24.375  30.561  1.00  0.00     0.031 C 
ATOM     77  C   UNL A   1      45.894  25.720  32.026  1.00  0.00     0.034 A 
BRANCH  64  78
ATOM     78  C   UNL A   1      51.158  28.961  32.087  1.00  0.00     0.023 A 
ATOM     79  C   UNL A   1      51.111  30.354  32.253  1.00  0.00     0.031 A 
ATOM     80  C   UNL A   1      52.176  28.249  32.749  1.00  0.00     0.131 A 
ATOM     81  C   UNL A   1      52.083  30.996  33.037  1.00  0.00     0.055 A 
ATOM     82  C   UNL A   1      53.098  28.885  33.580  1.00  0.00     0.041 A 
ATOM     83  F   UNL A   1      52.285  26.919  32.602  1.00  0.00    -0.206 F 
ATOM     84  C   UNL A   1      53.059  30.268  33.723  1.00  0.00     0.022 A 
BRANCH  81  85
ATOM     85  S   UNL A   1      52.117  32.809  33.074  1.00  0.00     0.124 S 
ATOM     86  O   UNL A   1      50.819  33.117  33.669  1.00  0.00    -0.237 OA
ATOM     87  O   UNL A   1      53.282  33.087  33.906  1.00  0.00    -0.237 OA
ATOM     88  O   UNL A   1      52.253  33.179  31.667  1.00  0.00    -0.744 OA
ENDBRANCH  81  85
ENDBRANCH  64  78
BRANCH  65  89
ATOM     89  C   UNL A   1      44.877  23.562  26.447  1.00  0.00     0.023 A 
ATOM     90  C   UNL A   1      45.202  22.213  26.227  1.00  0.00     0.031 A 
ATOM     91  C   UNL A   1      43.739  24.073  25.796  1.00  0.00     0.131 A 
ATOM     92  C   UNL A   1      44.450  21.449  25.319  1.00  0.00     0.055 A 
ATOM     93  C   UNL A   1      42.949  23.286  24.956  1.00  0.00     0.041 A 
ATOM     94  F   UNL A   1      43.386  25.359  25.951  1.00  0.00    -0.206 F 
ATOM     95  C   UNL A   1      43.316  21.970  24.695  1.00  0.00     0.022 A 
BRANCH  92  96
ATOM     96  S   UNL A   1      45.075  19.812  24.839  1.00  0.00     0.124 S 
ATOM     97  O   UNL A   1      46.497  20.081  24.658  1.00  0.00    -0.237 OA
ATOM     98  O   UNL A   1      44.718  19.001  25.997  1.00  0.00    -0.237 OA
ATOM     99  O   UNL A   1      44.336  19.512  23.616  1.00  0.00    -0.744 OA
ENDBRANCH  92  96
ENDBRANCH  65  89
BRANCH  77 100
ATOM    100  C   UNL A   1      44.941  25.445  33.166  1.00  0.00     0.023 A 
ATOM    101  C   UNL A   1      43.920  26.345  33.517  1.00  0.00     0.031 A 
ATOM    102  C   UNL A   1      45.061  24.260  33.916  1.00  0.00     0.131 A 
ATOM    103  C   UNL A   1      43.098  26.075  34.622  1.00  0.00     0.055 A 
ATOM    104  C   UNL A   1      44.197  23.964  34.971  1.00  0.00     0.041 A 
ATOM    105  F   UNL A   1      46.020  23.363  33.631  1.00  0.00    -0.206 F 
ATOM    106  C   UNL A   1      43.217  24.881  35.338  1.00  0.00     0.022 A 
BRANCH 103 107
ATOM    107  S   UNL A   1      41.934  27.352  35.176  1.00  0.00     0.124 S 
ATOM    108  O   UNL A   1      40.876  27.251  34.178  1.00  0.00    -0.237 OA
ATOM    109  O   UNL A   1      41.589  26.899  36.519  1.00  0.00    -0.237 OA
ATOM    110  O   UNL A   1      42.724  28.581  35.122  1.00  0.00    -0.744 OA
ENDBRANCH 103 107
ENDBRANCH  77 100
ENDBRANCH  51  52
ENDBRANCH  44  46
ENDBRANCH  43  44
ENDBRANCH  42  43
ENDBRANCH  41  42
ENDBRANCH  40  41
ENDBRANCH  39  40
ENDBRANCH  38  39
ENDBRANCH   1  38
TORSDOF 27
ENDMDL
MODEL 3
REMARK VINA RESULT:      -6.5      6.602     10.307
REMARK SMILES NC(=O)c1c(-c2ccc(Cl)cc2)csc1NC(=O)[C@H]1[C@@H](C(=O)OCCOCCOCCOCCOC(=O)c2ccc(-c3c4nc(c(-c5cc(S(=O)(=O)[O-])ccc5F)c5ccc([nH]5)c(-c5cc(S(=O)(=O)[O-])ccc5F)c5nc(c(-c6cc(S(=O)(=O)[O-])ccc6F)c6ccc3[nH]6)C=C5)C=C4)cc2)[C@@H]2CC[C@H]1O2
REMARK SMILES IDX 29 1 28 2 27 3 26 4 25 5 24 6 23 7 21 8 22 9 20 10 19 11
REMARK SMILES IDX 104 12 101 13 103 14 105 15 102 16 17 17 16 18 18 20 15 21
REMARK SMILES IDX 4 22 5 23 13 24 14 25 2 26 1 27 3 30 6 31 7 32 12 33 8 34
REMARK SMILES IDX 11 35 9 36 10 37 30 38 31 39 32 40 33 41 34 42 35 43 36 44
REMARK SMILES IDX 37 45 38 46 39 47 100 48 40 49 99 50 41 51 42 52 43 53 93 54
REMARK SMILES IDX 44 55 98 56 92 57 94 58 45 59 97 60 91 61 90 62 46 64 78 65
REMARK SMILES IDX 58 66 77 67 59 68 62 69 76 70 95 71 60 72 61 73 75 75 96 76
REMARK SMILES IDX 63 77 47 78 48 79 56 80 49 81 55 82 57 83 54 84 50 85 51 86
REMARK SMILES IDX 52 87 53 88 79 89 80 90 88 91 81 92 87 93 89 94 86 95 82 96
REMARK SMILES IDX 83 97 84 98 85 99 64 100 65 101 73 102 66 103 72 104 74 105
REMARK SMILES IDX 71 106 67 107 68 108 69 109 70 110
REMARK H PARENT 16 19 1 28 1 29 94 63 62 74
REMARK Flexibility Score: inf
ROOT
ATOM      1  O   UNL A   1      42.461  35.762  34.098  1.00  0.00    -0.377 OA
ENDROOT
BRANCH   1   2
ATOM      2  C   UNL A   1      43.193  36.675  33.315  1.00  0.00     0.188 C 
BRANCH   2   3
ATOM      3  C   UNL A   1      44.665  36.312  33.069  1.00  0.00     0.188 C 
BRANCH   3   4
ATOM      4  O   UNL A   1      45.665  37.294  32.862  1.00  0.00    -0.376 OA
BRANCH   4   5
ATOM      5  C   UNL A   1      46.753  37.150  31.958  1.00  0.00     0.202 C 
BRANCH   5   6
ATOM      6  C   UNL A   1      46.913  37.918  30.639  1.00  0.00     0.261 C 
BRANCH   6   7
ATOM      7  O   UNL A   1      45.718  38.483  30.106  1.00  0.00    -0.463 OA
BRANCH   7   8
ATOM      8  C   UNL A   1      45.802  38.823  28.810  1.00  0.00     0.312 C 
ATOM      9  O   UNL A   1      46.556  39.676  28.342  1.00  0.00    -0.252 OA
BRANCH   8  10
ATOM     10  C   UNL A   1      44.931  38.020  27.893  1.00  0.00     0.143 C 
ATOM     11  C   UNL A   1      43.603  38.716  27.630  1.00  0.00     0.124 C 
ATOM     12  C   UNL A   1      42.615  37.545  27.687  1.00  0.00     0.132 C 
ATOM     13  C   UNL A   1      44.486  36.586  28.199  1.00  0.00     0.133 C 
ATOM     14  C   UNL A   1      42.815  36.610  26.493  1.00  0.00     0.035 C 
ATOM     15  O   UNL A   1      43.167  36.750  28.754  1.00  0.00    -0.373 OA
ATOM     16  C   UNL A   1      44.124  35.904  26.862  1.00  0.00     0.036 C 
BRANCH  11  17
ATOM     17  C   UNL A   1      43.175  39.809  28.609  1.00  0.00     0.231 C 
ATOM     18  N   UNL A   1      43.190  41.120  28.207  1.00  0.00    -0.317 N 
ATOM     19  H   UNL A   1      43.172  41.818  28.901  1.00  0.00     0.170 HD
ATOM     20  O   UNL A   1      42.740  39.575  29.736  1.00  0.00    -0.274 OA
BRANCH  18  21
ATOM     21  C   UNL A   1      43.227  41.513  26.891  1.00  0.00     0.108 A 
ATOM     22  C   UNL A   1      44.157  42.349  26.318  1.00  0.00     0.082 A 
ATOM     23  C   UNL A   1      43.787  42.613  24.951  1.00  0.00     0.007 A 
ATOM     24  C   UNL A   1      42.630  41.959  24.573  1.00  0.00     0.076 A 
ATOM     25  S   UNL A   1      42.098  40.891  25.787  1.00  0.00    -0.125 S 
BRANCH  22  26
ATOM     26  C   UNL A   1      45.287  42.864  27.088  1.00  0.00     0.252 C 
ATOM     27  N   UNL A   1      46.487  42.247  26.905  1.00  0.00    -0.365 N 
ATOM     28  H   UNL A   1      47.280  42.555  27.400  1.00  0.00     0.159 HD
ATOM     29  H   UNL A   1      46.561  41.492  26.277  1.00  0.00     0.159 HD
ATOM     30  O   UNL A   1      45.187  43.836  27.830  1.00  0.00    -0.269 OA
ENDBRANCH  22  26
BRANCH  23  31
ATOM     31  C   UNL A   1      44.586  43.292  23.959  1.00  0.00    -0.017 A 
ATOM     32  C   UNL A   1      44.674  44.685  23.901  1.00  0.00     0.010 A 
ATOM     33  C   UNL A   1      45.293  42.493  23.052  1.00  0.00     0.010 A 
ATOM     34  C   UNL A   1      45.484  45.274  22.928  1.00  0.00     0.021 A 
ATOM     35  C   UNL A   1      46.098  43.083  22.086  1.00  0.00     0.021 A 
ATOM     36  C   UNL A   1      46.189  44.470  22.027  1.00  0.00     0.041 A 
ATOM     37  Cl  UNL A   1      47.185  45.198  20.830  1.00  0.00    -0.084 Cl
ENDBRANCH  23  31
ENDBRANCH  18  21
ENDBRANCH  11  17
ENDBRANCH   8  10
ENDBRANCH   7   8
ENDBRANCH   6   7
ENDBRANCH   5   6
ENDBRANCH   4   5
ENDBRANCH   3   4
ENDBRANCH   2   3
ENDBRANCH   1   2
BRANCH   1  38
ATOM     38  C   UNL A   1      41.812  36.216  35.276  1.00  0.00     0.188 C 
BRANCH  38  39
ATOM     39  C   UNL A   1      40.380  35.741  35.585  1.00  0.00     0.188 C 
BRANCH  39  40
ATOM     40  O   UNL A   1      39.743  36.448  36.638  1.00  0.00    -0.376 OA
BRANCH  40  41
ATOM     41  C   UNL A   1      40.411  36.547  37.886  1.00  0.00     0.202 C 
BRANCH  41  42
ATOM     42  C   UNL A   1      40.828  35.244  38.586  1.00  0.00     0.261 C 
BRANCH  42  43
ATOM     43  O   UNL A   1      42.174  34.788  38.375  1.00  0.00    -0.460 OA
BRANCH  43  44
ATOM     44  C   UNL A   1      42.528  33.567  38.832  1.00  0.00     0.338 C 
ATOM     45  O   UNL A   1      42.453  33.168  39.981  1.00  0.00    -0.246 OA
BRANCH  44  46
ATOM     46  C   UNL A   1      42.834  32.721  37.655  1.00  0.00     0.060 A 
ATOM     47  C   UNL A   1      43.577  33.260  36.597  1.00  0.00     0.016 A 
ATOM     48  C   UNL A   1      42.403  31.394  37.608  1.00  0.00     0.016 A 
ATOM     49  C   UNL A   1      43.878  32.477  35.478  1.00  0.00     0.010 A 
ATOM     50  C   UNL A   1      42.679  30.621  36.475  1.00  0.00     0.010 A 
ATOM     51  C   UNL A   1      43.399  31.163  35.394  1.00  0.00    -0.014 A 
BRANCH  51  52
ATOM     52  C   UNL A   1      43.488  30.408  34.118  1.00  0.00     0.031 A 
ATOM     53  C   UNL A   1      42.292  30.415  33.203  1.00  0.00     0.074 A 
ATOM     54  C   UNL A   1      44.596  29.720  33.783  1.00  0.00     0.049 A 
ATOM     55  N   UNL A   1      42.078  29.730  32.111  1.00  0.00    -0.248 NA
ATOM     56  C   UNL A   1      41.187  31.313  33.577  1.00  0.00     0.031 C 
ATOM     57  C   UNL A   1      45.838  29.689  34.553  1.00  0.00     0.029 A 
ATOM     58  N   UNL A   1      44.844  28.894  32.713  1.00  0.00    -0.354 N 
ATOM     59  C   UNL A   1      40.807  30.094  31.680  1.00  0.00     0.074 A 
ATOM     60  C   UNL A   1      40.296  31.056  32.632  1.00  0.00     0.031 C 
ATOM     61  C   UNL A   1      46.707  28.863  33.944  1.00  0.00     0.029 A 
ATOM     62  C   UNL A   1      46.068  28.263  32.774  1.00  0.00     0.049 A 
ATOM     63  H   UNL A   1      44.210  28.764  31.972  1.00  0.00     0.167 HD
ATOM     64  C   UNL A   1      40.128  29.658  30.591  1.00  0.00     0.034 A 
ATOM     65  C   UNL A   1      46.586  27.281  32.004  1.00  0.00     0.034 A 
ATOM     66  C   UNL A   1      40.653  28.700  29.649  1.00  0.00     0.049 A 
ATOM     67  C   UNL A   1      45.765  26.745  30.849  1.00  0.00     0.074 A 
ATOM     68  C   UNL A   1      40.061  28.223  28.493  1.00  0.00     0.029 A 
ATOM     69  N   UNL A   1      41.877  28.057  29.764  1.00  0.00    -0.354 N 
ATOM     70  N   UNL A   1      44.573  27.116  30.437  1.00  0.00    -0.248 NA
ATOM     71  C   UNL A   1      46.358  25.659  30.055  1.00  0.00     0.031 C 
ATOM     72  C   UNL A   1      40.883  27.227  27.960  1.00  0.00     0.029 A 
ATOM     73  C   UNL A   1      42.034  27.151  28.727  1.00  0.00     0.049 A 
ATOM     74  H   UNL A   1      42.537  28.220  30.477  1.00  0.00     0.167 HD
ATOM     75  C   UNL A   1      44.298  26.334  29.315  1.00  0.00     0.074 A 
ATOM     76  C   UNL A   1      45.453  25.488  29.105  1.00  0.00     0.031 C 
ATOM     77  C   UNL A   1      43.192  26.313  28.528  1.00  0.00     0.034 A 
BRANCH  64  78
ATOM     78  C   UNL A   1      38.719  30.151  30.390  1.00  0.00     0.023 A 
ATOM     79  C   UNL A   1      38.434  31.384  29.780  1.00  0.00     0.031 A 
ATOM     80  C   UNL A   1      37.636  29.345  30.789  1.00  0.00     0.131 A 
ATOM     81  C   UNL A   1      37.099  31.789  29.615  1.00  0.00     0.055 A 
ATOM     82  C   UNL A   1      36.314  29.722  30.561  1.00  0.00     0.041 A 
ATOM     83  F   UNL A   1      37.852  28.170  31.402  1.00  0.00    -0.206 F 
ATOM     84  C   UNL A   1      36.038  30.953  29.976  1.00  0.00     0.022 A 
BRANCH  81  85
ATOM     85  S   UNL A   1      36.764  33.464  29.008  1.00  0.00     0.124 S 
ATOM     86  O   UNL A   1      35.890  33.196  27.869  1.00  0.00    -0.237 OA
ATOM     87  O   UNL A   1      36.134  34.098  30.161  1.00  0.00    -0.237 OA
ATOM     88  O   UNL A   1      38.088  33.976  28.662  1.00  0.00    -0.744 OA
ENDBRANCH  81  85
ENDBRANCH  64  78
BRANCH  65  89
ATOM     89  C   UNL A   1      47.912  26.666  32.324  1.00  0.00     0.023 A 
ATOM     90  C   UNL A   1      49.104  27.187  31.793  1.00  0.00     0.031 A 
ATOM     91  C   UNL A   1      47.995  25.472  33.065  1.00  0.00     0.131 A 
ATOM     92  C   UNL A   1      50.307  26.476  31.940  1.00  0.00     0.055 A 
ATOM     93  C   UNL A   1      49.207  24.812  33.275  1.00  0.00     0.041 A 
ATOM     94  F   UNL A   1      46.888  24.914  33.583  1.00  0.00    -0.206 F 
ATOM     95  C   UNL A   1      50.370  25.302  32.692  1.00  0.00     0.022 A 
BRANCH  92  96
ATOM     96  S   UNL A   1      51.757  27.024  30.994  1.00  0.00     0.124 S 
ATOM     97  O   UNL A   1      51.143  27.483  29.754  1.00  0.00    -0.237 OA
ATOM     98  O   UNL A   1      52.308  28.061  31.859  1.00  0.00    -0.237 OA
ATOM     99  O   UNL A   1      52.565  25.813  30.880  1.00  0.00    -0.744 OA
ENDBRANCH  92  96
ENDBRANCH  65  89
BRANCH  77 100
ATOM    100  C   UNL A   1      43.205  25.388  27.333  1.00  0.00     0.023 A 
ATOM    101  C   UNL A   1      42.596  24.121  27.365  1.00  0.00     0.031 A 
ATOM    102  C   UNL A   1      43.843  25.781  26.142  1.00  0.00     0.131 A 
ATOM    103  C   UNL A   1      42.687  23.272  26.251  1.00  0.00     0.055 A 
ATOM    104  C   UNL A   1      43.870  24.961  25.014  1.00  0.00     0.041 A 
ATOM    105  F   UNL A   1      44.445  26.979  26.052  1.00  0.00    -0.206 F 
ATOM    106  C   UNL A   1      43.303  23.692  25.069  1.00  0.00     0.022 A 
BRANCH 103 107
ATOM    107  S   UNL A   1      42.077  21.569  26.400  1.00  0.00     0.124 S 
ATOM    108  O   UNL A   1      42.866  20.875  25.388  1.00  0.00    -0.237 OA
ATOM    109  O   UNL A   1      42.392  21.245  27.787  1.00  0.00    -0.237 OA
ATOM    110  O   UNL A   1      40.651  21.690  26.102  1.00  0.00    -0.744 OA
ENDBRANCH 103 107
ENDBRANCH  77 100
ENDBRANCH  51  52
ENDBRANCH  44  46
ENDBRANCH  43  44
ENDBRANCH  42  43
ENDBRANCH  41  42
ENDBRANCH  40  41
ENDBRANCH  39  40
ENDBRANCH  38  39
ENDBRANCH   1  38
TORSDOF 27
ENDMDL
