MODEL 1
REMARK VINA RESULT:     -10.0      0.000      0.000
REMARK SMILES Cc1cc(C)cc(C(=O)N2CC[C@H](C(=O)OCCOCCOCCOCCOC(=O)c3ccc(-c4c5nc(c(-c6cc(S(=O)(=O)[O-])ccc6F)c6ccc([nH]6)c(-c6cc(S(=O)(=O)[O-])ccc6F)c6nc(c(-c7cc(S(=O)(=O)[O-])ccc7F)c7ccc4[nH]7)C=C6)C=C5)cc3)[C@@H]2C)c1
REMARK SMILES IDX 23 1 22 2 21 3 20 4 19 5 18 6 17 7 16 8 14 9 15 10 13 11
REMARK SMILES IDX 10 12 11 13 94 14 12 15 95 16 8 17 9 18 7 19 1 20 2 21 3 22
REMARK SMILES IDX 96 23 4 24 5 25 6 26 24 27 25 28 26 29 27 30 28 31 29 32
REMARK SMILES IDX 30 33 31 34 32 35 93 36 33 37 92 38 34 39 35 40 36 41 86 42
REMARK SMILES IDX 37 43 91 44 85 45 87 46 38 47 90 48 84 49 83 50 39 52 71 53
REMARK SMILES IDX 51 54 70 55 52 56 55 57 69 58 88 59 53 60 54 61 68 63 89 64
REMARK SMILES IDX 56 65 40 66 41 67 49 68 42 69 48 70 50 71 47 72 43 73 44 74
REMARK SMILES IDX 45 75 46 76 72 77 73 78 81 79 74 80 80 81 82 82 79 83 75 84
REMARK SMILES IDX 76 85 77 86 78 87 57 88 58 89 66 90 59 91 65 92 67 93 64 94
REMARK SMILES IDX 60 95 61 96 62 97 63 98
REMARK H PARENT 87 51 55 62
REMARK Flexibility Score: inf
ROOT
ATOM      1  C   UNL A   1      34.979  29.612  27.843  1.00  0.00     0.188 C 
ENDROOT
BRANCH   1   2
ATOM      2  O   UNL A   1      34.600  29.332  26.514  1.00  0.00    -0.377 OA
BRANCH   2   3
ATOM      3  C   UNL A   1      33.280  28.876  26.389  1.00  0.00     0.188 C 
BRANCH   3   4
ATOM      4  C   UNL A   1      32.445  29.607  25.340  1.00  0.00     0.188 C 
BRANCH   4   5
ATOM      5  O   UNL A   1      31.173  29.088  24.965  1.00  0.00    -0.376 OA
BRANCH   5   6
ATOM      6  C   UNL A   1      30.811  29.087  23.595  1.00  0.00     0.202 C 
BRANCH   6   7
ATOM      7  C   UNL A   1      29.929  27.912  23.124  1.00  0.00     0.261 C 
BRANCH   7   8
ATOM      8  O   UNL A   1      29.799  26.745  23.979  1.00  0.00    -0.463 OA
BRANCH   8   9
ATOM      9  C   UNL A   1      30.916  25.978  24.161  1.00  0.00     0.311 C 
ATOM     10  O   UNL A   1      31.510  25.427  23.242  1.00  0.00    -0.252 OA
BRANCH   9  11
ATOM     11  C   UNL A   1      31.236  25.738  25.651  1.00  0.00     0.123 C 
ATOM     12  N   UNL A   1      32.083  23.618  26.485  1.00  0.00    -0.335 N 
ATOM     13  C   UNL A   1      30.765  23.410  25.934  1.00  0.00     0.121 C 
ATOM     14  C   UNL A   1      32.491  25.023  26.271  1.00  0.00     0.096 C 
ATOM     15  C   UNL A   1      30.124  24.777  26.141  1.00  0.00     0.039 C 
ATOM     16  C   UNL A   1      33.875  25.061  25.658  1.00  0.00     0.032 C 
BRANCH  12  17
ATOM     17  C   UNL A   1      32.727  22.560  27.121  1.00  0.00     0.254 C 
ATOM     18  O   UNL A   1      32.802  22.504  28.349  1.00  0.00    -0.269 OA
BRANCH  17  19
ATOM     19  C   UNL A   1      33.437  21.501  26.338  1.00  0.00     0.040 A 
ATOM     20  C   UNL A   1      32.630  18.470  24.180  1.00  0.00     0.044 C 
ATOM     21  C   UNL A   1      33.403  19.560  24.861  1.00  0.00    -0.050 A 
ATOM     22  C   UNL A   1      34.781  19.685  24.669  1.00  0.00     0.006 A 
ATOM     23  C   UNL A   1      32.738  20.512  25.642  1.00  0.00     0.017 A 
ATOM     24  C   UNL A   1      35.499  20.719  25.285  1.00  0.00    -0.050 A 
ATOM     25  C   UNL A   1      36.950  20.907  24.950  1.00  0.00     0.044 C 
ATOM     26  C   UNL A   1      34.823  21.607  26.140  1.00  0.00     0.017 A 
ENDBRANCH  17  19
ENDBRANCH  12  17
ENDBRANCH   9  11
ENDBRANCH   8   9
ENDBRANCH   7   8
ENDBRANCH   6   7
ENDBRANCH   5   6
ENDBRANCH   4   5
ENDBRANCH   3   4
ENDBRANCH   2   3
ENDBRANCH   1   2
BRANCH   1  27
ATOM     27  C   UNL A   1      34.639  31.037  28.305  1.00  0.00     0.188 C 
BRANCH  27  28
ATOM     28  O   UNL A   1      34.264  32.019  27.340  1.00  0.00    -0.376 OA
BRANCH  28  29
ATOM     29  C   UNL A   1      33.008  32.686  27.342  1.00  0.00     0.202 C 
BRANCH  29  30
ATOM     30  C   UNL A   1      32.860  34.143  27.779  1.00  0.00     0.261 C 
BRANCH  30  31
ATOM     31  O   UNL A   1      32.546  34.295  29.165  1.00  0.00    -0.460 OA
BRANCH  31  32
ATOM     32  C   UNL A   1      33.385  35.121  29.845  1.00  0.00     0.338 C 
ATOM     33  O   UNL A   1      33.142  36.235  30.248  1.00  0.00    -0.246 OA
BRANCH  32  34
ATOM     34  C   UNL A   1      34.587  34.353  30.225  1.00  0.00     0.060 A 
ATOM     35  C   UNL A   1      34.468  33.423  31.267  1.00  0.00     0.016 A 
ATOM     36  C   UNL A   1      35.803  34.540  29.566  1.00  0.00     0.016 A 
ATOM     37  C   UNL A   1      35.570  32.670  31.657  1.00  0.00     0.010 A 
ATOM     38  C   UNL A   1      36.919  33.822  29.992  1.00  0.00     0.010 A 
ATOM     39  C   UNL A   1      36.809  32.905  31.053  1.00  0.00    -0.014 A 
BRANCH  39  40
ATOM     40  C   UNL A   1      38.031  32.367  31.682  1.00  0.00     0.031 A 
ATOM     41  C   UNL A   1      38.722  31.226  30.994  1.00  0.00     0.074 A 
ATOM     42  C   UNL A   1      38.509  32.885  32.826  1.00  0.00     0.049 A 
ATOM     43  N   UNL A   1      39.742  30.513  31.389  1.00  0.00    -0.248 NA
ATOM     44  C   UNL A   1      38.180  30.835  29.682  1.00  0.00     0.031 C 
ATOM     45  C   UNL A   1      37.950  34.040  33.529  1.00  0.00     0.029 A 
ATOM     46  N   UNL A   1      39.567  32.494  33.603  1.00  0.00    -0.354 N 
ATOM     47  C   UNL A   1      39.956  29.580  30.381  1.00  0.00     0.074 A 
ATOM     48  C   UNL A   1      38.944  29.800  29.372  1.00  0.00     0.031 C 
ATOM     49  C   UNL A   1      38.665  34.251  34.648  1.00  0.00     0.029 A 
ATOM     50  C   UNL A   1      39.694  33.220  34.763  1.00  0.00     0.049 A 
ATOM     51  H   UNL A   1      40.179  31.764  33.354  1.00  0.00     0.167 HD
ATOM     52  C   UNL A   1      40.915  28.627  30.309  1.00  0.00     0.034 A 
ATOM     53  C   UNL A   1      40.524  33.039  35.811  1.00  0.00     0.034 A 
ATOM     54  C   UNL A   1      41.898  28.418  31.342  1.00  0.00     0.049 A 
ATOM     55  C   UNL A   1      41.503  31.888  35.766  1.00  0.00     0.074 A 
ATOM     56  C   UNL A   1      42.930  27.498  31.374  1.00  0.00     0.029 A 
ATOM     57  N   UNL A   1      41.957  29.126  32.535  1.00  0.00    -0.354 N 
ATOM     58  N   UNL A   1      41.713  31.017  34.803  1.00  0.00    -0.248 NA
ATOM     59  C   UNL A   1      42.353  31.692  36.947  1.00  0.00     0.031 C 
ATOM     60  C   UNL A   1      43.553  27.589  32.623  1.00  0.00     0.029 A 
ATOM     61  C   UNL A   1      42.971  28.626  33.335  1.00  0.00     0.049 A 
ATOM     62  H   UNL A   1      41.363  29.873  32.778  1.00  0.00     0.167 HD
ATOM     63  C   UNL A   1      42.735  30.187  35.257  1.00  0.00     0.074 A 
ATOM     64  C   UNL A   1      43.111  30.674  36.568  1.00  0.00     0.031 C 
ATOM     65  C   UNL A   1      43.316  29.120  34.648  1.00  0.00     0.034 A 
BRANCH  52  66
ATOM     66  C   UNL A   1      40.893  27.706  29.116  1.00  0.00     0.023 A 
ATOM     67  C   UNL A   1      41.817  27.828  28.063  1.00  0.00     0.031 A 
ATOM     68  C   UNL A   1      39.905  26.710  29.012  1.00  0.00     0.131 A 
ATOM     69  C   UNL A   1      41.691  27.019  26.925  1.00  0.00     0.055 A 
ATOM     70  C   UNL A   1      39.837  25.851  27.914  1.00  0.00     0.041 A 
ATOM     71  F   UNL A   1      38.975  26.566  29.970  1.00  0.00    -0.206 F 
ATOM     72  C   UNL A   1      40.725  26.012  26.855  1.00  0.00     0.022 A 
BRANCH  69  73
ATOM     73  S   UNL A   1      42.713  27.398  25.475  1.00  0.00     0.124 S 
ATOM     74  O   UNL A   1      41.964  28.496  24.868  1.00  0.00    -0.237 OA
ATOM     75  O   UNL A   1      43.993  27.753  26.076  1.00  0.00    -0.237 OA
ATOM     76  O   UNL A   1      42.703  26.151  24.713  1.00  0.00    -0.744 OA
ENDBRANCH  69  73
ENDBRANCH  52  66
BRANCH  53  77
ATOM     77  C   UNL A   1      40.437  33.917  37.013  1.00  0.00     0.023 A 
ATOM     78  C   UNL A   1      41.388  34.924  37.241  1.00  0.00     0.031 A 
ATOM     79  C   UNL A   1      39.436  33.726  37.983  1.00  0.00     0.131 A 
ATOM     80  C   UNL A   1      41.349  35.666  38.432  1.00  0.00     0.055 A 
ATOM     81  C   UNL A   1      39.366  34.508  39.138  1.00  0.00     0.041 A 
ATOM     82  F   UNL A   1      38.504  32.772  37.822  1.00  0.00    -0.206 F 
ATOM     83  C   UNL A   1      40.336  35.477  39.374  1.00  0.00     0.022 A 
BRANCH  80  84
ATOM     84  S   UNL A   1      42.706  36.820  38.777  1.00  0.00     0.124 S 
ATOM     85  O   UNL A   1      43.736  35.921  39.283  1.00  0.00    -0.237 OA
ATOM     86  O   UNL A   1      42.950  37.402  37.461  1.00  0.00    -0.237 OA
ATOM     87  O   UNL A   1      42.132  37.732  39.763  1.00  0.00    -0.744 OA
ENDBRANCH  80  84
ENDBRANCH  53  77
BRANCH  65  88
ATOM     88  C   UNL A   1      44.432  28.427  35.389  1.00  0.00     0.023 A 
ATOM     89  C   UNL A   1      44.173  27.439  36.355  1.00  0.00     0.031 A 
ATOM     90  C   UNL A   1      45.774  28.744  35.111  1.00  0.00     0.131 A 
ATOM     91  C   UNL A   1      45.238  26.838  37.042  1.00  0.00     0.055 A 
ATOM     92  C   UNL A   1      46.830  28.096  35.750  1.00  0.00     0.041 A 
ATOM     93  F   UNL A   1      46.079  29.682  34.200  1.00  0.00    -0.206 F 
ATOM     94  C   UNL A   1      46.565  27.144  36.729  1.00  0.00     0.022 A 
BRANCH  91  95
ATOM     95  S   UNL A   1      44.864  25.706  38.408  1.00  0.00     0.124 S 
ATOM     96  O   UNL A   1      43.986  26.521  39.242  1.00  0.00    -0.237 OA
ATOM     97  O   UNL A   1      44.229  24.585  37.722  1.00  0.00    -0.237 OA
ATOM     98  O   UNL A   1      46.175  25.418  38.984  1.00  0.00    -0.744 OA
ENDBRANCH  91  95
ENDBRANCH  65  88
ENDBRANCH  39  40
ENDBRANCH  32  34
ENDBRANCH  31  32
ENDBRANCH  30  31
ENDBRANCH  29  30
ENDBRANCH  28  29
ENDBRANCH  27  28
ENDBRANCH   1  27
TORSDOF 25
ENDMDL
MODEL 2
REMARK VINA RESULT:      -9.6      2.113      7.651
REMARK SMILES Cc1cc(C)cc(C(=O)N2CC[C@H](C(=O)OCCOCCOCCOCCOC(=O)c3ccc(-c4c5nc(c(-c6cc(S(=O)(=O)[O-])ccc6F)c6ccc([nH]6)c(-c6cc(S(=O)(=O)[O-])ccc6F)c6nc(c(-c7cc(S(=O)(=O)[O-])ccc7F)c7ccc4[nH]7)C=C6)C=C5)cc3)[C@@H]2C)c1
REMARK SMILES IDX 23 1 22 2 21 3 20 4 19 5 18 6 17 7 16 8 14 9 15 10 13 11
REMARK SMILES IDX 10 12 11 13 94 14 12 15 95 16 8 17 9 18 7 19 1 20 2 21 3 22
REMARK SMILES IDX 96 23 4 24 5 25 6 26 24 27 25 28 26 29 27 30 28 31 29 32
REMARK SMILES IDX 30 33 31 34 32 35 93 36 33 37 92 38 34 39 35 40 36 41 86 42
REMARK SMILES IDX 37 43 91 44 85 45 87 46 38 47 90 48 84 49 83 50 39 52 71 53
REMARK SMILES IDX 51 54 70 55 52 56 55 57 69 58 88 59 53 60 54 61 68 63 89 64
REMARK SMILES IDX 56 65 40 66 41 67 49 68 42 69 48 70 50 71 47 72 43 73 44 74
REMARK SMILES IDX 45 75 46 76 72 77 73 78 81 79 74 80 80 81 82 82 79 83 75 84
REMARK SMILES IDX 76 85 77 86 78 87 57 88 58 89 66 90 59 91 65 92 67 93 64 94
REMARK SMILES IDX 60 95 61 96 62 97 63 98
REMARK H PARENT 87 51 55 62
REMARK Flexibility Score: inf
ROOT
ATOM      1  C   UNL A   1      34.380  31.133  27.677  1.00  0.00     0.188 C 
ENDROOT
BRANCH   1   2
ATOM      2  O   UNL A   1      32.994  30.980  27.461  1.00  0.00    -0.377 OA
BRANCH   2   3
ATOM      3  C   UNL A   1      32.642  29.739  26.912  1.00  0.00     0.188 C 
BRANCH   3   4
ATOM      4  C   UNL A   1      32.374  29.754  25.409  1.00  0.00     0.188 C 
BRANCH   4   5
ATOM      5  O   UNL A   1      31.049  29.556  24.928  1.00  0.00    -0.376 OA
BRANCH   5   6
ATOM      6  C   UNL A   1      30.771  29.810  23.562  1.00  0.00     0.202 C 
BRANCH   6   7
ATOM      7  C   UNL A   1      29.645  28.969  22.927  1.00  0.00     0.261 C 
BRANCH   7   8
ATOM      8  O   UNL A   1      29.881  27.558  22.673  1.00  0.00    -0.463 OA
BRANCH   8   9
ATOM      9  C   UNL A   1      29.601  26.686  23.687  1.00  0.00     0.311 C 
ATOM     10  O   UNL A   1      28.472  26.511  24.131  1.00  0.00    -0.252 OA
BRANCH   9  11
ATOM     11  C   UNL A   1      30.872  26.088  24.324  1.00  0.00     0.123 C 
ATOM     12  N   UNL A   1      32.199  24.367  23.236  1.00  0.00    -0.335 N 
ATOM     13  C   UNL A   1      30.880  23.842  23.501  1.00  0.00     0.121 C 
ATOM     14  C   UNL A   1      32.254  25.788  23.636  1.00  0.00     0.096 C 
ATOM     15  C   UNL A   1      30.468  24.648  24.728  1.00  0.00     0.039 C 
ATOM     16  C   UNL A   1      32.831  26.613  22.505  1.00  0.00     0.032 C 
BRANCH  12  17
ATOM     17  C   UNL A   1      33.171  23.521  22.709  1.00  0.00     0.254 C 
ATOM     18  O   UNL A   1      33.424  23.512  21.504  1.00  0.00    -0.269 OA
BRANCH  17  19
ATOM     19  C   UNL A   1      33.878  22.522  23.569  1.00  0.00     0.040 A 
ATOM     20  C   UNL A   1      33.291  19.075  25.074  1.00  0.00     0.044 C 
ATOM     21  C   UNL A   1      33.975  20.344  24.664  1.00  0.00    -0.050 A 
ATOM     22  C   UNL A   1      35.324  20.557  24.963  1.00  0.00     0.006 A 
ATOM     23  C   UNL A   1      33.288  21.303  23.912  1.00  0.00     0.017 A 
ATOM     24  C   UNL A   1      35.969  21.732  24.558  1.00  0.00    -0.050 A 
ATOM     25  C   UNL A   1      37.449  21.869  24.772  1.00  0.00     0.044 C 
ATOM     26  C   UNL A   1      35.233  22.722  23.884  1.00  0.00     0.017 A 
ENDBRANCH  17  19
ENDBRANCH  12  17
ENDBRANCH   9  11
ENDBRANCH   8   9
ENDBRANCH   7   8
ENDBRANCH   6   7
ENDBRANCH   5   6
ENDBRANCH   4   5
ENDBRANCH   3   4
ENDBRANCH   2   3
ENDBRANCH   1   2
BRANCH   1  27
ATOM     27  C   UNL A   1      34.791  32.540  28.133  1.00  0.00     0.188 C 
BRANCH  27  28
ATOM     28  O   UNL A   1      33.959  33.656  27.813  1.00  0.00    -0.376 OA
BRANCH  28  29
ATOM     29  C   UNL A   1      34.192  34.974  28.292  1.00  0.00     0.202 C 
BRANCH  29  30
ATOM     30  C   UNL A   1      33.238  35.668  29.263  1.00  0.00     0.261 C 
BRANCH  30  31
ATOM     31  O   UNL A   1      32.851  34.848  30.368  1.00  0.00    -0.460 OA
BRANCH  31  32
ATOM     32  C   UNL A   1      33.042  35.418  31.588  1.00  0.00     0.338 C 
ATOM     33  O   UNL A   1      32.312  36.204  32.146  1.00  0.00    -0.246 OA
BRANCH  32  34
ATOM     34  C   UNL A   1      34.183  34.748  32.240  1.00  0.00     0.060 A 
ATOM     35  C   UNL A   1      35.473  35.209  31.940  1.00  0.00     0.016 A 
ATOM     36  C   UNL A   1      33.990  33.693  33.133  1.00  0.00     0.016 A 
ATOM     37  C   UNL A   1      36.580  34.616  32.535  1.00  0.00     0.010 A 
ATOM     38  C   UNL A   1      35.103  33.066  33.688  1.00  0.00     0.010 A 
ATOM     39  C   UNL A   1      36.399  33.511  33.371  1.00  0.00    -0.014 A 
BRANCH  39  40
ATOM     40  C   UNL A   1      37.564  32.676  33.726  1.00  0.00     0.031 A 
ATOM     41  C   UNL A   1      38.311  33.026  34.981  1.00  0.00     0.074 A 
ATOM     42  C   UNL A   1      37.937  31.641  32.957  1.00  0.00     0.049 A 
ATOM     43  N   UNL A   1      39.418  32.523  35.456  1.00  0.00    -0.248 NA
ATOM     44  C   UNL A   1      37.728  34.096  35.807  1.00  0.00     0.031 C 
ATOM     45  C   UNL A   1      37.232  31.179  31.761  1.00  0.00     0.029 A 
ATOM     46  N   UNL A   1      39.014  30.799  33.063  1.00  0.00    -0.354 N 
ATOM     47  C   UNL A   1      39.671  33.223  36.630  1.00  0.00     0.074 A 
ATOM     48  C   UNL A   1      38.619  34.203  36.779  1.00  0.00     0.031 C 
ATOM     49  C   UNL A   1      37.910  30.144  31.234  1.00  0.00     0.029 A 
ATOM     50  C   UNL A   1      39.117  29.906  32.023  1.00  0.00     0.049 A 
ATOM     51  H   UNL A   1      39.651  30.830  33.813  1.00  0.00     0.167 HD
ATOM     52  C   UNL A   1      40.694  33.056  37.502  1.00  0.00     0.034 A 
ATOM     53  C   UNL A   1      40.098  29.029  31.730  1.00  0.00     0.034 A 
ATOM     54  C   UNL A   1      41.740  32.084  37.315  1.00  0.00     0.049 A 
ATOM     55  C   UNL A   1      41.294  28.949  32.652  1.00  0.00     0.074 A 
ATOM     56  C   UNL A   1      42.817  31.809  38.138  1.00  0.00     0.029 A 
ATOM     57  N   UNL A   1      41.852  31.241  36.217  1.00  0.00    -0.354 N 
ATOM     58  N   UNL A   1      41.523  29.603  33.770  1.00  0.00    -0.248 NA
ATOM     59  C   UNL A   1      42.365  28.020  32.270  1.00  0.00     0.031 C 
ATOM     60  C   UNL A   1      43.625  30.867  37.494  1.00  0.00     0.029 A 
ATOM     61  C   UNL A   1      43.009  30.486  36.312  1.00  0.00     0.049 A 
ATOM     62  H   UNL A   1      41.204  31.189  35.477  1.00  0.00     0.167 HD
ATOM     63  C   UNL A   1      42.752  29.144  34.234  1.00  0.00     0.074 A 
ATOM     64  C   UNL A   1      43.206  28.146  33.287  1.00  0.00     0.031 C 
ATOM     65  C   UNL A   1      43.448  29.508  35.344  1.00  0.00     0.034 A 
BRANCH  52  66
ATOM     66  C   UNL A   1      40.759  33.991  38.683  1.00  0.00     0.023 A 
ATOM     67  C   UNL A   1      40.074  33.725  39.882  1.00  0.00     0.031 A 
ATOM     68  C   UNL A   1      41.491  35.189  38.595  1.00  0.00     0.131 A 
ATOM     69  C   UNL A   1      40.077  34.674  40.914  1.00  0.00     0.055 A 
ATOM     70  C   UNL A   1      41.559  36.090  39.658  1.00  0.00     0.041 A 
ATOM     71  F   UNL A   1      42.139  35.512  37.465  1.00  0.00    -0.206 F 
ATOM     72  C   UNL A   1      40.838  35.842  40.823  1.00  0.00     0.022 A 
BRANCH  69  73
ATOM     73  S   UNL A   1      38.954  34.431  42.318  1.00  0.00     0.124 S 
ATOM     74  O   UNL A   1      38.337  33.150  41.982  1.00  0.00    -0.237 OA
ATOM     75  O   UNL A   1      39.867  34.421  43.454  1.00  0.00    -0.237 OA
ATOM     76  O   UNL A   1      38.059  35.584  42.244  1.00  0.00    -0.744 OA
ENDBRANCH  69  73
ENDBRANCH  52  66
BRANCH  53  77
ATOM     77  C   UNL A   1      40.033  28.198  30.494  1.00  0.00     0.023 A 
ATOM     78  C   UNL A   1      40.771  28.546  29.352  1.00  0.00     0.031 A 
ATOM     79  C   UNL A   1      39.186  27.078  30.413  1.00  0.00     0.131 A 
ATOM     80  C   UNL A   1      40.612  27.813  28.165  1.00  0.00     0.055 A 
ATOM     81  C   UNL A   1      39.076  26.316  29.248  1.00  0.00     0.041 A 
ATOM     82  F   UNL A   1      38.449  26.703  31.471  1.00  0.00    -0.206 F 
ATOM     83  C   UNL A   1      39.783  26.691  28.110  1.00  0.00     0.022 A 
BRANCH  80  84
ATOM     84  S   UNL A   1      41.433  28.411  26.662  1.00  0.00     0.124 S 
ATOM     85  O   UNL A   1      40.381  29.214  26.051  1.00  0.00    -0.237 OA
ATOM     86  O   UNL A   1      42.568  29.146  27.210  1.00  0.00    -0.237 OA
ATOM     87  O   UNL A   1      41.774  27.181  25.951  1.00  0.00    -0.744 OA
ENDBRANCH  80  84
ENDBRANCH  53  77
BRANCH  65  88
ATOM     88  C   UNL A   1      44.757  28.804  35.599  1.00  0.00     0.023 A 
ATOM     89  C   UNL A   1      44.805  27.531  36.193  1.00  0.00     0.031 A 
ATOM     90  C   UNL A   1      45.972  29.406  35.226  1.00  0.00     0.131 A 
ATOM     91  C   UNL A   1      46.044  26.922  36.439  1.00  0.00     0.055 A 
ATOM     92  C   UNL A   1      47.197  28.768  35.413  1.00  0.00     0.041 A 
ATOM     93  F   UNL A   1      45.986  30.623  34.658  1.00  0.00    -0.206 F 
ATOM     94  C   UNL A   1      47.239  27.522  36.033  1.00  0.00     0.022 A 
BRANCH  91  95
ATOM     95  S   UNL A   1      46.079  25.368  37.372  1.00  0.00     0.124 S 
ATOM     96  O   UNL A   1      47.510  25.176  37.585  1.00  0.00    -0.237 OA
ATOM     97  O   UNL A   1      45.297  25.696  38.559  1.00  0.00    -0.237 OA
ATOM     98  O   UNL A   1      45.454  24.409  36.465  1.00  0.00    -0.744 OA
ENDBRANCH  91  95
ENDBRANCH  65  88
ENDBRANCH  39  40
ENDBRANCH  32  34
ENDBRANCH  31  32
ENDBRANCH  30  31
ENDBRANCH  29  30
ENDBRANCH  28  29
ENDBRANCH  27  28
ENDBRANCH   1  27
TORSDOF 25
ENDMDL
MODEL 3
REMARK VINA RESULT:      -8.7      4.084      9.100
REMARK SMILES Cc1cc(C)cc(C(=O)N2CC[C@H](C(=O)OCCOCCOCCOCCOC(=O)c3ccc(-c4c5nc(c(-c6cc(S(=O)(=O)[O-])ccc6F)c6ccc([nH]6)c(-c6cc(S(=O)(=O)[O-])ccc6F)c6nc(c(-c7cc(S(=O)(=O)[O-])ccc7F)c7ccc4[nH]7)C=C6)C=C5)cc3)[C@@H]2C)c1
REMARK SMILES IDX 23 1 22 2 21 3 20 4 19 5 18 6 17 7 16 8 14 9 15 10 13 11
REMARK SMILES IDX 10 12 11 13 94 14 12 15 95 16 8 17 9 18 7 19 1 20 2 21 3 22
REMARK SMILES IDX 96 23 4 24 5 25 6 26 24 27 25 28 26 29 27 30 28 31 29 32
REMARK SMILES IDX 30 33 31 34 32 35 93 36 33 37 92 38 34 39 35 40 36 41 86 42
REMARK SMILES IDX 37 43 91 44 85 45 87 46 38 47 90 48 84 49 83 50 39 52 71 53
REMARK SMILES IDX 51 54 70 55 52 56 55 57 69 58 88 59 53 60 54 61 68 63 89 64
REMARK SMILES IDX 56 65 40 66 41 67 49 68 42 69 48 70 50 71 47 72 43 73 44 74
REMARK SMILES IDX 45 75 46 76 72 77 73 78 81 79 74 80 80 81 82 82 79 83 75 84
REMARK SMILES IDX 76 85 77 86 78 87 57 88 58 89 66 90 59 91 65 92 67 93 64 94
REMARK SMILES IDX 60 95 61 96 62 97 63 98
REMARK H PARENT 87 51 55 62
REMARK Flexibility Score: inf
ROOT
ATOM      1  C   UNL A   1      34.903  34.432  28.597  1.00  0.00     0.188 C 
ENDROOT
BRANCH   1   2
ATOM      2  O   UNL A   1      34.465  33.527  27.608  1.00  0.00    -0.377 OA
BRANCH   2   3
ATOM      3  C   UNL A   1      33.801  32.405  28.124  1.00  0.00     0.188 C 
BRANCH   3   4
ATOM      4  C   UNL A   1      34.029  31.111  27.347  1.00  0.00     0.188 C 
BRANCH   4   5
ATOM      5  O   UNL A   1      33.083  30.052  27.450  1.00  0.00    -0.376 OA
BRANCH   5   6
ATOM      6  C   UNL A   1      31.846  30.170  26.767  1.00  0.00     0.202 C 
BRANCH   6   7
ATOM      7  C   UNL A   1      31.754  29.471  25.396  1.00  0.00     0.261 C 
BRANCH   7   8
ATOM      8  O   UNL A   1      31.217  28.123  25.329  1.00  0.00    -0.463 OA
BRANCH   8   9
ATOM      9  C   UNL A   1      31.378  27.445  24.154  1.00  0.00     0.311 C 
ATOM     10  O   UNL A   1      30.593  27.527  23.216  1.00  0.00    -0.252 OA
BRANCH   9  11
ATOM     11  C   UNL A   1      32.546  26.438  24.204  1.00  0.00     0.123 C 
ATOM     12  N   UNL A   1      32.261  24.074  23.714  1.00  0.00    -0.335 N 
ATOM     13  C   UNL A   1      31.476  24.407  24.878  1.00  0.00     0.121 C 
ATOM     14  C   UNL A   1      32.891  25.299  23.177  1.00  0.00     0.096 C 
ATOM     15  C   UNL A   1      32.266  25.575  25.460  1.00  0.00     0.039 C 
ATOM     16  C   UNL A   1      32.626  25.395  21.689  1.00  0.00     0.032 C 
BRANCH  12  17
ATOM     17  C   UNL A   1      32.338  22.746  23.306  1.00  0.00     0.254 C 
ATOM     18  O   UNL A   1      31.567  22.294  22.457  1.00  0.00    -0.269 OA
BRANCH  17  19
ATOM     19  C   UNL A   1      33.290  21.789  23.950  1.00  0.00     0.040 A 
ATOM     20  C   UNL A   1      33.428  18.148  25.052  1.00  0.00     0.044 C 
ATOM     21  C   UNL A   1      33.854  19.551  24.739  1.00  0.00    -0.050 A 
ATOM     22  C   UNL A   1      35.181  19.951  24.920  1.00  0.00     0.006 A 
ATOM     23  C   UNL A   1      32.940  20.459  24.193  1.00  0.00     0.017 A 
ATOM     24  C   UNL A   1      35.583  21.255  24.604  1.00  0.00    -0.050 A 
ATOM     25  C   UNL A   1      37.040  21.612  24.678  1.00  0.00     0.044 C 
ATOM     26  C   UNL A   1      34.627  22.176  24.144  1.00  0.00     0.017 A 
ENDBRANCH  17  19
ENDBRANCH  12  17
ENDBRANCH   9  11
ENDBRANCH   8   9
ENDBRANCH   7   8
ENDBRANCH   6   7
ENDBRANCH   5   6
ENDBRANCH   4   5
ENDBRANCH   3   4
ENDBRANCH   2   3
ENDBRANCH   1   2
BRANCH   1  27
ATOM     27  C   UNL A   1      34.724  33.923  30.035  1.00  0.00     0.188 C 
BRANCH  27  28
ATOM     28  O   UNL A   1      35.760  33.151  30.643  1.00  0.00    -0.376 OA
BRANCH  28  29
ATOM     29  C   UNL A   1      35.518  32.073  31.538  1.00  0.00     0.202 C 
BRANCH  29  30
ATOM     30  C   UNL A   1      36.320  30.774  31.485  1.00  0.00     0.261 C 
BRANCH  30  31
ATOM     31  O   UNL A   1      36.565  30.201  32.772  1.00  0.00    -0.460 OA
BRANCH  31  32
ATOM     32  C   UNL A   1      37.556  30.807  33.479  1.00  0.00     0.338 C 
ATOM     33  O   UNL A   1      37.427  31.620  34.364  1.00  0.00    -0.246 OA
BRANCH  32  34
ATOM     34  C   UNL A   1      38.833  30.141  33.154  1.00  0.00     0.060 A 
ATOM     35  C   UNL A   1      38.840  28.742  33.073  1.00  0.00     0.016 A 
ATOM     36  C   UNL A   1      39.996  30.878  32.928  1.00  0.00     0.016 A 
ATOM     37  C   UNL A   1      40.016  28.068  32.763  1.00  0.00     0.010 A 
ATOM     38  C   UNL A   1      41.185  30.199  32.668  1.00  0.00     0.010 A 
ATOM     39  C   UNL A   1      41.201  28.794  32.609  1.00  0.00    -0.014 A 
BRANCH  39  40
ATOM     40  C   UNL A   1      42.492  28.078  32.621  1.00  0.00     0.031 A 
ATOM     41  C   UNL A   1      43.137  27.831  33.954  1.00  0.00     0.074 A 
ATOM     42  C   UNL A   1      43.064  27.659  31.480  1.00  0.00     0.049 A 
ATOM     43  N   UNL A   1      44.308  27.323  34.229  1.00  0.00    -0.248 NA
ATOM     44  C   UNL A   1      42.351  28.219  35.137  1.00  0.00     0.031 C 
ATOM     45  C   UNL A   1      42.479  27.787  30.145  1.00  0.00     0.029 A 
ATOM     46  N   UNL A   1      44.274  27.052  31.265  1.00  0.00    -0.354 N 
ATOM     47  C   UNL A   1      44.405  27.341  35.615  1.00  0.00     0.074 A 
ATOM     48  C   UNL A   1      43.188  27.936  36.121  1.00  0.00     0.031 C 
ATOM     49  C   UNL A   1      43.345  27.287  29.245  1.00  0.00     0.029 A 
ATOM     50  C   UNL A   1      44.559  26.854  29.935  1.00  0.00     0.049 A 
ATOM     51  H   UNL A   1      44.879  26.783  31.992  1.00  0.00     0.167 HD
ATOM     52  C   UNL A   1      45.423  26.898  36.391  1.00  0.00     0.034 A 
ATOM     53  C   UNL A   1      45.690  26.410  29.350  1.00  0.00     0.034 A 
ATOM     54  C   UNL A   1      46.633  26.329  35.856  1.00  0.00     0.049 A 
ATOM     55  C   UNL A   1      46.862  26.041  30.231  1.00  0.00     0.074 A 
ATOM     56  C   UNL A   1      47.725  25.828  36.540  1.00  0.00     0.029 A 
ATOM     57  N   UNL A   1      46.919  26.205  34.502  1.00  0.00    -0.354 N 
ATOM     58  N   UNL A   1      46.945  26.045  31.543  1.00  0.00    -0.248 NA
ATOM     59  C   UNL A   1      48.092  25.612  29.554  1.00  0.00     0.031 C 
ATOM     60  C   UNL A   1      48.705  25.488  35.603  1.00  0.00     0.029 A 
ATOM     61  C   UNL A   1      48.193  25.689  34.331  1.00  0.00     0.049 A 
ATOM     62  H   UNL A   1      46.306  26.450  33.771  1.00  0.00     0.167 HD
ATOM     63  C   UNL A   1      48.228  25.597  31.846  1.00  0.00     0.074 A 
ATOM     64  C   UNL A   1      48.875  25.314  30.581  1.00  0.00     0.031 C 
ATOM     65  C   UNL A   1      48.822  25.431  33.056  1.00  0.00     0.034 A 
BRANCH  52  66
ATOM     66  C   UNL A   1      45.292  27.083  37.881  1.00  0.00     0.023 A 
ATOM     67  C   UNL A   1      45.744  28.247  38.529  1.00  0.00     0.031 A 
ATOM     68  C   UNL A   1      44.739  26.062  38.674  1.00  0.00     0.131 A 
ATOM     69  C   UNL A   1      45.699  28.330  39.928  1.00  0.00     0.055 A 
ATOM     70  C   UNL A   1      44.620  26.185  40.058  1.00  0.00     0.041 A 
ATOM     71  F   UNL A   1      44.321  24.915  38.116  1.00  0.00    -0.206 F 
ATOM     72  C   UNL A   1      45.115  27.320  40.696  1.00  0.00     0.022 A 
BRANCH  69  73
ATOM     73  S   UNL A   1      46.550  29.710  40.742  1.00  0.00     0.124 S 
ATOM     74  O   UNL A   1      47.107  29.057  41.924  1.00  0.00    -0.237 OA
ATOM     75  O   UNL A   1      47.512  30.128  39.729  1.00  0.00    -0.237 OA
ATOM     76  O   UNL A   1      45.475  30.663  41.014  1.00  0.00    -0.744 OA
ENDBRANCH  69  73
ENDBRANCH  52  66
BRANCH  53  77
ATOM     77  C   UNL A   1      45.803  26.342  27.864  1.00  0.00     0.023 A 
ATOM     78  C   UNL A   1      46.514  27.319  27.150  1.00  0.00     0.031 A 
ATOM     79  C   UNL A   1      45.152  25.333  27.130  1.00  0.00     0.131 A 
ATOM     80  C   UNL A   1      46.516  27.295  25.746  1.00  0.00     0.055 A 
ATOM     81  C   UNL A   1      45.208  25.280  25.736  1.00  0.00     0.041 A 
ATOM     82  F   UNL A   1      44.450  24.377  27.761  1.00  0.00    -0.206 F 
ATOM     83  C   UNL A   1      45.883  26.275  25.035  1.00  0.00     0.022 A 
BRANCH  80  84
ATOM     84  S   UNL A   1      47.281  28.681  24.859  1.00  0.00     0.124 S 
ATOM     85  O   UNL A   1      47.332  28.166  23.496  1.00  0.00    -0.237 OA
ATOM     86  O   UNL A   1      46.330  29.759  25.105  1.00  0.00    -0.237 OA
ATOM     87  O   UNL A   1      48.576  28.832  25.519  1.00  0.00    -0.744 OA
ENDBRANCH  80  84
ENDBRANCH  53  77
BRANCH  65  88
ATOM     88  C   UNL A   1      50.233  24.897  33.064  1.00  0.00     0.023 A 
ATOM     89  C   UNL A   1      50.498  23.517  33.043  1.00  0.00     0.031 A 
ATOM     90  C   UNL A   1      51.327  25.781  33.073  1.00  0.00     0.131 A 
ATOM     91  C   UNL A   1      51.823  23.060  33.081  1.00  0.00     0.055 A 
ATOM     92  C   UNL A   1      52.643  25.321  33.044  1.00  0.00     0.041 A 
ATOM     93  F   UNL A   1      51.132  27.109  33.097  1.00  0.00    -0.206 F 
ATOM     94  C   UNL A   1      52.898  23.953  33.057  1.00  0.00     0.022 A 
BRANCH  91  95
ATOM     95  S   UNL A   1      52.126  21.279  33.240  1.00  0.00     0.124 S 
ATOM     96  O   UNL A   1      53.086  21.039  32.168  1.00  0.00    -0.237 OA
ATOM     97  O   UNL A   1      52.647  21.170  34.599  1.00  0.00    -0.237 OA
ATOM     98  O   UNL A   1      50.806  20.687  33.034  1.00  0.00    -0.744 OA
ENDBRANCH  91  95
ENDBRANCH  65  88
ENDBRANCH  39  40
ENDBRANCH  32  34
ENDBRANCH  31  32
ENDBRANCH  30  31
ENDBRANCH  29  30
ENDBRANCH  28  29
ENDBRANCH  27  28
ENDBRANCH   1  27
TORSDOF 25
ENDMDL
