MODEL 1
REMARK VINA RESULT:      -9.0      0.000      0.000
REMARK SMILES O=C(OCCOCCOCCOCCOC(=O)[C@H]1CS[C@H](c2cc(F)ccc2F)[NH2+]1)c1ccc(-c2c3nc(c(-c4cc(S(=O)(=O)[O-])ccc4F)c4ccc([nH]4)c(-c4cc(S(=O)(=O)[O-])ccc4F)c4nc(c(-c5cc(S(=O)(=O)[O-])ccc5F)c5ccc2[nH]5)C=C4)C=C3)cc1
REMARK SMILES IDX 8 1 7 2 6 3 5 4 4 5 3 6 2 7 1 8 31 9 32 10 93 11 33 12 92 13
REMARK SMILES IDX 34 14 35 15 36 16 86 17 37 18 91 19 85 20 87 21 38 22 90 23
REMARK SMILES IDX 84 24 83 25 39 27 71 28 51 29 70 30 52 31 55 32 69 33 88 34
REMARK SMILES IDX 53 35 54 36 68 38 89 39 56 40 40 41 41 42 49 43 42 44 48 45
REMARK SMILES IDX 50 46 47 47 43 48 44 49 45 50 46 51 72 52 73 53 81 54 74 55
REMARK SMILES IDX 80 56 82 57 79 58 75 59 76 60 77 61 78 62 57 63 58 64 66 65
REMARK SMILES IDX 59 66 65 67 67 68 64 69 60 70 61 71 62 72 63 73 9 74 10 75
REMARK SMILES IDX 11 76 12 77 13 78 14 79 15 80 16 81 17 82 18 83 19 84 30 85
REMARK SMILES IDX 20 86 21 87 22 90 23 91 28 92 24 93 27 94 29 95 25 96 26 97
REMARK H PARENT 87 26 55 37 30 88 30 89
REMARK Flexibility Score: inf
ROOT
ATOM      1  C   UNL A   1      41.608  19.479  26.294  1.00  0.00     0.188 C 
ENDROOT
BRANCH   1   2
ATOM      2  C   UNL A   1      42.609  18.319  26.277  1.00  0.00     0.188 C 
BRANCH   2   3
ATOM      3  O   UNL A   1      43.376  18.340  25.073  1.00  0.00    -0.376 OA
BRANCH   3   4
ATOM      4  C   UNL A   1      44.741  18.735  25.223  1.00  0.00     0.202 C 
BRANCH   4   5
ATOM      5  C   UNL A   1      45.124  19.960  24.394  1.00  0.00     0.261 C 
BRANCH   5   6
ATOM      6  O   UNL A   1      44.133  20.997  24.481  1.00  0.00    -0.460 OA
BRANCH   6   7
ATOM      7  C   UNL A   1      44.324  22.324  24.259  1.00  0.00     0.338 C 
ATOM      8  O   UNL A   1      44.642  22.694  23.130  1.00  0.00    -0.246 OA
BRANCH   7   9
ATOM      9  C   UNL A   1      44.113  23.369  25.307  1.00  0.00     0.060 A 
ATOM     10  C   UNL A   1      43.978  24.733  25.051  1.00  0.00     0.016 A 
ATOM     11  C   UNL A   1      43.975  22.934  26.635  1.00  0.00     0.016 A 
ATOM     12  C   UNL A   1      43.829  25.654  26.074  1.00  0.00     0.010 A 
ATOM     13  C   UNL A   1      43.764  23.850  27.672  1.00  0.00     0.010 A 
ATOM     14  C   UNL A   1      43.727  25.222  27.392  1.00  0.00    -0.014 A 
BRANCH  14  15
ATOM     15  C   UNL A   1      43.739  26.254  28.447  1.00  0.00     0.031 A 
ATOM     16  C   UNL A   1      45.053  26.573  29.098  1.00  0.00     0.074 A 
ATOM     17  C   UNL A   1      42.639  26.997  28.671  1.00  0.00     0.049 A 
ATOM     18  N   UNL A   1      45.320  27.403  30.068  1.00  0.00    -0.248 NA
ATOM     19  C   UNL A   1      46.232  25.866  28.567  1.00  0.00     0.031 C 
ATOM     20  C   UNL A   1      41.365  26.848  27.961  1.00  0.00     0.029 A 
ATOM     21  N   UNL A   1      42.424  28.050  29.519  1.00  0.00    -0.354 N 
ATOM     22  C   UNL A   1      46.689  27.301  30.282  1.00  0.00     0.074 A 
ATOM     23  C   UNL A   1      47.197  26.320  29.350  1.00  0.00     0.031 C 
ATOM     24  C   UNL A   1      40.514  27.797  28.383  1.00  0.00     0.029 A 
ATOM     25  C   UNL A   1      41.147  28.562  29.450  1.00  0.00     0.049 A 
ATOM     26  H   UNL A   1      43.115  28.408  30.121  1.00  0.00     0.167 HD
ATOM     27  C   UNL A   1      47.447  27.970  31.183  1.00  0.00     0.034 A 
ATOM     28  C   UNL A   1      40.555  29.510  30.203  1.00  0.00     0.034 A 
ATOM     29  C   UNL A   1      46.891  28.932  32.100  1.00  0.00     0.049 A 
ATOM     30  C   UNL A   1      41.391  30.151  31.286  1.00  0.00     0.074 A 
ATOM     31  C   UNL A   1      47.506  29.598  33.143  1.00  0.00     0.029 A 
ATOM     32  N   UNL A   1      45.568  29.365  32.074  1.00  0.00    -0.354 N 
ATOM     33  N   UNL A   1      42.663  29.965  31.564  1.00  0.00    -0.248 NA
ATOM     34  C   UNL A   1      40.714  31.113  32.162  1.00  0.00     0.031 C 
ATOM     35  C   UNL A   1      46.543  30.392  33.779  1.00  0.00     0.029 A 
ATOM     36  C   UNL A   1      45.343  30.274  33.092  1.00  0.00     0.049 A 
ATOM     37  H   UNL A   1      44.891  29.066  31.426  1.00  0.00     0.167 HD
ATOM     38  C   UNL A   1      42.941  30.797  32.644  1.00  0.00     0.074 A 
ATOM     39  C   UNL A   1      41.712  31.510  32.937  1.00  0.00     0.031 C 
ATOM     40  C   UNL A   1      44.094  30.953  33.346  1.00  0.00     0.034 A 
BRANCH  27  41
ATOM     41  C   UNL A   1      48.902  27.589  31.265  1.00  0.00     0.023 A 
ATOM     42  C   UNL A   1      49.857  28.091  30.363  1.00  0.00     0.031 A 
ATOM     43  C   UNL A   1      49.322  26.625  32.199  1.00  0.00     0.131 A 
ATOM     44  C   UNL A   1      51.161  27.571  30.363  1.00  0.00     0.055 A 
ATOM     45  C   UNL A   1      50.641  26.168  32.243  1.00  0.00     0.041 A 
ATOM     46  F   UNL A   1      48.448  26.084  33.063  1.00  0.00    -0.206 F 
ATOM     47  C   UNL A   1      51.566  26.630  31.312  1.00  0.00     0.022 A 
BRANCH  44  48
ATOM     48  S   UNL A   1      52.284  28.031  29.012  1.00  0.00     0.124 S 
ATOM     49  O   UNL A   1      51.469  28.988  28.266  1.00  0.00    -0.237 OA
ATOM     50  O   UNL A   1      53.429  28.587  29.725  1.00  0.00    -0.237 OA
ATOM     51  O   UNL A   1      52.532  26.765  28.325  1.00  0.00    -0.744 OA
ENDBRANCH  44  48
ENDBRANCH  27  41
BRANCH  28  52
ATOM     52  C   UNL A   1      39.105  29.840  30.040  1.00  0.00     0.023 A 
ATOM     53  C   UNL A   1      38.685  31.052  29.466  1.00  0.00     0.031 A 
ATOM     54  C   UNL A   1      38.108  28.975  30.531  1.00  0.00     0.131 A 
ATOM     55  C   UNL A   1      37.319  31.386  29.448  1.00  0.00     0.055 A 
ATOM     56  C   UNL A   1      36.747  29.281  30.450  1.00  0.00     0.041 A 
ATOM     57  F   UNL A   1      38.441  27.807  31.104  1.00  0.00    -0.206 F 
ATOM     58  C   UNL A   1      36.347  30.502  29.920  1.00  0.00     0.022 A 
BRANCH  55  59
ATOM     59  S   UNL A   1      36.834  33.049  28.906  1.00  0.00     0.124 S 
ATOM     60  O   UNL A   1      38.129  33.694  28.728  1.00  0.00    -0.237 OA
ATOM     61  O   UNL A   1      36.086  32.763  27.686  1.00  0.00    -0.237 OA
ATOM     62  O   UNL A   1      36.035  33.550  30.022  1.00  0.00    -0.744 OA
ENDBRANCH  55  59
ENDBRANCH  28  52
BRANCH  40  63
ATOM     63  C   UNL A   1      44.058  31.957  34.467  1.00  0.00     0.023 A 
ATOM     64  C   UNL A   1      43.698  31.583  35.772  1.00  0.00     0.031 A 
ATOM     65  C   UNL A   1      44.369  33.305  34.220  1.00  0.00     0.131 A 
ATOM     66  C   UNL A   1      43.591  32.560  36.770  1.00  0.00     0.055 A 
ATOM     67  C   UNL A   1      44.324  34.261  35.233  1.00  0.00     0.041 A 
ATOM     68  F   UNL A   1      44.721  33.711  32.989  1.00  0.00    -0.206 F 
ATOM     69  C   UNL A   1      43.918  33.893  36.513  1.00  0.00     0.022 A 
BRANCH  66  70
ATOM     70  S   UNL A   1      42.920  32.077  38.383  1.00  0.00     0.124 S 
ATOM     71  O   UNL A   1      42.867  33.357  39.084  1.00  0.00    -0.237 OA
ATOM     72  O   UNL A   1      41.632  31.494  38.024  1.00  0.00    -0.237 OA
ATOM     73  O   UNL A   1      43.908  31.130  38.894  1.00  0.00    -0.744 OA
ENDBRANCH  66  70
ENDBRANCH  40  63
ENDBRANCH  14  15
ENDBRANCH   7   9
ENDBRANCH   6   7
ENDBRANCH   5   6
ENDBRANCH   4   5
ENDBRANCH   3   4
ENDBRANCH   2   3
ENDBRANCH   1   2
BRANCH   1  74
ATOM     74  O   UNL A   1      41.248  19.957  27.597  1.00  0.00    -0.377 OA
BRANCH  74  75
ATOM     75  C   UNL A   1      40.916  21.342  27.680  1.00  0.00     0.188 C 
BRANCH  75  76
ATOM     76  C   UNL A   1      40.573  22.105  26.379  1.00  0.00     0.188 C 
BRANCH  76  77
ATOM     77  O   UNL A   1      40.351  23.504  26.538  1.00  0.00    -0.376 OA
BRANCH  77  78
ATOM     78  C   UNL A   1      39.105  23.843  27.156  1.00  0.00     0.202 C 
BRANCH  78  79
ATOM     79  C   UNL A   1      37.980  24.138  26.153  1.00  0.00     0.261 C 
BRANCH  79  80
ATOM     80  O   UNL A   1      36.917  23.180  26.278  1.00  0.00    -0.459 OA
BRANCH  80  81
ATOM     81  C   UNL A   1      35.718  23.420  25.678  1.00  0.00     0.365 C 
ATOM     82  O   UNL A   1      35.305  24.503  25.320  1.00  0.00    -0.245 OA
BRANCH  81  83
ATOM     83  C   UNL A   1      35.014  22.071  25.474  1.00  0.00     0.304 C 
ATOM     84  C   UNL A   1      34.047  21.773  26.614  1.00  0.00     0.153 C 
ATOM     85  N   UNL A   1      34.396  21.947  24.127  1.00  0.00    -0.319 N 
ATOM     86  S   UNL A   1      32.473  21.401  25.817  1.00  0.00    -0.087 SA
ATOM     87  C   UNL A   1      33.259  21.039  24.222  1.00  0.00     0.277 C 
ATOM     88  H   UNL A   1      35.078  21.575  23.467  1.00  0.00     0.348 HD
ATOM     89  H   UNL A   1      34.086  22.862  23.799  1.00  0.00     0.348 HD
BRANCH  87  90
ATOM     90  C   UNL A   1      33.505  19.546  24.045  1.00  0.00     0.059 A 
ATOM     91  C   UNL A   1      34.644  18.998  24.679  1.00  0.00     0.053 A 
ATOM     92  C   UNL A   1      32.711  18.657  23.305  1.00  0.00     0.133 A 
ATOM     93  C   UNL A   1      34.957  17.644  24.568  1.00  0.00     0.123 A 
ATOM     94  C   UNL A   1      33.033  17.297  23.193  1.00  0.00     0.043 A 
ATOM     95  F   UNL A   1      31.608  19.061  22.666  1.00  0.00    -0.206 F 
ATOM     96  F   UNL A   1      36.046  17.167  25.184  1.00  0.00    -0.207 F 
ATOM     97  C   UNL A   1      34.159  16.785  23.827  1.00  0.00     0.042 A 
ENDBRANCH  87  90
ENDBRANCH  81  83
ENDBRANCH  80  81
ENDBRANCH  79  80
ENDBRANCH  78  79
ENDBRANCH  77  78
ENDBRANCH  76  77
ENDBRANCH  75  76
ENDBRANCH  74  75
ENDBRANCH   1  74
TORSDOF 24
ENDMDL
MODEL 2
REMARK VINA RESULT:      -8.8      7.779     11.896
REMARK SMILES O=C(OCCOCCOCCOCCOC(=O)[C@H]1CS[C@H](c2cc(F)ccc2F)[NH2+]1)c1ccc(-c2c3nc(c(-c4cc(S(=O)(=O)[O-])ccc4F)c4ccc([nH]4)c(-c4cc(S(=O)(=O)[O-])ccc4F)c4nc(c(-c5cc(S(=O)(=O)[O-])ccc5F)c5ccc2[nH]5)C=C4)C=C3)cc1
REMARK SMILES IDX 8 1 7 2 6 3 5 4 4 5 3 6 2 7 1 8 31 9 32 10 93 11 33 12 92 13
REMARK SMILES IDX 34 14 35 15 36 16 86 17 37 18 91 19 85 20 87 21 38 22 90 23
REMARK SMILES IDX 84 24 83 25 39 27 71 28 51 29 70 30 52 31 55 32 69 33 88 34
REMARK SMILES IDX 53 35 54 36 68 38 89 39 56 40 40 41 41 42 49 43 42 44 48 45
REMARK SMILES IDX 50 46 47 47 43 48 44 49 45 50 46 51 72 52 73 53 81 54 74 55
REMARK SMILES IDX 80 56 82 57 79 58 75 59 76 60 77 61 78 62 57 63 58 64 66 65
REMARK SMILES IDX 59 66 65 67 67 68 64 69 60 70 61 71 62 72 63 73 9 74 10 75
REMARK SMILES IDX 11 76 12 77 13 78 14 79 15 80 16 81 17 82 18 83 19 84 30 85
REMARK SMILES IDX 20 86 21 87 22 90 23 91 28 92 24 93 27 94 29 95 25 96 26 97
REMARK H PARENT 87 26 55 37 30 88 30 89
REMARK Flexibility Score: inf
ROOT
ATOM      1  C   UNL A   1      32.229  28.972  26.117  1.00  0.00     0.188 C 
ENDROOT
BRANCH   1   2
ATOM      2  C   UNL A   1      32.704  29.711  27.372  1.00  0.00     0.188 C 
BRANCH   2   3
ATOM      3  O   UNL A   1      34.034  30.199  27.190  1.00  0.00    -0.376 OA
BRANCH   3   4
ATOM      4  C   UNL A   1      34.325  31.440  27.834  1.00  0.00     0.202 C 
BRANCH   4   5
ATOM      5  C   UNL A   1      35.626  31.431  28.635  1.00  0.00     0.261 C 
BRANCH   5   6
ATOM      6  O   UNL A   1      35.385  31.498  30.050  1.00  0.00    -0.460 OA
BRANCH   6   7
ATOM      7  C   UNL A   1      36.073  30.845  31.023  1.00  0.00     0.338 C 
ATOM      8  O   UNL A   1      36.217  29.627  30.927  1.00  0.00    -0.246 OA
BRANCH   7   9
ATOM      9  C   UNL A   1      36.712  31.540  32.181  1.00  0.00     0.060 A 
ATOM     10  C   UNL A   1      36.249  32.728  32.747  1.00  0.00     0.016 A 
ATOM     11  C   UNL A   1      37.815  30.913  32.783  1.00  0.00     0.016 A 
ATOM     12  C   UNL A   1      36.916  33.343  33.793  1.00  0.00     0.010 A 
ATOM     13  C   UNL A   1      38.461  31.496  33.879  1.00  0.00     0.010 A 
ATOM     14  C   UNL A   1      38.029  32.736  34.364  1.00  0.00    -0.014 A 
BRANCH  14  15
ATOM     15  C   UNL A   1      38.792  33.516  35.358  1.00  0.00     0.031 A 
ATOM     16  C   UNL A   1      38.471  33.307  36.808  1.00  0.00     0.074 A 
ATOM     17  C   UNL A   1      39.855  34.243  34.966  1.00  0.00     0.049 A 
ATOM     18  N   UNL A   1      38.967  33.894  37.862  1.00  0.00    -0.248 NA
ATOM     19  C   UNL A   1      37.460  32.278  37.110  1.00  0.00     0.031 C 
ATOM     20  C   UNL A   1      40.326  34.367  33.582  1.00  0.00     0.029 A 
ATOM     21  N   UNL A   1      40.759  34.975  35.688  1.00  0.00    -0.354 N 
ATOM     22  C   UNL A   1      38.312  33.328  38.949  1.00  0.00     0.074 A 
ATOM     23  C   UNL A   1      37.374  32.359  38.428  1.00  0.00     0.031 C 
ATOM     24  C   UNL A   1      41.448  35.103  33.564  1.00  0.00     0.029 A 
ATOM     25  C   UNL A   1      41.727  35.576  34.914  1.00  0.00     0.049 A 
ATOM     26  H   UNL A   1      40.721  35.064  36.667  1.00  0.00     0.167 HD
ATOM     27  C   UNL A   1      38.483  33.602  40.264  1.00  0.00     0.034 A 
ATOM     28  C   UNL A   1      42.696  36.445  35.265  1.00  0.00     0.034 A 
ATOM     29  C   UNL A   1      39.424  34.587  40.734  1.00  0.00     0.049 A 
ATOM     30  C   UNL A   1      42.782  36.830  36.722  1.00  0.00     0.074 A 
ATOM     31  C   UNL A   1      39.624  35.057  42.018  1.00  0.00     0.029 A 
ATOM     32  N   UNL A   1      40.331  35.256  39.916  1.00  0.00    -0.354 N 
ATOM     33  N   UNL A   1      42.078  36.377  37.738  1.00  0.00    -0.248 NA
ATOM     34  C   UNL A   1      43.776  37.847  37.082  1.00  0.00     0.031 C 
ATOM     35  C   UNL A   1      40.614  36.047  41.967  1.00  0.00     0.029 A 
ATOM     36  C   UNL A   1      41.080  36.146  40.664  1.00  0.00     0.049 A 
ATOM     37  H   UNL A   1      40.425  35.115  38.947  1.00  0.00     0.167 HD
ATOM     38  C   UNL A   1      42.553  37.050  38.859  1.00  0.00     0.074 A 
ATOM     39  C   UNL A   1      43.628  37.907  38.396  1.00  0.00     0.031 C 
ATOM     40  C   UNL A   1      42.138  36.985  40.151  1.00  0.00     0.034 A 
BRANCH  27  41
ATOM     41  C   UNL A   1      37.562  32.903  41.231  1.00  0.00     0.023 A 
ATOM     42  C   UNL A   1      36.292  33.416  41.552  1.00  0.00     0.031 A 
ATOM     43  C   UNL A   1      38.005  31.761  41.920  1.00  0.00     0.131 A 
ATOM     44  C   UNL A   1      35.545  32.834  42.589  1.00  0.00     0.055 A 
ATOM     45  C   UNL A   1      37.224  31.142  42.898  1.00  0.00     0.041 A 
ATOM     46  F   UNL A   1      39.222  31.248  41.681  1.00  0.00    -0.206 F 
ATOM     47  C   UNL A   1      35.992  31.687  43.248  1.00  0.00     0.022 A 
BRANCH  44  48
ATOM     48  S   UNL A   1      34.047  33.681  43.168  1.00  0.00     0.124 S 
ATOM     49  O   UNL A   1      33.484  34.174  41.912  1.00  0.00    -0.237 OA
ATOM     50  O   UNL A   1      33.307  32.608  43.821  1.00  0.00    -0.237 OA
ATOM     51  O   UNL A   1      34.562  34.717  44.060  1.00  0.00    -0.744 OA
ENDBRANCH  44  48
ENDBRANCH  27  41
BRANCH  28  52
ATOM     52  C   UNL A   1      43.581  37.078  34.238  1.00  0.00     0.023 A 
ATOM     53  C   UNL A   1      43.254  38.306  33.639  1.00  0.00     0.031 A 
ATOM     54  C   UNL A   1      44.739  36.420  33.779  1.00  0.00     0.131 A 
ATOM     55  C   UNL A   1      44.040  38.807  32.586  1.00  0.00     0.055 A 
ATOM     56  C   UNL A   1      45.554  36.955  32.778  1.00  0.00     0.041 A 
ATOM     57  F   UNL A   1      45.102  35.236  34.298  1.00  0.00    -0.206 F 
ATOM     58  C   UNL A   1      45.195  38.148  32.162  1.00  0.00     0.022 A 
BRANCH  55  59
ATOM     59  S   UNL A   1      43.463  40.276  31.689  1.00  0.00     0.124 S 
ATOM     60  O   UNL A   1      42.300  40.669  32.476  1.00  0.00    -0.237 OA
ATOM     61  O   UNL A   1      44.623  41.156  31.774  1.00  0.00    -0.237 OA
ATOM     62  O   UNL A   1      43.168  39.764  30.352  1.00  0.00    -0.744 OA
ENDBRANCH  55  59
ENDBRANCH  28  52
BRANCH  40  63
ATOM     63  C   UNL A   1      42.883  37.850  41.132  1.00  0.00     0.023 A 
ATOM     64  C   UNL A   1      42.502  39.180  41.372  1.00  0.00     0.031 A 
ATOM     65  C   UNL A   1      43.999  37.341  41.819  1.00  0.00     0.131 A 
ATOM     66  C   UNL A   1      43.271  39.981  42.226  1.00  0.00     0.055 A 
ATOM     67  C   UNL A   1      44.723  38.124  42.717  1.00  0.00     0.041 A 
ATOM     68  F   UNL A   1      44.402  36.074  41.624  1.00  0.00    -0.206 F 
ATOM     69  C   UNL A   1      44.369  39.456  42.913  1.00  0.00     0.022 A 
BRANCH  66  70
ATOM     70  S   UNL A   1      42.876  41.745  42.346  1.00  0.00     0.124 S 
ATOM     71  O   UNL A   1      42.185  41.815  43.629  1.00  0.00    -0.237 OA
ATOM     72  O   UNL A   1      44.196  42.365  42.299  1.00  0.00    -0.237 OA
ATOM     73  O   UNL A   1      42.037  41.987  41.174  1.00  0.00    -0.744 OA
ENDBRANCH  66  70
ENDBRANCH  40  63
ENDBRANCH  14  15
ENDBRANCH   7   9
ENDBRANCH   6   7
ENDBRANCH   5   6
ENDBRANCH   4   5
ENDBRANCH   3   4
ENDBRANCH   2   3
ENDBRANCH   1   2
BRANCH   1  74
ATOM     74  O   UNL A   1      31.730  27.647  26.340  1.00  0.00    -0.377 OA
BRANCH  74  75
ATOM     75  C   UNL A   1      31.010  27.064  25.255  1.00  0.00     0.188 C 
BRANCH  75  76
ATOM     76  C   UNL A   1      30.806  27.894  23.965  1.00  0.00     0.188 C 
BRANCH  76  77
ATOM     77  O   UNL A   1      31.771  27.667  22.940  1.00  0.00    -0.376 OA
BRANCH  77  78
ATOM     78  C   UNL A   1      31.370  26.724  21.941  1.00  0.00     0.202 C 
BRANCH  78  79
ATOM     79  C   UNL A   1      32.455  25.693  21.596  1.00  0.00     0.261 C 
BRANCH  79  80
ATOM     80  O   UNL A   1      32.412  24.580  22.504  1.00  0.00    -0.459 OA
BRANCH  80  81
ATOM     81  C   UNL A   1      33.434  24.387  23.383  1.00  0.00     0.365 C 
ATOM     82  O   UNL A   1      34.166  25.248  23.824  1.00  0.00    -0.245 OA
BRANCH  81  83
ATOM     83  C   UNL A   1      33.449  22.901  23.770  1.00  0.00     0.304 C 
ATOM     84  C   UNL A   1      34.477  22.623  24.860  1.00  0.00     0.153 C 
ATOM     85  N   UNL A   1      32.093  22.380  24.090  1.00  0.00    -0.319 N 
ATOM     86  S   UNL A   1      33.572  21.758  26.158  1.00  0.00    -0.087 SA
ATOM     87  C   UNL A   1      32.233  21.277  25.033  1.00  0.00     0.277 C 
ATOM     88  H   UNL A   1      31.641  22.050  23.238  1.00  0.00     0.348 HD
ATOM     89  H   UNL A   1      31.522  23.120  24.499  1.00  0.00     0.348 HD
BRANCH  87  90
ATOM     90  C   UNL A   1      32.442  19.873  24.481  1.00  0.00     0.059 A 
ATOM     91  C   UNL A   1      32.303  19.698  23.085  1.00  0.00     0.053 A 
ATOM     92  C   UNL A   1      32.755  18.727  25.228  1.00  0.00     0.133 A 
ATOM     93  C   UNL A   1      32.467  18.449  22.489  1.00  0.00     0.123 A 
ATOM     94  C   UNL A   1      32.915  17.472  24.624  1.00  0.00     0.043 A 
ATOM     95  F   UNL A   1      32.914  18.771  26.555  1.00  0.00    -0.206 F 
ATOM     96  F   UNL A   1      32.326  18.328  21.163  1.00  0.00    -0.207 F 
ATOM     97  C   UNL A   1      32.772  17.329  23.248  1.00  0.00     0.042 A 
ENDBRANCH  87  90
ENDBRANCH  81  83
ENDBRANCH  80  81
ENDBRANCH  79  80
ENDBRANCH  78  79
ENDBRANCH  77  78
ENDBRANCH  76  77
ENDBRANCH  75  76
ENDBRANCH  74  75
ENDBRANCH   1  74
TORSDOF 24
ENDMDL
MODEL 3
REMARK VINA RESULT:      -8.8      4.243     10.275
REMARK SMILES O=C(OCCOCCOCCOCCOC(=O)[C@H]1CS[C@H](c2cc(F)ccc2F)[NH2+]1)c1ccc(-c2c3nc(c(-c4cc(S(=O)(=O)[O-])ccc4F)c4ccc([nH]4)c(-c4cc(S(=O)(=O)[O-])ccc4F)c4nc(c(-c5cc(S(=O)(=O)[O-])ccc5F)c5ccc2[nH]5)C=C4)C=C3)cc1
REMARK SMILES IDX 8 1 7 2 6 3 5 4 4 5 3 6 2 7 1 8 31 9 32 10 93 11 33 12 92 13
REMARK SMILES IDX 34 14 35 15 36 16 86 17 37 18 91 19 85 20 87 21 38 22 90 23
REMARK SMILES IDX 84 24 83 25 39 27 71 28 51 29 70 30 52 31 55 32 69 33 88 34
REMARK SMILES IDX 53 35 54 36 68 38 89 39 56 40 40 41 41 42 49 43 42 44 48 45
REMARK SMILES IDX 50 46 47 47 43 48 44 49 45 50 46 51 72 52 73 53 81 54 74 55
REMARK SMILES IDX 80 56 82 57 79 58 75 59 76 60 77 61 78 62 57 63 58 64 66 65
REMARK SMILES IDX 59 66 65 67 67 68 64 69 60 70 61 71 62 72 63 73 9 74 10 75
REMARK SMILES IDX 11 76 12 77 13 78 14 79 15 80 16 81 17 82 18 83 19 84 30 85
REMARK SMILES IDX 20 86 21 87 22 90 23 91 28 92 24 93 27 94 29 95 25 96 26 97
REMARK H PARENT 87 26 55 37 30 88 30 89
REMARK Flexibility Score: inf
ROOT
ATOM      1  C   UNL A   1      34.064  35.129  31.469  1.00  0.00     0.188 C 
ENDROOT
BRANCH   1   2
ATOM      2  C   UNL A   1      34.501  35.245  32.933  1.00  0.00     0.188 C 
BRANCH   2   3
ATOM      3  O   UNL A   1      34.431  33.973  33.577  1.00  0.00    -0.376 OA
BRANCH   3   4
ATOM      4  C   UNL A   1      35.643  33.526  34.186  1.00  0.00     0.202 C 
BRANCH   4   5
ATOM      5  C   UNL A   1      36.635  32.904  33.204  1.00  0.00     0.261 C 
BRANCH   5   6
ATOM      6  O   UNL A   1      37.170  31.665  33.696  1.00  0.00    -0.460 OA
BRANCH   6   7
ATOM      7  C   UNL A   1      37.389  30.532  32.978  1.00  0.00     0.338 C 
ATOM      8  O   UNL A   1      36.435  30.000  32.412  1.00  0.00    -0.246 OA
BRANCH   7   9
ATOM      9  C   UNL A   1      38.743  29.927  32.793  1.00  0.00     0.060 A 
ATOM     10  C   UNL A   1      38.984  28.565  32.614  1.00  0.00     0.016 A 
ATOM     11  C   UNL A   1      39.839  30.802  32.728  1.00  0.00     0.016 A 
ATOM     12  C   UNL A   1      40.269  28.064  32.493  1.00  0.00     0.010 A 
ATOM     13  C   UNL A   1      41.137  30.312  32.546  1.00  0.00     0.010 A 
ATOM     14  C   UNL A   1      41.356  28.931  32.463  1.00  0.00    -0.014 A 
BRANCH  14  15
ATOM     15  C   UNL A   1      42.704  28.331  32.502  1.00  0.00     0.031 A 
ATOM     16  C   UNL A   1      43.275  27.980  33.844  1.00  0.00     0.074 A 
ATOM     17  C   UNL A   1      43.303  27.953  31.357  1.00  0.00     0.049 A 
ATOM     18  N   UNL A   1      44.442  27.484  34.146  1.00  0.00    -0.248 NA
ATOM     19  C   UNL A   1      42.396  28.206  35.005  1.00  0.00     0.031 C 
ATOM     20  C   UNL A   1      42.734  28.120  30.016  1.00  0.00     0.029 A 
ATOM     21  N   UNL A   1      44.492  27.312  31.134  1.00  0.00    -0.354 N 
ATOM     22  C   UNL A   1      44.451  27.362  35.531  1.00  0.00     0.074 A 
ATOM     23  C   UNL A   1      43.177  27.847  36.012  1.00  0.00     0.031 C 
ATOM     24  C   UNL A   1      43.562  27.566  29.116  1.00  0.00     0.029 A 
ATOM     25  C   UNL A   1      44.756  27.087  29.801  1.00  0.00     0.049 A 
ATOM     26  H   UNL A   1      45.101  27.040  31.857  1.00  0.00     0.167 HD
ATOM     27  C   UNL A   1      45.442  26.888  36.323  1.00  0.00     0.034 A 
ATOM     28  C   UNL A   1      45.861  26.589  29.212  1.00  0.00     0.034 A 
ATOM     29  C   UNL A   1      46.700  26.426  35.796  1.00  0.00     0.049 A 
ATOM     30  C   UNL A   1      47.001  26.186  30.117  1.00  0.00     0.074 A 
ATOM     31  C   UNL A   1      47.838  26.032  36.476  1.00  0.00     0.029 A 
ATOM     32  N   UNL A   1      46.981  26.297  34.438  1.00  0.00    -0.354 N 
ATOM     33  N   UNL A   1      47.050  26.183  31.432  1.00  0.00    -0.248 NA
ATOM     34  C   UNL A   1      48.236  25.735  29.466  1.00  0.00     0.031 C 
ATOM     35  C   UNL A   1      48.820  25.716  35.529  1.00  0.00     0.029 A 
ATOM     36  C   UNL A   1      48.276  25.847  34.259  1.00  0.00     0.049 A 
ATOM     37  H   UNL A   1      46.348  26.497  33.712  1.00  0.00     0.167 HD
ATOM     38  C   UNL A   1      48.319  25.720  31.764  1.00  0.00     0.074 A 
ATOM     39  C   UNL A   1      48.985  25.419  30.511  1.00  0.00     0.031 C 
ATOM     40  C   UNL A   1      48.895  25.569  32.985  1.00  0.00     0.034 A 
BRANCH  27  41
ATOM     41  C   UNL A   1      45.218  26.962  37.812  1.00  0.00     0.023 A 
ATOM     42  C   UNL A   1      45.574  28.097  38.563  1.00  0.00     0.031 A 
ATOM     43  C   UNL A   1      44.736  25.838  38.505  1.00  0.00     0.131 A 
ATOM     44  C   UNL A   1      45.516  28.053  39.965  1.00  0.00     0.055 A 
ATOM     45  C   UNL A   1      44.609  25.828  39.895  1.00  0.00     0.041 A 
ATOM     46  F   UNL A   1      44.414  24.715  37.844  1.00  0.00    -0.206 F 
ATOM     47  C   UNL A   1      45.015  26.935  40.635  1.00  0.00     0.022 A 
BRANCH  44  48
ATOM     48  S   UNL A   1      46.244  29.421  40.912  1.00  0.00     0.124 S 
ATOM     49  O   UNL A   1      45.146  30.386  40.924  1.00  0.00    -0.237 OA
ATOM     50  O   UNL A   1      46.555  28.793  42.191  1.00  0.00    -0.237 OA
ATOM     51  O   UNL A   1      47.402  29.815  40.112  1.00  0.00    -0.744 OA
ENDBRANCH  44  48
ENDBRANCH  27  41
BRANCH  28  52
ATOM     52  C   UNL A   1      45.991  26.535  27.723  1.00  0.00     0.023 A 
ATOM     53  C   UNL A   1      45.770  25.347  27.006  1.00  0.00     0.031 A 
ATOM     54  C   UNL A   1      46.419  27.662  26.994  1.00  0.00     0.131 A 
ATOM     55  C   UNL A   1      46.027  25.299  25.625  1.00  0.00     0.055 A 
ATOM     56  C   UNL A   1      46.610  27.628  25.611  1.00  0.00     0.041 A 
ATOM     57  F   UNL A   1      46.663  28.825  27.619  1.00  0.00    -0.206 F 
ATOM     58  C   UNL A   1      46.430  26.435  24.920  1.00  0.00     0.022 A 
BRANCH  55  59
ATOM     59  S   UNL A   1      45.947  23.697  24.776  1.00  0.00     0.124 S 
ATOM     60  O   UNL A   1      44.552  23.653  24.354  1.00  0.00    -0.237 OA
ATOM     61  O   UNL A   1      46.934  23.868  23.715  1.00  0.00    -0.237 OA
ATOM     62  O   UNL A   1      46.314  22.741  25.819  1.00  0.00    -0.744 OA
ENDBRANCH  55  59
ENDBRANCH  28  52
BRANCH  40  63
ATOM     63  C   UNL A   1      50.300  25.027  32.993  1.00  0.00     0.023 A 
ATOM     64  C   UNL A   1      50.551  23.646  32.936  1.00  0.00     0.031 A 
ATOM     65  C   UNL A   1      51.396  25.902  33.079  1.00  0.00     0.131 A 
ATOM     66  C   UNL A   1      51.867  23.174  33.034  1.00  0.00     0.055 A 
ATOM     67  C   UNL A   1      52.707  25.429  33.110  1.00  0.00     0.041 A 
ATOM     68  F   UNL A   1      51.207  27.231  33.134  1.00  0.00    -0.206 F 
ATOM     69  C   UNL A   1      52.947  24.058  33.103  1.00  0.00     0.022 A 
BRANCH  66  70
ATOM     70  S   UNL A   1      52.136  21.388  33.172  1.00  0.00     0.124 S 
ATOM     71  O   UNL A   1      50.785  20.863  33.005  1.00  0.00    -0.237 OA
ATOM     72  O   UNL A   1      53.061  21.126  32.074  1.00  0.00    -0.237 OA
ATOM     73  O   UNL A   1      52.703  21.231  34.510  1.00  0.00    -0.744 OA
ENDBRANCH  66  70
ENDBRANCH  40  63
ENDBRANCH  14  15
ENDBRANCH   7   9
ENDBRANCH   6   7
ENDBRANCH   5   6
ENDBRANCH   4   5
ENDBRANCH   3   4
ENDBRANCH   2   3
ENDBRANCH   1   2
BRANCH   1  74
ATOM     74  O   UNL A   1      33.974  33.791  30.962  1.00  0.00    -0.377 OA
BRANCH  74  75
ATOM     75  C   UNL A   1      34.879  33.463  29.910  1.00  0.00     0.188 C 
BRANCH  75  76
ATOM     76  C   UNL A   1      34.322  32.799  28.628  1.00  0.00     0.188 C 
BRANCH  76  77
ATOM     77  O   UNL A   1      34.584  31.403  28.508  1.00  0.00    -0.376 OA
BRANCH  77  78
ATOM     78  C   UNL A   1      33.966  30.776  27.379  1.00  0.00     0.202 C 
BRANCH  78  79
ATOM     79  C   UNL A   1      34.332  29.292  27.221  1.00  0.00     0.261 C 
BRANCH  79  80
ATOM     80  O   UNL A   1      34.315  28.904  25.838  1.00  0.00    -0.459 OA
BRANCH  80  81
ATOM     81  C   UNL A   1      33.163  28.438  25.283  1.00  0.00     0.365 C 
ATOM     82  O   UNL A   1      32.391  29.078  24.600  1.00  0.00    -0.245 OA
BRANCH  81  83
ATOM     83  C   UNL A   1      33.050  26.943  25.616  1.00  0.00     0.304 C 
ATOM     84  C   UNL A   1      31.744  26.634  26.339  1.00  0.00     0.153 C 
ATOM     85  N   UNL A   1      33.290  26.074  24.432  1.00  0.00    -0.319 N 
ATOM     86  S   UNL A   1      30.985  25.296  25.399  1.00  0.00    -0.087 SA
ATOM     87  C   UNL A   1      32.555  24.829  24.617  1.00  0.00     0.277 C 
ATOM     88  H   UNL A   1      34.286  25.876  24.346  1.00  0.00     0.348 HD
ATOM     89  H   UNL A   1      32.974  26.544  23.584  1.00  0.00     0.348 HD
BRANCH  87  90
ATOM     90  C   UNL A   1      33.234  23.688  25.363  1.00  0.00     0.059 A 
ATOM     91  C   UNL A   1      32.738  23.367  26.647  1.00  0.00     0.053 A 
ATOM     92  C   UNL A   1      34.315  22.923  24.901  1.00  0.00     0.133 A 
ATOM     93  C   UNL A   1      33.300  22.345  27.410  1.00  0.00     0.123 A 
ATOM     94  C   UNL A   1      34.880  21.898  25.673  1.00  0.00     0.043 A 
ATOM     95  F   UNL A   1      34.866  23.132  23.700  1.00  0.00    -0.206 F 
ATOM     96  F   UNL A   1      32.799  22.076  28.622  1.00  0.00    -0.207 F 
ATOM     97  C   UNL A   1      34.371  21.605  26.934  1.00  0.00     0.042 A 
ENDBRANCH  87  90
ENDBRANCH  81  83
ENDBRANCH  80  81
ENDBRANCH  79  80
ENDBRANCH  78  79
ENDBRANCH  77  78
ENDBRANCH  76  77
ENDBRANCH  75  76
ENDBRANCH  74  75
ENDBRANCH   1  74
TORSDOF 24
ENDMDL
