MODEL 1
REMARK VINA RESULT:      -9.1      0.000      0.000
REMARK SMILES CC1CCN(S(=O)(=O)c2ccc3c(ccn3CC(=O)OCCOCCOCCOCCOC(=O)c3ccc(-c4c5nc(c(-c6cc(S(=O)(=O)[O-])ccc6F)c6ccc([nH]6)c(-c6cc(S(=O)(=O)[O-])ccc6F)c6nc(c(-c7cc(S(=O)(=O)[O-])ccc7F)c7ccc4[nH]7)C=C6)C=C5)cc3)c2)CC1
REMARK SMILES IDX 26 1 25 2 24 3 23 4 22 5 21 6 20 7 18 8 19 9 17 10 16 11
REMARK SMILES IDX 9 12 10 13 98 14 11 15 13 16 12 17 14 18 15 19 6 20 7 21
REMARK SMILES IDX 8 22 5 23 1 24 2 25 3 26 100 27 4 28 99 29 27 30 28 31 29 32
REMARK SMILES IDX 30 33 31 34 32 35 33 36 34 37 35 38 36 39 97 40 37 41 96 42
REMARK SMILES IDX 38 43 39 44 40 45 90 46 41 47 95 48 89 49 91 50 42 51 94 52
REMARK SMILES IDX 88 53 87 54 43 56 75 57 55 58 74 59 56 60 59 61 73 62 92 63
REMARK SMILES IDX 57 64 58 65 72 67 93 68 60 69 44 70 45 71 53 72 46 73 52 74
REMARK SMILES IDX 54 75 51 76 47 77 48 78 49 79 50 80 76 81 77 82 85 83 78 84
REMARK SMILES IDX 84 85 86 86 83 87 79 88 80 89 81 90 82 91 61 92 62 93 70 94
REMARK SMILES IDX 63 95 69 96 71 97 68 98 64 99 65 100 66 101 67 102
REMARK H PARENT 91 55 59 66
REMARK Flexibility Score: inf
ROOT
ATOM      1  O   UNL A   1      44.687  22.612  25.536  1.00  0.00    -0.377 OA
ENDROOT
BRANCH   1   2
ATOM      2  C   UNL A   1      43.692  23.489  25.074  1.00  0.00     0.188 C 
BRANCH   2   3
ATOM      3  C   UNL A   1      43.219  24.607  25.989  1.00  0.00     0.188 C 
BRANCH   3   4
ATOM      4  O   UNL A   1      43.622  24.519  27.329  1.00  0.00    -0.376 OA
BRANCH   4   5
ATOM      5  C   UNL A   1      42.753  24.022  28.333  1.00  0.00     0.202 C 
BRANCH   5   6
ATOM      6  C   UNL A   1      42.402  22.542  28.650  1.00  0.00     0.261 C 
BRANCH   6   7
ATOM      7  O   UNL A   1      42.396  21.541  27.612  1.00  0.00    -0.462 OA
BRANCH   7   8
ATOM      8  C   UNL A   1      41.229  20.903  27.383  1.00  0.00     0.326 C 
ATOM      9  O   UNL A   1      40.754  20.071  28.157  1.00  0.00    -0.250 OA
BRANCH   8  10
ATOM     10  C   UNL A   1      40.469  21.265  26.124  1.00  0.00     0.244 C 
BRANCH  10  11
ATOM     11  N   UNL A   1      39.470  22.343  26.100  1.00  0.00    -0.336 N 
ATOM     12  C   UNL A   1      35.416  22.410  25.304  1.00  0.00     0.083 A 
ATOM     13  C   UNL A   1      36.102  21.270  24.878  1.00  0.00     0.024 A 
ATOM     14  C   UNL A   1      36.100  23.508  25.828  1.00  0.00     0.032 A 
ATOM     15  C   UNL A   1      37.481  21.144  25.074  1.00  0.00     0.028 A 
ATOM     16  C   UNL A   1      37.482  23.385  26.057  1.00  0.00     0.001 A 
ATOM     17  C   UNL A   1      38.150  22.205  25.697  1.00  0.00     0.049 A 
ATOM     18  C   UNL A   1      38.423  24.235  26.681  1.00  0.00     0.028 A 
ATOM     19  C   UNL A   1      39.567  23.497  26.855  1.00  0.00     0.087 A 
BRANCH  12  20
ATOM     20  S   UNL A   1      33.652  22.497  25.134  1.00  0.00     0.243 S 
ATOM     21  O   UNL A   1      33.207  23.673  25.856  1.00  0.00    -0.207 OA
ATOM     22  O   UNL A   1      33.100  21.198  25.453  1.00  0.00    -0.207 OA
BRANCH  20  23
ATOM     23  N   UNL A   1      33.380  22.736  23.449  1.00  0.00    -0.198 NA
ATOM     24  C   UNL A   1      30.533  25.867  23.806  1.00  0.00     0.008 C 
ATOM     25  C   UNL A   1      31.388  24.854  23.042  1.00  0.00    -0.012 C 
ATOM     26  C   UNL A   1      30.988  23.419  23.436  1.00  0.00     0.020 C 
ATOM     27  C   UNL A   1      32.876  25.160  23.271  1.00  0.00     0.020 C 
ATOM     28  C   UNL A   1      32.007  22.368  23.003  1.00  0.00     0.103 C 
ATOM     29  C   UNL A   1      33.775  24.020  22.820  1.00  0.00     0.103 C 
ENDBRANCH  20  23
ENDBRANCH  12  20
ENDBRANCH  10  11
ENDBRANCH   8  10
ENDBRANCH   7   8
ENDBRANCH   6   7
ENDBRANCH   5   6
ENDBRANCH   4   5
ENDBRANCH   3   4
ENDBRANCH   2   3
ENDBRANCH   1   2
BRANCH   1  30
ATOM     30  C   UNL A   1      46.036  23.044  25.537  1.00  0.00     0.188 C 
BRANCH  30  31
ATOM     31  C   UNL A   1      46.625  23.646  24.254  1.00  0.00     0.188 C 
BRANCH  31  32
ATOM     32  O   UNL A   1      46.881  25.032  24.373  1.00  0.00    -0.376 OA
BRANCH  32  33
ATOM     33  C   UNL A   1      48.116  25.559  23.931  1.00  0.00     0.202 C 
BRANCH  33  34
ATOM     34  C   UNL A   1      48.341  27.054  23.608  1.00  0.00     0.261 C 
BRANCH  34  35
ATOM     35  O   UNL A   1      47.792  28.008  24.528  1.00  0.00    -0.460 OA
BRANCH  35  36
ATOM     36  C   UNL A   1      48.363  28.244  25.732  1.00  0.00     0.338 C 
ATOM     37  O   UNL A   1      49.554  28.261  25.973  1.00  0.00    -0.246 OA
BRANCH  36  38
ATOM     38  C   UNL A   1      47.276  28.817  26.591  1.00  0.00     0.060 A 
ATOM     39  C   UNL A   1      45.921  28.689  26.264  1.00  0.00     0.016 A 
ATOM     40  C   UNL A   1      47.666  29.749  27.566  1.00  0.00     0.016 A 
ATOM     41  C   UNL A   1      44.993  29.572  26.833  1.00  0.00     0.010 A 
ATOM     42  C   UNL A   1      46.737  30.642  28.117  1.00  0.00     0.010 A 
ATOM     43  C   UNL A   1      45.397  30.585  27.733  1.00  0.00    -0.014 A 
BRANCH  43  44
ATOM     44  C   UNL A   1      44.337  31.321  28.460  1.00  0.00     0.031 A 
ATOM     45  C   UNL A   1      44.434  32.785  28.197  1.00  0.00     0.074 A 
ATOM     46  C   UNL A   1      43.259  30.885  29.155  1.00  0.00     0.049 A 
ATOM     47  N   UNL A   1      44.723  33.723  29.036  1.00  0.00    -0.248 NA
ATOM     48  C   UNL A   1      44.377  33.216  26.793  1.00  0.00     0.031 C 
ATOM     49  C   UNL A   1      42.747  29.522  29.283  1.00  0.00     0.029 A 
ATOM     50  N   UNL A   1      42.314  31.624  29.836  1.00  0.00    -0.354 N 
ATOM     51  C   UNL A   1      44.714  34.902  28.295  1.00  0.00     0.074 A 
ATOM     52  C   UNL A   1      44.682  34.506  26.910  1.00  0.00     0.031 C 
ATOM     53  C   UNL A   1      41.490  29.560  29.792  1.00  0.00     0.029 A 
ATOM     54  C   UNL A   1      41.141  30.932  30.129  1.00  0.00     0.049 A 
ATOM     55  H   UNL A   1      42.457  32.565  30.092  1.00  0.00     0.167 HD
ATOM     56  C   UNL A   1      44.524  36.119  28.874  1.00  0.00     0.034 A 
ATOM     57  C   UNL A   1      39.941  31.443  30.532  1.00  0.00     0.034 A 
ATOM     58  C   UNL A   1      44.720  36.063  30.298  1.00  0.00     0.049 A 
ATOM     59  C   UNL A   1      40.147  32.805  31.069  1.00  0.00     0.074 A 
ATOM     60  C   UNL A   1      45.763  35.679  31.118  1.00  0.00     0.029 A 
ATOM     61  N   UNL A   1      43.608  36.108  31.103  1.00  0.00    -0.354 N 
ATOM     62  N   UNL A   1      40.703  33.070  32.215  1.00  0.00    -0.248 NA
ATOM     63  C   UNL A   1      40.088  33.912  30.126  1.00  0.00     0.031 C 
ATOM     64  C   UNL A   1      45.142  35.043  32.228  1.00  0.00     0.029 A 
ATOM     65  C   UNL A   1      43.762  35.135  32.053  1.00  0.00     0.049 A 
ATOM     66  H   UNL A   1      42.845  36.723  31.015  1.00  0.00     0.167 HD
ATOM     67  C   UNL A   1      41.494  34.172  31.949  1.00  0.00     0.074 A 
ATOM     68  C   UNL A   1      40.996  34.711  30.685  1.00  0.00     0.031 C 
ATOM     69  C   UNL A   1      42.667  34.375  32.614  1.00  0.00     0.034 A 
BRANCH  56  70
ATOM     70  C   UNL A   1      43.824  37.266  28.185  1.00  0.00     0.023 A 
ATOM     71  C   UNL A   1      44.509  38.392  27.692  1.00  0.00     0.031 A 
ATOM     72  C   UNL A   1      42.476  37.152  27.793  1.00  0.00     0.131 A 
ATOM     73  C   UNL A   1      43.883  39.342  26.880  1.00  0.00     0.055 A 
ATOM     74  C   UNL A   1      41.869  38.058  26.917  1.00  0.00     0.041 A 
ATOM     75  F   UNL A   1      41.725  36.114  28.194  1.00  0.00    -0.206 F 
ATOM     76  C   UNL A   1      42.572  39.164  26.454  1.00  0.00     0.022 A 
BRANCH  73  77
ATOM     77  S   UNL A   1      44.786  40.823  26.348  1.00  0.00     0.124 S 
ATOM     78  O   UNL A   1      45.617  40.298  25.271  1.00  0.00    -0.237 OA
ATOM     79  O   UNL A   1      43.693  41.701  25.939  1.00  0.00    -0.237 OA
ATOM     80  O   UNL A   1      45.496  41.242  27.554  1.00  0.00    -0.744 OA
ENDBRANCH  73  77
ENDBRANCH  56  70
BRANCH  57  81
ATOM     81  C   UNL A   1      38.578  31.013  30.113  1.00  0.00     0.023 A 
ATOM     82  C   UNL A   1      37.701  31.960  29.562  1.00  0.00     0.031 A 
ATOM     83  C   UNL A   1      38.009  29.800  30.556  1.00  0.00     0.131 A 
ATOM     84  C   UNL A   1      36.320  31.727  29.527  1.00  0.00     0.055 A 
ATOM     85  C   UNL A   1      36.627  29.558  30.502  1.00  0.00     0.041 A 
ATOM     86  F   UNL A   1      38.770  28.854  31.130  1.00  0.00    -0.206 F 
ATOM     87  C   UNL A   1      35.773  30.534  29.999  1.00  0.00     0.022 A 
BRANCH  84  88
ATOM     88  S   UNL A   1      35.207  33.038  28.956  1.00  0.00     0.124 S 
ATOM     89  O   UNL A   1      34.080  32.914  29.877  1.00  0.00    -0.237 OA
ATOM     90  O   UNL A   1      36.035  34.226  29.129  1.00  0.00    -0.237 OA
ATOM     91  O   UNL A   1      34.918  32.661  27.575  1.00  0.00    -0.744 OA
ENDBRANCH  84  88
ENDBRANCH  57  81
BRANCH  69  92
ATOM     92  C   UNL A   1      42.984  33.574  33.855  1.00  0.00     0.023 A 
ATOM     93  C   UNL A   1      42.861  34.255  35.081  1.00  0.00     0.031 A 
ATOM     94  C   UNL A   1      43.610  32.314  33.871  1.00  0.00     0.131 A 
ATOM     95  C   UNL A   1      43.408  33.719  36.250  1.00  0.00     0.055 A 
ATOM     96  C   UNL A   1      44.077  31.741  35.061  1.00  0.00     0.041 A 
ATOM     97  F   UNL A   1      43.881  31.641  32.743  1.00  0.00    -0.206 F 
ATOM     98  C   UNL A   1      43.999  32.455  36.252  1.00  0.00     0.022 A 
BRANCH  95  99
ATOM     99  S   UNL A   1      43.532  34.738  37.742  1.00  0.00     0.124 S 
ATOM    100  O   UNL A   1      43.797  36.063  37.189  1.00  0.00    -0.237 OA
ATOM    101  O   UNL A   1      42.212  34.563  38.346  1.00  0.00    -0.237 OA
ATOM    102  O   UNL A   1      44.635  34.141  38.490  1.00  0.00    -0.744 OA
ENDBRANCH  95  99
ENDBRANCH  69  92
ENDBRANCH  43  44
ENDBRANCH  36  38
ENDBRANCH  35  36
ENDBRANCH  34  35
ENDBRANCH  33  34
ENDBRANCH  32  33
ENDBRANCH  31  32
ENDBRANCH  30  31
ENDBRANCH   1  30
TORSDOF 26
ENDMDL
MODEL 2
REMARK VINA RESULT:      -9.0      2.680      3.558
REMARK SMILES CC1CCN(S(=O)(=O)c2ccc3c(ccn3CC(=O)OCCOCCOCCOCCOC(=O)c3ccc(-c4c5nc(c(-c6cc(S(=O)(=O)[O-])ccc6F)c6ccc([nH]6)c(-c6cc(S(=O)(=O)[O-])ccc6F)c6nc(c(-c7cc(S(=O)(=O)[O-])ccc7F)c7ccc4[nH]7)C=C6)C=C5)cc3)c2)CC1
REMARK SMILES IDX 26 1 25 2 24 3 23 4 22 5 21 6 20 7 18 8 19 9 17 10 16 11
REMARK SMILES IDX 9 12 10 13 98 14 11 15 13 16 12 17 14 18 15 19 6 20 7 21
REMARK SMILES IDX 8 22 5 23 1 24 2 25 3 26 100 27 4 28 99 29 27 30 28 31 29 32
REMARK SMILES IDX 30 33 31 34 32 35 33 36 34 37 35 38 36 39 97 40 37 41 96 42
REMARK SMILES IDX 38 43 39 44 40 45 90 46 41 47 95 48 89 49 91 50 42 51 94 52
REMARK SMILES IDX 88 53 87 54 43 56 75 57 55 58 74 59 56 60 59 61 73 62 92 63
REMARK SMILES IDX 57 64 58 65 72 67 93 68 60 69 44 70 45 71 53 72 46 73 52 74
REMARK SMILES IDX 54 75 51 76 47 77 48 78 49 79 50 80 76 81 77 82 85 83 78 84
REMARK SMILES IDX 84 85 86 86 83 87 79 88 80 89 81 90 82 91 61 92 62 93 70 94
REMARK SMILES IDX 63 95 69 96 71 97 68 98 64 99 65 100 66 101 67 102
REMARK H PARENT 91 55 59 66
REMARK Flexibility Score: inf
ROOT
ATOM      1  O   UNL A   1      42.924  24.215  28.750  1.00  0.00    -0.377 OA
ENDROOT
BRANCH   1   2
ATOM      2  C   UNL A   1      42.076  23.176  28.331  1.00  0.00     0.188 C 
BRANCH   2   3
ATOM      3  C   UNL A   1      42.463  22.366  27.103  1.00  0.00     0.188 C 
BRANCH   3   4
ATOM      4  O   UNL A   1      42.097  21.013  27.118  1.00  0.00    -0.376 OA
BRANCH   4   5
ATOM      5  C   UNL A   1      41.238  20.467  26.129  1.00  0.00     0.202 C 
BRANCH   5   6
ATOM      6  C   UNL A   1      39.698  20.277  26.198  1.00  0.00     0.261 C 
BRANCH   6   7
ATOM      7  O   UNL A   1      38.802  21.254  25.629  1.00  0.00    -0.462 OA
BRANCH   7   8
ATOM      8  C   UNL A   1      37.690  20.786  25.022  1.00  0.00     0.326 C 
ATOM      9  O   UNL A   1      37.445  19.585  24.902  1.00  0.00    -0.250 OA
BRANCH   8  10
ATOM     10  C   UNL A   1      36.697  21.803  24.501  1.00  0.00     0.244 C 
BRANCH  10  11
ATOM     11  N   UNL A   1      35.754  22.497  25.388  1.00  0.00    -0.336 N 
ATOM     12  C   UNL A   1      32.845  25.356  24.729  1.00  0.00     0.083 A 
ATOM     13  C   UNL A   1      33.786  25.197  23.709  1.00  0.00     0.024 A 
ATOM     14  C   UNL A   1      32.984  24.688  25.946  1.00  0.00     0.032 A 
ATOM     15  C   UNL A   1      34.829  24.274  23.828  1.00  0.00     0.028 A 
ATOM     16  C   UNL A   1      34.012  23.736  26.071  1.00  0.00     0.001 A 
ATOM     17  C   UNL A   1      34.906  23.528  25.012  1.00  0.00     0.049 A 
ATOM     18  C   UNL A   1      34.337  22.816  27.094  1.00  0.00     0.028 A 
ATOM     19  C   UNL A   1      35.275  21.962  26.569  1.00  0.00     0.087 A 
BRANCH  12  20
ATOM     20  S   UNL A   1      31.475  26.460  24.505  1.00  0.00     0.243 S 
ATOM     21  O   UNL A   1      30.757  26.518  25.764  1.00  0.00    -0.207 OA
ATOM     22  O   UNL A   1      30.782  26.085  23.292  1.00  0.00    -0.207 OA
BRANCH  20  23
ATOM     23  N   UNL A   1      32.189  27.998  24.196  1.00  0.00    -0.198 NA
ATOM     24  C   UNL A   1      28.887  29.724  22.161  1.00  0.00     0.008 C 
ATOM     25  C   UNL A   1      30.312  29.702  22.717  1.00  0.00    -0.012 C 
ATOM     26  C   UNL A   1      31.133  28.597  22.026  1.00  0.00     0.020 C 
ATOM     27  C   UNL A   1      30.265  29.564  24.246  1.00  0.00     0.020 C 
ATOM     28  C   UNL A   1      32.435  28.267  22.752  1.00  0.00     0.103 C 
ATOM     29  C   UNL A   1      31.621  29.210  24.835  1.00  0.00     0.103 C 
ENDBRANCH  20  23
ENDBRANCH  12  20
ENDBRANCH  10  11
ENDBRANCH   8  10
ENDBRANCH   7   8
ENDBRANCH   6   7
ENDBRANCH   5   6
ENDBRANCH   4   5
ENDBRANCH   3   4
ENDBRANCH   2   3
ENDBRANCH   1   2
BRANCH   1  30
ATOM     30  C   UNL A   1      44.257  24.247  28.275  1.00  0.00     0.188 C 
BRANCH  30  31
ATOM     31  C   UNL A   1      44.651  25.308  27.239  1.00  0.00     0.188 C 
BRANCH  31  32
ATOM     32  O   UNL A   1      45.394  24.767  26.164  1.00  0.00    -0.376 OA
BRANCH  32  33
ATOM     33  C   UNL A   1      46.352  25.565  25.498  1.00  0.00     0.202 C 
BRANCH  33  34
ATOM     34  C   UNL A   1      47.744  25.896  26.083  1.00  0.00     0.261 C 
BRANCH  34  35
ATOM     35  O   UNL A   1      47.850  27.086  26.877  1.00  0.00    -0.460 OA
BRANCH  35  36
ATOM     36  C   UNL A   1      48.069  28.297  26.317  1.00  0.00     0.338 C 
ATOM     37  O   UNL A   1      48.804  28.534  25.379  1.00  0.00    -0.246 OA
BRANCH  36  38
ATOM     38  C   UNL A   1      46.982  29.188  26.839  1.00  0.00     0.060 A 
ATOM     39  C   UNL A   1      47.044  29.778  28.106  1.00  0.00     0.016 A 
ATOM     40  C   UNL A   1      45.760  29.167  26.147  1.00  0.00     0.016 A 
ATOM     41  C   UNL A   1      45.864  30.233  28.710  1.00  0.00     0.010 A 
ATOM     42  C   UNL A   1      44.579  29.605  26.762  1.00  0.00     0.010 A 
ATOM     43  C   UNL A   1      44.613  30.113  28.061  1.00  0.00    -0.014 A 
BRANCH  43  44
ATOM     44  C   UNL A   1      43.458  30.820  28.661  1.00  0.00     0.031 A 
ATOM     45  C   UNL A   1      43.731  32.281  28.773  1.00  0.00     0.074 A 
ATOM     46  C   UNL A   1      42.205  30.398  28.957  1.00  0.00     0.049 A 
ATOM     47  N   UNL A   1      43.858  32.982  29.849  1.00  0.00    -0.248 NA
ATOM     48  C   UNL A   1      44.079  32.991  27.534  1.00  0.00     0.031 C 
ATOM     49  C   UNL A   1      41.576  29.117  28.641  1.00  0.00     0.029 A 
ATOM     50  N   UNL A   1      41.172  31.102  29.542  1.00  0.00    -0.354 N 
ATOM     51  C   UNL A   1      44.134  34.278  29.418  1.00  0.00     0.074 A 
ATOM     52  C   UNL A   1      44.439  34.179  28.014  1.00  0.00     0.031 C 
ATOM     53  C   UNL A   1      40.236  29.216  28.828  1.00  0.00     0.029 A 
ATOM     54  C   UNL A   1      39.914  30.525  29.377  1.00  0.00     0.049 A 
ATOM     55  H   UNL A   1      41.313  31.943  30.034  1.00  0.00     0.167 HD
ATOM     56  C   UNL A   1      43.890  35.367  30.199  1.00  0.00     0.034 A 
ATOM     57  C   UNL A   1      38.693  31.097  29.586  1.00  0.00     0.034 A 
ATOM     58  C   UNL A   1      43.699  34.998  31.575  1.00  0.00     0.049 A 
ATOM     59  C   UNL A   1      38.853  32.283  30.454  1.00  0.00     0.074 A 
ATOM     60  C   UNL A   1      44.457  34.322  32.512  1.00  0.00     0.029 A 
ATOM     61  N   UNL A   1      42.421  35.025  32.078  1.00  0.00    -0.354 N 
ATOM     62  N   UNL A   1      39.105  32.234  31.730  1.00  0.00    -0.248 NA
ATOM     63  C   UNL A   1      39.128  33.556  29.805  1.00  0.00     0.031 C 
ATOM     64  C   UNL A   1      43.519  33.562  33.263  1.00  0.00     0.029 A 
ATOM     65  C   UNL A   1      42.245  33.867  32.787  1.00  0.00     0.049 A 
ATOM     66  H   UNL A   1      41.757  35.740  31.952  1.00  0.00     0.167 HD
ATOM     67  C   UNL A   1      40.019  33.253  31.923  1.00  0.00     0.074 A 
ATOM     68  C   UNL A   1      39.913  34.098  30.735  1.00  0.00     0.031 C 
ATOM     69  C   UNL A   1      40.987  33.161  32.879  1.00  0.00     0.034 A 
BRANCH  56  70
ATOM     70  C   UNL A   1      43.485  36.711  29.644  1.00  0.00     0.023 A 
ATOM     71  C   UNL A   1      44.283  37.864  29.778  1.00  0.00     0.031 A 
ATOM     72  C   UNL A   1      42.396  36.823  28.759  1.00  0.00     0.131 A 
ATOM     73  C   UNL A   1      43.998  39.045  29.087  1.00  0.00     0.055 A 
ATOM     74  C   UNL A   1      42.153  37.979  28.007  1.00  0.00     0.041 A 
ATOM     75  F   UNL A   1      41.571  35.786  28.543  1.00  0.00    -0.206 F 
ATOM     76  C   UNL A   1      42.956  39.101  28.168  1.00  0.00     0.022 A 
BRANCH  73  77
ATOM     77  S   UNL A   1      45.003  40.529  29.367  1.00  0.00     0.124 S 
ATOM     78  O   UNL A   1      44.159  41.575  28.803  1.00  0.00    -0.237 OA
ATOM     79  O   UNL A   1      45.127  40.528  30.822  1.00  0.00    -0.237 OA
ATOM     80  O   UNL A   1      46.238  40.247  28.642  1.00  0.00    -0.744 OA
ENDBRANCH  73  77
ENDBRANCH  56  70
BRANCH  57  81
ATOM     81  C   UNL A   1      37.460  30.944  28.764  1.00  0.00     0.023 A 
ATOM     82  C   UNL A   1      36.590  32.036  28.628  1.00  0.00     0.031 A 
ATOM     83  C   UNL A   1      36.952  29.676  28.409  1.00  0.00     0.131 A 
ATOM     84  C   UNL A   1      35.260  31.851  28.226  1.00  0.00     0.055 A 
ATOM     85  C   UNL A   1      35.627  29.493  27.986  1.00  0.00     0.041 A 
ATOM     86  F   UNL A   1      37.706  28.573  28.544  1.00  0.00    -0.206 F 
ATOM     87  C   UNL A   1      34.768  30.585  27.909  1.00  0.00     0.022 A 
BRANCH  84  88
ATOM     88  S   UNL A   1      34.124  33.262  28.216  1.00  0.00     0.124 S 
ATOM     89  O   UNL A   1      32.938  32.704  27.573  1.00  0.00    -0.237 OA
ATOM     90  O   UNL A   1      33.995  33.548  29.640  1.00  0.00    -0.237 OA
ATOM     91  O   UNL A   1      34.836  34.266  27.429  1.00  0.00    -0.744 OA
ENDBRANCH  84  88
ENDBRANCH  57  81
BRANCH  69  92
ATOM     92  C   UNL A   1      40.904  32.091  33.941  1.00  0.00     0.023 A 
ATOM     93  C   UNL A   1      41.520  30.863  33.634  1.00  0.00     0.031 A 
ATOM     94  C   UNL A   1      40.076  32.136  35.078  1.00  0.00     0.131 A 
ATOM     95  C   UNL A   1      41.254  29.723  34.397  1.00  0.00     0.055 A 
ATOM     96  C   UNL A   1      39.883  31.013  35.892  1.00  0.00     0.041 A 
ATOM     97  F   UNL A   1      39.353  33.223  35.387  1.00  0.00    -0.206 F 
ATOM     98  C   UNL A   1      40.454  29.794  35.538  1.00  0.00     0.022 A 
BRANCH  95  99
ATOM     99  S   UNL A   1      41.787  28.095  33.810  1.00  0.00     0.124 S 
ATOM    100  O   UNL A   1      40.773  27.214  34.385  1.00  0.00    -0.237 OA
ATOM    101  O   UNL A   1      41.728  28.255  32.359  1.00  0.00    -0.237 OA
ATOM    102  O   UNL A   1      43.131  27.941  34.359  1.00  0.00    -0.744 OA
ENDBRANCH  95  99
ENDBRANCH  69  92
ENDBRANCH  43  44
ENDBRANCH  36  38
ENDBRANCH  35  36
ENDBRANCH  34  35
ENDBRANCH  33  34
ENDBRANCH  32  33
ENDBRANCH  31  32
ENDBRANCH  30  31
ENDBRANCH   1  30
TORSDOF 26
ENDMDL
MODEL 3
REMARK VINA RESULT:      -8.6      3.167      7.926
REMARK SMILES CC1CCN(S(=O)(=O)c2ccc3c(ccn3CC(=O)OCCOCCOCCOCCOC(=O)c3ccc(-c4c5nc(c(-c6cc(S(=O)(=O)[O-])ccc6F)c6ccc([nH]6)c(-c6cc(S(=O)(=O)[O-])ccc6F)c6nc(c(-c7cc(S(=O)(=O)[O-])ccc7F)c7ccc4[nH]7)C=C6)C=C5)cc3)c2)CC1
REMARK SMILES IDX 26 1 25 2 24 3 23 4 22 5 21 6 20 7 18 8 19 9 17 10 16 11
REMARK SMILES IDX 9 12 10 13 98 14 11 15 13 16 12 17 14 18 15 19 6 20 7 21
REMARK SMILES IDX 8 22 5 23 1 24 2 25 3 26 100 27 4 28 99 29 27 30 28 31 29 32
REMARK SMILES IDX 30 33 31 34 32 35 33 36 34 37 35 38 36 39 97 40 37 41 96 42
REMARK SMILES IDX 38 43 39 44 40 45 90 46 41 47 95 48 89 49 91 50 42 51 94 52
REMARK SMILES IDX 88 53 87 54 43 56 75 57 55 58 74 59 56 60 59 61 73 62 92 63
REMARK SMILES IDX 57 64 58 65 72 67 93 68 60 69 44 70 45 71 53 72 46 73 52 74
REMARK SMILES IDX 54 75 51 76 47 77 48 78 49 79 50 80 76 81 77 82 85 83 78 84
REMARK SMILES IDX 84 85 86 86 83 87 79 88 80 89 81 90 82 91 61 92 62 93 70 94
REMARK SMILES IDX 63 95 69 96 71 97 68 98 64 99 65 100 66 101 67 102
REMARK H PARENT 91 55 59 66
REMARK Flexibility Score: inf
ROOT
ATOM      1  O   UNL A   1      42.520  23.872  28.828  1.00  0.00    -0.377 OA
ENDROOT
BRANCH   1   2
ATOM      2  C   UNL A   1      41.834  22.744  28.346  1.00  0.00     0.188 C 
BRANCH   2   3
ATOM      3  C   UNL A   1      42.597  21.723  27.516  1.00  0.00     0.188 C 
BRANCH   3   4
ATOM      4  O   UNL A   1      41.982  20.473  27.362  1.00  0.00    -0.376 OA
BRANCH   4   5
ATOM      5  C   UNL A   1      41.344  20.105  26.149  1.00  0.00     0.202 C 
BRANCH   5   6
ATOM      6  C   UNL A   1      39.841  19.795  25.913  1.00  0.00     0.261 C 
BRANCH   6   7
ATOM      7  O   UNL A   1      38.874  20.857  25.779  1.00  0.00    -0.462 OA
BRANCH   7   8
ATOM      8  C   UNL A   1      37.722  20.561  25.142  1.00  0.00     0.326 C 
ATOM      9  O   UNL A   1      37.677  19.886  24.113  1.00  0.00    -0.250 OA
BRANCH   8  10
ATOM     10  C   UNL A   1      36.433  21.066  25.755  1.00  0.00     0.244 C 
BRANCH  10  11
ATOM     11  N   UNL A   1      35.948  22.435  25.530  1.00  0.00    -0.336 N 
ATOM     12  C   UNL A   1      32.212  24.181  25.796  1.00  0.00     0.083 A 
ATOM     13  C   UNL A   1      32.230  22.786  25.731  1.00  0.00     0.024 A 
ATOM     14  C   UNL A   1      33.382  24.924  25.631  1.00  0.00     0.032 A 
ATOM     15  C   UNL A   1      33.434  22.085  25.618  1.00  0.00     0.028 A 
ATOM     16  C   UNL A   1      34.604  24.233  25.545  1.00  0.00     0.001 A 
ATOM     17  C   UNL A   1      34.619  22.831  25.557  1.00  0.00     0.049 A 
ATOM     18  C   UNL A   1      35.946  24.675  25.506  1.00  0.00     0.028 A 
ATOM     19  C   UNL A   1      36.731  23.563  25.686  1.00  0.00     0.087 A 
BRANCH  12  20
ATOM     20  S   UNL A   1      30.678  25.037  26.043  1.00  0.00     0.243 S 
ATOM     21  O   UNL A   1      30.999  26.389  26.456  1.00  0.00    -0.207 OA
ATOM     22  O   UNL A   1      29.824  24.211  26.868  1.00  0.00    -0.207 OA
BRANCH  20  23
ATOM     23  N   UNL A   1      29.942  25.086  24.485  1.00  0.00    -0.198 NA
ATOM     24  C   UNL A   1      32.888  27.476  22.577  1.00  0.00     0.008 C 
ATOM     25  C   UNL A   1      31.573  26.696  22.651  1.00  0.00    -0.012 C 
ATOM     26  C   UNL A   1      30.635  27.338  23.692  1.00  0.00     0.020 C 
ATOM     27  C   UNL A   1      31.868  25.214  22.926  1.00  0.00     0.020 C 
ATOM     28  C   UNL A   1      29.466  26.440  24.088  1.00  0.00     0.103 C 
ATOM     29  C   UNL A   1      30.623  24.444  23.334  1.00  0.00     0.103 C 
ENDBRANCH  20  23
ENDBRANCH  12  20
ENDBRANCH  10  11
ENDBRANCH   8  10
ENDBRANCH   7   8
ENDBRANCH   6   7
ENDBRANCH   5   6
ENDBRANCH   4   5
ENDBRANCH   3   4
ENDBRANCH   2   3
ENDBRANCH   1   2
BRANCH   1  30
ATOM     30  C   UNL A   1      43.788  24.189  28.283  1.00  0.00     0.188 C 
BRANCH  30  31
ATOM     31  C   UNL A   1      43.874  25.229  27.158  1.00  0.00     0.188 C 
BRANCH  31  32
ATOM     32  O   UNL A   1      44.652  24.782  26.065  1.00  0.00    -0.376 OA
BRANCH  32  33
ATOM     33  C   UNL A   1      45.148  25.715  25.126  1.00  0.00     0.202 C 
BRANCH  33  34
ATOM     34  C   UNL A   1      46.640  26.105  25.014  1.00  0.00     0.261 C 
BRANCH  34  35
ATOM     35  O   UNL A   1      47.059  27.283  25.717  1.00  0.00    -0.460 OA
BRANCH  35  36
ATOM     36  C   UNL A   1      46.587  28.509  25.395  1.00  0.00     0.338 C 
ATOM     37  O   UNL A   1      46.477  28.966  24.275  1.00  0.00    -0.246 OA
BRANCH  36  38
ATOM     38  C   UNL A   1      45.915  29.023  26.633  1.00  0.00     0.060 A 
ATOM     39  C   UNL A   1      44.541  28.874  26.853  1.00  0.00     0.016 A 
ATOM     40  C   UNL A   1      46.646  29.927  27.421  1.00  0.00     0.016 A 
ATOM     41  C   UNL A   1      43.899  29.711  27.776  1.00  0.00     0.010 A 
ATOM     42  C   UNL A   1      45.997  30.776  28.328  1.00  0.00     0.010 A 
ATOM     43  C   UNL A   1      44.613  30.700  28.492  1.00  0.00    -0.014 A 
BRANCH  43  44
ATOM     44  C   UNL A   1      43.914  31.382  29.605  1.00  0.00     0.031 A 
ATOM     45  C   UNL A   1      43.573  30.416  30.687  1.00  0.00     0.074 A 
ATOM     46  C   UNL A   1      43.691  32.695  29.853  1.00  0.00     0.049 A 
ATOM     47  N   UNL A   1      42.400  30.040  31.073  1.00  0.00    -0.248 NA
ATOM     48  C   UNL A   1      44.684  29.654  31.275  1.00  0.00     0.031 C 
ATOM     49  C   UNL A   1      44.206  33.858  29.133  1.00  0.00     0.029 A 
ATOM     50  N   UNL A   1      43.007  33.272  30.902  1.00  0.00    -0.354 N 
ATOM     51  C   UNL A   1      42.621  29.110  32.087  1.00  0.00     0.074 A 
ATOM     52  C   UNL A   1      44.023  28.782  32.033  1.00  0.00     0.031 C 
ATOM     53  C   UNL A   1      44.010  34.972  29.881  1.00  0.00     0.029 A 
ATOM     54  C   UNL A   1      43.263  34.630  31.082  1.00  0.00     0.049 A 
ATOM     55  H   UNL A   1      42.388  32.765  31.477  1.00  0.00     0.167 HD
ATOM     56  C   UNL A   1      41.680  28.831  33.030  1.00  0.00     0.034 A 
ATOM     57  C   UNL A   1      42.971  35.405  32.167  1.00  0.00     0.034 A 
ATOM     58  C   UNL A   1      40.379  29.297  32.633  1.00  0.00     0.049 A 
ATOM     59  C   UNL A   1      41.926  34.738  32.974  1.00  0.00     0.074 A 
ATOM     60  C   UNL A   1      39.558  29.068  31.546  1.00  0.00     0.029 A 
ATOM     61  N   UNL A   1      39.882  30.421  33.246  1.00  0.00    -0.354 N 
ATOM     62  N   UNL A   1      40.674  34.652  32.633  1.00  0.00    -0.248 NA
ATOM     63  C   UNL A   1      42.367  33.802  33.998  1.00  0.00     0.031 C 
ATOM     64  C   UNL A   1      38.938  30.320  31.284  1.00  0.00     0.029 A 
ATOM     65  C   UNL A   1      39.364  31.219  32.262  1.00  0.00     0.049 A 
ATOM     66  H   UNL A   1      39.896  30.617  34.210  1.00  0.00     0.167 HD
ATOM     67  C   UNL A   1      40.321  33.367  33.001  1.00  0.00     0.074 A 
ATOM     68  C   UNL A   1      41.362  32.930  33.929  1.00  0.00     0.031 C 
ATOM     69  C   UNL A   1      39.388  32.664  32.298  1.00  0.00     0.034 A 
BRANCH  56  70
ATOM     70  C   UNL A   1      42.018  28.450  34.452  1.00  0.00     0.023 A 
ATOM     71  C   UNL A   1      41.766  27.169  34.979  1.00  0.00     0.031 A 
ATOM     72  C   UNL A   1      42.820  29.290  35.248  1.00  0.00     0.131 A 
ATOM     73  C   UNL A   1      42.268  26.768  36.220  1.00  0.00     0.055 A 
ATOM     74  C   UNL A   1      43.388  28.865  36.454  1.00  0.00     0.041 A 
ATOM     75  F   UNL A   1      43.135  30.531  34.844  1.00  0.00    -0.206 F 
ATOM     76  C   UNL A   1      43.113  27.596  36.949  1.00  0.00     0.022 A 
BRANCH  73  77
ATOM     77  S   UNL A   1      41.836  25.140  36.894  1.00  0.00     0.124 S 
ATOM     78  O   UNL A   1      43.111  24.694  37.444  1.00  0.00    -0.237 OA
ATOM     79  O   UNL A   1      40.809  25.491  37.871  1.00  0.00    -0.237 OA
ATOM     80  O   UNL A   1      41.353  24.405  35.729  1.00  0.00    -0.744 OA
ENDBRANCH  73  77
ENDBRANCH  56  70
BRANCH  57  81
ATOM     81  C   UNL A   1      43.810  36.471  32.781  1.00  0.00     0.023 A 
ATOM     82  C   UNL A   1      43.367  37.802  32.733  1.00  0.00     0.031 A 
ATOM     83  C   UNL A   1      45.170  36.263  33.094  1.00  0.00     0.131 A 
ATOM     84  C   UNL A   1      44.261  38.865  32.919  1.00  0.00     0.055 A 
ATOM     85  C   UNL A   1      46.061  37.328  33.301  1.00  0.00     0.041 A 
ATOM     86  F   UNL A   1      45.685  35.024  33.124  1.00  0.00    -0.206 F 
ATOM     87  C   UNL A   1      45.609  38.639  33.197  1.00  0.00     0.022 A 
BRANCH  84  88
ATOM     88  S   UNL A   1      43.684  40.567  32.692  1.00  0.00     0.124 S 
ATOM     89  O   UNL A   1      42.393  40.554  33.375  1.00  0.00    -0.237 OA
ATOM     90  O   UNL A   1      44.740  41.327  33.352  1.00  0.00    -0.237 OA
ATOM     91  O   UNL A   1      43.611  40.711  31.240  1.00  0.00    -0.744 OA
ENDBRANCH  84  88
ENDBRANCH  57  81
BRANCH  69  92
ATOM     92  C   UNL A   1      38.507  33.366  31.292  1.00  0.00     0.023 A 
ATOM     93  C   UNL A   1      37.157  33.526  31.656  1.00  0.00     0.031 A 
ATOM     94  C   UNL A   1      38.860  33.646  29.958  1.00  0.00     0.131 A 
ATOM     95  C   UNL A   1      36.201  33.882  30.701  1.00  0.00     0.055 A 
ATOM     96  C   UNL A   1      37.912  34.089  29.026  1.00  0.00     0.041 A 
ATOM     97  F   UNL A   1      40.092  33.411  29.485  1.00  0.00    -0.206 F 
ATOM     98  C   UNL A   1      36.573  34.185  29.390  1.00  0.00     0.022 A 
BRANCH  95  99
ATOM     99  S   UNL A   1      34.438  33.771  31.098  1.00  0.00     0.124 S 
ATOM    100  O   UNL A   1      34.245  34.926  31.970  1.00  0.00    -0.237 OA
ATOM    101  O   UNL A   1      33.816  33.870  29.779  1.00  0.00    -0.237 OA
ATOM    102  O   UNL A   1      34.300  32.470  31.747  1.00  0.00    -0.744 OA
ENDBRANCH  95  99
ENDBRANCH  69  92
ENDBRANCH  43  44
ENDBRANCH  36  38
ENDBRANCH  35  36
ENDBRANCH  34  35
ENDBRANCH  33  34
ENDBRANCH  32  33
ENDBRANCH  31  32
ENDBRANCH  30  31
ENDBRANCH   1  30
TORSDOF 26
ENDMDL
