MODEL 1
REMARK VINA RESULT:      -9.1      0.000      0.000
REMARK SMILES Cc1cccc(CC(=O)N2CCCC[C@@H]2C(=O)OCCOCCOCCOCCOC(=O)c2ccc(-c3c4nc(c(-c5cc(S(=O)(=O)[O-])ccc5F)c5ccc([nH]5)c(-c5cc(S(=O)(=O)[O-])ccc5F)c5nc(c(-c6cc(S(=O)(=O)[O-])ccc6F)c6ccc3[nH]6)C=C5)C=C4)cc2)c1
REMARK SMILES IDX 24 1 23 2 22 3 21 4 20 5 19 6 18 7 16 8 17 9 15 10 10 11
REMARK SMILES IDX 11 12 12 13 14 14 13 15 8 16 9 17 7 18 6 19 1 20 2 21 3 22
REMARK SMILES IDX 96 23 4 24 5 25 25 26 26 27 27 28 28 29 29 30 30 31 31 32
REMARK SMILES IDX 32 33 33 34 34 35 95 36 35 37 94 38 36 39 37 40 38 41 88 42
REMARK SMILES IDX 39 43 93 44 87 45 89 46 40 47 92 48 86 49 85 50 41 52 73 53
REMARK SMILES IDX 53 54 72 55 54 56 57 57 71 58 90 59 55 60 56 61 70 63 91 64
REMARK SMILES IDX 58 65 42 66 43 67 51 68 44 69 50 70 52 71 49 72 45 73 46 74
REMARK SMILES IDX 47 75 48 76 74 77 75 78 83 79 76 80 82 81 84 82 81 83 77 84
REMARK SMILES IDX 78 85 79 86 80 87 59 88 60 89 68 90 61 91 67 92 69 93 66 94
REMARK SMILES IDX 62 95 63 96 64 97 65 98
REMARK H PARENT 89 51 57 62
REMARK Flexibility Score: inf
ROOT
ATOM      1  O   UNL A   1      43.738  42.364  25.726  1.00  0.00    -0.377 OA
ENDROOT
BRANCH   1   2
ATOM      2  C   UNL A   1      44.306  43.190  24.723  1.00  0.00     0.188 C 
BRANCH   2   3
ATOM      3  C   UNL A   1      45.343  42.513  23.801  1.00  0.00     0.188 C 
BRANCH   3   4
ATOM      4  O   UNL A   1      46.615  43.115  23.632  1.00  0.00    -0.376 OA
BRANCH   4   5
ATOM      5  C   UNL A   1      46.785  43.801  22.418  1.00  0.00     0.202 C 
BRANCH   5   6
ATOM      6  C   UNL A   1      45.599  44.180  21.559  1.00  0.00     0.261 C 
BRANCH   6   7
ATOM      7  O   UNL A   1      45.060  43.525  20.424  1.00  0.00    -0.462 OA
BRANCH   7   8
ATOM      8  C   UNL A   1      45.125  44.155  19.218  1.00  0.00     0.328 C 
ATOM      9  O   UNL A   1      46.146  44.487  18.657  1.00  0.00    -0.250 OA
BRANCH   8  10
ATOM     10  C   UNL A   1      43.718  44.272  18.593  1.00  0.00     0.195 C 
ATOM     11  N   UNL A   1      43.294  45.334  17.652  1.00  0.00    -0.329 N 
ATOM     12  C   UNL A   1      41.998  45.110  17.025  1.00  0.00     0.120 C 
ATOM     13  C   UNL A   1      40.896  44.697  18.006  1.00  0.00     0.022 C 
ATOM     14  C   UNL A   1      42.623  43.949  19.619  1.00  0.00     0.037 C 
ATOM     15  C   UNL A   1      41.348  43.552  18.899  1.00  0.00     0.005 C 
BRANCH  11  16
ATOM     16  C   UNL A   1      43.596  46.675  17.864  1.00  0.00     0.227 C 
ATOM     17  O   UNL A   1      43.611  47.168  18.993  1.00  0.00    -0.275 OA
BRANCH  16  18
ATOM     18  C   UNL A   1      43.609  47.524  16.587  1.00  0.00     0.135 C 
BRANCH  18  19
ATOM     19  C   UNL A   1      44.656  48.580  16.618  1.00  0.00    -0.038 A 
ATOM     20  C   UNL A   1      48.421  49.389  16.828  1.00  0.00     0.044 C 
ATOM     21  C   UNL A   1      46.936  49.485  16.656  1.00  0.00    -0.051 A 
ATOM     22  C   UNL A   1      46.390  50.707  16.951  1.00  0.00     0.003 A 
ATOM     23  C   UNL A   1      46.049  48.418  16.435  1.00  0.00     0.007 A 
ATOM     24  C   UNL A   1      45.026  50.879  16.899  1.00  0.00     0.001 A 
ATOM     25  C   UNL A   1      44.153  49.832  16.846  1.00  0.00     0.004 A 
ENDBRANCH  18  19
ENDBRANCH  16  18
ENDBRANCH  11  16
ENDBRANCH   8  10
ENDBRANCH   7   8
ENDBRANCH   6   7
ENDBRANCH   5   6
ENDBRANCH   4   5
ENDBRANCH   3   4
ENDBRANCH   2   3
ENDBRANCH   1   2
BRANCH   1  26
ATOM     26  C   UNL A   1      42.851  41.364  25.238  1.00  0.00     0.188 C 
BRANCH  26  27
ATOM     27  C   UNL A   1      41.946  40.857  26.346  1.00  0.00     0.188 C 
BRANCH  27  28
ATOM     28  O   UNL A   1      42.454  40.995  27.667  1.00  0.00    -0.376 OA
BRANCH  28  29
ATOM     29  C   UNL A   1      41.965  40.226  28.745  1.00  0.00     0.202 C 
BRANCH  29  30
ATOM     30  C   UNL A   1      42.481  38.800  28.719  1.00  0.00     0.261 C 
BRANCH  30  31
ATOM     31  O   UNL A   1      43.741  38.793  29.427  1.00  0.00    -0.460 OA
BRANCH  31  32
ATOM     32  C   UNL A   1      43.895  37.760  30.302  1.00  0.00     0.338 C 
ATOM     33  O   UNL A   1      43.947  37.899  31.511  1.00  0.00    -0.246 OA
BRANCH  32  34
ATOM     34  C   UNL A   1      44.145  36.459  29.589  1.00  0.00     0.060 A 
ATOM     35  C   UNL A   1      43.191  35.988  28.673  1.00  0.00     0.016 A 
ATOM     36  C   UNL A   1      45.146  35.585  30.007  1.00  0.00     0.016 A 
ATOM     37  C   UNL A   1      43.157  34.628  28.294  1.00  0.00     0.010 A 
ATOM     38  C   UNL A   1      45.057  34.222  29.691  1.00  0.00     0.010 A 
ATOM     39  C   UNL A   1      44.045  33.700  28.862  1.00  0.00    -0.014 A 
BRANCH  39  40
ATOM     40  C   UNL A   1      43.802  32.206  28.899  1.00  0.00     0.031 A 
ATOM     41  C   UNL A   1      44.427  31.269  27.776  1.00  0.00     0.074 A 
ATOM     42  C   UNL A   1      43.373  31.801  30.137  1.00  0.00     0.049 A 
ATOM     43  N   UNL A   1      44.170  30.014  27.467  1.00  0.00    -0.248 NA
ATOM     44  C   UNL A   1      45.377  31.808  26.784  1.00  0.00     0.031 C 
ATOM     45  C   UNL A   1      43.895  30.752  30.966  1.00  0.00     0.029 A 
ATOM     46  N   UNL A   1      42.455  32.342  31.046  1.00  0.00    -0.354 N 
ATOM     47  C   UNL A   1      45.207  29.513  26.615  1.00  0.00     0.074 A 
ATOM     48  C   UNL A   1      45.796  30.728  26.109  1.00  0.00     0.031 C 
ATOM     49  C   UNL A   1      43.211  30.476  32.069  1.00  0.00     0.029 A 
ATOM     50  C   UNL A   1      42.095  31.319  31.981  1.00  0.00     0.049 A 
ATOM     51  H   UNL A   1      42.116  33.267  31.043  1.00  0.00     0.167 HD
ATOM     52  C   UNL A   1      45.654  28.183  26.596  1.00  0.00     0.034 A 
ATOM     53  C   UNL A   1      40.853  30.801  32.087  1.00  0.00     0.034 A 
ATOM     54  C   UNL A   1      44.806  27.249  27.402  1.00  0.00     0.049 A 
ATOM     55  C   UNL A   1      40.677  29.447  31.312  1.00  0.00     0.074 A 
ATOM     56  C   UNL A   1      45.105  26.196  28.273  1.00  0.00     0.029 A 
ATOM     57  N   UNL A   1      43.446  27.503  27.614  1.00  0.00    -0.354 N 
ATOM     58  N   UNL A   1      41.561  28.841  30.514  1.00  0.00    -0.248 NA
ATOM     59  C   UNL A   1      39.470  28.635  31.461  1.00  0.00     0.031 C 
ATOM     60  C   UNL A   1      43.972  25.926  29.084  1.00  0.00     0.029 A 
ATOM     61  C   UNL A   1      42.969  26.813  28.720  1.00  0.00     0.049 A 
ATOM     62  H   UNL A   1      42.898  28.095  27.052  1.00  0.00     0.167 HD
ATOM     63  C   UNL A   1      41.021  27.653  29.995  1.00  0.00     0.074 A 
ATOM     64  C   UNL A   1      39.741  27.565  30.691  1.00  0.00     0.031 C 
ATOM     65  C   UNL A   1      41.563  26.791  29.044  1.00  0.00     0.034 A 
BRANCH  52  66
ATOM     66  C   UNL A   1      47.123  27.654  26.164  1.00  0.00     0.023 A 
ATOM     67  C   UNL A   1      47.579  27.813  24.814  1.00  0.00     0.031 A 
ATOM     68  C   UNL A   1      48.018  26.868  26.923  1.00  0.00     0.131 A 
ATOM     69  C   UNL A   1      48.664  27.092  24.247  1.00  0.00     0.055 A 
ATOM     70  C   UNL A   1      49.184  26.252  26.392  1.00  0.00     0.041 A 
ATOM     71  F   UNL A   1      47.836  26.621  28.221  1.00  0.00    -0.206 F 
ATOM     72  C   UNL A   1      49.493  26.325  25.044  1.00  0.00     0.022 A 
BRANCH  69  73
ATOM     73  S   UNL A   1      48.967  27.093  22.441  1.00  0.00     0.124 S 
ATOM     74  O   UNL A   1      48.468  25.779  22.045  1.00  0.00    -0.237 OA
ATOM     75  O   UNL A   1      48.202  28.241  21.972  1.00  0.00    -0.237 OA
ATOM     76  O   UNL A   1      50.420  27.247  22.347  1.00  0.00    -0.744 OA
ENDBRANCH  69  73
ENDBRANCH  52  66
BRANCH  53  77
ATOM     77  C   UNL A   1      40.008  31.977  32.546  1.00  0.00     0.023 A 
ATOM     78  C   UNL A   1      38.961  32.330  31.613  1.00  0.00     0.031 A 
ATOM     79  C   UNL A   1      39.653  31.979  33.906  1.00  0.00     0.131 A 
ATOM     80  C   UNL A   1      37.603  32.308  32.016  1.00  0.00     0.055 A 
ATOM     81  C   UNL A   1      38.299  31.980  34.298  1.00  0.00     0.041 A 
ATOM     82  F   UNL A   1      40.568  31.667  34.836  1.00  0.00    -0.206 F 
ATOM     83  C   UNL A   1      37.273  32.075  33.351  1.00  0.00     0.022 A 
BRANCH  80  84
ATOM     84  S   UNL A   1      36.252  32.238  30.769  1.00  0.00     0.124 S 
ATOM     85  O   UNL A   1      35.442  33.398  31.122  1.00  0.00    -0.237 OA
ATOM     86  O   UNL A   1      36.961  32.320  29.497  1.00  0.00    -0.237 OA
ATOM     87  O   UNL A   1      35.631  30.936  31.022  1.00  0.00    -0.744 OA
ENDBRANCH  80  84
ENDBRANCH  53  77
BRANCH  65  88
ATOM     88  C   UNL A   1      40.856  25.678  28.244  1.00  0.00     0.023 A 
ATOM     89  C   UNL A   1      41.358  24.389  28.177  1.00  0.00     0.031 A 
ATOM     90  C   UNL A   1      39.555  25.839  27.647  1.00  0.00     0.131 A 
ATOM     91  C   UNL A   1      40.659  23.377  27.495  1.00  0.00     0.055 A 
ATOM     92  C   UNL A   1      38.826  24.813  27.054  1.00  0.00     0.041 A 
ATOM     93  F   UNL A   1      38.875  26.991  27.626  1.00  0.00    -0.206 F 
ATOM     94  C   UNL A   1      39.386  23.564  26.963  1.00  0.00     0.022 A 
BRANCH  91  95
ATOM     95  S   UNL A   1      41.517  21.815  27.261  1.00  0.00     0.124 S 
ATOM     96  O   UNL A   1      41.537  21.710  25.804  1.00  0.00    -0.237 OA
ATOM     97  O   UNL A   1      42.806  22.072  27.897  1.00  0.00    -0.237 OA
ATOM     98  O   UNL A   1      40.663  20.849  27.945  1.00  0.00    -0.744 OA
ENDBRANCH  91  95
ENDBRANCH  65  88
ENDBRANCH  39  40
ENDBRANCH  32  34
ENDBRANCH  31  32
ENDBRANCH  30  31
ENDBRANCH  29  30
ENDBRANCH  28  29
ENDBRANCH  27  28
ENDBRANCH  26  27
ENDBRANCH   1  26
TORSDOF 26
ENDMDL
MODEL 2
REMARK VINA RESULT:      -8.9     10.857     19.815
REMARK SMILES Cc1cccc(CC(=O)N2CCCC[C@@H]2C(=O)OCCOCCOCCOCCOC(=O)c2ccc(-c3c4nc(c(-c5cc(S(=O)(=O)[O-])ccc5F)c5ccc([nH]5)c(-c5cc(S(=O)(=O)[O-])ccc5F)c5nc(c(-c6cc(S(=O)(=O)[O-])ccc6F)c6ccc3[nH]6)C=C5)C=C4)cc2)c1
REMARK SMILES IDX 24 1 23 2 22 3 21 4 20 5 19 6 18 7 16 8 17 9 15 10 10 11
REMARK SMILES IDX 11 12 12 13 14 14 13 15 8 16 9 17 7 18 6 19 1 20 2 21 3 22
REMARK SMILES IDX 96 23 4 24 5 25 25 26 26 27 27 28 28 29 29 30 30 31 31 32
REMARK SMILES IDX 32 33 33 34 34 35 95 36 35 37 94 38 36 39 37 40 38 41 88 42
REMARK SMILES IDX 39 43 93 44 87 45 89 46 40 47 92 48 86 49 85 50 41 52 73 53
REMARK SMILES IDX 53 54 72 55 54 56 57 57 71 58 90 59 55 60 56 61 70 63 91 64
REMARK SMILES IDX 58 65 42 66 43 67 51 68 44 69 50 70 52 71 49 72 45 73 46 74
REMARK SMILES IDX 47 75 48 76 74 77 75 78 83 79 76 80 82 81 84 82 81 83 77 84
REMARK SMILES IDX 78 85 79 86 80 87 59 88 60 89 68 90 61 91 67 92 69 93 66 94
REMARK SMILES IDX 62 95 63 96 64 97 65 98
REMARK H PARENT 89 51 57 62
REMARK Flexibility Score: inf
ROOT
ATOM      1  O   UNL A   1      36.085  31.268  28.666  1.00  0.00    -0.377 OA
ENDROOT
BRANCH   1   2
ATOM      2  C   UNL A   1      34.899  31.814  28.113  1.00  0.00     0.188 C 
BRANCH   2   3
ATOM      3  C   UNL A   1      33.965  30.812  27.399  1.00  0.00     0.188 C 
BRANCH   3   4
ATOM      4  O   UNL A   1      34.516  29.638  26.831  1.00  0.00    -0.376 OA
BRANCH   4   5
ATOM      5  C   UNL A   1      33.849  28.450  27.171  1.00  0.00     0.202 C 
BRANCH   5   6
ATOM      6  C   UNL A   1      32.442  28.472  27.726  1.00  0.00     0.261 C 
BRANCH   6   7
ATOM      7  O   UNL A   1      31.266  27.855  27.231  1.00  0.00    -0.462 OA
BRANCH   7   8
ATOM      8  C   UNL A   1      31.394  26.753  26.440  1.00  0.00     0.328 C 
ATOM      9  O   UNL A   1      31.622  25.632  26.835  1.00  0.00    -0.250 OA
BRANCH   8  10
ATOM     10  C   UNL A   1      31.076  27.105  24.970  1.00  0.00     0.195 C 
ATOM     11  N   UNL A   1      31.576  26.358  23.792  1.00  0.00    -0.329 N 
ATOM     12  C   UNL A   1      30.963  26.738  22.526  1.00  0.00     0.120 C 
ATOM     13  C   UNL A   1      30.896  28.251  22.298  1.00  0.00     0.022 C 
ATOM     14  C   UNL A   1      31.108  28.622  24.739  1.00  0.00     0.037 C 
ATOM     15  C   UNL A   1      30.304  28.969  23.501  1.00  0.00     0.005 C 
BRANCH  11  16
ATOM     16  C   UNL A   1      32.901  25.953  23.681  1.00  0.00     0.227 C 
ATOM     17  O   UNL A   1      33.822  26.589  24.196  1.00  0.00    -0.275 OA
BRANCH  16  18
ATOM     18  C   UNL A   1      33.135  24.851  22.640  1.00  0.00     0.135 C 
BRANCH  18  19
ATOM     19  C   UNL A   1      33.252  23.503  23.256  1.00  0.00    -0.038 A 
ATOM     20  C   UNL A   1      35.438  21.061  25.289  1.00  0.00     0.044 C 
ATOM     21  C   UNL A   1      34.296  21.716  24.575  1.00  0.00    -0.051 A 
ATOM     22  C   UNL A   1      33.357  20.860  24.060  1.00  0.00     0.003 A 
ATOM     23  C   UNL A   1      34.207  23.069  24.205  1.00  0.00     0.007 A 
ATOM     24  C   UNL A   1      32.309  21.357  23.320  1.00  0.00     0.001 A 
ATOM     25  C   UNL A   1      32.295  22.627  22.823  1.00  0.00     0.004 A 
ENDBRANCH  18  19
ENDBRANCH  16  18
ENDBRANCH  11  16
ENDBRANCH   8  10
ENDBRANCH   7   8
ENDBRANCH   6   7
ENDBRANCH   5   6
ENDBRANCH   4   5
ENDBRANCH   3   4
ENDBRANCH   2   3
ENDBRANCH   1   2
BRANCH   1  26
ATOM     26  C   UNL A   1      36.924  32.213  29.319  1.00  0.00     0.188 C 
BRANCH  26  27
ATOM     27  C   UNL A   1      36.385  32.552  30.697  1.00  0.00     0.188 C 
BRANCH  27  28
ATOM     28  O   UNL A   1      37.004  31.873  31.783  1.00  0.00    -0.376 OA
BRANCH  28  29
ATOM     29  C   UNL A   1      36.545  32.006  33.111  1.00  0.00     0.202 C 
BRANCH  29  30
ATOM     30  C   UNL A   1      37.598  31.609  34.129  1.00  0.00     0.261 C 
BRANCH  30  31
ATOM     31  O   UNL A   1      37.254  32.261  35.371  1.00  0.00    -0.460 OA
BRANCH  31  32
ATOM     32  C   UNL A   1      38.152  32.076  36.378  1.00  0.00     0.338 C 
ATOM     33  O   UNL A   1      38.061  31.195  37.215  1.00  0.00    -0.246 OA
BRANCH  32  34
ATOM     34  C   UNL A   1      39.175  33.178  36.421  1.00  0.00     0.060 A 
ATOM     35  C   UNL A   1      40.406  32.943  37.056  1.00  0.00     0.016 A 
ATOM     36  C   UNL A   1      38.839  34.492  36.099  1.00  0.00     0.016 A 
ATOM     37  C   UNL A   1      41.218  34.016  37.487  1.00  0.00     0.010 A 
ATOM     38  C   UNL A   1      39.609  35.550  36.600  1.00  0.00     0.010 A 
ATOM     39  C   UNL A   1      40.792  35.346  37.337  1.00  0.00    -0.014 A 
BRANCH  39  40
ATOM     40  C   UNL A   1      41.324  36.504  38.154  1.00  0.00     0.031 A 
ATOM     41  C   UNL A   1      40.644  36.880  39.542  1.00  0.00     0.074 A 
ATOM     42  C   UNL A   1      42.590  36.854  37.757  1.00  0.00     0.049 A 
ATOM     43  N   UNL A   1      40.770  37.955  40.293  1.00  0.00    -0.248 NA
ATOM     44  C   UNL A   1      39.602  36.018  40.131  1.00  0.00     0.031 C 
ATOM     45  C   UNL A   1      43.767  37.017  38.562  1.00  0.00     0.029 A 
ATOM     46  N   UNL A   1      43.183  36.994  36.496  1.00  0.00    -0.354 N 
ATOM     47  C   UNL A   1      40.225  37.692  41.592  1.00  0.00     0.074 A 
ATOM     48  C   UNL A   1      39.376  36.554  41.339  1.00  0.00     0.031 C 
ATOM     49  C   UNL A   1      44.843  37.491  37.946  1.00  0.00     0.029 A 
ATOM     50  C   UNL A   1      44.384  37.759  36.649  1.00  0.00     0.049 A 
ATOM     51  H   UNL A   1      42.836  36.628  35.651  1.00  0.00     0.167 HD
ATOM     52  C   UNL A   1      40.700  38.252  42.788  1.00  0.00     0.034 A 
ATOM     53  C   UNL A   1      44.568  38.984  36.113  1.00  0.00     0.034 A 
ATOM     54  C   UNL A   1      41.712  39.336  42.587  1.00  0.00     0.049 A 
ATOM     55  C   UNL A   1      44.297  40.152  37.127  1.00  0.00     0.074 A 
ATOM     56  C   UNL A   1      42.913  39.655  43.229  1.00  0.00     0.029 A 
ATOM     57  N   UNL A   1      41.720  40.116  41.424  1.00  0.00    -0.354 N 
ATOM     58  N   UNL A   1      43.827  40.060  38.373  1.00  0.00    -0.248 NA
ATOM     59  C   UNL A   1      44.625  41.539  36.796  1.00  0.00     0.031 C 
ATOM     60  C   UNL A   1      43.679  40.506  42.391  1.00  0.00     0.029 A 
ATOM     61  C   UNL A   1      42.956  40.713  41.225  1.00  0.00     0.049 A 
ATOM     62  H   UNL A   1      40.947  40.226  40.825  1.00  0.00     0.167 HD
ATOM     63  C   UNL A   1      43.711  41.335  38.950  1.00  0.00     0.074 A 
ATOM     64  C   UNL A   1      44.296  42.193  37.925  1.00  0.00     0.031 C 
ATOM     65  C   UNL A   1      43.160  41.689  40.181  1.00  0.00     0.034 A 
BRANCH  52  66
ATOM     66  C   UNL A   1      40.590  37.615  44.274  1.00  0.00     0.023 A 
ATOM     67  C   UNL A   1      39.940  38.344  45.324  1.00  0.00     0.031 A 
ATOM     68  C   UNL A   1      41.215  36.448  44.765  1.00  0.00     0.131 A 
ATOM     69  C   UNL A   1      40.094  38.058  46.708  1.00  0.00     0.055 A 
ATOM     70  C   UNL A   1      41.257  36.084  46.138  1.00  0.00     0.041 A 
ATOM     71  F   UNL A   1      41.843  35.580  43.969  1.00  0.00    -0.206 F 
ATOM     72  C   UNL A   1      40.733  36.905  47.122  1.00  0.00     0.022 A 
BRANCH  69  73
ATOM     73  S   UNL A   1      39.516  39.230  47.991  1.00  0.00     0.124 S 
ATOM     74  O   UNL A   1      39.028  40.348  47.189  1.00  0.00    -0.237 OA
ATOM     75  O   UNL A   1      38.506  38.467  48.714  1.00  0.00    -0.237 OA
ATOM     76  O   UNL A   1      40.731  39.513  48.756  1.00  0.00    -0.744 OA
ENDBRANCH  69  73
ENDBRANCH  52  66
BRANCH  53  77
ATOM     77  C   UNL A   1      44.527  38.734  34.615  1.00  0.00     0.023 A 
ATOM     78  C   UNL A   1      43.454  39.434  33.945  1.00  0.00     0.031 A 
ATOM     79  C   UNL A   1      45.772  38.737  33.962  1.00  0.00     0.131 A 
ATOM     80  C   UNL A   1      43.736  40.359  32.910  1.00  0.00     0.055 A 
ATOM     81  C   UNL A   1      46.036  39.646  32.918  1.00  0.00     0.041 A 
ATOM     82  F   UNL A   1      46.818  38.105  34.515  1.00  0.00    -0.206 F 
ATOM     83  C   UNL A   1      45.041  40.504  32.439  1.00  0.00     0.022 A 
BRANCH  80  84
ATOM     84  S   UNL A   1      42.493  41.619  32.409  1.00  0.00     0.124 S 
ATOM     85  O   UNL A   1      43.328  42.678  31.856  1.00  0.00    -0.237 OA
ATOM     86  O   UNL A   1      41.655  40.905  31.451  1.00  0.00    -0.237 OA
ATOM     87  O   UNL A   1      41.817  41.943  33.667  1.00  0.00    -0.744 OA
ENDBRANCH  80  84
ENDBRANCH  53  77
BRANCH  65  88
ATOM     88  C   UNL A   1      42.743  43.088  40.678  1.00  0.00     0.023 A 
ATOM     89  C   UNL A   1      41.449  43.369  41.084  1.00  0.00     0.031 A 
ATOM     90  C   UNL A   1      43.682  44.156  40.911  1.00  0.00     0.131 A 
ATOM     91  C   UNL A   1      41.112  44.635  41.595  1.00  0.00     0.055 A 
ATOM     92  C   UNL A   1      43.362  45.374  41.501  1.00  0.00     0.041 A 
ATOM     93  F   UNL A   1      44.987  44.086  40.620  1.00  0.00    -0.206 F 
ATOM     94  C   UNL A   1      42.056  45.628  41.840  1.00  0.00     0.022 A 
BRANCH  91  95
ATOM     95  S   UNL A   1      39.364  44.964  41.857  1.00  0.00     0.124 S 
ATOM     96  O   UNL A   1      39.377  46.400  42.125  1.00  0.00    -0.237 OA
ATOM     97  O   UNL A   1      38.779  44.560  40.583  1.00  0.00    -0.237 OA
ATOM     98  O   UNL A   1      39.024  44.119  42.999  1.00  0.00    -0.744 OA
ENDBRANCH  91  95
ENDBRANCH  65  88
ENDBRANCH  39  40
ENDBRANCH  32  34
ENDBRANCH  31  32
ENDBRANCH  30  31
ENDBRANCH  29  30
ENDBRANCH  28  29
ENDBRANCH  27  28
ENDBRANCH  26  27
ENDBRANCH   1  26
TORSDOF 26
ENDMDL
MODEL 3
REMARK VINA RESULT:      -8.9      1.399      2.536
REMARK SMILES Cc1cccc(CC(=O)N2CCCC[C@@H]2C(=O)OCCOCCOCCOCCOC(=O)c2ccc(-c3c4nc(c(-c5cc(S(=O)(=O)[O-])ccc5F)c5ccc([nH]5)c(-c5cc(S(=O)(=O)[O-])ccc5F)c5nc(c(-c6cc(S(=O)(=O)[O-])ccc6F)c6ccc3[nH]6)C=C5)C=C4)cc2)c1
REMARK SMILES IDX 24 1 23 2 22 3 21 4 20 5 19 6 18 7 16 8 17 9 15 10 10 11
REMARK SMILES IDX 11 12 12 13 14 14 13 15 8 16 9 17 7 18 6 19 1 20 2 21 3 22
REMARK SMILES IDX 96 23 4 24 5 25 25 26 26 27 27 28 28 29 29 30 30 31 31 32
REMARK SMILES IDX 32 33 33 34 34 35 95 36 35 37 94 38 36 39 37 40 38 41 88 42
REMARK SMILES IDX 39 43 93 44 87 45 89 46 40 47 92 48 86 49 85 50 41 52 73 53
REMARK SMILES IDX 53 54 72 55 54 56 57 57 71 58 90 59 55 60 56 61 70 63 91 64
REMARK SMILES IDX 58 65 42 66 43 67 51 68 44 69 50 70 52 71 49 72 45 73 46 74
REMARK SMILES IDX 47 75 48 76 74 77 75 78 83 79 76 80 82 81 84 82 81 83 77 84
REMARK SMILES IDX 78 85 79 86 80 87 59 88 60 89 68 90 61 91 67 92 69 93 66 94
REMARK SMILES IDX 62 95 63 96 64 97 65 98
REMARK H PARENT 89 51 57 62
REMARK Flexibility Score: inf
ROOT
ATOM      1  O   UNL A   1      43.897  42.277  25.929  1.00  0.00    -0.377 OA
ENDROOT
BRANCH   1   2
ATOM      2  C   UNL A   1      44.686  43.104  25.090  1.00  0.00     0.188 C 
BRANCH   2   3
ATOM      3  C   UNL A   1      46.173  42.707  24.957  1.00  0.00     0.188 C 
BRANCH   3   4
ATOM      4  O   UNL A   1      47.080  43.074  25.982  1.00  0.00    -0.376 OA
BRANCH   4   5
ATOM      5  C   UNL A   1      47.972  44.103  25.638  1.00  0.00     0.202 C 
BRANCH   5   6
ATOM      6  C   UNL A   1      47.624  45.118  24.572  1.00  0.00     0.261 C 
BRANCH   6   7
ATOM      7  O   UNL A   1      47.788  45.043  23.166  1.00  0.00    -0.462 OA
BRANCH   7   8
ATOM      8  C   UNL A   1      46.763  45.455  22.369  1.00  0.00     0.328 C 
ATOM      9  O   UNL A   1      45.663  45.780  22.758  1.00  0.00    -0.250 OA
BRANCH   8  10
ATOM     10  C   UNL A   1      47.234  45.578  20.904  1.00  0.00     0.195 C 
ATOM     11  N   UNL A   1      46.370  45.385  19.717  1.00  0.00    -0.329 N 
ATOM     12  C   UNL A   1      46.979  45.772  18.451  1.00  0.00     0.120 C 
ATOM     13  C   UNL A   1      48.401  45.237  18.256  1.00  0.00     0.022 C 
ATOM     14  C   UNL A   1      48.620  44.949  20.708  1.00  0.00     0.037 C 
ATOM     15  C   UNL A   1      49.274  45.526  19.467  1.00  0.00     0.005 C 
BRANCH  11  16
ATOM     16  C   UNL A   1      45.479  44.322  19.614  1.00  0.00     0.227 C 
ATOM     17  O   UNL A   1      45.828  43.218  19.196  1.00  0.00    -0.275 OA
BRANCH  16  18
ATOM     18  C   UNL A   1      44.006  44.721  19.774  1.00  0.00     0.135 C 
BRANCH  18  19
ATOM     19  C   UNL A   1      43.413  45.224  18.507  1.00  0.00    -0.038 A 
ATOM     20  C   UNL A   1      41.884  48.222  16.625  1.00  0.00     0.044 C 
ATOM     21  C   UNL A   1      42.473  46.890  16.970  1.00  0.00    -0.051 A 
ATOM     22  C   UNL A   1      42.082  45.850  16.166  1.00  0.00     0.003 A 
ATOM     23  C   UNL A   1      43.195  46.570  18.132  1.00  0.00     0.007 A 
ATOM     24  C   UNL A   1      42.506  44.571  16.445  1.00  0.00     0.001 A 
ATOM     25  C   UNL A   1      43.065  44.225  17.640  1.00  0.00     0.004 A 
ENDBRANCH  18  19
ENDBRANCH  16  18
ENDBRANCH  11  16
ENDBRANCH   8  10
ENDBRANCH   7   8
ENDBRANCH   6   7
ENDBRANCH   5   6
ENDBRANCH   4   5
ENDBRANCH   3   4
ENDBRANCH   2   3
ENDBRANCH   1   2
BRANCH   1  26
ATOM     26  C   UNL A   1      42.906  41.516  25.248  1.00  0.00     0.188 C 
BRANCH  26  27
ATOM     27  C   UNL A   1      41.902  40.936  26.227  1.00  0.00     0.188 C 
BRANCH  27  28
ATOM     28  O   UNL A   1      42.336  40.861  27.580  1.00  0.00    -0.376 OA
BRANCH  28  29
ATOM     29  C   UNL A   1      41.793  39.932  28.493  1.00  0.00     0.202 C 
BRANCH  29  30
ATOM     30  C   UNL A   1      42.527  38.604  28.472  1.00  0.00     0.261 C 
BRANCH  30  31
ATOM     31  O   UNL A   1      43.653  38.728  29.369  1.00  0.00    -0.460 OA
BRANCH  31  32
ATOM     32  C   UNL A   1      43.790  37.702  30.254  1.00  0.00     0.338 C 
ATOM     33  O   UNL A   1      43.804  37.846  31.463  1.00  0.00    -0.246 OA
BRANCH  32  34
ATOM     34  C   UNL A   1      44.075  36.400  29.555  1.00  0.00     0.060 A 
ATOM     35  C   UNL A   1      43.170  35.931  28.589  1.00  0.00     0.016 A 
ATOM     36  C   UNL A   1      45.050  35.522  30.027  1.00  0.00     0.016 A 
ATOM     37  C   UNL A   1      43.153  34.571  28.208  1.00  0.00     0.010 A 
ATOM     38  C   UNL A   1      44.974  34.160  29.706  1.00  0.00     0.010 A 
ATOM     39  C   UNL A   1      44.007  33.641  28.824  1.00  0.00    -0.014 A 
BRANCH  39  40
ATOM     40  C   UNL A   1      43.759  32.147  28.847  1.00  0.00     0.031 A 
ATOM     41  C   UNL A   1      44.418  31.212  27.743  1.00  0.00     0.074 A 
ATOM     42  C   UNL A   1      43.286  31.740  30.069  1.00  0.00     0.049 A 
ATOM     43  N   UNL A   1      44.168  29.959  27.422  1.00  0.00    -0.248 NA
ATOM     44  C   UNL A   1      45.404  31.751  26.786  1.00  0.00     0.031 C 
ATOM     45  C   UNL A   1      43.775  30.686  30.912  1.00  0.00     0.029 A 
ATOM     46  N   UNL A   1      42.338  32.281  30.947  1.00  0.00    -0.354 N 
ATOM     47  C   UNL A   1      45.233  29.457  26.605  1.00  0.00     0.074 A 
ATOM     48  C   UNL A   1      45.842  30.672  26.123  1.00  0.00     0.031 C 
ATOM     49  C   UNL A   1      43.053  30.409  31.990  1.00  0.00     0.029 A 
ATOM     50  C   UNL A   1      41.943  31.256  31.866  1.00  0.00     0.049 A 
ATOM     51  H   UNL A   1      42.003  33.206  30.936  1.00  0.00     0.167 HD
ATOM     52  C   UNL A   1      45.676  28.126  26.596  1.00  0.00     0.034 A 
ATOM     53  C   UNL A   1      40.697  30.742  31.927  1.00  0.00     0.034 A 
ATOM     54  C   UNL A   1      44.798  27.192  27.369  1.00  0.00     0.049 A 
ATOM     55  C   UNL A   1      40.544  29.391  31.142  1.00  0.00     0.074 A 
ATOM     56  C   UNL A   1      45.063  26.135  28.247  1.00  0.00     0.029 A 
ATOM     57  N   UNL A   1      43.432  27.450  27.536  1.00  0.00    -0.354 N 
ATOM     58  N   UNL A   1      41.453  28.784  30.374  1.00  0.00    -0.248 NA
ATOM     59  C   UNL A   1      39.330  28.582  31.247  1.00  0.00     0.031 C 
ATOM     60  C   UNL A   1      43.902  25.866  29.017  1.00  0.00     0.029 A 
ATOM     61  C   UNL A   1      42.916  26.758  28.622  1.00  0.00     0.049 A 
ATOM     62  H   UNL A   1      42.906  28.045  26.956  1.00  0.00     0.167 HD
ATOM     63  C   UNL A   1      40.927  27.600  29.832  1.00  0.00     0.074 A 
ATOM     64  C   UNL A   1      39.624  27.514  30.484  1.00  0.00     0.031 C 
ATOM     65  C   UNL A   1      41.499  26.739  28.897  1.00  0.00     0.034 A 
BRANCH  52  66
ATOM     66  C   UNL A   1      47.158  27.594  26.213  1.00  0.00     0.023 A 
ATOM     67  C   UNL A   1      47.649  27.730  24.873  1.00  0.00     0.031 A 
ATOM     68  C   UNL A   1      48.034  26.823  27.009  1.00  0.00     0.131 A 
ATOM     69  C   UNL A   1      48.751  27.002  24.348  1.00  0.00     0.055 A 
ATOM     70  C   UNL A   1      49.215  26.201  26.521  1.00  0.00     0.041 A 
ATOM     71  F   UNL A   1      47.817  26.598  28.307  1.00  0.00    -0.206 F 
ATOM     72  C   UNL A   1      49.560  26.252  25.181  1.00  0.00     0.022 A 
BRANCH  69  73
ATOM     73  S   UNL A   1      49.103  26.973  22.552  1.00  0.00     0.124 S 
ATOM     74  O   UNL A   1      48.500  25.707  22.142  1.00  0.00    -0.237 OA
ATOM     75  O   UNL A   1      48.455  28.183  22.062  1.00  0.00    -0.237 OA
ATOM     76  O   UNL A   1      50.565  26.998  22.497  1.00  0.00    -0.744 OA
ENDBRANCH  69  73
ENDBRANCH  52  66
BRANCH  53  77
ATOM     77  C   UNL A   1      39.840  31.918  32.361  1.00  0.00     0.023 A 
ATOM     78  C   UNL A   1      38.769  32.219  31.438  1.00  0.00     0.031 A 
ATOM     79  C   UNL A   1      39.513  31.964  33.727  1.00  0.00     0.131 A 
ATOM     80  C   UNL A   1      37.420  32.189  31.869  1.00  0.00     0.055 A 
ATOM     81  C   UNL A   1      38.167  31.957  34.147  1.00  0.00     0.041 A 
ATOM     82  F   UNL A   1      40.452  31.702  34.649  1.00  0.00    -0.206 F 
ATOM     83  C   UNL A   1      37.121  31.998  33.219  1.00  0.00     0.022 A 
BRANCH  80  84
ATOM     84  S   UNL A   1      36.046  32.049  30.654  1.00  0.00     0.124 S 
ATOM     85  O   UNL A   1      36.329  30.773  30.008  1.00  0.00    -0.237 OA
ATOM     86  O   UNL A   1      34.850  32.087  31.490  1.00  0.00    -0.237 OA
ATOM     87  O   UNL A   1      36.221  33.234  29.812  1.00  0.00    -0.744 OA
ENDBRANCH  80  84
ENDBRANCH  53  77
BRANCH  65  88
ATOM     88  C   UNL A   1      40.817  25.631  28.071  1.00  0.00     0.023 A 
ATOM     89  C   UNL A   1      41.401  24.390  27.881  1.00  0.00     0.031 A 
ATOM     90  C   UNL A   1      39.469  25.734  27.572  1.00  0.00     0.131 A 
ATOM     91  C   UNL A   1      40.728  23.375  27.177  1.00  0.00     0.055 A 
ATOM     92  C   UNL A   1      38.773  24.697  26.958  1.00  0.00     0.041 A 
ATOM     93  F   UNL A   1      38.711  26.832  27.675  1.00  0.00    -0.206 F 
ATOM     94  C   UNL A   1      39.410  23.501  26.744  1.00  0.00     0.022 A 
BRANCH  91  95
ATOM     95  S   UNL A   1      41.673  21.899  26.780  1.00  0.00     0.124 S 
ATOM     96  O   UNL A   1      40.633  21.022  26.247  1.00  0.00    -0.237 OA
ATOM     97  O   UNL A   1      42.639  22.403  25.808  1.00  0.00    -0.237 OA
ATOM     98  O   UNL A   1      42.233  21.493  28.066  1.00  0.00    -0.744 OA
ENDBRANCH  91  95
ENDBRANCH  65  88
ENDBRANCH  39  40
ENDBRANCH  32  34
ENDBRANCH  31  32
ENDBRANCH  30  31
ENDBRANCH  29  30
ENDBRANCH  28  29
ENDBRANCH  27  28
ENDBRANCH  26  27
ENDBRANCH   1  26
TORSDOF 26
ENDMDL
