MODEL 1
REMARK VINA RESULT:     -10.6      0.000      0.000
REMARK SMILES Cc1cc(C(=O)N[C@H]2C=C[C@H](C(=O)OCCOCCOCCOCCOC(=O)c3ccc(-c4c5nc(c(-c6cc(S(=O)(=O)[O-])ccc6F)c6ccc([nH]6)c(-c6cc(S(=O)(=O)[O-])ccc6F)c6nc(c(-c7cc(S(=O)(=O)[O-])ccc7F)c7ccc4[nH]7)C=C6)C=C5)cc3)C2)ccc1F
REMARK SMILES IDX 21 1 20 2 19 3 18 4 17 5 16 6 15 7 14 8 12 9 13 10 11 11
REMARK SMILES IDX 8 12 9 13 92 14 10 15 7 16 5 17 6 18 4 20 1 21 2 22 3 23
REMARK SMILES IDX 95 24 94 25 96 26 93 27 22 28 23 29 24 30 25 31 26 32 27 33
REMARK SMILES IDX 28 34 29 35 30 36 91 37 31 38 90 39 32 40 33 41 34 42 84 43
REMARK SMILES IDX 35 44 89 45 83 46 85 47 36 48 88 49 82 50 81 51 37 53 69 54
REMARK SMILES IDX 49 55 68 56 50 57 53 58 67 59 86 60 51 61 52 62 66 64 87 65
REMARK SMILES IDX 54 66 38 67 39 68 47 69 40 70 46 71 48 72 45 73 41 74 42 75
REMARK SMILES IDX 43 76 44 77 70 78 71 79 79 80 72 81 78 82 80 83 77 84 73 85
REMARK SMILES IDX 74 86 75 87 76 88 55 89 56 90 64 91 57 92 63 93 65 94 62 95
REMARK SMILES IDX 58 96 59 97 60 98 61 99
REMARK H PARENT 7 19 85 52 53 63
REMARK Flexibility Score: inf
ROOT
ATOM      1  C   UNL A   1      43.896  19.330  24.784  1.00  0.00     0.188 C 
ENDROOT
BRANCH   1   2
ATOM      2  O   UNL A   1      42.531  19.130  25.157  1.00  0.00    -0.377 OA
BRANCH   2   3
ATOM      3  C   UNL A   1      42.211  19.134  26.541  1.00  0.00     0.188 C 
BRANCH   3   4
ATOM      4  C   UNL A   1      41.304  20.256  27.085  1.00  0.00     0.188 C 
BRANCH   4   5
ATOM      5  O   UNL A   1      40.814  21.158  26.109  1.00  0.00    -0.376 OA
BRANCH   5   6
ATOM      6  C   UNL A   1      39.530  21.738  26.306  1.00  0.00     0.202 C 
BRANCH   6   7
ATOM      7  C   UNL A   1      38.306  21.311  25.464  1.00  0.00     0.261 C 
BRANCH   7   8
ATOM      8  O   UNL A   1      37.040  21.771  25.953  1.00  0.00    -0.463 OA
BRANCH   8   9
ATOM      9  C   UNL A   1      36.336  22.663  25.222  1.00  0.00     0.312 C 
ATOM     10  O   UNL A   1      36.432  23.879  25.330  1.00  0.00    -0.252 OA
BRANCH   9  11
ATOM     11  C   UNL A   1      35.545  21.935  24.121  1.00  0.00     0.124 C 
ATOM     12  C   UNL A   1      33.341  22.755  24.543  1.00  0.00     0.106 C 
ATOM     13  C   UNL A   1      33.381  21.278  24.772  1.00  0.00    -0.006 C 
ATOM     14  C   UNL A   1      34.500  22.905  23.555  1.00  0.00     0.048 C 
ATOM     15  C   UNL A   1      34.640  20.837  24.611  1.00  0.00    -0.014 C 
BRANCH  12  16
ATOM     16  N   UNL A   1      32.082  23.238  24.064  1.00  0.00    -0.346 N 
ATOM     17  C   UNL A   1      31.562  24.513  24.084  1.00  0.00     0.251 C 
ATOM     18  O   UNL A   1      30.386  24.635  23.730  1.00  0.00    -0.269 OA
ATOM     19  H   UNL A   1      31.500  22.555  23.660  1.00  0.00     0.164 HD
BRANCH  17  20
ATOM     20  C   UNL A   1      32.333  25.758  24.442  1.00  0.00     0.040 A 
ATOM     21  C   UNL A   1      34.151  28.803  23.020  1.00  0.00     0.047 C 
ATOM     22  C   UNL A   1      33.597  27.816  24.001  1.00  0.00    -0.015 A 
ATOM     23  C   UNL A   1      32.994  26.623  23.558  1.00  0.00     0.020 A 
ATOM     24  C   UNL A   1      33.588  28.114  25.358  1.00  0.00     0.126 A 
ATOM     25  C   UNL A   1      33.004  27.248  26.269  1.00  0.00     0.040 A 
ATOM     26  F   UNL A   1      34.146  29.249  25.801  1.00  0.00    -0.207 F 
ATOM     27  C   UNL A   1      32.375  26.084  25.812  1.00  0.00     0.017 A 
ENDBRANCH  17  20
ENDBRANCH  12  16
ENDBRANCH   9  11
ENDBRANCH   8   9
ENDBRANCH   7   8
ENDBRANCH   6   7
ENDBRANCH   5   6
ENDBRANCH   4   5
ENDBRANCH   3   4
ENDBRANCH   2   3
ENDBRANCH   1   2
BRANCH   1  28
ATOM     28  C   UNL A   1      44.715  20.502  25.362  1.00  0.00     0.188 C 
BRANCH  28  29
ATOM     29  O   UNL A   1      45.165  21.433  24.379  1.00  0.00    -0.376 OA
BRANCH  29  30
ATOM     30  C   UNL A   1      45.079  22.802  24.750  1.00  0.00     0.202 C 
BRANCH  30  31
ATOM     31  C   UNL A   1      43.691  23.471  24.760  1.00  0.00     0.261 C 
BRANCH  31  32
ATOM     32  O   UNL A   1      43.570  24.624  25.589  1.00  0.00    -0.460 OA
BRANCH  32  33
ATOM     33  C   UNL A   1      42.942  24.358  26.752  1.00  0.00     0.338 C 
ATOM     34  O   UNL A   1      43.454  23.849  27.736  1.00  0.00    -0.246 OA
BRANCH  33  35
ATOM     35  C   UNL A   1      41.486  24.652  26.634  1.00  0.00     0.060 A 
ATOM     36  C   UNL A   1      41.273  25.857  25.939  1.00  0.00     0.016 A 
ATOM     37  C   UNL A   1      40.913  24.452  27.888  1.00  0.00     0.016 A 
ATOM     38  C   UNL A   1      41.072  26.999  26.676  1.00  0.00     0.010 A 
ATOM     39  C   UNL A   1      40.718  25.583  28.639  1.00  0.00     0.010 A 
ATOM     40  C   UNL A   1      40.938  26.836  28.044  1.00  0.00    -0.014 A 
BRANCH  40  41
ATOM     41  C   UNL A   1      41.044  27.951  28.944  1.00  0.00     0.031 A 
ATOM     42  C   UNL A   1      40.058  29.023  28.814  1.00  0.00     0.074 A 
ATOM     43  C   UNL A   1      41.976  27.896  29.917  1.00  0.00     0.049 A 
ATOM     44  N   UNL A   1      40.211  30.207  29.285  1.00  0.00    -0.248 NA
ATOM     45  C   UNL A   1      38.828  28.846  28.045  1.00  0.00     0.031 C 
ATOM     46  C   UNL A   1      41.949  28.619  31.175  1.00  0.00     0.029 A 
ATOM     47  N   UNL A   1      43.229  27.268  29.896  1.00  0.00    -0.354 N 
ATOM     48  C   UNL A   1      38.987  30.828  29.180  1.00  0.00     0.074 A 
ATOM     49  C   UNL A   1      38.210  30.004  28.282  1.00  0.00     0.031 C 
ATOM     50  C   UNL A   1      43.178  28.595  31.713  1.00  0.00     0.029 A 
ATOM     51  C   UNL A   1      44.076  28.035  30.713  1.00  0.00     0.049 A 
ATOM     52  H   UNL A   1      43.470  26.450  29.404  1.00  0.00     0.167 HD
ATOM     53  C   UNL A   1      38.697  31.851  30.029  1.00  0.00     0.034 A 
ATOM     54  C   UNL A   1      45.238  28.620  30.303  1.00  0.00     0.034 A 
ATOM     55  C   UNL A   1      39.858  32.168  30.862  1.00  0.00     0.049 A 
ATOM     56  C   UNL A   1      45.214  30.125  30.479  1.00  0.00     0.074 A 
ATOM     57  C   UNL A   1      40.244  31.722  32.117  1.00  0.00     0.029 A 
ATOM     58  N   UNL A   1      40.991  32.732  30.285  1.00  0.00    -0.354 N 
ATOM     59  N   UNL A   1      44.120  30.811  30.660  1.00  0.00    -0.248 NA
ATOM     60  C   UNL A   1      46.397  30.979  30.426  1.00  0.00     0.031 C 
ATOM     61  C   UNL A   1      41.632  31.966  32.267  1.00  0.00     0.029 A 
ATOM     62  C   UNL A   1      42.091  32.581  31.116  1.00  0.00     0.049 A 
ATOM     63  H   UNL A   1      41.009  33.178  29.408  1.00  0.00     0.167 HD
ATOM     64  C   UNL A   1      44.403  32.150  30.671  1.00  0.00     0.074 A 
ATOM     65  C   UNL A   1      45.850  32.200  30.570  1.00  0.00     0.031 C 
ATOM     66  C   UNL A   1      43.408  33.087  30.723  1.00  0.00     0.034 A 
BRANCH  53  67
ATOM     67  C   UNL A   1      37.271  32.260  30.331  1.00  0.00     0.023 A 
ATOM     68  C   UNL A   1      36.421  32.905  29.405  1.00  0.00     0.031 A 
ATOM     69  C   UNL A   1      36.676  31.923  31.565  1.00  0.00     0.131 A 
ATOM     70  C   UNL A   1      35.045  33.066  29.658  1.00  0.00     0.055 A 
ATOM     71  C   UNL A   1      35.321  32.144  31.842  1.00  0.00     0.041 A 
ATOM     72  F   UNL A   1      37.369  31.321  32.541  1.00  0.00    -0.206 F 
ATOM     73  C   UNL A   1      34.490  32.690  30.877  1.00  0.00     0.022 A 
BRANCH  70  74
ATOM     74  S   UNL A   1      33.914  33.665  28.366  1.00  0.00     0.124 S 
ATOM     75  O   UNL A   1      34.801  34.457  27.514  1.00  0.00    -0.237 OA
ATOM     76  O   UNL A   1      33.430  32.423  27.773  1.00  0.00    -0.237 OA
ATOM     77  O   UNL A   1      32.922  34.443  29.104  1.00  0.00    -0.744 OA
ENDBRANCH  70  74
ENDBRANCH  53  67
BRANCH  54  78
ATOM     78  C   UNL A   1      45.935  27.916  29.197  1.00  0.00     0.023 A 
ATOM     79  C   UNL A   1      45.823  28.369  27.872  1.00  0.00     0.031 A 
ATOM     80  C   UNL A   1      46.377  26.595  29.422  1.00  0.00     0.131 A 
ATOM     81  C   UNL A   1      46.021  27.460  26.820  1.00  0.00     0.055 A 
ATOM     82  C   UNL A   1      46.588  25.702  28.371  1.00  0.00     0.041 A 
ATOM     83  F   UNL A   1      46.512  26.130  30.675  1.00  0.00    -0.206 F 
ATOM     84  C   UNL A   1      46.382  26.129  27.064  1.00  0.00     0.022 A 
BRANCH  81  85
ATOM     85  S   UNL A   1      45.707  27.932  25.098  1.00  0.00     0.124 S 
ATOM     86  O   UNL A   1      44.248  27.909  25.039  1.00  0.00    -0.237 OA
ATOM     87  O   UNL A   1      46.305  29.263  25.014  1.00  0.00    -0.237 OA
ATOM     88  O   UNL A   1      46.380  26.892  24.328  1.00  0.00    -0.744 OA
ENDBRANCH  81  85
ENDBRANCH  54  78
BRANCH  66  89
ATOM     89  C   UNL A   1      43.557  34.575  30.480  1.00  0.00     0.023 A 
ATOM     90  C   UNL A   1      43.503  35.042  29.142  1.00  0.00     0.031 A 
ATOM     91  C   UNL A   1      43.898  35.533  31.447  1.00  0.00     0.131 A 
ATOM     92  C   UNL A   1      43.801  36.370  28.813  1.00  0.00     0.055 A 
ATOM     93  C   UNL A   1      44.105  36.881  31.129  1.00  0.00     0.041 A 
ATOM     94  F   UNL A   1      44.115  35.204  32.727  1.00  0.00    -0.206 F 
ATOM     95  C   UNL A   1      44.075  37.303  29.807  1.00  0.00     0.022 A 
BRANCH  92  96
ATOM     96  S   UNL A   1      44.013  36.864  27.080  1.00  0.00     0.124 S 
ATOM     97  O   UNL A   1      44.871  38.038  27.208  1.00  0.00    -0.237 OA
ATOM     98  O   UNL A   1      44.651  35.685  26.496  1.00  0.00    -0.237 OA
ATOM     99  O   UNL A   1      42.652  37.118  26.624  1.00  0.00    -0.744 OA
ENDBRANCH  92  96
ENDBRANCH  66  89
ENDBRANCH  40  41
ENDBRANCH  33  35
ENDBRANCH  32  33
ENDBRANCH  31  32
ENDBRANCH  30  31
ENDBRANCH  29  30
ENDBRANCH  28  29
ENDBRANCH   1  28
TORSDOF 25
ENDMDL
MODEL 2
REMARK VINA RESULT:     -10.6      2.108      3.186
REMARK SMILES Cc1cc(C(=O)N[C@H]2C=C[C@H](C(=O)OCCOCCOCCOCCOC(=O)c3ccc(-c4c5nc(c(-c6cc(S(=O)(=O)[O-])ccc6F)c6ccc([nH]6)c(-c6cc(S(=O)(=O)[O-])ccc6F)c6nc(c(-c7cc(S(=O)(=O)[O-])ccc7F)c7ccc4[nH]7)C=C6)C=C5)cc3)C2)ccc1F
REMARK SMILES IDX 21 1 20 2 19 3 18 4 17 5 16 6 15 7 14 8 12 9 13 10 11 11
REMARK SMILES IDX 8 12 9 13 92 14 10 15 7 16 5 17 6 18 4 20 1 21 2 22 3 23
REMARK SMILES IDX 95 24 94 25 96 26 93 27 22 28 23 29 24 30 25 31 26 32 27 33
REMARK SMILES IDX 28 34 29 35 30 36 91 37 31 38 90 39 32 40 33 41 34 42 84 43
REMARK SMILES IDX 35 44 89 45 83 46 85 47 36 48 88 49 82 50 81 51 37 53 69 54
REMARK SMILES IDX 49 55 68 56 50 57 53 58 67 59 86 60 51 61 52 62 66 64 87 65
REMARK SMILES IDX 54 66 38 67 39 68 47 69 40 70 46 71 48 72 45 73 41 74 42 75
REMARK SMILES IDX 43 76 44 77 70 78 71 79 79 80 72 81 78 82 80 83 77 84 73 85
REMARK SMILES IDX 74 86 75 87 76 88 55 89 56 90 64 91 57 92 63 93 65 94 62 95
REMARK SMILES IDX 58 96 59 97 60 98 61 99
REMARK H PARENT 7 19 85 52 53 63
REMARK Flexibility Score: inf
ROOT
ATOM      1  C   UNL A   1      44.404  19.096  24.521  1.00  0.00     0.188 C 
ENDROOT
BRANCH   1   2
ATOM      2  O   UNL A   1      43.187  18.498  24.975  1.00  0.00    -0.377 OA
BRANCH   2   3
ATOM      3  C   UNL A   1      43.024  18.298  26.372  1.00  0.00     0.188 C 
BRANCH   3   4
ATOM      4  C   UNL A   1      42.033  19.200  27.135  1.00  0.00     0.188 C 
BRANCH   4   5
ATOM      5  O   UNL A   1      41.232  20.036  26.320  1.00  0.00    -0.376 OA
BRANCH   5   6
ATOM      6  C   UNL A   1      40.717  21.238  26.882  1.00  0.00     0.202 C 
BRANCH   6   7
ATOM      7  C   UNL A   1      39.353  21.820  26.447  1.00  0.00     0.261 C 
BRANCH   7   8
ATOM      8  O   UNL A   1      38.722  21.141  25.353  1.00  0.00    -0.463 OA
BRANCH   8   9
ATOM      9  C   UNL A   1      37.471  21.498  24.989  1.00  0.00     0.312 C 
ATOM     10  O   UNL A   1      36.806  20.925  24.136  1.00  0.00    -0.252 OA
BRANCH   9  11
ATOM     11  C   UNL A   1      36.944  22.600  25.926  1.00  0.00     0.124 C 
ATOM     12  C   UNL A   1      34.653  22.695  25.252  1.00  0.00     0.106 C 
ATOM     13  C   UNL A   1      35.324  23.996  24.944  1.00  0.00    -0.006 C 
ATOM     14  C   UNL A   1      35.540  22.201  26.398  1.00  0.00     0.048 C 
ATOM     15  C   UNL A   1      36.629  23.908  25.252  1.00  0.00    -0.014 C 
BRANCH  12  16
ATOM     16  N   UNL A   1      33.266  22.817  25.580  1.00  0.00    -0.346 N 
ATOM     17  C   UNL A   1      32.224  21.951  25.333  1.00  0.00     0.251 C 
ATOM     18  O   UNL A   1      31.091  22.361  25.597  1.00  0.00    -0.269 OA
ATOM     19  H   UNL A   1      33.020  23.643  26.053  1.00  0.00     0.164 HD
BRANCH  17  20
ATOM     20  C   UNL A   1      32.371  20.538  24.827  1.00  0.00     0.040 A 
ATOM     21  C   UNL A   1      32.404  18.348  21.696  1.00  0.00     0.047 C 
ATOM     22  C   UNL A   1      32.450  18.761  23.135  1.00  0.00    -0.015 A 
ATOM     23  C   UNL A   1      32.184  20.092  23.511  1.00  0.00     0.020 A 
ATOM     24  C   UNL A   1      32.851  17.852  24.107  1.00  0.00     0.126 A 
ATOM     25  C   UNL A   1      32.979  18.242  25.431  1.00  0.00     0.040 A 
ATOM     26  F   UNL A   1      33.120  16.583  23.771  1.00  0.00    -0.207 F 
ATOM     27  C   UNL A   1      32.748  19.577  25.784  1.00  0.00     0.017 A 
ENDBRANCH  17  20
ENDBRANCH  12  16
ENDBRANCH   9  11
ENDBRANCH   8   9
ENDBRANCH   7   8
ENDBRANCH   6   7
ENDBRANCH   5   6
ENDBRANCH   4   5
ENDBRANCH   3   4
ENDBRANCH   2   3
ENDBRANCH   1   2
BRANCH   1  28
ATOM     28  C   UNL A   1      44.792  20.528  24.942  1.00  0.00     0.188 C 
BRANCH  28  29
ATOM     29  O   UNL A   1      44.540  21.513  23.941  1.00  0.00    -0.376 OA
BRANCH  29  30
ATOM     30  C   UNL A   1      44.368  22.840  24.419  1.00  0.00     0.202 C 
BRANCH  30  31
ATOM     31  C   UNL A   1      43.032  23.208  25.092  1.00  0.00     0.261 C 
BRANCH  31  32
ATOM     32  O   UNL A   1      42.966  24.516  25.653  1.00  0.00    -0.460 OA
BRANCH  32  33
ATOM     33  C   UNL A   1      42.231  24.554  26.784  1.00  0.00     0.338 C 
ATOM     34  O   UNL A   1      42.576  24.120  27.870  1.00  0.00    -0.246 OA
BRANCH  33  35
ATOM     35  C   UNL A   1      40.869  25.088  26.499  1.00  0.00     0.060 A 
ATOM     36  C   UNL A   1      40.946  26.317  25.816  1.00  0.00     0.016 A 
ATOM     37  C   UNL A   1      40.121  24.978  27.669  1.00  0.00     0.016 A 
ATOM     38  C   UNL A   1      40.846  27.471  26.554  1.00  0.00     0.010 A 
ATOM     39  C   UNL A   1      40.024  26.122  28.421  1.00  0.00     0.010 A 
ATOM     40  C   UNL A   1      40.520  27.324  27.891  1.00  0.00    -0.014 A 
BRANCH  40  41
ATOM     41  C   UNL A   1      40.696  28.399  28.827  1.00  0.00     0.031 A 
ATOM     42  C   UNL A   1      39.710  29.479  28.813  1.00  0.00     0.074 A 
ATOM     43  C   UNL A   1      41.695  28.301  29.728  1.00  0.00     0.049 A 
ATOM     44  N   UNL A   1      39.904  30.642  29.321  1.00  0.00    -0.248 NA
ATOM     45  C   UNL A   1      38.428  29.339  28.127  1.00  0.00     0.031 C 
ATOM     46  C   UNL A   1      41.762  28.969  31.014  1.00  0.00     0.029 A 
ATOM     47  N   UNL A   1      42.940  27.670  29.591  1.00  0.00    -0.354 N 
ATOM     48  C   UNL A   1      38.679  31.270  29.330  1.00  0.00     0.074 A 
ATOM     49  C   UNL A   1      37.835  30.488  28.456  1.00  0.00     0.031 C 
ATOM     50  C   UNL A   1      43.027  28.919  31.461  1.00  0.00     0.029 A 
ATOM     51  C   UNL A   1      43.848  28.399  30.377  1.00  0.00     0.049 A 
ATOM     52  H   UNL A   1      43.139  26.873  29.049  1.00  0.00     0.167 HD
ATOM     53  C   UNL A   1      38.457  32.257  30.240  1.00  0.00     0.034 A 
ATOM     54  C   UNL A   1      44.981  28.997  29.910  1.00  0.00     0.034 A 
ATOM     55  C   UNL A   1      39.676  32.536  31.000  1.00  0.00     0.049 A 
ATOM     56  C   UNL A   1      44.979  30.494  30.150  1.00  0.00     0.074 A 
ATOM     57  C   UNL A   1      40.148  32.035  32.204  1.00  0.00     0.029 A 
ATOM     58  N   UNL A   1      40.769  33.120  30.368  1.00  0.00    -0.354 N 
ATOM     59  N   UNL A   1      43.905  31.174  30.437  1.00  0.00    -0.248 NA
ATOM     60  C   UNL A   1      46.160  31.345  30.048  1.00  0.00     0.031 C 
ATOM     61  C   UNL A   1      41.545  32.268  32.265  1.00  0.00     0.029 A 
ATOM     62  C   UNL A   1      41.924  32.930  31.111  1.00  0.00     0.049 A 
ATOM     63  H   UNL A   1      40.727  33.602  29.511  1.00  0.00     0.167 HD
ATOM     64  C   UNL A   1      44.196  32.511  30.484  1.00  0.00     0.074 A 
ATOM     65  C   UNL A   1      45.632  32.560  30.282  1.00  0.00     0.031 C 
ATOM     66  C   UNL A   1      43.213  33.449  30.646  1.00  0.00     0.034 A 
BRANCH  53  67
ATOM     67  C   UNL A   1      37.059  32.658  30.660  1.00  0.00     0.023 A 
ATOM     68  C   UNL A   1      36.213  33.494  29.897  1.00  0.00     0.031 A 
ATOM     69  C   UNL A   1      36.483  32.123  31.831  1.00  0.00     0.131 A 
ATOM     70  C   UNL A   1      34.853  33.658  30.222  1.00  0.00     0.055 A 
ATOM     71  C   UNL A   1      35.147  32.340  32.190  1.00  0.00     0.041 A 
ATOM     72  F   UNL A   1      37.174  31.326  32.657  1.00  0.00    -0.206 F 
ATOM     73  C   UNL A   1      34.315  33.086  31.370  1.00  0.00     0.022 A 
BRANCH  70  74
ATOM     74  S   UNL A   1      33.715  34.526  29.099  1.00  0.00     0.124 S 
ATOM     75  O   UNL A   1      34.573  35.560  28.520  1.00  0.00    -0.237 OA
ATOM     76  O   UNL A   1      33.312  33.467  28.181  1.00  0.00    -0.237 OA
ATOM     77  O   UNL A   1      32.667  35.029  29.985  1.00  0.00    -0.744 OA
ENDBRANCH  70  74
ENDBRANCH  53  67
BRANCH  54  78
ATOM     78  C   UNL A   1      45.593  28.339  28.728  1.00  0.00     0.023 A 
ATOM     79  C   UNL A   1      46.744  27.545  28.861  1.00  0.00     0.031 A 
ATOM     80  C   UNL A   1      45.253  28.822  27.446  1.00  0.00     0.131 A 
ATOM     81  C   UNL A   1      47.587  27.372  27.752  1.00  0.00     0.055 A 
ATOM     82  C   UNL A   1      46.088  28.632  26.345  1.00  0.00     0.041 A 
ATOM     83  F   UNL A   1      44.152  29.572  27.275  1.00  0.00    -0.206 F 
ATOM     84  C   UNL A   1      47.275  27.927  26.504  1.00  0.00     0.022 A 
BRANCH  81  85
ATOM     85  S   UNL A   1      49.180  26.519  27.906  1.00  0.00     0.124 S 
ATOM     86  O   UNL A   1      49.742  27.142  29.101  1.00  0.00    -0.237 OA
ATOM     87  O   UNL A   1      48.784  25.122  28.068  1.00  0.00    -0.237 OA
ATOM     88  O   UNL A   1      49.862  26.836  26.656  1.00  0.00    -0.744 OA
ENDBRANCH  81  85
ENDBRANCH  54  78
BRANCH  66  89
ATOM     89  C   UNL A   1      43.353  34.944  30.455  1.00  0.00     0.023 A 
ATOM     90  C   UNL A   1      43.307  35.458  29.134  1.00  0.00     0.031 A 
ATOM     91  C   UNL A   1      43.679  35.871  31.458  1.00  0.00     0.131 A 
ATOM     92  C   UNL A   1      43.598  36.798  28.854  1.00  0.00     0.055 A 
ATOM     93  C   UNL A   1      43.880  37.231  31.188  1.00  0.00     0.041 A 
ATOM     94  F   UNL A   1      43.889  35.500  32.728  1.00  0.00    -0.206 F 
ATOM     95  C   UNL A   1      43.857  37.698  29.881  1.00  0.00     0.022 A 
BRANCH  92  96
ATOM     96  S   UNL A   1      43.821  37.353  27.140  1.00  0.00     0.124 S 
ATOM     97  O   UNL A   1      45.104  36.749  26.796  1.00  0.00    -0.237 OA
ATOM     98  O   UNL A   1      42.658  36.771  26.472  1.00  0.00    -0.237 OA
ATOM     99  O   UNL A   1      43.809  38.807  27.244  1.00  0.00    -0.744 OA
ENDBRANCH  92  96
ENDBRANCH  66  89
ENDBRANCH  40  41
ENDBRANCH  33  35
ENDBRANCH  32  33
ENDBRANCH  31  32
ENDBRANCH  30  31
ENDBRANCH  29  30
ENDBRANCH  28  29
ENDBRANCH   1  28
TORSDOF 25
ENDMDL
MODEL 3
REMARK VINA RESULT:     -10.1      3.815      9.859
REMARK SMILES Cc1cc(C(=O)N[C@H]2C=C[C@H](C(=O)OCCOCCOCCOCCOC(=O)c3ccc(-c4c5nc(c(-c6cc(S(=O)(=O)[O-])ccc6F)c6ccc([nH]6)c(-c6cc(S(=O)(=O)[O-])ccc6F)c6nc(c(-c7cc(S(=O)(=O)[O-])ccc7F)c7ccc4[nH]7)C=C6)C=C5)cc3)C2)ccc1F
REMARK SMILES IDX 21 1 20 2 19 3 18 4 17 5 16 6 15 7 14 8 12 9 13 10 11 11
REMARK SMILES IDX 8 12 9 13 92 14 10 15 7 16 5 17 6 18 4 20 1 21 2 22 3 23
REMARK SMILES IDX 95 24 94 25 96 26 93 27 22 28 23 29 24 30 25 31 26 32 27 33
REMARK SMILES IDX 28 34 29 35 30 36 91 37 31 38 90 39 32 40 33 41 34 42 84 43
REMARK SMILES IDX 35 44 89 45 83 46 85 47 36 48 88 49 82 50 81 51 37 53 69 54
REMARK SMILES IDX 49 55 68 56 50 57 53 58 67 59 86 60 51 61 52 62 66 64 87 65
REMARK SMILES IDX 54 66 38 67 39 68 47 69 40 70 46 71 48 72 45 73 41 74 42 75
REMARK SMILES IDX 43 76 44 77 70 78 71 79 79 80 72 81 78 82 80 83 77 84 73 85
REMARK SMILES IDX 74 86 75 87 76 88 55 89 56 90 64 91 57 92 63 93 65 94 62 95
REMARK SMILES IDX 58 96 59 97 60 98 61 99
REMARK H PARENT 7 19 85 52 53 63
REMARK Flexibility Score: inf
ROOT
ATOM      1  C   UNL A   1      31.701  27.224  26.468  1.00  0.00     0.188 C 
ENDROOT
BRANCH   1   2
ATOM      2  O   UNL A   1      31.601  25.809  26.642  1.00  0.00    -0.377 OA
BRANCH   2   3
ATOM      3  C   UNL A   1      30.449  25.154  26.130  1.00  0.00     0.188 C 
BRANCH   3   4
ATOM      4  C   UNL A   1      29.391  25.996  25.387  1.00  0.00     0.188 C 
BRANCH   4   5
ATOM      5  O   UNL A   1      29.466  25.944  23.974  1.00  0.00    -0.376 OA
BRANCH   5   6
ATOM      6  C   UNL A   1      29.989  27.071  23.281  1.00  0.00     0.202 C 
BRANCH   6   7
ATOM      7  C   UNL A   1      31.244  26.965  22.385  1.00  0.00     0.261 C 
BRANCH   7   8
ATOM      8  O   UNL A   1      31.645  25.629  22.054  1.00  0.00    -0.463 OA
BRANCH   8   9
ATOM      9  C   UNL A   1      32.954  25.364  21.855  1.00  0.00     0.312 C 
ATOM     10  O   UNL A   1      33.783  26.189  21.495  1.00  0.00    -0.252 OA
BRANCH   9  11
ATOM     11  C   UNL A   1      33.279  23.934  22.324  1.00  0.00     0.124 C 
ATOM     12  C   UNL A   1      33.772  24.326  24.629  1.00  0.00     0.106 C 
ATOM     13  C   UNL A   1      34.994  23.821  23.931  1.00  0.00    -0.006 C 
ATOM     14  C   UNL A   1      32.685  23.739  23.725  1.00  0.00     0.048 C 
ATOM     15  C   UNL A   1      34.732  23.679  22.621  1.00  0.00    -0.014 C 
BRANCH  12  16
ATOM     16  N   UNL A   1      33.680  23.936  26.002  1.00  0.00    -0.346 N 
ATOM     17  C   UNL A   1      33.793  22.687  26.573  1.00  0.00     0.251 C 
ATOM     18  O   UNL A   1      33.531  22.604  27.776  1.00  0.00    -0.269 OA
ATOM     19  H   UNL A   1      33.511  24.670  26.635  1.00  0.00     0.164 HD
BRANCH  17  20
ATOM     20  C   UNL A   1      34.264  21.446  25.858  1.00  0.00     0.040 A 
ATOM     21  C   UNL A   1      37.342  19.411  24.868  1.00  0.00     0.047 C 
ATOM     22  C   UNL A   1      35.915  19.846  24.998  1.00  0.00    -0.015 A 
ATOM     23  C   UNL A   1      35.590  21.084  25.584  1.00  0.00     0.020 A 
ATOM     24  C   UNL A   1      34.889  18.985  24.625  1.00  0.00     0.126 A 
ATOM     25  C   UNL A   1      33.563  19.340  24.817  1.00  0.00     0.040 A 
ATOM     26  F   UNL A   1      35.175  17.797  24.075  1.00  0.00    -0.207 F 
ATOM     27  C   UNL A   1      33.256  20.557  25.436  1.00  0.00     0.017 A 
ENDBRANCH  17  20
ENDBRANCH  12  16
ENDBRANCH   9  11
ENDBRANCH   8   9
ENDBRANCH   7   8
ENDBRANCH   6   7
ENDBRANCH   5   6
ENDBRANCH   4   5
ENDBRANCH   3   4
ENDBRANCH   2   3
ENDBRANCH   1   2
BRANCH   1  28
ATOM     28  C   UNL A   1      32.981  27.867  25.895  1.00  0.00     0.188 C 
BRANCH  28  29
ATOM     29  O   UNL A   1      32.982  29.292  25.940  1.00  0.00    -0.376 OA
BRANCH  29  30
ATOM     30  C   UNL A   1      32.649  29.864  27.198  1.00  0.00     0.202 C 
BRANCH  30  31
ATOM     31  C   UNL A   1      33.256  31.233  27.562  1.00  0.00     0.261 C 
BRANCH  31  32
ATOM     32  O   UNL A   1      34.635  31.398  27.246  1.00  0.00    -0.460 OA
BRANCH  32  33
ATOM     33  C   UNL A   1      35.445  30.893  28.199  1.00  0.00     0.338 C 
ATOM     34  O   UNL A   1      35.779  29.724  28.300  1.00  0.00    -0.246 OA
BRANCH  33  35
ATOM     35  C   UNL A   1      35.780  31.940  29.204  1.00  0.00     0.060 A 
ATOM     36  C   UNL A   1      36.847  32.741  28.756  1.00  0.00     0.016 A 
ATOM     37  C   UNL A   1      35.838  31.323  30.451  1.00  0.00     0.016 A 
ATOM     38  C   UNL A   1      38.112  32.433  29.195  1.00  0.00     0.010 A 
ATOM     39  C   UNL A   1      37.095  30.999  30.896  1.00  0.00     0.010 A 
ATOM     40  C   UNL A   1      38.207  31.454  30.169  1.00  0.00    -0.014 A 
BRANCH  40  41
ATOM     41  C   UNL A   1      39.461  30.823  30.475  1.00  0.00     0.031 A 
ATOM     42  C   UNL A   1      39.721  29.510  29.886  1.00  0.00     0.074 A 
ATOM     43  C   UNL A   1      40.363  31.518  31.199  1.00  0.00     0.049 A 
ATOM     44  N   UNL A   1      40.604  28.685  30.320  1.00  0.00    -0.248 NA
ATOM     45  C   UNL A   1      38.916  28.990  28.784  1.00  0.00     0.031 C 
ATOM     46  C   UNL A   1      41.799  31.312  31.210  1.00  0.00     0.029 A 
ATOM     47  N   UNL A   1      40.135  32.479  32.194  1.00  0.00    -0.354 N 
ATOM     48  C   UNL A   1      40.713  27.698  29.367  1.00  0.00     0.074 A 
ATOM     49  C   UNL A   1      39.556  27.851  28.516  1.00  0.00     0.031 C 
ATOM     50  C   UNL A   1      42.315  31.927  32.285  1.00  0.00     0.029 A 
ATOM     51  C   UNL A   1      41.197  32.371  33.106  1.00  0.00     0.049 A 
ATOM     52  H   UNL A   1      39.378  33.105  32.245  1.00  0.00     0.167 HD
ATOM     53  C   UNL A   1      41.878  26.999  29.280  1.00  0.00     0.034 A 
ATOM     54  C   UNL A   1      41.062  32.102  34.437  1.00  0.00     0.034 A 
ATOM     55  C   UNL A   1      42.793  27.395  30.351  1.00  0.00     0.049 A 
ATOM     56  C   UNL A   1      41.788  30.835  34.841  1.00  0.00     0.074 A 
ATOM     57  C   UNL A   1      43.797  28.349  30.400  1.00  0.00     0.029 A 
ATOM     58  N   UNL A   1      42.494  27.077  31.671  1.00  0.00    -0.354 N 
ATOM     59  N   UNL A   1      42.188  29.932  33.990  1.00  0.00    -0.248 NA
ATOM     60  C   UNL A   1      42.083  30.460  36.221  1.00  0.00     0.031 C 
ATOM     61  C   UNL A   1      44.058  28.649  31.761  1.00  0.00     0.029 A 
ATOM     62  C   UNL A   1      43.231  27.863  32.544  1.00  0.00     0.049 A 
ATOM     63  H   UNL A   1      41.847  26.388  31.948  1.00  0.00     0.167 HD
ATOM     64  C   UNL A   1      42.707  28.855  34.658  1.00  0.00     0.074 A 
ATOM     65  C   UNL A   1      42.662  29.258  36.052  1.00  0.00     0.031 C 
ATOM     66  C   UNL A   1      43.084  27.720  33.995  1.00  0.00     0.034 A 
BRANCH  53  67
ATOM     67  C   UNL A   1      42.280  26.270  28.015  1.00  0.00     0.023 A 
ATOM     68  C   UNL A   1      42.195  24.870  27.848  1.00  0.00     0.031 A 
ATOM     69  C   UNL A   1      42.687  26.991  26.873  1.00  0.00     0.131 A 
ATOM     70  C   UNL A   1      42.372  24.267  26.588  1.00  0.00     0.055 A 
ATOM     71  C   UNL A   1      42.928  26.383  25.635  1.00  0.00     0.041 A 
ATOM     72  F   UNL A   1      42.825  28.324  26.892  1.00  0.00    -0.206 F 
ATOM     73  C   UNL A   1      42.743  25.019  25.478  1.00  0.00     0.022 A 
BRANCH  70  74
ATOM     74  S   UNL A   1      42.014  22.503  26.330  1.00  0.00     0.124 S 
ATOM     75  O   UNL A   1      40.553  22.466  26.391  1.00  0.00    -0.237 OA
ATOM     76  O   UNL A   1      42.588  22.256  25.012  1.00  0.00    -0.237 OA
ATOM     77  O   UNL A   1      42.687  21.843  27.447  1.00  0.00    -0.744 OA
ENDBRANCH  70  74
ENDBRANCH  53  67
BRANCH  54  78
ATOM     78  C   UNL A   1      39.787  32.567  35.041  1.00  0.00     0.023 A 
ATOM     79  C   UNL A   1      38.598  32.577  34.295  1.00  0.00     0.031 A 
ATOM     80  C   UNL A   1      39.853  33.351  36.213  1.00  0.00     0.131 A 
ATOM     81  C   UNL A   1      37.570  33.461  34.658  1.00  0.00     0.055 A 
ATOM     82  C   UNL A   1      38.821  34.215  36.576  1.00  0.00     0.041 A 
ATOM     83  F   UNL A   1      40.968  33.357  36.962  1.00  0.00    -0.206 F 
ATOM     84  C   UNL A   1      37.684  34.291  35.780  1.00  0.00     0.022 A 
BRANCH  81  85
ATOM     85  S   UNL A   1      36.090  33.657  33.628  1.00  0.00     0.124 S 
ATOM     86  O   UNL A   1      35.308  34.617  34.402  1.00  0.00    -0.237 OA
ATOM     87  O   UNL A   1      36.635  34.174  32.375  1.00  0.00    -0.237 OA
ATOM     88  O   UNL A   1      35.537  32.308  33.562  1.00  0.00    -0.744 OA
ENDBRANCH  81  85
ENDBRANCH  54  78
BRANCH  66  89
ATOM     89  C   UNL A   1      43.419  26.381  34.617  1.00  0.00     0.023 A 
ATOM     90  C   UNL A   1      44.771  25.954  34.598  1.00  0.00     0.031 A 
ATOM     91  C   UNL A   1      42.488  25.438  35.082  1.00  0.00     0.131 A 
ATOM     92  C   UNL A   1      45.141  24.663  34.993  1.00  0.00     0.055 A 
ATOM     93  C   UNL A   1      42.870  24.180  35.563  1.00  0.00     0.041 A 
ATOM     94  F   UNL A   1      41.168  25.658  35.029  1.00  0.00    -0.206 F 
ATOM     95  C   UNL A   1      44.198  23.779  35.505  1.00  0.00     0.022 A 
BRANCH  92  96
ATOM     96  S   UNL A   1      46.821  24.051  34.681  1.00  0.00     0.124 S 
ATOM     97  O   UNL A   1      47.559  24.622  35.803  1.00  0.00    -0.237 OA
ATOM     98  O   UNL A   1      46.637  22.601  34.727  1.00  0.00    -0.237 OA
ATOM     99  O   UNL A   1      47.145  24.589  33.365  1.00  0.00    -0.744 OA
ENDBRANCH  92  96
ENDBRANCH  66  89
ENDBRANCH  40  41
ENDBRANCH  33  35
ENDBRANCH  32  33
ENDBRANCH  31  32
ENDBRANCH  30  31
ENDBRANCH  29  30
ENDBRANCH  28  29
ENDBRANCH   1  28
TORSDOF 25
ENDMDL
