MODEL 1
REMARK VINA RESULT:      -9.2      0.000      0.000
REMARK SMILES O=C(OCCOCCOCCOCCOC(=O)[C@H]1CC2(CC[NH+](S(=O)(=O)N3CCOCC3)CC2)C[NH2+]1)c1ccc(-c2c3nc(c(-c4cc(S(=O)(=O)[O-])ccc4F)c4ccc([nH]4)c(-c4cc(S(=O)(=O)[O-])ccc4F)c4nc(c(-c5cc(S(=O)(=O)[O-])ccc5F)c5ccc2[nH]5)C=C4)C=C3)cc1
REMARK SMILES IDX 8 1 7 2 6 3 5 4 4 5 3 6 2 7 1 8 37 9 38 10 99 11 39 12 98 13
REMARK SMILES IDX 40 14 41 15 42 16 92 17 43 18 97 19 91 20 93 21 44 22 96 23
REMARK SMILES IDX 90 24 89 25 45 27 77 28 57 29 76 30 58 31 61 32 75 33 94 34
REMARK SMILES IDX 59 35 60 36 74 38 95 39 62 40 46 41 47 42 55 43 48 44 54 45
REMARK SMILES IDX 56 46 53 47 49 48 50 49 51 50 52 51 78 52 79 53 87 54 80 55
REMARK SMILES IDX 86 56 88 57 85 58 81 59 82 60 83 61 84 62 63 63 64 64 72 65
REMARK SMILES IDX 65 66 71 67 73 68 70 69 66 70 67 71 68 72 69 73 9 74 10 75
REMARK SMILES IDX 11 76 12 77 13 78 14 79 15 80 16 81 17 82 18 83 19 84 36 85
REMARK SMILES IDX 20 86 35 87 21 90 34 91 22 92 33 93 23 94 24 96 25 97 26 98
REMARK SMILES IDX 27 99 28 100 32 101 29 102 31 103 30 104
REMARK H PARENT 93 26 61 37 36 88 36 89 23 95
REMARK Flexibility Score: inf
ROOT
ATOM      1  C   UNL A   1      34.271  30.734  27.936  1.00  0.00     0.188 C 
ENDROOT
BRANCH   1   2
ATOM      2  C   UNL A   1      34.501  32.218  28.267  1.00  0.00     0.188 C 
BRANCH   2   3
ATOM      3  O   UNL A   1      35.353  32.405  29.394  1.00  0.00    -0.376 OA
BRANCH   3   4
ATOM      4  C   UNL A   1      36.781  32.325  29.284  1.00  0.00     0.202 C 
BRANCH   4   5
ATOM      5  C   UNL A   1      37.597  32.661  30.518  1.00  0.00     0.261 C 
BRANCH   5   6
ATOM      6  O   UNL A   1      37.216  31.989  31.729  1.00  0.00    -0.460 OA
BRANCH   6   7
ATOM      7  C   UNL A   1      37.368  30.705  32.126  1.00  0.00     0.338 C 
ATOM      8  O   UNL A   1      36.355  30.045  32.355  1.00  0.00    -0.246 OA
BRANCH   7   9
ATOM      9  C   UNL A   1      38.687  30.042  32.318  1.00  0.00     0.060 A 
ATOM     10  C   UNL A   1      39.882  30.717  32.498  1.00  0.00     0.016 A 
ATOM     11  C   UNL A   1      38.728  28.651  32.445  1.00  0.00     0.016 A 
ATOM     12  C   UNL A   1      41.092  30.106  32.654  1.00  0.00     0.010 A 
ATOM     13  C   UNL A   1      39.941  27.996  32.699  1.00  0.00     0.010 A 
ATOM     14  C   UNL A   1      41.126  28.737  32.777  1.00  0.00    -0.014 A 
BRANCH  14  15
ATOM     15  C   UNL A   1      42.475  28.180  32.767  1.00  0.00     0.031 A 
ATOM     16  C   UNL A   1      43.076  27.895  34.102  1.00  0.00     0.074 A 
ATOM     17  C   UNL A   1      42.978  27.691  31.617  1.00  0.00     0.049 A 
ATOM     18  N   UNL A   1      44.265  27.459  34.393  1.00  0.00    -0.248 NA
ATOM     19  C   UNL A   1      42.202  28.108  35.273  1.00  0.00     0.031 C 
ATOM     20  C   UNL A   1      42.286  27.694  30.316  1.00  0.00     0.029 A 
ATOM     21  N   UNL A   1      44.151  27.046  31.360  1.00  0.00    -0.354 N 
ATOM     22  C   UNL A   1      44.301  27.395  35.778  1.00  0.00     0.074 A 
ATOM     23  C   UNL A   1      43.018  27.829  36.275  1.00  0.00     0.031 C 
ATOM     24  C   UNL A   1      43.061  27.084  29.406  1.00  0.00     0.029 A 
ATOM     25  C   UNL A   1      44.329  26.742  30.029  1.00  0.00     0.049 A 
ATOM     26  H   UNL A   1      44.808  26.822  32.058  1.00  0.00     0.167 HD
ATOM     27  C   UNL A   1      45.343  27.019  36.549  1.00  0.00     0.034 A 
ATOM     28  C   UNL A   1      45.435  26.303  29.401  1.00  0.00     0.034 A 
ATOM     29  C   UNL A   1      46.596  26.612  35.978  1.00  0.00     0.049 A 
ATOM     30  C   UNL A   1      46.647  26.072  30.272  1.00  0.00     0.074 A 
ATOM     31  C   UNL A   1      47.788  26.327  36.610  1.00  0.00     0.029 A 
ATOM     32  N   UNL A   1      46.810  26.439  34.612  1.00  0.00    -0.354 N 
ATOM     33  N   UNL A   1      46.747  26.154  31.582  1.00  0.00    -0.248 NA
ATOM     34  C   UNL A   1      47.889  25.704  29.591  1.00  0.00     0.031 C 
ATOM     35  C   UNL A   1      48.740  26.054  35.621  1.00  0.00     0.029 A 
ATOM     36  C   UNL A   1      48.121  26.078  34.378  1.00  0.00     0.049 A 
ATOM     37  H   UNL A   1      46.125  26.557  33.914  1.00  0.00     0.167 HD
ATOM     38  C   UNL A   1      48.062  25.821  31.885  1.00  0.00     0.074 A 
ATOM     39  C   UNL A   1      48.701  25.509  30.618  1.00  0.00     0.031 C 
ATOM     40  C   UNL A   1      48.696  25.780  33.086  1.00  0.00     0.034 A 
BRANCH  27  41
ATOM     41  C   UNL A   1      45.178  27.179  38.034  1.00  0.00     0.023 A 
ATOM     42  C   UNL A   1      45.536  28.362  38.705  1.00  0.00     0.031 A 
ATOM     43  C   UNL A   1      44.764  26.080  38.808  1.00  0.00     0.131 A 
ATOM     44  C   UNL A   1      45.541  28.394  40.108  1.00  0.00     0.055 A 
ATOM     45  C   UNL A   1      44.692  26.145  40.199  1.00  0.00     0.041 A 
ATOM     46  F   UNL A   1      44.463  24.909  38.224  1.00  0.00    -0.206 F 
ATOM     47  C   UNL A   1      45.094  27.302  40.858  1.00  0.00     0.022 A 
BRANCH  44  48
ATOM     48  S   UNL A   1      46.286  29.821  40.942  1.00  0.00     0.124 S 
ATOM     49  O   UNL A   1      45.115  30.655  41.202  1.00  0.00    -0.237 OA
ATOM     50  O   UNL A   1      46.909  29.215  42.114  1.00  0.00    -0.237 OA
ATOM     51  O   UNL A   1      47.215  30.354  39.948  1.00  0.00    -0.744 OA
ENDBRANCH  44  48
ENDBRANCH  27  41
BRANCH  28  52
ATOM     52  C   UNL A   1      45.496  26.178  27.913  1.00  0.00     0.023 A 
ATOM     53  C   UNL A   1      45.214  24.962  27.272  1.00  0.00     0.031 A 
ATOM     54  C   UNL A   1      45.941  27.247  27.110  1.00  0.00     0.131 A 
ATOM     55  C   UNL A   1      45.448  24.822  25.893  1.00  0.00     0.055 A 
ATOM     56  C   UNL A   1      46.103  27.125  25.728  1.00  0.00     0.041 A 
ATOM     57  F   UNL A   1      46.241  28.435  27.659  1.00  0.00    -0.206 F 
ATOM     58  C   UNL A   1      45.877  25.899  25.114  1.00  0.00     0.022 A 
BRANCH  55  59
ATOM     59  S   UNL A   1      45.320  23.169  25.157  1.00  0.00     0.124 S 
ATOM     60  O   UNL A   1      45.552  23.457  23.746  1.00  0.00    -0.237 OA
ATOM     61  O   UNL A   1      46.383  22.448  25.849  1.00  0.00    -0.237 OA
ATOM     62  O   UNL A   1      43.961  22.751  25.494  1.00  0.00    -0.744 OA
ENDBRANCH  55  59
ENDBRANCH  28  52
BRANCH  40  63
ATOM     63  C   UNL A   1      50.132  25.332  33.064  1.00  0.00     0.023 A 
ATOM     64  C   UNL A   1      50.477  23.972  33.052  1.00  0.00     0.031 A 
ATOM     65  C   UNL A   1      51.164  26.286  33.061  1.00  0.00     0.131 A 
ATOM     66  C   UNL A   1      51.824  23.601  33.110  1.00  0.00     0.055 A 
ATOM     67  C   UNL A   1      52.504  25.909  33.034  1.00  0.00     0.041 A 
ATOM     68  F   UNL A   1      50.884  27.599  33.073  1.00  0.00    -0.206 F 
ATOM     69  C   UNL A   1      52.841  24.559  33.076  1.00  0.00     0.022 A 
BRANCH  66  70
ATOM     70  S   UNL A   1      52.224  21.851  33.353  1.00  0.00     0.124 S 
ATOM     71  O   UNL A   1      53.632  21.914  33.730  1.00  0.00    -0.237 OA
ATOM     72  O   UNL A   1      51.297  21.462  34.410  1.00  0.00    -0.237 OA
ATOM     73  O   UNL A   1      51.957  21.257  32.044  1.00  0.00    -0.744 OA
ENDBRANCH  66  70
ENDBRANCH  40  63
ENDBRANCH  14  15
ENDBRANCH   7   9
ENDBRANCH   6   7
ENDBRANCH   5   6
ENDBRANCH   4   5
ENDBRANCH   3   4
ENDBRANCH   2   3
ENDBRANCH   1   2
BRANCH   1  74
ATOM     74  O   UNL A   1      32.950  30.407  27.484  1.00  0.00    -0.377 OA
BRANCH  74  75
ATOM     75  C   UNL A   1      32.533  31.158  26.352  1.00  0.00     0.188 C 
BRANCH  75  76
ATOM     76  C   UNL A   1      31.230  31.964  26.412  1.00  0.00     0.188 C 
BRANCH  76  77
ATOM     77  O   UNL A   1      30.321  31.605  25.387  1.00  0.00    -0.376 OA
BRANCH  77  78
ATOM     78  C   UNL A   1      29.900  32.658  24.529  1.00  0.00     0.202 C 
BRANCH  78  79
ATOM     79  C   UNL A   1      29.035  32.325  23.290  1.00  0.00     0.261 C 
BRANCH  79  80
ATOM     80  O   UNL A   1      28.490  30.989  23.211  1.00  0.00    -0.459 OA
BRANCH  80  81
ATOM     81  C   UNL A   1      29.103  30.035  22.459  1.00  0.00     0.364 C 
ATOM     82  O   UNL A   1      29.065  30.002  21.235  1.00  0.00    -0.245 OA
BRANCH  81  83
ATOM     83  C   UNL A   1      29.892  28.996  23.313  1.00  0.00     0.294 C 
ATOM     84  C   UNL A   1      30.355  27.799  22.521  1.00  0.00     0.090 C 
ATOM     85  N   UNL A   1      31.204  29.479  23.783  1.00  0.00    -0.334 N 
ATOM     86  C   UNL A   1      31.537  27.131  23.223  1.00  0.00     0.036 C 
ATOM     87  C   UNL A   1      31.960  28.272  24.178  1.00  0.00     0.268 C 
ATOM     88  H   UNL A   1      31.088  30.102  24.582  1.00  0.00     0.347 HD
ATOM     89  H   UNL A   1      31.691  30.006  23.059  1.00  0.00     0.347 HD
ATOM     90  C   UNL A   1      32.650  26.790  22.185  1.00  0.00     0.076 C 
ATOM     91  C   UNL A   1      31.099  25.856  23.992  1.00  0.00     0.076 C 
ATOM     92  C   UNL A   1      32.389  25.490  21.430  1.00  0.00     0.280 C 
ATOM     93  C   UNL A   1      30.976  24.583  23.139  1.00  0.00     0.280 C 
ATOM     94  N   UNL A   1      32.213  24.343  22.340  1.00  0.00    -0.215 N 
ATOM     95  H   UNL A   1      32.125  23.538  21.721  1.00  0.00     0.367 HD
BRANCH  94  96
ATOM     96  S   UNL A   1      33.521  23.710  23.217  1.00  0.00     0.371 S 
ATOM     97  O   UNL A   1      34.404  23.018  22.318  1.00  0.00    -0.157 OA
ATOM     98  O   UNL A   1      34.023  24.797  24.040  1.00  0.00    -0.157 OA
BRANCH  96  99
ATOM     99  N   UNL A   1      32.848  22.610  24.257  1.00  0.00    -0.151 NA
ATOM    100  C   UNL A   1      32.639  21.209  23.865  1.00  0.00     0.136 C 
ATOM    101  C   UNL A   1      32.779  22.802  25.718  1.00  0.00     0.136 C 
ATOM    102  C   UNL A   1      33.706  20.358  24.549  1.00  0.00     0.177 C 
ATOM    103  C   UNL A   1      33.706  21.829  26.454  1.00  0.00     0.177 C 
ATOM    104  O   UNL A   1      33.623  20.475  25.981  1.00  0.00    -0.379 OA
ENDBRANCH  96  99
ENDBRANCH  94  96
ENDBRANCH  81  83
ENDBRANCH  80  81
ENDBRANCH  79  80
ENDBRANCH  78  79
ENDBRANCH  77  78
ENDBRANCH  76  77
ENDBRANCH  75  76
ENDBRANCH  74  75
ENDBRANCH   1  74
TORSDOF 25
ENDMDL
MODEL 2
REMARK VINA RESULT:      -9.2      5.371      7.683
REMARK SMILES O=C(OCCOCCOCCOCCOC(=O)[C@H]1CC2(CC[NH+](S(=O)(=O)N3CCOCC3)CC2)C[NH2+]1)c1ccc(-c2c3nc(c(-c4cc(S(=O)(=O)[O-])ccc4F)c4ccc([nH]4)c(-c4cc(S(=O)(=O)[O-])ccc4F)c4nc(c(-c5cc(S(=O)(=O)[O-])ccc5F)c5ccc2[nH]5)C=C4)C=C3)cc1
REMARK SMILES IDX 8 1 7 2 6 3 5 4 4 5 3 6 2 7 1 8 37 9 38 10 99 11 39 12 98 13
REMARK SMILES IDX 40 14 41 15 42 16 92 17 43 18 97 19 91 20 93 21 44 22 96 23
REMARK SMILES IDX 90 24 89 25 45 27 77 28 57 29 76 30 58 31 61 32 75 33 94 34
REMARK SMILES IDX 59 35 60 36 74 38 95 39 62 40 46 41 47 42 55 43 48 44 54 45
REMARK SMILES IDX 56 46 53 47 49 48 50 49 51 50 52 51 78 52 79 53 87 54 80 55
REMARK SMILES IDX 86 56 88 57 85 58 81 59 82 60 83 61 84 62 63 63 64 64 72 65
REMARK SMILES IDX 65 66 71 67 73 68 70 69 66 70 67 71 68 72 69 73 9 74 10 75
REMARK SMILES IDX 11 76 12 77 13 78 14 79 15 80 16 81 17 82 18 83 19 84 36 85
REMARK SMILES IDX 20 86 35 87 21 90 34 91 22 92 33 93 23 94 24 96 25 97 26 98
REMARK SMILES IDX 27 99 28 100 32 101 29 102 31 103 30 104
REMARK H PARENT 93 26 61 37 36 88 36 89 23 95
REMARK Flexibility Score: inf
ROOT
ATOM      1  C   UNL A   1      33.918  33.287  33.212  1.00  0.00     0.188 C 
ENDROOT
BRANCH   1   2
ATOM      2  C   UNL A   1      35.386  33.163  32.771  1.00  0.00     0.188 C 
BRANCH   2   3
ATOM      3  O   UNL A   1      36.273  33.912  33.596  1.00  0.00    -0.376 OA
BRANCH   3   4
ATOM      4  C   UNL A   1      36.223  33.834  35.028  1.00  0.00     0.202 C 
BRANCH   4   5
ATOM      5  C   UNL A   1      37.517  33.530  35.758  1.00  0.00     0.261 C 
BRANCH   5   6
ATOM      6  O   UNL A   1      37.535  32.322  36.535  1.00  0.00    -0.460 OA
BRANCH   6   7
ATOM      7  C   UNL A   1      38.145  31.133  36.327  1.00  0.00     0.338 C 
ATOM      8  O   UNL A   1      37.778  30.168  36.998  1.00  0.00    -0.246 OA
BRANCH   7   9
ATOM      9  C   UNL A   1      39.245  30.919  35.347  1.00  0.00     0.060 A 
ATOM     10  C   UNL A   1      39.078  30.345  34.099  1.00  0.00     0.016 A 
ATOM     11  C   UNL A   1      40.514  31.428  35.639  1.00  0.00     0.016 A 
ATOM     12  C   UNL A   1      40.093  30.132  33.211  1.00  0.00     0.010 A 
ATOM     13  C   UNL A   1      41.557  31.309  34.711  1.00  0.00     0.010 A 
ATOM     14  C   UNL A   1      41.338  30.634  33.504  1.00  0.00    -0.014 A 
BRANCH  14  15
ATOM     15  C   UNL A   1      42.379  30.203  32.575  1.00  0.00     0.031 A 
ATOM     16  C   UNL A   1      42.905  28.822  32.775  1.00  0.00     0.074 A 
ATOM     17  C   UNL A   1      42.596  30.915  31.453  1.00  0.00     0.049 A 
ATOM     18  N   UNL A   1      43.859  28.206  32.145  1.00  0.00    -0.248 NA
ATOM     19  C   UNL A   1      42.242  28.013  33.818  1.00  0.00     0.031 C 
ATOM     20  C   UNL A   1      41.883  32.147  31.075  1.00  0.00     0.029 A 
ATOM     21  N   UNL A   1      43.427  30.683  30.397  1.00  0.00    -0.354 N 
ATOM     22  C   UNL A   1      43.948  26.959  32.747  1.00  0.00     0.074 A 
ATOM     23  C   UNL A   1      42.950  26.897  33.787  1.00  0.00     0.031 C 
ATOM     24  C   UNL A   1      42.320  32.557  29.874  1.00  0.00     0.029 A 
ATOM     25  C   UNL A   1      43.402  31.682  29.451  1.00  0.00     0.049 A 
ATOM     26  H   UNL A   1      43.991  29.880  30.320  1.00  0.00     0.167 HD
ATOM     27  C   UNL A   1      44.816  25.970  32.447  1.00  0.00     0.034 A 
ATOM     28  C   UNL A   1      44.226  31.881  28.406  1.00  0.00     0.034 A 
ATOM     29  C   UNL A   1      45.792  26.113  31.403  1.00  0.00     0.049 A 
ATOM     30  C   UNL A   1      45.311  30.849  28.210  1.00  0.00     0.074 A 
ATOM     31  C   UNL A   1      46.825  25.269  31.057  1.00  0.00     0.029 A 
ATOM     32  N   UNL A   1      45.848  27.200  30.532  1.00  0.00    -0.354 N 
ATOM     33  N   UNL A   1      45.510  29.727  28.870  1.00  0.00    -0.248 NA
ATOM     34  C   UNL A   1      46.285  31.109  27.149  1.00  0.00     0.031 C 
ATOM     35  C   UNL A   1      47.548  25.880  30.027  1.00  0.00     0.029 A 
ATOM     36  C   UNL A   1      46.913  27.062  29.667  1.00  0.00     0.049 A 
ATOM     37  H   UNL A   1      45.218  27.957  30.535  1.00  0.00     0.167 HD
ATOM     38  C   UNL A   1      46.620  29.132  28.284  1.00  0.00     0.074 A 
ATOM     39  C   UNL A   1      47.023  30.010  27.200  1.00  0.00     0.031 C 
ATOM     40  C   UNL A   1      47.261  27.977  28.604  1.00  0.00     0.034 A 
BRANCH  27  41
ATOM     41  C   UNL A   1      44.808  24.766  33.347  1.00  0.00     0.023 A 
ATOM     42  C   UNL A   1      45.397  24.782  34.624  1.00  0.00     0.031 A 
ATOM     43  C   UNL A   1      44.304  23.545  32.867  1.00  0.00     0.131 A 
ATOM     44  C   UNL A   1      45.530  23.585  35.345  1.00  0.00     0.055 A 
ATOM     45  C   UNL A   1      44.364  22.375  33.623  1.00  0.00     0.041 A 
ATOM     46  F   UNL A   1      43.780  23.461  31.633  1.00  0.00    -0.206 F 
ATOM     47  C   UNL A   1      44.991  22.388  34.865  1.00  0.00     0.022 A 
BRANCH  44  48
ATOM     48  S   UNL A   1      46.551  23.582  36.844  1.00  0.00     0.124 S 
ATOM     49  O   UNL A   1      46.480  24.983  37.252  1.00  0.00    -0.237 OA
ATOM     50  O   UNL A   1      45.852  22.633  37.703  1.00  0.00    -0.237 OA
ATOM     51  O   UNL A   1      47.861  23.143  36.366  1.00  0.00    -0.744 OA
ENDBRANCH  44  48
ENDBRANCH  27  41
BRANCH  28  52
ATOM     52  C   UNL A   1      44.151  33.117  27.569  1.00  0.00     0.023 A 
ATOM     53  C   UNL A   1      44.346  34.389  28.129  1.00  0.00     0.031 A 
ATOM     54  C   UNL A   1      43.779  33.055  26.211  1.00  0.00     0.131 A 
ATOM     55  C   UNL A   1      44.099  35.540  27.363  1.00  0.00     0.055 A 
ATOM     56  C   UNL A   1      43.605  34.201  25.433  1.00  0.00     0.041 A 
ATOM     57  F   UNL A   1      43.564  31.872  25.615  1.00  0.00    -0.206 F 
ATOM     58  C   UNL A   1      43.743  35.456  26.014  1.00  0.00     0.022 A 
BRANCH  55  59
ATOM     59  S   UNL A   1      44.109  37.152  28.195  1.00  0.00     0.124 S 
ATOM     60  O   UNL A   1      44.935  36.874  29.364  1.00  0.00    -0.237 OA
ATOM     61  O   UNL A   1      44.705  38.012  27.178  1.00  0.00    -0.237 OA
ATOM     62  O   UNL A   1      42.696  37.400  28.472  1.00  0.00    -0.744 OA
ENDBRANCH  55  59
ENDBRANCH  28  52
BRANCH  40  63
ATOM     63  C   UNL A   1      48.422  27.596  27.727  1.00  0.00     0.023 A 
ATOM     64  C   UNL A   1      49.736  27.970  28.046  1.00  0.00     0.031 A 
ATOM     65  C   UNL A   1      48.201  26.853  26.555  1.00  0.00     0.131 A 
ATOM     66  C   UNL A   1      50.776  27.660  27.162  1.00  0.00     0.055 A 
ATOM     67  C   UNL A   1      49.252  26.476  25.722  1.00  0.00     0.041 A 
ATOM     68  F   UNL A   1      46.961  26.473  26.208  1.00  0.00    -0.206 F 
ATOM     69  C   UNL A   1      50.546  26.895  26.015  1.00  0.00     0.022 A 
BRANCH  66  70
ATOM     70  S   UNL A   1      52.410  28.377  27.472  1.00  0.00     0.124 S 
ATOM     71  O   UNL A   1      52.067  29.625  28.147  1.00  0.00    -0.237 OA
ATOM     72  O   UNL A   1      53.046  27.358  28.301  1.00  0.00    -0.237 OA
ATOM     73  O   UNL A   1      52.975  28.529  26.133  1.00  0.00    -0.744 OA
ENDBRANCH  66  70
ENDBRANCH  40  63
ENDBRANCH  14  15
ENDBRANCH   7   9
ENDBRANCH   6   7
ENDBRANCH   5   6
ENDBRANCH   4   5
ENDBRANCH   3   4
ENDBRANCH   2   3
ENDBRANCH   1   2
BRANCH   1  74
ATOM     74  O   UNL A   1      33.279  34.524  32.871  1.00  0.00    -0.377 OA
BRANCH  74  75
ATOM     75  C   UNL A   1      33.825  35.149  31.718  1.00  0.00     0.188 C 
BRANCH  75  76
ATOM     76  C   UNL A   1      32.891  35.782  30.681  1.00  0.00     0.188 C 
BRANCH  76  77
ATOM     77  O   UNL A   1      33.447  35.788  29.379  1.00  0.00    -0.376 OA
BRANCH  77  78
ATOM     78  C   UNL A   1      33.282  34.592  28.625  1.00  0.00     0.202 C 
BRANCH  78  79
ATOM     79  C   UNL A   1      34.530  33.760  28.245  1.00  0.00     0.261 C 
BRANCH  79  80
ATOM     80  O   UNL A   1      35.209  33.069  29.318  1.00  0.00    -0.459 OA
BRANCH  80  81
ATOM     81  C   UNL A   1      36.554  32.870  29.269  1.00  0.00     0.364 C 
ATOM     82  O   UNL A   1      37.370  33.575  29.852  1.00  0.00    -0.245 OA
BRANCH  81  83
ATOM     83  C   UNL A   1      36.959  31.631  28.414  1.00  0.00     0.294 C 
ATOM     84  C   UNL A   1      38.170  30.907  28.946  1.00  0.00     0.090 C 
ATOM     85  N   UNL A   1      35.987  30.522  28.470  1.00  0.00    -0.334 N 
ATOM     86  C   UNL A   1      38.182  29.464  28.439  1.00  0.00     0.036 C 
ATOM     87  C   UNL A   1      36.710  29.328  27.983  1.00  0.00     0.268 C 
ATOM     88  H   UNL A   1      35.187  30.721  27.870  1.00  0.00     0.347 HD
ATOM     89  H   UNL A   1      35.629  30.384  29.414  1.00  0.00     0.347 HD
ATOM     90  C   UNL A   1      38.528  28.492  29.608  1.00  0.00     0.076 C 
ATOM     91  C   UNL A   1      39.178  29.280  27.264  1.00  0.00     0.076 C 
ATOM     92  C   UNL A   1      40.026  28.389  29.880  1.00  0.00     0.280 C 
ATOM     93  C   UNL A   1      40.647  29.076  27.671  1.00  0.00     0.280 C 
ATOM     94  N   UNL A   1      40.784  27.987  28.681  1.00  0.00    -0.215 N 
ATOM     95  H   UNL A   1      41.743  27.880  29.009  1.00  0.00     0.367 HD
BRANCH  94  96
ATOM     96  S   UNL A   1      40.668  26.413  28.057  1.00  0.00     0.371 S 
ATOM     97  O   UNL A   1      39.637  25.698  28.758  1.00  0.00    -0.157 OA
ATOM     98  O   UNL A   1      40.605  26.552  26.612  1.00  0.00    -0.157 OA
BRANCH  96  99
ATOM     99  N   UNL A   1      42.130  25.709  28.393  1.00  0.00    -0.151 NA
ATOM    100  C   UNL A   1      42.236  24.284  28.737  1.00  0.00     0.136 C 
ATOM    101  C   UNL A   1      43.427  26.293  28.005  1.00  0.00     0.136 C 
ATOM    102  C   UNL A   1      42.794  23.542  27.525  1.00  0.00     0.177 C 
ATOM    103  C   UNL A   1      44.109  25.462  26.912  1.00  0.00     0.177 C 
ATOM    104  O   UNL A   1      44.091  24.047  27.159  1.00  0.00    -0.379 OA
ENDBRANCH  96  99
ENDBRANCH  94  96
ENDBRANCH  81  83
ENDBRANCH  80  81
ENDBRANCH  79  80
ENDBRANCH  78  79
ENDBRANCH  77  78
ENDBRANCH  76  77
ENDBRANCH  75  76
ENDBRANCH  74  75
ENDBRANCH   1  74
TORSDOF 25
ENDMDL
MODEL 3
REMARK VINA RESULT:      -9.0      5.943      8.797
REMARK SMILES O=C(OCCOCCOCCOCCOC(=O)[C@H]1CC2(CC[NH+](S(=O)(=O)N3CCOCC3)CC2)C[NH2+]1)c1ccc(-c2c3nc(c(-c4cc(S(=O)(=O)[O-])ccc4F)c4ccc([nH]4)c(-c4cc(S(=O)(=O)[O-])ccc4F)c4nc(c(-c5cc(S(=O)(=O)[O-])ccc5F)c5ccc2[nH]5)C=C4)C=C3)cc1
REMARK SMILES IDX 8 1 7 2 6 3 5 4 4 5 3 6 2 7 1 8 37 9 38 10 99 11 39 12 98 13
REMARK SMILES IDX 40 14 41 15 42 16 92 17 43 18 97 19 91 20 93 21 44 22 96 23
REMARK SMILES IDX 90 24 89 25 45 27 77 28 57 29 76 30 58 31 61 32 75 33 94 34
REMARK SMILES IDX 59 35 60 36 74 38 95 39 62 40 46 41 47 42 55 43 48 44 54 45
REMARK SMILES IDX 56 46 53 47 49 48 50 49 51 50 52 51 78 52 79 53 87 54 80 55
REMARK SMILES IDX 86 56 88 57 85 58 81 59 82 60 83 61 84 62 63 63 64 64 72 65
REMARK SMILES IDX 65 66 71 67 73 68 70 69 66 70 67 71 68 72 69 73 9 74 10 75
REMARK SMILES IDX 11 76 12 77 13 78 14 79 15 80 16 81 17 82 18 83 19 84 36 85
REMARK SMILES IDX 20 86 35 87 21 90 34 91 22 92 33 93 23 94 24 96 25 97 26 98
REMARK SMILES IDX 27 99 28 100 32 101 29 102 31 103 30 104
REMARK H PARENT 93 26 61 37 36 88 36 89 23 95
REMARK Flexibility Score: inf
ROOT
ATOM      1  C   UNL A   1      33.026  36.148  32.192  1.00  0.00     0.188 C 
ENDROOT
BRANCH   1   2
ATOM      2  C   UNL A   1      34.031  36.511  33.298  1.00  0.00     0.188 C 
BRANCH   2   3
ATOM      3  O   UNL A   1      34.986  35.481  33.535  1.00  0.00    -0.376 OA
BRANCH   3   4
ATOM      4  C   UNL A   1      35.444  34.618  32.484  1.00  0.00     0.202 C 
BRANCH   4   5
ATOM      5  C   UNL A   1      35.569  33.139  32.798  1.00  0.00     0.261 C 
BRANCH   5   6
ATOM      6  O   UNL A   1      35.809  32.274  31.677  1.00  0.00    -0.460 OA
BRANCH   6   7
ATOM      7  C   UNL A   1      36.642  31.221  31.522  1.00  0.00     0.338 C 
ATOM      8  O   UNL A   1      36.179  30.089  31.663  1.00  0.00    -0.246 OA
BRANCH   7   9
ATOM      9  C   UNL A   1      38.092  31.342  31.206  1.00  0.00     0.060 A 
ATOM     10  C   UNL A   1      39.031  31.906  32.052  1.00  0.00     0.016 A 
ATOM     11  C   UNL A   1      38.576  30.753  30.034  1.00  0.00     0.016 A 
ATOM     12  C   UNL A   1      40.356  32.034  31.750  1.00  0.00     0.010 A 
ATOM     13  C   UNL A   1      39.946  30.784  29.738  1.00  0.00     0.010 A 
ATOM     14  C   UNL A   1      40.826  31.453  30.597  1.00  0.00    -0.014 A 
BRANCH  14  15
ATOM     15  C   UNL A   1      42.212  31.796  30.289  1.00  0.00     0.031 A 
ATOM     16  C   UNL A   1      42.461  33.208  29.879  1.00  0.00     0.074 A 
ATOM     17  C   UNL A   1      43.196  30.954  30.658  1.00  0.00     0.049 A 
ATOM     18  N   UNL A   1      43.568  33.770  29.496  1.00  0.00    -0.248 NA
ATOM     19  C   UNL A   1      41.302  34.121  29.933  1.00  0.00     0.031 C 
ATOM     20  C   UNL A   1      43.002  29.661  31.335  1.00  0.00     0.029 A 
ATOM     21  N   UNL A   1      44.551  31.077  30.573  1.00  0.00    -0.354 N 
ATOM     22  C   UNL A   1      43.230  35.085  29.213  1.00  0.00     0.074 A 
ATOM     23  C   UNL A   1      41.820  35.246  29.472  1.00  0.00     0.031 C 
ATOM     24  C   UNL A   1      44.201  29.117  31.595  1.00  0.00     0.029 A 
ATOM     25  C   UNL A   1      45.231  29.965  31.017  1.00  0.00     0.049 A 
ATOM     26  H   UNL A   1      45.000  31.881  30.227  1.00  0.00     0.167 HD
ATOM     27  C   UNL A   1      44.049  36.056  28.756  1.00  0.00     0.034 A 
ATOM     28  C   UNL A   1      46.535  29.663  30.890  1.00  0.00     0.034 A 
ATOM     29  C   UNL A   1      45.443  35.813  28.508  1.00  0.00     0.049 A 
ATOM     30  C   UNL A   1      47.394  30.696  30.200  1.00  0.00     0.074 A 
ATOM     31  C   UNL A   1      46.379  36.640  27.926  1.00  0.00     0.029 A 
ATOM     32  N   UNL A   1      46.097  34.627  28.835  1.00  0.00    -0.354 N 
ATOM     33  N   UNL A   1      47.058  31.899  29.782  1.00  0.00    -0.248 NA
ATOM     34  C   UNL A   1      48.790  30.336  29.952  1.00  0.00     0.031 C 
ATOM     35  C   UNL A   1      47.580  35.927  27.834  1.00  0.00     0.029 A 
ATOM     36  C   UNL A   1      47.418  34.689  28.443  1.00  0.00     0.049 A 
ATOM     37  H   UNL A   1      45.677  33.856  29.282  1.00  0.00     0.167 HD
ATOM     38  C   UNL A   1      48.214  32.451  29.244  1.00  0.00     0.074 A 
ATOM     39  C   UNL A   1      49.257  31.455  29.421  1.00  0.00     0.031 C 
ATOM     40  C   UNL A   1      48.409  33.657  28.650  1.00  0.00     0.034 A 
BRANCH  27  41
ATOM     41  C   UNL A   1      43.407  37.363  28.385  1.00  0.00     0.023 A 
ATOM     42  C   UNL A   1      43.379  38.460  29.265  1.00  0.00     0.031 A 
ATOM     43  C   UNL A   1      42.705  37.472  27.172  1.00  0.00     0.131 A 
ATOM     44  C   UNL A   1      42.606  39.588  28.948  1.00  0.00     0.055 A 
ATOM     45  C   UNL A   1      42.007  38.628  26.826  1.00  0.00     0.041 A 
ATOM     46  F   UNL A   1      42.653  36.435  26.319  1.00  0.00    -0.206 F 
ATOM     47  C   UNL A   1      41.944  39.690  27.722  1.00  0.00     0.022 A 
BRANCH  44  48
ATOM     48  S   UNL A   1      42.350  40.852  30.224  1.00  0.00     0.124 S 
ATOM     49  O   UNL A   1      40.966  41.248  29.972  1.00  0.00    -0.237 OA
ATOM     50  O   UNL A   1      42.585  40.111  31.458  1.00  0.00    -0.237 OA
ATOM     51  O   UNL A   1      43.351  41.869  29.906  1.00  0.00    -0.744 OA
ENDBRANCH  44  48
ENDBRANCH  27  41
BRANCH  28  52
ATOM     52  C   UNL A   1      47.076  28.328  31.292  1.00  0.00     0.023 A 
ATOM     53  C   UNL A   1      47.691  28.137  32.539  1.00  0.00     0.031 A 
ATOM     54  C   UNL A   1      47.081  27.243  30.392  1.00  0.00     0.131 A 
ATOM     55  C   UNL A   1      48.345  26.926  32.823  1.00  0.00     0.055 A 
ATOM     56  C   UNL A   1      47.669  26.017  30.707  1.00  0.00     0.041 A 
ATOM     57  F   UNL A   1      46.521  27.361  29.178  1.00  0.00    -0.206 F 
ATOM     58  C   UNL A   1      48.326  25.859  31.921  1.00  0.00     0.022 A 
BRANCH  55  59
ATOM     59  S   UNL A   1      49.345  26.815  34.332  1.00  0.00     0.124 S 
ATOM     60  O   UNL A   1      49.258  25.392  34.638  1.00  0.00    -0.237 OA
ATOM     61  O   UNL A   1      50.642  27.294  33.870  1.00  0.00    -0.237 OA
ATOM     62  O   UNL A   1      48.650  27.698  35.266  1.00  0.00    -0.744 OA
ENDBRANCH  55  59
ENDBRANCH  28  52
BRANCH  40  63
ATOM     63  C   UNL A   1      49.815  33.962  28.209  1.00  0.00     0.023 A 
ATOM     64  C   UNL A   1      50.307  33.521  26.971  1.00  0.00     0.031 A 
ATOM     65  C   UNL A   1      50.669  34.699  29.046  1.00  0.00     0.131 A 
ATOM     66  C   UNL A   1      51.644  33.760  26.635  1.00  0.00     0.055 A 
ATOM     67  C   UNL A   1      51.973  35.006  28.668  1.00  0.00     0.041 A 
ATOM     68  F   UNL A   1      50.243  35.142  30.241  1.00  0.00    -0.206 F 
ATOM     69  C   UNL A   1      52.473  34.520  27.463  1.00  0.00     0.022 A 
BRANCH  66  70
ATOM     70  S   UNL A   1      52.314  32.960  25.155  1.00  0.00     0.124 S 
ATOM     71  O   UNL A   1      51.205  33.089  24.215  1.00  0.00    -0.237 OA
ATOM     72  O   UNL A   1      53.492  33.771  24.867  1.00  0.00    -0.237 OA
ATOM     73  O   UNL A   1      52.594  31.597  25.602  1.00  0.00    -0.744 OA
ENDBRANCH  66  70
ENDBRANCH  40  63
ENDBRANCH  14  15
ENDBRANCH   7   9
ENDBRANCH   6   7
ENDBRANCH   5   6
ENDBRANCH   4   5
ENDBRANCH   3   4
ENDBRANCH   2   3
ENDBRANCH   1   2
BRANCH   1  74
ATOM     74  O   UNL A   1      32.663  37.225  31.318  1.00  0.00    -0.377 OA
BRANCH  74  75
ATOM     75  C   UNL A   1      33.292  37.164  30.046  1.00  0.00     0.188 C 
BRANCH  75  76
ATOM     76  C   UNL A   1      33.030  35.967  29.125  1.00  0.00     0.188 C 
BRANCH  76  77
ATOM     77  O   UNL A   1      34.225  35.361  28.668  1.00  0.00    -0.376 OA
BRANCH  77  78
ATOM     78  C   UNL A   1      34.078  34.103  28.019  1.00  0.00     0.202 C 
BRANCH  78  79
ATOM     79  C   UNL A   1      35.102  32.979  28.306  1.00  0.00     0.261 C 
BRANCH  79  80
ATOM     80  O   UNL A   1      34.572  31.693  28.697  1.00  0.00    -0.459 OA
BRANCH  80  81
ATOM     81  C   UNL A   1      34.910  30.568  28.011  1.00  0.00     0.364 C 
ATOM     82  O   UNL A   1      35.941  29.934  28.206  1.00  0.00    -0.245 OA
BRANCH  81  83
ATOM     83  C   UNL A   1      33.837  30.144  26.962  1.00  0.00     0.294 C 
ATOM     84  C   UNL A   1      34.212  28.904  26.191  1.00  0.00     0.090 C 
ATOM     85  N   UNL A   1      32.573  29.670  27.557  1.00  0.00    -0.334 N 
ATOM     86  C   UNL A   1      32.956  28.244  25.620  1.00  0.00     0.036 C 
ATOM     87  C   UNL A   1      31.874  28.933  26.484  1.00  0.00     0.268 C 
ATOM     88  H   UNL A   1      32.009  30.460  27.870  1.00  0.00     0.347 HD
ATOM     89  H   UNL A   1      32.740  29.079  28.371  1.00  0.00     0.347 HD
ATOM     90  C   UNL A   1      33.008  26.704  25.859  1.00  0.00     0.076 C 
ATOM     91  C   UNL A   1      32.785  28.555  24.109  1.00  0.00     0.076 C 
ATOM     92  C   UNL A   1      33.847  25.962  24.823  1.00  0.00     0.280 C 
ATOM     93  C   UNL A   1      33.601  27.666  23.157  1.00  0.00     0.280 C 
ATOM     94  N   UNL A   1      33.386  26.219  23.446  1.00  0.00    -0.215 N 
ATOM     95  H   UNL A   1      33.967  25.616  22.865  1.00  0.00     0.367 HD
BRANCH  94  96
ATOM     96  S   UNL A   1      31.914  25.587  22.881  1.00  0.00     0.371 S 
ATOM     97  O   UNL A   1      30.868  25.918  23.810  1.00  0.00    -0.157 OA
ATOM     98  O   UNL A   1      31.807  25.989  21.489  1.00  0.00    -0.157 OA
BRANCH  96  99
ATOM     99  N   UNL A   1      32.126  23.944  22.877  1.00  0.00    -0.151 NA
ATOM    100  C   UNL A   1      33.190  23.309  22.086  1.00  0.00     0.136 C 
ATOM    101  C   UNL A   1      31.582  23.046  23.912  1.00  0.00     0.136 C 
ATOM    102  C   UNL A   1      34.304  22.884  23.039  1.00  0.00     0.177 C 
ATOM    103  C   UNL A   1      32.697  22.450  24.777  1.00  0.00     0.177 C 
ATOM    104  O   UNL A   1      33.817  21.956  24.025  1.00  0.00    -0.379 OA
ENDBRANCH  96  99
ENDBRANCH  94  96
ENDBRANCH  81  83
ENDBRANCH  80  81
ENDBRANCH  79  80
ENDBRANCH  78  79
ENDBRANCH  77  78
ENDBRANCH  76  77
ENDBRANCH  75  76
ENDBRANCH  74  75
ENDBRANCH   1  74
TORSDOF 25
ENDMDL
