MODEL 1
REMARK VINA RESULT:      -7.6      0.000      0.000
REMARK SMILES COC(=O)c1ccc(C)c(NC(=O)[C@H]2CC=CC[C@H]2C(=O)OCCOCCOCCOCCOC(=O)c2ccc(-c3c4nc(c(-c5cc(S(=O)(=O)[O-])ccc5F)c5ccc([nH]5)c(-c5cc(S(=O)(=O)[O-])ccc5F)c5nc(c(-c6cc(S(=O)(=O)[O-])ccc6F)c6ccc3[nH]6)C=C5)C=C4)cc2)c1
REMARK SMILES IDX 27 1 26 2 25 3 24 4 23 5 22 6 20 7 21 8 19 9 14 10 15 11
REMARK SMILES IDX 16 12 18 13 17 14 12 15 11 16 13 18 10 19 5 20 6 21 100 22
REMARK SMILES IDX 7 23 8 24 9 25 3 26 4 27 2 28 1 29 28 30 29 31 30 32 31 33
REMARK SMILES IDX 32 34 33 35 34 36 35 37 36 38 37 39 38 40 99 41 39 42 98 43
REMARK SMILES IDX 40 44 41 45 42 46 92 47 43 48 97 49 91 50 93 51 44 52 96 53
REMARK SMILES IDX 90 54 89 55 45 57 77 58 57 59 76 60 58 61 61 62 75 63 94 64
REMARK SMILES IDX 59 65 60 66 74 68 95 69 62 70 46 71 47 72 55 73 48 74 54 75
REMARK SMILES IDX 56 76 53 77 49 78 50 79 51 80 52 81 78 82 79 83 87 84 80 85
REMARK SMILES IDX 86 86 88 87 85 88 81 89 82 90 83 91 84 92 63 93 64 94 72 95
REMARK SMILES IDX 65 96 71 97 73 98 70 99 66 100 67 101 68 102 69 103
REMARK H PARENT 11 17 93 56 61 67
REMARK Flexibility Score: inf
ROOT
ATOM      1  C   UNL A   1      40.990  32.662  37.065  1.00  0.00     0.188 C 
ENDROOT
BRANCH   1   2
ATOM      2  C   UNL A   1      41.163  31.614  35.983  1.00  0.00     0.188 C 
BRANCH   2   3
ATOM      3  O   UNL A   1      40.488  30.395  36.158  1.00  0.00    -0.376 OA
BRANCH   3   4
ATOM      4  C   UNL A   1      39.506  30.157  35.158  1.00  0.00     0.202 C 
BRANCH   4   5
ATOM      5  C   UNL A   1      40.014  29.888  33.750  1.00  0.00     0.261 C 
BRANCH   5   6
ATOM      6  O   UNL A   1      39.667  28.552  33.326  1.00  0.00    -0.463 OA
BRANCH   6   7
ATOM      7  C   UNL A   1      38.528  28.440  32.628  1.00  0.00     0.310 C 
ATOM      8  O   UNL A   1      37.413  28.314  33.130  1.00  0.00    -0.252 OA
BRANCH   7   9
ATOM      9  C   UNL A   1      38.699  28.519  31.136  1.00  0.00     0.116 C 
ATOM     10  C   UNL A   1      38.105  29.722  30.353  1.00  0.00     0.097 C 
ATOM     11  C   UNL A   1      37.844  29.194  28.926  1.00  0.00     0.041 C 
ATOM     12  C   UNL A   1      38.915  28.266  28.395  1.00  0.00    -0.030 C 
ATOM     13  C   UNL A   1      40.046  28.030  30.619  1.00  0.00     0.043 C 
ATOM     14  C   UNL A   1      39.924  27.777  29.137  1.00  0.00    -0.030 C 
BRANCH  10  15
ATOM     15  C   UNL A   1      38.922  31.019  30.266  1.00  0.00     0.228 C 
ATOM     16  N   UNL A   1      38.482  32.237  30.754  1.00  0.00    -0.326 N 
ATOM     17  H   UNL A   1      39.186  32.924  30.798  1.00  0.00     0.169 HD
ATOM     18  O   UNL A   1      39.995  31.032  29.658  1.00  0.00    -0.274 OA
BRANCH  16  19
ATOM     19  C   UNL A   1      37.217  32.686  31.203  1.00  0.00     0.044 A 
ATOM     20  C   UNL A   1      35.026  33.465  30.480  1.00  0.00     0.062 A 
ATOM     21  C   UNL A   1      34.480  33.101  31.713  1.00  0.00     0.016 A 
ATOM     22  C   UNL A   1      36.392  33.254  30.227  1.00  0.00     0.042 A 
ATOM     23  C   UNL A   1      35.321  32.696  32.733  1.00  0.00     0.006 A 
ATOM     24  C   UNL A   1      36.699  32.601  32.502  1.00  0.00    -0.027 A 
ATOM     25  C   UNL A   1      37.551  32.726  33.718  1.00  0.00     0.046 C 
BRANCH  20  26
ATOM     26  C   UNL A   1      34.088  34.051  29.485  1.00  0.00     0.337 C 
ATOM     27  O   UNL A   1      34.231  33.940  28.280  1.00  0.00    -0.246 OA
BRANCH  26  28
ATOM     28  O   UNL A   1      33.022  34.644  30.068  1.00  0.00    -0.465 OA
ATOM     29  C   UNL A   1      33.063  36.069  29.986  1.00  0.00     0.282 C 
ENDBRANCH  26  28
ENDBRANCH  20  26
ENDBRANCH  16  19
ENDBRANCH  10  15
ENDBRANCH   7   9
ENDBRANCH   6   7
ENDBRANCH   5   6
ENDBRANCH   4   5
ENDBRANCH   3   4
ENDBRANCH   2   3
ENDBRANCH   1   2
BRANCH   1  30
ATOM     30  O   UNL A   1      39.878  33.531  37.046  1.00  0.00    -0.377 OA
BRANCH  30  31
ATOM     31  C   UNL A   1      39.629  34.427  38.137  1.00  0.00     0.188 C 
BRANCH  31  32
ATOM     32  C   UNL A   1      40.789  34.831  39.039  1.00  0.00     0.188 C 
BRANCH  32  33
ATOM     33  O   UNL A   1      41.260  36.118  38.637  1.00  0.00    -0.376 OA
BRANCH  33  34
ATOM     34  C   UNL A   1      42.607  36.173  38.186  1.00  0.00     0.202 C 
BRANCH  34  35
ATOM     35  C   UNL A   1      42.753  36.700  36.760  1.00  0.00     0.261 C 
BRANCH  35  36
ATOM     36  O   UNL A   1      42.702  35.600  35.830  1.00  0.00    -0.460 OA
BRANCH  36  37
ATOM     37  C   UNL A   1      41.669  35.656  34.938  1.00  0.00     0.338 C 
ATOM     38  O   UNL A   1      40.611  36.201  35.156  1.00  0.00    -0.246 OA
BRANCH  37  39
ATOM     39  C   UNL A   1      42.004  34.889  33.698  1.00  0.00     0.060 A 
ATOM     40  C   UNL A   1      41.100  33.949  33.182  1.00  0.00     0.016 A 
ATOM     41  C   UNL A   1      43.302  34.922  33.206  1.00  0.00     0.016 A 
ATOM     42  C   UNL A   1      41.550  32.941  32.310  1.00  0.00     0.010 A 
ATOM     43  C   UNL A   1      43.760  33.853  32.456  1.00  0.00     0.010 A 
ATOM     44  C   UNL A   1      42.908  32.829  32.016  1.00  0.00    -0.014 A 
BRANCH  44  45
ATOM     45  C   UNL A   1      43.578  31.635  31.441  1.00  0.00     0.031 A 
ATOM     46  C   UNL A   1      43.982  30.494  32.342  1.00  0.00     0.074 A 
ATOM     47  C   UNL A   1      43.446  31.410  30.106  1.00  0.00     0.049 A 
ATOM     48  N   UNL A   1      44.366  29.327  31.945  1.00  0.00    -0.248 NA
ATOM     49  C   UNL A   1      43.938  30.556  33.806  1.00  0.00     0.031 C 
ATOM     50  C   UNL A   1      43.368  30.108  29.452  1.00  0.00     0.029 A 
ATOM     51  N   UNL A   1      43.296  32.294  29.037  1.00  0.00    -0.354 N 
ATOM     52  C   UNL A   1      44.254  28.427  32.990  1.00  0.00     0.074 A 
ATOM     53  C   UNL A   1      44.081  29.268  34.149  1.00  0.00     0.031 C 
ATOM     54  C   UNL A   1      43.254  30.238  28.127  1.00  0.00     0.029 A 
ATOM     55  C   UNL A   1      43.601  31.596  27.842  1.00  0.00     0.049 A 
ATOM     56  H   UNL A   1      43.024  33.238  29.101  1.00  0.00     0.167 HD
ATOM     57  C   UNL A   1      44.184  27.084  32.717  1.00  0.00     0.034 A 
ATOM     58  C   UNL A   1      44.728  31.911  27.130  1.00  0.00     0.034 A 
ATOM     59  C   UNL A   1      44.499  26.778  31.302  1.00  0.00     0.049 A 
ATOM     60  C   UNL A   1      45.811  30.826  27.267  1.00  0.00     0.074 A 
ATOM     61  C   UNL A   1      43.955  25.973  30.311  1.00  0.00     0.029 A 
ATOM     62  N   UNL A   1      45.500  27.504  30.665  1.00  0.00    -0.354 N 
ATOM     63  N   UNL A   1      45.715  29.823  28.111  1.00  0.00    -0.248 NA
ATOM     64  C   UNL A   1      47.034  30.712  26.480  1.00  0.00     0.031 C 
ATOM     65  C   UNL A   1      44.596  26.290  29.073  1.00  0.00     0.029 A 
ATOM     66  C   UNL A   1      45.586  27.223  29.325  1.00  0.00     0.049 A 
ATOM     67  H   UNL A   1      46.084  28.148  31.126  1.00  0.00     0.167 HD
ATOM     68  C   UNL A   1      46.716  28.917  27.944  1.00  0.00     0.074 A 
ATOM     69  C   UNL A   1      47.578  29.575  26.970  1.00  0.00     0.031 C 
ATOM     70  C   UNL A   1      46.742  27.703  28.586  1.00  0.00     0.034 A 
BRANCH  57  71
ATOM     71  C   UNL A   1      43.670  25.988  33.663  1.00  0.00     0.023 A 
ATOM     72  C   UNL A   1      42.818  26.350  34.737  1.00  0.00     0.031 A 
ATOM     73  C   UNL A   1      44.072  24.634  33.669  1.00  0.00     0.131 A 
ATOM     74  C   UNL A   1      42.453  25.438  35.752  1.00  0.00     0.055 A 
ATOM     75  C   UNL A   1      43.646  23.705  34.640  1.00  0.00     0.041 A 
ATOM     76  F   UNL A   1      44.938  24.141  32.778  1.00  0.00    -0.206 F 
ATOM     77  C   UNL A   1      42.845  24.107  35.698  1.00  0.00     0.022 A 
BRANCH  74  78
ATOM     78  S   UNL A   1      41.504  26.028  37.187  1.00  0.00     0.124 S 
ATOM     79  O   UNL A   1      40.916  27.262  36.678  1.00  0.00    -0.237 OA
ATOM     80  O   UNL A   1      40.582  24.924  37.432  1.00  0.00    -0.237 OA
ATOM     81  O   UNL A   1      42.526  26.213  38.218  1.00  0.00    -0.744 OA
ENDBRANCH  74  78
ENDBRANCH  57  71
BRANCH  58  82
ATOM     82  C   UNL A   1      44.755  33.403  26.935  1.00  0.00     0.023 A 
ATOM     83  C   UNL A   1      45.774  34.040  27.706  1.00  0.00     0.031 A 
ATOM     84  C   UNL A   1      44.490  33.931  25.660  1.00  0.00     0.131 A 
ATOM     85  C   UNL A   1      46.705  34.885  27.076  1.00  0.00     0.055 A 
ATOM     86  C   UNL A   1      45.364  34.863  25.072  1.00  0.00     0.041 A 
ATOM     87  F   UNL A   1      43.537  33.390  24.885  1.00  0.00    -0.206 F 
ATOM     88  C   UNL A   1      46.518  35.277  25.747  1.00  0.00     0.022 A 
BRANCH  85  89
ATOM     89  S   UNL A   1      48.331  35.167  27.874  1.00  0.00     0.124 S 
ATOM     90  O   UNL A   1      48.873  36.260  27.076  1.00  0.00    -0.237 OA
ATOM     91  O   UNL A   1      47.992  35.499  29.258  1.00  0.00    -0.237 OA
ATOM     92  O   UNL A   1      49.004  33.877  27.725  1.00  0.00    -0.744 OA
ENDBRANCH  85  89
ENDBRANCH  58  82
BRANCH  70  93
ATOM     93  C   UNL A   1      47.944  26.807  28.630  1.00  0.00     0.023 A 
ATOM     94  C   UNL A   1      48.860  26.872  29.667  1.00  0.00     0.031 A 
ATOM     95  C   UNL A   1      48.176  25.824  27.630  1.00  0.00     0.131 A 
ATOM     96  C   UNL A   1      49.808  25.856  29.816  1.00  0.00     0.055 A 
ATOM     97  C   UNL A   1      49.215  24.901  27.708  1.00  0.00     0.041 A 
ATOM     98  F   UNL A   1      47.372  25.672  26.569  1.00  0.00    -0.206 F 
ATOM     99  C   UNL A   1      50.009  24.879  28.840  1.00  0.00     0.022 A 
BRANCH  96 100
ATOM    100  S   UNL A   1      50.602  25.726  31.430  1.00  0.00     0.124 S 
ATOM    101  O   UNL A   1      52.015  25.636  31.080  1.00  0.00    -0.237 OA
ATOM    102  O   UNL A   1      50.186  26.978  32.058  1.00  0.00    -0.237 OA
ATOM    103  O   UNL A   1      50.016  24.519  32.006  1.00  0.00    -0.744 OA
ENDBRANCH  96 100
ENDBRANCH  70  93
ENDBRANCH  44  45
ENDBRANCH  37  39
ENDBRANCH  36  37
ENDBRANCH  35  36
ENDBRANCH  34  35
ENDBRANCH  33  34
ENDBRANCH  32  33
ENDBRANCH  31  32
ENDBRANCH  30  31
ENDBRANCH   1  30
TORSDOF 27
ENDMDL
MODEL 2
REMARK VINA RESULT:      -7.5      5.341      9.890
REMARK SMILES COC(=O)c1ccc(C)c(NC(=O)[C@H]2CC=CC[C@H]2C(=O)OCCOCCOCCOCCOC(=O)c2ccc(-c3c4nc(c(-c5cc(S(=O)(=O)[O-])ccc5F)c5ccc([nH]5)c(-c5cc(S(=O)(=O)[O-])ccc5F)c5nc(c(-c6cc(S(=O)(=O)[O-])ccc6F)c6ccc3[nH]6)C=C5)C=C4)cc2)c1
REMARK SMILES IDX 27 1 26 2 25 3 24 4 23 5 22 6 20 7 21 8 19 9 14 10 15 11
REMARK SMILES IDX 16 12 18 13 17 14 12 15 11 16 13 18 10 19 5 20 6 21 100 22
REMARK SMILES IDX 7 23 8 24 9 25 3 26 4 27 2 28 1 29 28 30 29 31 30 32 31 33
REMARK SMILES IDX 32 34 33 35 34 36 35 37 36 38 37 39 38 40 99 41 39 42 98 43
REMARK SMILES IDX 40 44 41 45 42 46 92 47 43 48 97 49 91 50 93 51 44 52 96 53
REMARK SMILES IDX 90 54 89 55 45 57 77 58 57 59 76 60 58 61 61 62 75 63 94 64
REMARK SMILES IDX 59 65 60 66 74 68 95 69 62 70 46 71 47 72 55 73 48 74 54 75
REMARK SMILES IDX 56 76 53 77 49 78 50 79 51 80 52 81 78 82 79 83 87 84 80 85
REMARK SMILES IDX 86 86 88 87 85 88 81 89 82 90 83 91 84 92 63 93 64 94 72 95
REMARK SMILES IDX 65 96 71 97 73 98 70 99 66 100 67 101 68 102 69 103
REMARK H PARENT 11 17 93 56 61 67
REMARK Flexibility Score: inf
ROOT
ATOM      1  C   UNL A   1      34.389  30.998  28.361  1.00  0.00     0.188 C 
ENDROOT
BRANCH   1   2
ATOM      2  C   UNL A   1      33.557  31.395  27.157  1.00  0.00     0.188 C 
BRANCH   2   3
ATOM      3  O   UNL A   1      32.188  31.085  27.195  1.00  0.00    -0.376 OA
BRANCH   3   4
ATOM      4  C   UNL A   1      31.801  30.158  26.190  1.00  0.00     0.202 C 
BRANCH   4   5
ATOM      5  C   UNL A   1      32.878  29.723  25.208  1.00  0.00     0.261 C 
BRANCH   5   6
ATOM      6  O   UNL A   1      32.474  28.532  24.499  1.00  0.00    -0.463 OA
BRANCH   6   7
ATOM      7  C   UNL A   1      32.727  27.371  25.122  1.00  0.00     0.310 C 
ATOM      8  O   UNL A   1      33.505  27.242  26.064  1.00  0.00    -0.252 OA
BRANCH   7   9
ATOM      9  C   UNL A   1      31.941  26.199  24.601  1.00  0.00     0.116 C 
ATOM     10  C   UNL A   1      32.501  24.759  24.769  1.00  0.00     0.097 C 
ATOM     11  C   UNL A   1      31.884  23.942  23.613  1.00  0.00     0.041 C 
ATOM     12  C   UNL A   1      30.438  24.275  23.312  1.00  0.00    -0.030 C 
ATOM     13  C   UNL A   1      30.431  26.314  24.768  1.00  0.00     0.043 C 
ATOM     14  C   UNL A   1      29.773  25.308  23.857  1.00  0.00    -0.030 C 
BRANCH  10  15
ATOM     15  C   UNL A   1      32.251  24.022  26.092  1.00  0.00     0.228 C 
ATOM     16  N   UNL A   1      32.981  22.921  26.506  1.00  0.00    -0.326 N 
ATOM     17  H   UNL A   1      32.835  22.680  27.450  1.00  0.00     0.169 HD
ATOM     18  O   UNL A   1      31.301  24.346  26.808  1.00  0.00    -0.274 OA
BRANCH  16  19
ATOM     19  C   UNL A   1      33.897  22.075  25.837  1.00  0.00     0.044 A 
ATOM     20  C   UNL A   1      36.258  21.553  25.549  1.00  0.00     0.062 A 
ATOM     21  C   UNL A   1      35.929  20.268  25.109  1.00  0.00     0.016 A 
ATOM     22  C   UNL A   1      35.242  22.452  25.913  1.00  0.00     0.042 A 
ATOM     23  C   UNL A   1      34.604  19.951  24.874  1.00  0.00     0.006 A 
ATOM     24  C   UNL A   1      33.606  20.899  25.133  1.00  0.00    -0.027 A 
ATOM     25  C   UNL A   1      32.349  20.717  24.354  1.00  0.00     0.046 C 
BRANCH  20  26
ATOM     26  C   UNL A   1      37.707  21.881  25.618  1.00  0.00     0.337 C 
ATOM     27  O   UNL A   1      38.588  21.109  25.281  1.00  0.00    -0.246 OA
BRANCH  26  28
ATOM     28  O   UNL A   1      37.930  23.154  26.013  1.00  0.00    -0.465 OA
ATOM     29  C   UNL A   1      39.207  23.333  26.626  1.00  0.00     0.282 C 
ENDBRANCH  26  28
ENDBRANCH  20  26
ENDBRANCH  16  19
ENDBRANCH  10  15
ENDBRANCH   7   9
ENDBRANCH   6   7
ENDBRANCH   5   6
ENDBRANCH   4   5
ENDBRANCH   3   4
ENDBRANCH   2   3
ENDBRANCH   1   2
BRANCH   1  30
ATOM     30  O   UNL A   1      35.739  31.402  28.460  1.00  0.00    -0.377 OA
BRANCH  30  31
ATOM     31  C   UNL A   1      36.388  31.480  29.735  1.00  0.00     0.188 C 
BRANCH  31  32
ATOM     32  C   UNL A   1      36.676  32.852  30.334  1.00  0.00     0.188 C 
BRANCH  32  33
ATOM     33  O   UNL A   1      35.438  33.539  30.526  1.00  0.00    -0.376 OA
BRANCH  33  34
ATOM     34  C   UNL A   1      34.511  32.912  31.403  1.00  0.00     0.202 C 
BRANCH  34  35
ATOM     35  C   UNL A   1      35.064  32.667  32.805  1.00  0.00     0.261 C 
BRANCH  35  36
ATOM     36  O   UNL A   1      34.550  33.667  33.708  1.00  0.00    -0.460 OA
BRANCH  36  37
ATOM     37  C   UNL A   1      35.335  34.777  33.836  1.00  0.00     0.338 C 
ATOM     38  O   UNL A   1      34.942  35.910  33.676  1.00  0.00    -0.246 OA
BRANCH  37  39
ATOM     39  C   UNL A   1      36.751  34.388  34.122  1.00  0.00     0.060 A 
ATOM     40  C   UNL A   1      37.759  34.647  33.181  1.00  0.00     0.016 A 
ATOM     41  C   UNL A   1      37.025  33.551  35.195  1.00  0.00     0.016 A 
ATOM     42  C   UNL A   1      38.969  33.931  33.227  1.00  0.00     0.010 A 
ATOM     43  C   UNL A   1      38.160  32.761  35.155  1.00  0.00     0.010 A 
ATOM     44  C   UNL A   1      39.140  32.911  34.162  1.00  0.00    -0.014 A 
BRANCH  44  45
ATOM     45  C   UNL A   1      40.166  31.840  34.103  1.00  0.00     0.031 A 
ATOM     46  C   UNL A   1      39.914  30.603  33.275  1.00  0.00     0.074 A 
ATOM     47  C   UNL A   1      41.444  32.161  34.442  1.00  0.00     0.049 A 
ATOM     48  N   UNL A   1      40.800  29.714  32.969  1.00  0.00    -0.248 NA
ATOM     49  C   UNL A   1      38.622  30.281  32.664  1.00  0.00     0.031 C 
ATOM     50  C   UNL A   1      42.660  31.605  33.857  1.00  0.00     0.029 A 
ATOM     51  N   UNL A   1      41.946  33.096  35.348  1.00  0.00    -0.354 N 
ATOM     52  C   UNL A   1      40.351  28.972  31.892  1.00  0.00     0.074 A 
ATOM     53  C   UNL A   1      38.949  29.300  31.810  1.00  0.00     0.031 C 
ATOM     54  C   UNL A   1      43.752  32.124  34.426  1.00  0.00     0.029 A 
ATOM     55  C   UNL A   1      43.296  32.765  35.621  1.00  0.00     0.049 A 
ATOM     56  H   UNL A   1      41.448  33.855  35.730  1.00  0.00     0.167 HD
ATOM     57  C   UNL A   1      41.256  28.283  31.124  1.00  0.00     0.034 A 
ATOM     58  C   UNL A   1      43.655  32.304  36.859  1.00  0.00     0.034 A 
ATOM     59  C   UNL A   1      42.603  28.242  31.741  1.00  0.00     0.049 A 
ATOM     60  C   UNL A   1      43.975  30.799  36.838  1.00  0.00     0.074 A 
ATOM     61  C   UNL A   1      43.907  28.427  31.303  1.00  0.00     0.029 A 
ATOM     62  N   UNL A   1      42.705  28.104  33.122  1.00  0.00    -0.354 N 
ATOM     63  N   UNL A   1      43.749  30.035  35.791  1.00  0.00    -0.248 NA
ATOM     64  C   UNL A   1      44.602  30.025  37.904  1.00  0.00     0.031 C 
ATOM     65  C   UNL A   1      44.763  28.472  32.447  1.00  0.00     0.029 A 
ATOM     66  C   UNL A   1      43.995  28.229  33.572  1.00  0.00     0.049 A 
ATOM     67  H   UNL A   1      41.936  27.934  33.712  1.00  0.00     0.167 HD
ATOM     68  C   UNL A   1      44.251  28.782  35.956  1.00  0.00     0.074 A 
ATOM     69  C   UNL A   1      44.690  28.798  37.346  1.00  0.00     0.031 C 
ATOM     70  C   UNL A   1      44.293  27.853  34.945  1.00  0.00     0.034 A 
BRANCH  57  71
ATOM     71  C   UNL A   1      41.026  27.749  29.703  1.00  0.00     0.023 A 
ATOM     72  C   UNL A   1      41.953  28.082  28.683  1.00  0.00     0.031 A 
ATOM     73  C   UNL A   1      39.885  27.052  29.247  1.00  0.00     0.131 A 
ATOM     74  C   UNL A   1      41.718  27.786  27.322  1.00  0.00     0.055 A 
ATOM     75  C   UNL A   1      39.687  26.690  27.899  1.00  0.00     0.041 A 
ATOM     76  F   UNL A   1      38.872  26.729  30.059  1.00  0.00    -0.206 F 
ATOM     77  C   UNL A   1      40.597  27.071  26.926  1.00  0.00     0.022 A 
BRANCH  74  78
ATOM     78  S   UNL A   1      42.871  28.407  26.060  1.00  0.00     0.124 S 
ATOM     79  O   UNL A   1      43.008  29.810  26.434  1.00  0.00    -0.237 OA
ATOM     80  O   UNL A   1      44.044  27.565  26.261  1.00  0.00    -0.237 OA
ATOM     81  O   UNL A   1      42.157  28.172  24.803  1.00  0.00    -0.744 OA
ENDBRANCH  74  78
ENDBRANCH  57  71
BRANCH  58  82
ATOM     82  C   UNL A   1      43.083  33.242  37.889  1.00  0.00     0.023 A 
ATOM     83  C   UNL A   1      42.523  32.554  39.008  1.00  0.00     0.031 A 
ATOM     84  C   UNL A   1      43.741  34.457  38.147  1.00  0.00     0.131 A 
ATOM     85  C   UNL A   1      42.939  32.878  40.311  1.00  0.00     0.055 A 
ATOM     86  C   UNL A   1      44.060  34.837  39.462  1.00  0.00     0.041 A 
ATOM     87  F   UNL A   1      44.281  35.164  37.142  1.00  0.00    -0.206 F 
ATOM     88  C   UNL A   1      43.733  34.006  40.540  1.00  0.00     0.022 A 
BRANCH  85  89
ATOM     89  S   UNL A   1      42.747  31.631  41.641  1.00  0.00     0.124 S 
ATOM     90  O   UNL A   1      43.797  30.674  41.310  1.00  0.00    -0.237 OA
ATOM     91  O   UNL A   1      42.951  32.394  42.872  1.00  0.00    -0.237 OA
ATOM     92  O   UNL A   1      41.376  31.157  41.459  1.00  0.00    -0.744 OA
ENDBRANCH  85  89
ENDBRANCH  58  82
BRANCH  70  93
ATOM     93  C   UNL A   1      44.589  26.399  35.157  1.00  0.00     0.023 A 
ATOM     94  C   UNL A   1      45.886  25.913  35.144  1.00  0.00     0.031 A 
ATOM     95  C   UNL A   1      43.555  25.460  35.420  1.00  0.00     0.131 A 
ATOM     96  C   UNL A   1      46.145  24.621  35.607  1.00  0.00     0.055 A 
ATOM     97  C   UNL A   1      43.811  24.129  35.739  1.00  0.00     0.041 A 
ATOM     98  F   UNL A   1      42.260  25.801  35.443  1.00  0.00    -0.206 F 
ATOM     99  C   UNL A   1      45.121  23.714  35.888  1.00  0.00     0.022 A 
BRANCH  96 100
ATOM    100  S   UNL A   1      47.854  24.248  36.045  1.00  0.00     0.124 S 
ATOM    101  O   UNL A   1      48.267  23.352  34.971  1.00  0.00    -0.237 OA
ATOM    102  O   UNL A   1      48.455  25.580  36.022  1.00  0.00    -0.237 OA
ATOM    103  O   UNL A   1      47.745  23.639  37.368  1.00  0.00    -0.744 OA
ENDBRANCH  96 100
ENDBRANCH  70  93
ENDBRANCH  44  45
ENDBRANCH  37  39
ENDBRANCH  36  37
ENDBRANCH  35  36
ENDBRANCH  34  35
ENDBRANCH  33  34
ENDBRANCH  32  33
ENDBRANCH  31  32
ENDBRANCH  30  31
ENDBRANCH   1  30
TORSDOF 27
ENDMDL
MODEL 3
REMARK VINA RESULT:      -7.5      6.226     11.129
REMARK SMILES COC(=O)c1ccc(C)c(NC(=O)[C@H]2CC=CC[C@H]2C(=O)OCCOCCOCCOCCOC(=O)c2ccc(-c3c4nc(c(-c5cc(S(=O)(=O)[O-])ccc5F)c5ccc([nH]5)c(-c5cc(S(=O)(=O)[O-])ccc5F)c5nc(c(-c6cc(S(=O)(=O)[O-])ccc6F)c6ccc3[nH]6)C=C5)C=C4)cc2)c1
REMARK SMILES IDX 27 1 26 2 25 3 24 4 23 5 22 6 20 7 21 8 19 9 14 10 15 11
REMARK SMILES IDX 16 12 18 13 17 14 12 15 11 16 13 18 10 19 5 20 6 21 100 22
REMARK SMILES IDX 7 23 8 24 9 25 3 26 4 27 2 28 1 29 28 30 29 31 30 32 31 33
REMARK SMILES IDX 32 34 33 35 34 36 35 37 36 38 37 39 38 40 99 41 39 42 98 43
REMARK SMILES IDX 40 44 41 45 42 46 92 47 43 48 97 49 91 50 93 51 44 52 96 53
REMARK SMILES IDX 90 54 89 55 45 57 77 58 57 59 76 60 58 61 61 62 75 63 94 64
REMARK SMILES IDX 59 65 60 66 74 68 95 69 62 70 46 71 47 72 55 73 48 74 54 75
REMARK SMILES IDX 56 76 53 77 49 78 50 79 51 80 52 81 78 82 79 83 87 84 80 85
REMARK SMILES IDX 86 86 88 87 85 88 81 89 82 90 83 91 84 92 63 93 64 94 72 95
REMARK SMILES IDX 65 96 71 97 73 98 70 99 66 100 67 101 68 102 69 103
REMARK H PARENT 11 17 93 56 61 67
REMARK Flexibility Score: inf
ROOT
ATOM      1  C   UNL A   1      36.067  22.670  25.216  1.00  0.00     0.188 C 
ENDROOT
BRANCH   1   2
ATOM      2  C   UNL A   1      35.552  24.039  24.815  1.00  0.00     0.188 C 
BRANCH   2   3
ATOM      3  O   UNL A   1      34.830  24.759  25.780  1.00  0.00    -0.376 OA
BRANCH   3   4
ATOM      4  C   UNL A   1      33.424  24.695  25.581  1.00  0.00     0.202 C 
BRANCH   4   5
ATOM      5  C   UNL A   1      32.598  25.835  26.154  1.00  0.00     0.261 C 
BRANCH   5   6
ATOM      6  O   UNL A   1      33.268  27.101  25.962  1.00  0.00    -0.463 OA
BRANCH   6   7
ATOM      7  C   UNL A   1      33.355  27.525  24.692  1.00  0.00     0.310 C 
ATOM      8  O   UNL A   1      34.316  27.317  23.954  1.00  0.00    -0.252 OA
BRANCH   7   9
ATOM      9  C   UNL A   1      32.145  28.266  24.196  1.00  0.00     0.116 C 
ATOM     10  C   UNL A   1      31.252  27.634  23.092  1.00  0.00     0.097 C 
ATOM     11  C   UNL A   1      30.591  28.826  22.367  1.00  0.00     0.041 C 
ATOM     12  C   UNL A   1      30.164  29.956  23.278  1.00  0.00    -0.030 C 
ATOM     13  C   UNL A   1      31.380  29.034  25.266  1.00  0.00     0.043 C 
ATOM     14  C   UNL A   1      30.479  30.032  24.583  1.00  0.00    -0.030 C 
BRANCH  10  15
ATOM     15  C   UNL A   1      30.162  26.636  23.510  1.00  0.00     0.228 C 
ATOM     16  N   UNL A   1      30.340  25.263  23.511  1.00  0.00    -0.326 N 
ATOM     17  H   UNL A   1      29.628  24.771  23.981  1.00  0.00     0.169 HD
ATOM     18  O   UNL A   1      29.029  27.038  23.781  1.00  0.00    -0.274 OA
BRANCH  16  19
ATOM     19  C   UNL A   1      31.346  24.429  22.969  1.00  0.00     0.044 A 
ATOM     20  C   UNL A   1      32.266  22.174  22.986  1.00  0.00     0.062 A 
ATOM     21  C   UNL A   1      32.843  22.391  21.732  1.00  0.00     0.016 A 
ATOM     22  C   UNL A   1      31.518  23.193  23.600  1.00  0.00     0.042 A 
ATOM     23  C   UNL A   1      32.816  23.659  21.184  1.00  0.00     0.006 A 
ATOM     24  C   UNL A   1      32.165  24.697  21.863  1.00  0.00    -0.027 A 
ATOM     25  C   UNL A   1      32.648  26.066  21.533  1.00  0.00     0.046 C 
BRANCH  20  26
ATOM     26  C   UNL A   1      32.479  20.833  23.592  1.00  0.00     0.337 C 
ATOM     27  O   UNL A   1      32.124  19.793  23.065  1.00  0.00    -0.246 OA
BRANCH  26  28
ATOM     28  O   UNL A   1      33.180  20.893  24.746  1.00  0.00    -0.465 OA
ATOM     29  C   UNL A   1      33.836  19.666  25.065  1.00  0.00     0.282 C 
ENDBRANCH  26  28
ENDBRANCH  20  26
ENDBRANCH  16  19
ENDBRANCH  10  15
ENDBRANCH   7   9
ENDBRANCH   6   7
ENDBRANCH   5   6
ENDBRANCH   4   5
ENDBRANCH   3   4
ENDBRANCH   2   3
ENDBRANCH   1   2
BRANCH   1  30
ATOM     30  O   UNL A   1      37.152  22.549  26.112  1.00  0.00    -0.377 OA
BRANCH  30  31
ATOM     31  C   UNL A   1      38.143  23.581  26.205  1.00  0.00     0.188 C 
BRANCH  31  32
ATOM     32  C   UNL A   1      39.569  23.201  26.585  1.00  0.00     0.188 C 
BRANCH  32  33
ATOM     33  O   UNL A   1      39.548  21.937  27.249  1.00  0.00    -0.376 OA
BRANCH  33  34
ATOM     34  C   UNL A   1      40.810  21.308  27.428  1.00  0.00     0.202 C 
BRANCH  34  35
ATOM     35  C   UNL A   1      41.303  20.564  26.190  1.00  0.00     0.261 C 
BRANCH  35  36
ATOM     36  O   UNL A   1      42.133  21.439  25.399  1.00  0.00    -0.460 OA
BRANCH  36  37
ATOM     37  C   UNL A   1      43.475  21.241  25.551  1.00  0.00     0.338 C 
ATOM     38  O   UNL A   1      44.037  20.191  25.334  1.00  0.00    -0.246 OA
BRANCH  37  39
ATOM     39  C   UNL A   1      44.130  22.472  26.093  1.00  0.00     0.060 A 
ATOM     40  C   UNL A   1      44.132  22.723  27.472  1.00  0.00     0.016 A 
ATOM     41  C   UNL A   1      44.508  23.484  25.220  1.00  0.00     0.016 A 
ATOM     42  C   UNL A   1      44.342  24.029  27.953  1.00  0.00     0.010 A 
ATOM     43  C   UNL A   1      44.581  24.782  25.692  1.00  0.00     0.010 A 
ATOM     44  C   UNL A   1      44.473  25.088  27.057  1.00  0.00    -0.014 A 
BRANCH  44  45
ATOM     45  C   UNL A   1      44.323  26.529  27.384  1.00  0.00     0.031 A 
ATOM     46  C   UNL A   1      42.962  27.177  27.314  1.00  0.00     0.074 A 
ATOM     47  C   UNL A   1      45.302  27.121  28.120  1.00  0.00     0.049 A 
ATOM     48  N   UNL A   1      42.664  28.345  27.777  1.00  0.00    -0.248 NA
ATOM     49  C   UNL A   1      41.778  26.526  26.747  1.00  0.00     0.031 C 
ATOM     50  C   UNL A   1      45.120  28.182  29.106  1.00  0.00     0.029 A 
ATOM     51  N   UNL A   1      46.672  26.872  28.196  1.00  0.00    -0.354 N 
ATOM     52  C   UNL A   1      41.292  28.446  27.920  1.00  0.00     0.074 A 
ATOM     53  C   UNL A   1      40.786  27.324  27.168  1.00  0.00     0.031 C 
ATOM     54  C   UNL A   1      46.288  28.551  29.641  1.00  0.00     0.029 A 
ATOM     55  C   UNL A   1      47.294  28.000  28.787  1.00  0.00     0.049 A 
ATOM     56  H   UNL A   1      47.128  26.054  27.891  1.00  0.00     0.167 HD
ATOM     57  C   UNL A   1      40.771  29.387  28.773  1.00  0.00     0.034 A 
ATOM     58  C   UNL A   1      48.116  28.802  28.041  1.00  0.00     0.034 A 
ATOM     59  C   UNL A   1      41.794  30.352  29.241  1.00  0.00     0.049 A 
ATOM     60  C   UNL A   1      47.455  30.154  27.720  1.00  0.00     0.074 A 
ATOM     61  C   UNL A   1      42.145  30.922  30.457  1.00  0.00     0.029 A 
ATOM     62  N   UNL A   1      42.774  30.776  28.349  1.00  0.00    -0.354 N 
ATOM     63  N   UNL A   1      46.192  30.413  27.983  1.00  0.00    -0.248 NA
ATOM     64  C   UNL A   1      48.106  31.330  27.151  1.00  0.00     0.031 C 
ATOM     65  C   UNL A   1      43.381  31.620  30.285  1.00  0.00     0.029 A 
ATOM     66  C   UNL A   1      43.737  31.547  28.950  1.00  0.00     0.049 A 
ATOM     67  H   UNL A   1      42.777  30.547  27.392  1.00  0.00     0.167 HD
ATOM     68  C   UNL A   1      45.879  31.716  27.750  1.00  0.00     0.074 A 
ATOM     69  C   UNL A   1      47.096  32.228  27.132  1.00  0.00     0.031 C 
ATOM     70  C   UNL A   1      44.674  32.271  28.107  1.00  0.00     0.034 A 
BRANCH  57  71
ATOM     71  C   UNL A   1      39.353  29.396  29.362  1.00  0.00     0.023 A 
ATOM     72  C   UNL A   1      38.407  30.329  28.866  1.00  0.00     0.031 A 
ATOM     73  C   UNL A   1      38.905  28.649  30.475  1.00  0.00     0.131 A 
ATOM     74  C   UNL A   1      37.148  30.525  29.475  1.00  0.00     0.055 A 
ATOM     75  C   UNL A   1      37.620  28.792  31.035  1.00  0.00     0.041 A 
ATOM     76  F   UNL A   1      39.695  27.783  31.119  1.00  0.00    -0.206 F 
ATOM     77  C   UNL A   1      36.739  29.744  30.547  1.00  0.00     0.022 A 
BRANCH  74  78
ATOM     78  S   UNL A   1      36.068  31.864  28.886  1.00  0.00     0.124 S 
ATOM     79  O   UNL A   1      35.164  32.048  30.017  1.00  0.00    -0.237 OA
ATOM     80  O   UNL A   1      37.014  32.945  28.631  1.00  0.00    -0.237 OA
ATOM     81  O   UNL A   1      35.446  31.299  27.688  1.00  0.00    -0.744 OA
ENDBRANCH  74  78
ENDBRANCH  57  71
BRANCH  58  82
ATOM     82  C   UNL A   1      49.105  27.921  27.327  1.00  0.00     0.023 A 
ATOM     83  C   UNL A   1      48.548  27.293  26.172  1.00  0.00     0.031 A 
ATOM     84  C   UNL A   1      50.449  28.324  27.252  1.00  0.00     0.131 A 
ATOM     85  C   UNL A   1      49.187  27.421  24.926  1.00  0.00     0.055 A 
ATOM     86  C   UNL A   1      51.126  28.348  26.020  1.00  0.00     0.041 A 
ATOM     87  F   UNL A   1      51.042  28.910  28.304  1.00  0.00    -0.206 F 
ATOM     88  C   UNL A   1      50.467  27.976  24.842  1.00  0.00     0.022 A 
BRANCH  85  89
ATOM     89  S   UNL A   1      48.201  27.204  23.396  1.00  0.00     0.124 S 
ATOM     90  O   UNL A   1      48.693  28.295  22.562  1.00  0.00    -0.237 OA
ATOM     91  O   UNL A   1      48.545  25.856  22.943  1.00  0.00    -0.237 OA
ATOM     92  O   UNL A   1      46.822  27.336  23.866  1.00  0.00    -0.744 OA
ENDBRANCH  85  89
ENDBRANCH  58  82
BRANCH  70  93
ATOM     93  C   UNL A   1      44.201  33.613  27.635  1.00  0.00     0.023 A 
ATOM     94  C   UNL A   1      44.200  34.718  28.470  1.00  0.00     0.031 A 
ATOM     95  C   UNL A   1      43.766  33.821  26.297  1.00  0.00     0.131 A 
ATOM     96  C   UNL A   1      44.012  35.993  27.930  1.00  0.00     0.055 A 
ATOM     97  C   UNL A   1      43.436  35.079  25.800  1.00  0.00     0.041 A 
ATOM     98  F   UNL A   1      43.705  32.830  25.397  1.00  0.00    -0.206 F 
ATOM     99  C   UNL A   1      43.611  36.187  26.607  1.00  0.00     0.022 A 
BRANCH  96 100
ATOM    100  S   UNL A   1      44.529  37.386  28.952  1.00  0.00     0.124 S 
ATOM    101  O   UNL A   1      44.496  38.499  28.009  1.00  0.00    -0.237 OA
ATOM    102  O   UNL A   1      43.487  37.395  29.977  1.00  0.00    -0.237 OA
ATOM    103  O   UNL A   1      45.856  36.994  29.420  1.00  0.00    -0.744 OA
ENDBRANCH  96 100
ENDBRANCH  70  93
ENDBRANCH  44  45
ENDBRANCH  37  39
ENDBRANCH  36  37
ENDBRANCH  35  36
ENDBRANCH  34  35
ENDBRANCH  33  34
ENDBRANCH  32  33
ENDBRANCH  31  32
ENDBRANCH  30  31
ENDBRANCH   1  30
TORSDOF 27
ENDMDL
