MODEL 1
REMARK VINA RESULT:      -8.6      0.000      0.000
REMARK SMILES Cc1ccc(NC(=O)C[C@H]2C(=O)NCCN2C(=O)CCC(=O)OCCOCCOCCOCCOC(=O)c2ccc(-c3c4nc(c(-c5cc(S(=O)(=O)[O-])ccc5F)c5ccc([nH]5)c(-c5cc(S(=O)(=O)[O-])ccc5F)c5nc(c(-c6cc(S(=O)(=O)[O-])ccc6F)c6ccc3[nH]6)C=C5)C=C4)cc2)c(C)c1
REMARK SMILES IDX 27 1 26 2 25 3 24 4 23 5 21 6 22 7 20 8 19 9 17 10 18 11
REMARK SMILES IDX 16 12 10 13 11 14 12 15 13 16 15 17 14 18 9 20 7 21 6 22
REMARK SMILES IDX 8 24 5 25 1 26 2 27 3 28 103 29 4 30 101 31 102 32 28 33
REMARK SMILES IDX 29 34 30 35 31 36 32 37 33 38 34 39 35 40 36 41 37 42 38 43
REMARK SMILES IDX 39 44 100 45 40 46 99 47 41 48 42 49 43 50 93 51 44 52 98 53
REMARK SMILES IDX 92 54 94 55 45 56 97 57 91 58 90 59 46 61 78 62 58 63 77 64
REMARK SMILES IDX 59 65 62 66 76 67 95 68 60 69 61 70 75 72 96 73 63 74 47 75
REMARK SMILES IDX 48 76 56 77 49 78 55 79 57 80 54 81 50 82 51 83 52 84 53 85
REMARK SMILES IDX 79 86 80 87 88 88 81 89 87 90 89 91 86 92 82 93 83 94 84 95
REMARK SMILES IDX 85 96 64 97 65 98 73 99 66 100 72 101 74 102 71 103 67 104
REMARK SMILES IDX 68 105 69 106 70 107
REMARK H PARENT 13 19 6 23 94 60 62 71
REMARK Flexibility Score: inf
ROOT
ATOM      1  C   UNL A   1      42.480  21.864  27.357  1.00  0.00     0.188 C 
ENDROOT
BRANCH   1   2
ATOM      2  O   UNL A   1      41.733  23.022  27.007  1.00  0.00    -0.376 OA
BRANCH   2   3
ATOM      3  C   UNL A   1      40.656  22.849  26.070  1.00  0.00     0.202 C 
BRANCH   3   4
ATOM      4  C   UNL A   1      39.394  22.113  26.559  1.00  0.00     0.261 C 
BRANCH   4   5
ATOM      5  O   UNL A   1      38.684  21.558  25.422  1.00  0.00    -0.463 OA
BRANCH   5   6
ATOM      6  C   UNL A   1      37.457  22.038  25.125  1.00  0.00     0.306 C 
ATOM      7  O   UNL A   1      37.255  22.951  24.332  1.00  0.00    -0.252 OA
BRANCH   6   8
ATOM      8  C   UNL A   1      36.316  21.300  25.823  1.00  0.00     0.132 C 
BRANCH   8   9
ATOM      9  C   UNL A   1      34.845  21.483  25.436  1.00  0.00     0.112 C 
BRANCH   9  10
ATOM     10  C   UNL A   1      33.750  22.184  26.262  1.00  0.00     0.223 C 
ATOM     11  O   UNL A   1      33.854  22.142  27.495  1.00  0.00    -0.275 OA
BRANCH  10  12
ATOM     12  N   UNL A   1      32.792  22.998  25.678  1.00  0.00    -0.328 N 
ATOM     13  C   UNL A   1      32.724  24.448  25.782  1.00  0.00     0.183 C 
ATOM     14  C   UNL A   1      31.408  24.995  26.380  1.00  0.00     0.243 C 
ATOM     15  O   UNL A   1      31.293  26.166  26.736  1.00  0.00    -0.273 OA
ATOM     16  N   UNL A   1      30.370  24.120  26.541  1.00  0.00    -0.353 N 
ATOM     17  C   UNL A   1      31.537  22.394  25.206  1.00  0.00     0.141 C 
ATOM     18  C   UNL A   1      30.433  22.706  26.217  1.00  0.00     0.137 C 
ATOM     19  H   UNL A   1      29.524  24.472  26.902  1.00  0.00     0.163 HD
BRANCH  13  20
ATOM     20  C   UNL A   1      33.196  25.251  24.565  1.00  0.00     0.135 C 
BRANCH  20  21
ATOM     21  C   UNL A   1      32.630  24.918  23.200  1.00  0.00     0.227 C 
ATOM     22  N   UNL A   1      31.663  25.630  22.550  1.00  0.00    -0.326 N 
ATOM     23  H   UNL A   1      31.388  25.226  21.696  1.00  0.00     0.169 HD
ATOM     24  O   UNL A   1      33.092  23.949  22.587  1.00  0.00    -0.275 OA
BRANCH  22  25
ATOM     25  C   UNL A   1      30.980  26.819  22.851  1.00  0.00     0.044 A 
ATOM     26  C   UNL A   1      28.280  30.162  23.153  1.00  0.00     0.044 C 
ATOM     27  C   UNL A   1      29.257  29.024  23.220  1.00  0.00    -0.051 A 
ATOM     28  C   UNL A   1      28.806  27.734  23.483  1.00  0.00     0.005 A 
ATOM     29  C   UNL A   1      30.612  29.207  22.921  1.00  0.00     0.009 A 
ATOM     30  C   UNL A   1      29.669  26.647  23.328  1.00  0.00     0.026 A 
ATOM     31  C   UNL A   1      31.497  28.115  22.751  1.00  0.00    -0.027 A 
ATOM     32  C   UNL A   1      32.954  28.416  22.536  1.00  0.00     0.046 C 
ENDBRANCH  22  25
ENDBRANCH  20  21
ENDBRANCH  13  20
ENDBRANCH  10  12
ENDBRANCH   9  10
ENDBRANCH   8   9
ENDBRANCH   6   8
ENDBRANCH   5   6
ENDBRANCH   4   5
ENDBRANCH   3   4
ENDBRANCH   2   3
ENDBRANCH   1   2
BRANCH   1  33
ATOM     33  C   UNL A   1      42.588  20.844  26.234  1.00  0.00     0.188 C 
BRANCH  33  34
ATOM     34  O   UNL A   1      43.483  21.260  25.191  1.00  0.00    -0.377 OA
BRANCH  34  35
ATOM     35  C   UNL A   1      44.716  20.549  25.091  1.00  0.00     0.188 C 
BRANCH  35  36
ATOM     36  C   UNL A   1      45.964  21.421  25.024  1.00  0.00     0.188 C 
BRANCH  36  37
ATOM     37  O   UNL A   1      46.038  22.621  25.781  1.00  0.00    -0.376 OA
BRANCH  37  38
ATOM     38  C   UNL A   1      45.891  23.893  25.171  1.00  0.00     0.202 C 
BRANCH  38  39
ATOM     39  C   UNL A   1      44.458  24.417  24.976  1.00  0.00     0.261 C 
BRANCH  39  40
ATOM     40  O   UNL A   1      44.264  25.815  25.212  1.00  0.00    -0.460 OA
BRANCH  40  41
ATOM     41  C   UNL A   1      42.999  26.196  25.497  1.00  0.00     0.338 C 
ATOM     42  O   UNL A   1      42.002  26.029  24.826  1.00  0.00    -0.246 OA
BRANCH  41  43
ATOM     43  C   UNL A   1      43.024  26.836  26.825  1.00  0.00     0.060 A 
ATOM     44  C   UNL A   1      43.953  27.847  27.082  1.00  0.00     0.016 A 
ATOM     45  C   UNL A   1      42.188  26.356  27.839  1.00  0.00     0.016 A 
ATOM     46  C   UNL A   1      44.103  28.331  28.383  1.00  0.00     0.010 A 
ATOM     47  C   UNL A   1      42.344  26.833  29.140  1.00  0.00     0.010 A 
ATOM     48  C   UNL A   1      43.342  27.781  29.425  1.00  0.00    -0.014 A 
BRANCH  48  49
ATOM     49  C   UNL A   1      43.774  27.992  30.829  1.00  0.00     0.031 A 
ATOM     50  C   UNL A   1      43.120  29.108  31.601  1.00  0.00     0.074 A 
ATOM     51  C   UNL A   1      44.692  27.203  31.415  1.00  0.00     0.049 A 
ATOM     52  N   UNL A   1      43.310  29.486  32.838  1.00  0.00    -0.248 NA
ATOM     53  C   UNL A   1      42.116  29.903  30.875  1.00  0.00     0.031 C 
ATOM     54  C   UNL A   1      45.360  26.073  30.780  1.00  0.00     0.029 A 
ATOM     55  N   UNL A   1      45.221  27.236  32.679  1.00  0.00    -0.354 N 
ATOM     56  C   UNL A   1      42.438  30.550  33.044  1.00  0.00     0.074 A 
ATOM     57  C   UNL A   1      41.762  30.793  31.788  1.00  0.00     0.031 C 
ATOM     58  C   UNL A   1      46.222  25.523  31.653  1.00  0.00     0.029 A 
ATOM     59  C   UNL A   1      46.183  26.278  32.901  1.00  0.00     0.049 A 
ATOM     60  H   UNL A   1      44.940  27.886  33.364  1.00  0.00     0.167 HD
ATOM     61  C   UNL A   1      42.208  31.248  34.182  1.00  0.00     0.034 A 
ATOM     62  C   UNL A   1      46.950  26.046  33.984  1.00  0.00     0.034 A 
ATOM     63  C   UNL A   1      42.913  31.012  35.417  1.00  0.00     0.049 A 
ATOM     64  C   UNL A   1      46.746  26.899  35.211  1.00  0.00     0.074 A 
ATOM     65  C   UNL A   1      42.763  31.655  36.633  1.00  0.00     0.029 A 
ATOM     66  N   UNL A   1      43.916  30.066  35.589  1.00  0.00    -0.354 N 
ATOM     67  N   UNL A   1      45.899  27.885  35.402  1.00  0.00    -0.248 NA
ATOM     68  C   UNL A   1      47.588  26.594  36.374  1.00  0.00     0.031 C 
ATOM     69  C   UNL A   1      43.724  31.150  37.516  1.00  0.00     0.029 A 
ATOM     70  C   UNL A   1      44.420  30.134  36.879  1.00  0.00     0.049 A 
ATOM     71  H   UNL A   1      44.225  29.439  34.896  1.00  0.00     0.167 HD
ATOM     72  C   UNL A   1      46.084  28.294  36.720  1.00  0.00     0.074 A 
ATOM     73  C   UNL A   1      47.111  27.438  37.277  1.00  0.00     0.031 C 
ATOM     74  C   UNL A   1      45.459  29.284  37.411  1.00  0.00     0.034 A 
BRANCH  61  75
ATOM     75  C   UNL A   1      41.192  32.362  34.111  1.00  0.00     0.023 A 
ATOM     76  C   UNL A   1      39.822  32.129  34.331  1.00  0.00     0.031 A 
ATOM     77  C   UNL A   1      41.590  33.665  33.768  1.00  0.00     0.131 A 
ATOM     78  C   UNL A   1      38.895  33.164  34.134  1.00  0.00     0.055 A 
ATOM     79  C   UNL A   1      40.672  34.710  33.652  1.00  0.00     0.041 A 
ATOM     80  F   UNL A   1      42.880  33.942  33.518  1.00  0.00    -0.206 F 
ATOM     81  C   UNL A   1      39.313  34.459  33.820  1.00  0.00     0.022 A 
BRANCH  78  82
ATOM     82  S   UNL A   1      37.126  32.761  34.149  1.00  0.00     0.124 S 
ATOM     83  O   UNL A   1      37.116  31.452  33.499  1.00  0.00    -0.237 OA
ATOM     84  O   UNL A   1      36.811  32.771  35.573  1.00  0.00    -0.237 OA
ATOM     85  O   UNL A   1      36.522  33.840  33.369  1.00  0.00    -0.744 OA
ENDBRANCH  78  82
ENDBRANCH  61  75
BRANCH  62  86
ATOM     86  C   UNL A   1      47.998  24.985  33.955  1.00  0.00     0.023 A 
ATOM     87  C   UNL A   1      47.720  23.672  34.369  1.00  0.00     0.031 A 
ATOM     88  C   UNL A   1      49.314  25.287  33.560  1.00  0.00     0.131 A 
ATOM     89  C   UNL A   1      48.754  22.724  34.428  1.00  0.00     0.055 A 
ATOM     90  C   UNL A   1      50.326  24.326  33.569  1.00  0.00     0.041 A 
ATOM     91  F   UNL A   1      49.634  26.526  33.153  1.00  0.00    -0.206 F 
ATOM     92  C   UNL A   1      50.051  23.038  34.018  1.00  0.00     0.022 A 
BRANCH  89  93
ATOM     93  S   UNL A   1      48.398  21.093  35.136  1.00  0.00     0.124 S 
ATOM     94  O   UNL A   1      49.437  20.270  34.527  1.00  0.00    -0.237 OA
ATOM     95  O   UNL A   1      48.537  21.346  36.567  1.00  0.00    -0.237 OA
ATOM     96  O   UNL A   1      47.036  20.814  34.685  1.00  0.00    -0.744 OA
ENDBRANCH  89  93
ENDBRANCH  62  86
BRANCH  74  97
ATOM     97  C   UNL A   1      45.853  29.455  38.858  1.00  0.00     0.023 A 
ATOM     98  C   UNL A   1      45.262  28.694  39.881  1.00  0.00     0.031 A 
ATOM     99  C   UNL A   1      46.815  30.416  39.221  1.00  0.00     0.131 A 
ATOM    100  C   UNL A   1      45.584  28.952  41.221  1.00  0.00     0.055 A 
ATOM    101  C   UNL A   1      47.183  30.620  40.552  1.00  0.00     0.041 A 
ATOM    102  F   UNL A   1      47.411  31.173  38.287  1.00  0.00    -0.206 F 
ATOM    103  C   UNL A   1      46.554  29.898  41.562  1.00  0.00     0.022 A 
BRANCH 100 104
ATOM    104  S   UNL A   1      44.638  28.112  42.521  1.00  0.00     0.124 S 
ATOM    105  O   UNL A   1      44.253  26.869  41.860  1.00  0.00    -0.237 OA
ATOM    106  O   UNL A   1      45.621  27.988  43.591  1.00  0.00    -0.237 OA
ATOM    107  O   UNL A   1      43.537  29.036  42.794  1.00  0.00    -0.744 OA
ENDBRANCH 100 104
ENDBRANCH  74  97
ENDBRANCH  48  49
ENDBRANCH  41  43
ENDBRANCH  40  41
ENDBRANCH  39  40
ENDBRANCH  38  39
ENDBRANCH  37  38
ENDBRANCH  36  37
ENDBRANCH  35  36
ENDBRANCH  34  35
ENDBRANCH  33  34
ENDBRANCH   1  33
TORSDOF 29
ENDMDL
MODEL 2
REMARK VINA RESULT:      -8.0      1.866      2.166
REMARK SMILES Cc1ccc(NC(=O)C[C@H]2C(=O)NCCN2C(=O)CCC(=O)OCCOCCOCCOCCOC(=O)c2ccc(-c3c4nc(c(-c5cc(S(=O)(=O)[O-])ccc5F)c5ccc([nH]5)c(-c5cc(S(=O)(=O)[O-])ccc5F)c5nc(c(-c6cc(S(=O)(=O)[O-])ccc6F)c6ccc3[nH]6)C=C5)C=C4)cc2)c(C)c1
REMARK SMILES IDX 27 1 26 2 25 3 24 4 23 5 21 6 22 7 20 8 19 9 17 10 18 11
REMARK SMILES IDX 16 12 10 13 11 14 12 15 13 16 15 17 14 18 9 20 7 21 6 22
REMARK SMILES IDX 8 24 5 25 1 26 2 27 3 28 103 29 4 30 101 31 102 32 28 33
REMARK SMILES IDX 29 34 30 35 31 36 32 37 33 38 34 39 35 40 36 41 37 42 38 43
REMARK SMILES IDX 39 44 100 45 40 46 99 47 41 48 42 49 43 50 93 51 44 52 98 53
REMARK SMILES IDX 92 54 94 55 45 56 97 57 91 58 90 59 46 61 78 62 58 63 77 64
REMARK SMILES IDX 59 65 62 66 76 67 95 68 60 69 61 70 75 72 96 73 63 74 47 75
REMARK SMILES IDX 48 76 56 77 49 78 55 79 57 80 54 81 50 82 51 83 52 84 53 85
REMARK SMILES IDX 79 86 80 87 88 88 81 89 87 90 89 91 86 92 82 93 83 94 84 95
REMARK SMILES IDX 85 96 64 97 65 98 73 99 66 100 72 101 74 102 71 103 67 104
REMARK SMILES IDX 68 105 69 106 70 107
REMARK H PARENT 13 19 6 23 94 60 62 71
REMARK Flexibility Score: inf
ROOT
ATOM      1  C   UNL A   1      42.621  21.781  27.206  1.00  0.00     0.188 C 
ENDROOT
BRANCH   1   2
ATOM      2  O   UNL A   1      41.837  22.873  26.744  1.00  0.00    -0.376 OA
BRANCH   2   3
ATOM      3  C   UNL A   1      40.695  22.561  25.928  1.00  0.00     0.202 C 
BRANCH   3   4
ATOM      4  C   UNL A   1      39.605  21.660  26.539  1.00  0.00     0.261 C 
BRANCH   4   5
ATOM      5  O   UNL A   1      38.603  21.360  25.534  1.00  0.00    -0.463 OA
BRANCH   5   6
ATOM      6  C   UNL A   1      37.416  22.001  25.586  1.00  0.00     0.306 C 
ATOM      7  O   UNL A   1      37.300  23.210  25.750  1.00  0.00    -0.252 OA
BRANCH   6   8
ATOM      8  C   UNL A   1      36.209  21.092  25.363  1.00  0.00     0.132 C 
BRANCH   8   9
ATOM      9  C   UNL A   1      34.870  21.601  24.819  1.00  0.00     0.112 C 
BRANCH   9  10
ATOM     10  C   UNL A   1      33.713  22.215  25.631  1.00  0.00     0.223 C 
ATOM     11  O   UNL A   1      33.560  21.814  26.792  1.00  0.00    -0.275 OA
BRANCH  10  12
ATOM     12  N   UNL A   1      32.989  23.305  25.175  1.00  0.00    -0.328 N 
ATOM     13  C   UNL A   1      32.282  24.268  26.005  1.00  0.00     0.183 C 
ATOM     14  C   UNL A   1      30.768  24.386  25.717  1.00  0.00     0.243 C 
ATOM     15  O   UNL A   1      30.006  24.982  26.476  1.00  0.00    -0.273 OA
ATOM     16  N   UNL A   1      30.283  23.768  24.598  1.00  0.00    -0.353 N 
ATOM     17  C   UNL A   1      32.574  23.344  23.765  1.00  0.00     0.141 C 
ATOM     18  C   UNL A   1      31.091  22.984  23.680  1.00  0.00     0.137 C 
ATOM     19  H   UNL A   1      29.323  23.861  24.402  1.00  0.00     0.163 HD
BRANCH  13  20
ATOM     20  C   UNL A   1      32.951  25.632  26.204  1.00  0.00     0.135 C 
BRANCH  20  21
ATOM     21  C   UNL A   1      33.962  26.111  25.182  1.00  0.00     0.227 C 
ATOM     22  N   UNL A   1      33.683  26.903  24.105  1.00  0.00    -0.326 N 
ATOM     23  H   UNL A   1      34.462  27.063  23.526  1.00  0.00     0.169 HD
ATOM     24  O   UNL A   1      35.150  25.804  25.335  1.00  0.00    -0.275 OA
BRANCH  22  25
ATOM     25  C   UNL A   1      32.513  27.535  23.655  1.00  0.00     0.044 A 
ATOM     26  C   UNL A   1      28.640  29.349  23.142  1.00  0.00     0.044 C 
ATOM     27  C   UNL A   1      30.048  28.832  23.198  1.00  0.00    -0.051 A 
ATOM     28  C   UNL A   1      30.937  29.335  24.144  1.00  0.00     0.005 A 
ATOM     29  C   UNL A   1      30.470  27.774  22.386  1.00  0.00     0.009 A 
ATOM     30  C   UNL A   1      32.169  28.709  24.347  1.00  0.00     0.026 A 
ATOM     31  C   UNL A   1      31.711  27.122  22.586  1.00  0.00    -0.027 A 
ATOM     32  C   UNL A   1      32.121  26.067  21.597  1.00  0.00     0.046 C 
ENDBRANCH  22  25
ENDBRANCH  20  21
ENDBRANCH  13  20
ENDBRANCH  10  12
ENDBRANCH   9  10
ENDBRANCH   8   9
ENDBRANCH   6   8
ENDBRANCH   5   6
ENDBRANCH   4   5
ENDBRANCH   3   4
ENDBRANCH   2   3
ENDBRANCH   1   2
BRANCH   1  33
ATOM     33  C   UNL A   1      42.866  20.713  26.151  1.00  0.00     0.188 C 
BRANCH  33  34
ATOM     34  O   UNL A   1      43.671  21.185  25.060  1.00  0.00    -0.377 OA
BRANCH  34  35
ATOM     35  C   UNL A   1      44.958  20.587  24.915  1.00  0.00     0.188 C 
BRANCH  35  36
ATOM     36  C   UNL A   1      46.109  21.565  24.709  1.00  0.00     0.188 C 
BRANCH  36  37
ATOM     37  O   UNL A   1      46.175  22.760  25.474  1.00  0.00    -0.376 OA
BRANCH  37  38
ATOM     38  C   UNL A   1      45.855  24.021  24.909  1.00  0.00     0.202 C 
BRANCH  38  39
ATOM     39  C   UNL A   1      44.400  24.501  25.041  1.00  0.00     0.261 C 
BRANCH  39  40
ATOM     40  O   UNL A   1      44.223  25.881  25.377  1.00  0.00    -0.460 OA
BRANCH  40  41
ATOM     41  C   UNL A   1      42.961  26.257  25.685  1.00  0.00     0.338 C 
ATOM     42  O   UNL A   1      41.965  26.152  24.999  1.00  0.00    -0.246 OA
BRANCH  41  43
ATOM     43  C   UNL A   1      42.989  26.797  27.056  1.00  0.00     0.060 A 
ATOM     44  C   UNL A   1      43.875  27.831  27.368  1.00  0.00     0.016 A 
ATOM     45  C   UNL A   1      42.202  26.203  28.048  1.00  0.00     0.016 A 
ATOM     46  C   UNL A   1      44.034  28.224  28.698  1.00  0.00     0.010 A 
ATOM     47  C   UNL A   1      42.368  26.590  29.378  1.00  0.00     0.010 A 
ATOM     48  C   UNL A   1      43.327  27.562  29.712  1.00  0.00    -0.014 A 
BRANCH  48  49
ATOM     49  C   UNL A   1      43.783  27.689  31.118  1.00  0.00     0.031 A 
ATOM     50  C   UNL A   1      43.105  28.721  31.982  1.00  0.00     0.074 A 
ATOM     51  C   UNL A   1      44.743  26.898  31.627  1.00  0.00     0.049 A 
ATOM     52  N   UNL A   1      43.309  29.017  33.238  1.00  0.00    -0.248 NA
ATOM     53  C   UNL A   1      42.055  29.525  31.336  1.00  0.00     0.031 C 
ATOM     54  C   UNL A   1      45.439  25.843  30.900  1.00  0.00     0.029 A 
ATOM     55  N   UNL A   1      45.300  26.862  32.879  1.00  0.00    -0.354 N 
ATOM     56  C   UNL A   1      42.403  30.028  33.538  1.00  0.00     0.074 A 
ATOM     57  C   UNL A   1      41.689  30.334  32.318  1.00  0.00     0.031 C 
ATOM     58  C   UNL A   1      46.341  25.267  31.712  1.00  0.00     0.029 A 
ATOM     59  C   UNL A   1      46.302  25.929  33.012  1.00  0.00     0.049 A 
ATOM     60  H   UNL A   1      45.010  27.449  33.615  1.00  0.00     0.167 HD
ATOM     61  C   UNL A   1      42.173  30.634  34.728  1.00  0.00     0.034 A 
ATOM     62  C   UNL A   1      47.103  25.651  34.059  1.00  0.00     0.034 A 
ATOM     63  C   UNL A   1      42.915  30.339  35.929  1.00  0.00     0.049 A 
ATOM     64  C   UNL A   1      46.895  26.406  35.348  1.00  0.00     0.074 A 
ATOM     65  C   UNL A   1      42.769  30.888  37.190  1.00  0.00     0.029 A 
ATOM     66  N   UNL A   1      43.956  29.424  36.011  1.00  0.00    -0.354 N 
ATOM     67  N   UNL A   1      46.016  27.342  35.627  1.00  0.00    -0.248 NA
ATOM     68  C   UNL A   1      47.775  26.053  36.470  1.00  0.00     0.031 C 
ATOM     69  C   UNL A   1      43.769  30.360  38.015  1.00  0.00     0.029 A 
ATOM     70  C   UNL A   1      44.488  29.420  37.292  1.00  0.00     0.049 A 
ATOM     71  H   UNL A   1      44.273  28.860  35.268  1.00  0.00     0.167 HD
ATOM     72  C   UNL A   1      46.216  27.664  36.967  1.00  0.00     0.074 A 
ATOM     73  C   UNL A   1      47.287  26.811  37.440  1.00  0.00     0.031 C 
ATOM     74  C   UNL A   1      45.571  28.576  37.740  1.00  0.00     0.034 A 
BRANCH  61  75
ATOM     75  C   UNL A   1      41.114  31.710  34.759  1.00  0.00     0.023 A 
ATOM     76  C   UNL A   1      41.445  33.070  34.908  1.00  0.00     0.031 A 
ATOM     77  C   UNL A   1      39.752  31.368  34.691  1.00  0.00     0.131 A 
ATOM     78  C   UNL A   1      40.428  34.025  35.056  1.00  0.00     0.055 A 
ATOM     79  C   UNL A   1      38.746  32.333  34.759  1.00  0.00     0.041 A 
ATOM     80  F   UNL A   1      39.375  30.084  34.577  1.00  0.00    -0.206 F 
ATOM     81  C   UNL A   1      39.081  33.669  34.959  1.00  0.00     0.022 A 
BRANCH  78  82
ATOM     82  S   UNL A   1      40.887  35.716  35.529  1.00  0.00     0.124 S 
ATOM     83  O   UNL A   1      41.517  35.499  36.828  1.00  0.00    -0.237 OA
ATOM     84  O   UNL A   1      41.776  36.116  34.444  1.00  0.00    -0.237 OA
ATOM     85  O   UNL A   1      39.606  36.418  35.575  1.00  0.00    -0.744 OA
ENDBRANCH  78  82
ENDBRANCH  61  75
BRANCH  62  86
ATOM     86  C   UNL A   1      48.189  24.637  33.933  1.00  0.00     0.023 A 
ATOM     87  C   UNL A   1      48.016  23.320  34.388  1.00  0.00     0.031 A 
ATOM     88  C   UNL A   1      49.442  24.991  33.399  1.00  0.00     0.131 A 
ATOM     89  C   UNL A   1      49.093  22.419  34.349  1.00  0.00     0.055 A 
ATOM     90  C   UNL A   1      50.492  24.075  33.312  1.00  0.00     0.041 A 
ATOM     91  F   UNL A   1      49.661  26.236  32.948  1.00  0.00    -0.206 F 
ATOM     92  C   UNL A   1      50.325  22.784  33.802  1.00  0.00     0.022 A 
BRANCH  89  93
ATOM     93  S   UNL A   1      48.886  20.785  35.108  1.00  0.00     0.124 S 
ATOM     94  O   UNL A   1      50.271  20.393  35.351  1.00  0.00    -0.237 OA
ATOM     95  O   UNL A   1      48.092  21.099  36.292  1.00  0.00    -0.237 OA
ATOM     96  O   UNL A   1      48.191  20.015  34.079  1.00  0.00    -0.744 OA
ENDBRANCH  89  93
ENDBRANCH  62  86
BRANCH  74  97
ATOM     97  C   UNL A   1      45.991  28.660  39.188  1.00  0.00     0.023 A 
ATOM     98  C   UNL A   1      46.942  29.595  39.629  1.00  0.00     0.031 A 
ATOM     99  C   UNL A   1      45.449  27.771  40.135  1.00  0.00     0.131 A 
ATOM    100  C   UNL A   1      47.376  29.575  40.962  1.00  0.00     0.055 A 
ATOM    101  C   UNL A   1      45.835  27.802  41.476  1.00  0.00     0.041 A 
ATOM    102  F   UNL A   1      44.537  26.855  39.770  1.00  0.00    -0.206 F 
ATOM    103  C   UNL A   1      46.816  28.697  41.893  1.00  0.00     0.022 A 
BRANCH 100 104
ATOM    104  S   UNL A   1      48.765  30.640  41.440  1.00  0.00     0.124 S 
ATOM    105  O   UNL A   1      48.425  30.983  42.817  1.00  0.00    -0.237 OA
ATOM    106  O   UNL A   1      49.911  29.753  41.268  1.00  0.00    -0.237 OA
ATOM    107  O   UNL A   1      48.692  31.748  40.488  1.00  0.00    -0.744 OA
ENDBRANCH 100 104
ENDBRANCH  74  97
ENDBRANCH  48  49
ENDBRANCH  41  43
ENDBRANCH  40  41
ENDBRANCH  39  40
ENDBRANCH  38  39
ENDBRANCH  37  38
ENDBRANCH  36  37
ENDBRANCH  35  36
ENDBRANCH  34  35
ENDBRANCH  33  34
ENDBRANCH   1  33
TORSDOF 29
ENDMDL
MODEL 3
REMARK VINA RESULT:      -8.0      4.483      9.450
REMARK SMILES Cc1ccc(NC(=O)C[C@H]2C(=O)NCCN2C(=O)CCC(=O)OCCOCCOCCOCCOC(=O)c2ccc(-c3c4nc(c(-c5cc(S(=O)(=O)[O-])ccc5F)c5ccc([nH]5)c(-c5cc(S(=O)(=O)[O-])ccc5F)c5nc(c(-c6cc(S(=O)(=O)[O-])ccc6F)c6ccc3[nH]6)C=C5)C=C4)cc2)c(C)c1
REMARK SMILES IDX 27 1 26 2 25 3 24 4 23 5 21 6 22 7 20 8 19 9 17 10 18 11
REMARK SMILES IDX 16 12 10 13 11 14 12 15 13 16 15 17 14 18 9 20 7 21 6 22
REMARK SMILES IDX 8 24 5 25 1 26 2 27 3 28 103 29 4 30 101 31 102 32 28 33
REMARK SMILES IDX 29 34 30 35 31 36 32 37 33 38 34 39 35 40 36 41 37 42 38 43
REMARK SMILES IDX 39 44 100 45 40 46 99 47 41 48 42 49 43 50 93 51 44 52 98 53
REMARK SMILES IDX 92 54 94 55 45 56 97 57 91 58 90 59 46 61 78 62 58 63 77 64
REMARK SMILES IDX 59 65 62 66 76 67 95 68 60 69 61 70 75 72 96 73 63 74 47 75
REMARK SMILES IDX 48 76 56 77 49 78 55 79 57 80 54 81 50 82 51 83 52 84 53 85
REMARK SMILES IDX 79 86 80 87 88 88 81 89 87 90 89 91 86 92 82 93 83 94 84 95
REMARK SMILES IDX 85 96 64 97 65 98 73 99 66 100 72 101 74 102 71 103 67 104
REMARK SMILES IDX 68 105 69 106 70 107
REMARK H PARENT 13 19 6 23 94 60 62 71
REMARK Flexibility Score: inf
ROOT
ATOM      1  C   UNL A   1      41.492  27.632  28.814  1.00  0.00     0.188 C 
ENDROOT
BRANCH   1   2
ATOM      2  O   UNL A   1      41.201  26.519  27.979  1.00  0.00    -0.376 OA
BRANCH   2   3
ATOM      3  C   UNL A   1      42.127  25.419  28.005  1.00  0.00     0.202 C 
BRANCH   3   4
ATOM      4  C   UNL A   1      41.562  24.004  27.777  1.00  0.00     0.261 C 
BRANCH   4   5
ATOM      5  O   UNL A   1      40.537  24.049  26.752  1.00  0.00    -0.463 OA
BRANCH   5   6
ATOM      6  C   UNL A   1      39.240  24.014  27.126  1.00  0.00     0.306 C 
ATOM      7  O   UNL A   1      38.789  24.628  28.085  1.00  0.00    -0.252 OA
BRANCH   6   8
ATOM      8  C   UNL A   1      38.352  23.178  26.206  1.00  0.00     0.132 C 
BRANCH   8   9
ATOM      9  C   UNL A   1      37.023  23.688  25.640  1.00  0.00     0.112 C 
BRANCH   9  10
ATOM     10  C   UNL A   1      35.648  23.001  25.741  1.00  0.00     0.223 C 
ATOM     11  O   UNL A   1      35.608  21.888  26.283  1.00  0.00    -0.275 OA
BRANCH  10  12
ATOM     12  N   UNL A   1      34.469  23.660  25.429  1.00  0.00    -0.328 N 
ATOM     13  C   UNL A   1      33.125  23.204  25.749  1.00  0.00     0.183 C 
ATOM     14  C   UNL A   1      32.194  23.019  24.529  1.00  0.00     0.243 C 
ATOM     15  O   UNL A   1      31.117  22.432  24.616  1.00  0.00    -0.273 OA
ATOM     16  N   UNL A   1      32.623  23.498  23.323  1.00  0.00    -0.353 N 
ATOM     17  C   UNL A   1      34.492  24.710  24.400  1.00  0.00     0.141 C 
ATOM     18  C   UNL A   1      33.906  24.142  23.106  1.00  0.00     0.137 C 
ATOM     19  H   UNL A   1      32.021  23.400  22.549  1.00  0.00     0.163 HD
BRANCH  13  20
ATOM     20  C   UNL A   1      32.424  23.892  26.925  1.00  0.00     0.135 C 
BRANCH  20  21
ATOM     21  C   UNL A   1      30.966  24.280  26.787  1.00  0.00     0.227 C 
ATOM     22  N   UNL A   1      30.502  25.414  26.185  1.00  0.00    -0.326 N 
ATOM     23  H   UNL A   1      29.525  25.515  26.242  1.00  0.00     0.169 HD
ATOM     24  O   UNL A   1      30.103  23.503  27.214  1.00  0.00    -0.275 OA
BRANCH  22  25
ATOM     25  C   UNL A   1      31.134  26.464  25.500  1.00  0.00     0.044 A 
ATOM     26  C   UNL A   1      33.563  29.011  23.017  1.00  0.00     0.044 C 
ATOM     27  C   UNL A   1      32.587  28.245  23.862  1.00  0.00    -0.051 A 
ATOM     28  C   UNL A   1      31.799  27.252  23.287  1.00  0.00     0.005 A 
ATOM     29  C   UNL A   1      32.519  28.429  25.247  1.00  0.00     0.009 A 
ATOM     30  C   UNL A   1      31.057  26.391  24.099  1.00  0.00     0.026 A 
ATOM     31  C   UNL A   1      31.780  27.558  26.085  1.00  0.00    -0.027 A 
ATOM     32  C   UNL A   1      31.682  27.900  27.545  1.00  0.00     0.046 C 
ENDBRANCH  22  25
ENDBRANCH  20  21
ENDBRANCH  13  20
ENDBRANCH  10  12
ENDBRANCH   9  10
ENDBRANCH   8   9
ENDBRANCH   6   8
ENDBRANCH   5   6
ENDBRANCH   4   5
ENDBRANCH   3   4
ENDBRANCH   2   3
ENDBRANCH   1   2
BRANCH   1  33
ATOM     33  C   UNL A   1      40.491  28.771  28.687  1.00  0.00     0.188 C 
BRANCH  33  34
ATOM     34  O   UNL A   1      39.276  28.370  28.037  1.00  0.00    -0.377 OA
BRANCH  34  35
ATOM     35  C   UNL A   1      38.075  28.986  28.501  1.00  0.00     0.188 C 
BRANCH  35  36
ATOM     36  C   UNL A   1      38.228  30.422  28.987  1.00  0.00     0.188 C 
BRANCH  36  37
ATOM     37  O   UNL A   1      37.124  31.314  28.940  1.00  0.00    -0.376 OA
BRANCH  37  38
ATOM     38  C   UNL A   1      36.879  32.248  29.979  1.00  0.00     0.202 C 
BRANCH  38  39
ATOM     39  C   UNL A   1      35.620  32.032  30.836  1.00  0.00     0.261 C 
BRANCH  39  40
ATOM     40  O   UNL A   1      35.764  31.142  31.947  1.00  0.00    -0.460 OA
BRANCH  40  41
ATOM     41  C   UNL A   1      36.401  31.645  33.028  1.00  0.00     0.338 C 
ATOM     42  O   UNL A   1      35.952  32.384  33.880  1.00  0.00    -0.246 OA
BRANCH  41  43
ATOM     43  C   UNL A   1      37.770  31.095  33.022  1.00  0.00     0.060 A 
ATOM     44  C   UNL A   1      38.836  31.905  33.419  1.00  0.00     0.016 A 
ATOM     45  C   UNL A   1      37.993  29.807  32.526  1.00  0.00     0.016 A 
ATOM     46  C   UNL A   1      40.145  31.454  33.247  1.00  0.00     0.010 A 
ATOM     47  C   UNL A   1      39.303  29.360  32.345  1.00  0.00     0.010 A 
ATOM     48  C   UNL A   1      40.382  30.206  32.653  1.00  0.00    -0.014 A 
BRANCH  48  49
ATOM     49  C   UNL A   1      41.728  29.905  32.106  1.00  0.00     0.031 A 
ATOM     50  C   UNL A   1      42.451  28.702  32.652  1.00  0.00     0.074 A 
ATOM     51  C   UNL A   1      42.282  30.652  31.136  1.00  0.00     0.049 A 
ATOM     52  N   UNL A   1      43.624  28.221  32.333  1.00  0.00    -0.248 NA
ATOM     53  C   UNL A   1      41.753  27.940  33.700  1.00  0.00     0.031 C 
ATOM     54  C   UNL A   1      41.661  31.812  30.506  1.00  0.00     0.029 A 
ATOM     55  N   UNL A   1      43.498  30.545  30.511  1.00  0.00    -0.354 N 
ATOM     56  C   UNL A   1      43.797  27.092  33.126  1.00  0.00     0.074 A 
ATOM     57  C   UNL A   1      42.634  26.994  33.982  1.00  0.00     0.031 C 
ATOM     58  C   UNL A   1      42.502  32.320  29.590  1.00  0.00     0.029 A 
ATOM     59  C   UNL A   1      43.732  31.535  29.585  1.00  0.00     0.049 A 
ATOM     60  H   UNL A   1      44.143  29.827  30.706  1.00  0.00     0.167 HD
ATOM     61  C   UNL A   1      44.822  26.207  33.129  1.00  0.00     0.034 A 
ATOM     62  C   UNL A   1      44.820  31.784  28.830  1.00  0.00     0.034 A 
ATOM     63  C   UNL A   1      45.988  26.336  32.290  1.00  0.00     0.049 A 
ATOM     64  C   UNL A   1      45.993  30.839  28.917  1.00  0.00     0.074 A 
ATOM     65  C   UNL A   1      47.087  25.501  32.205  1.00  0.00     0.029 A 
ATOM     66  N   UNL A   1      46.213  27.380  31.402  1.00  0.00    -0.354 N 
ATOM     67  N   UNL A   1      46.133  29.759  29.653  1.00  0.00    -0.248 NA
ATOM     68  C   UNL A   1      47.146  31.137  28.059  1.00  0.00     0.031 C 
ATOM     69  C   UNL A   1      48.007  26.078  31.323  1.00  0.00     0.029 A 
ATOM     70  C   UNL A   1      47.449  27.231  30.793  1.00  0.00     0.049 A 
ATOM     71  H   UNL A   1      45.585  28.120  31.229  1.00  0.00     0.167 HD
ATOM     72  C   UNL A   1      47.376  29.230  29.318  1.00  0.00     0.074 A 
ATOM     73  C   UNL A   1      47.936  30.102  28.305  1.00  0.00     0.031 C 
ATOM     74  C   UNL A   1      47.999  28.122  29.798  1.00  0.00     0.034 A 
BRANCH  61  75
ATOM     75  C   UNL A   1      44.739  25.061  34.108  1.00  0.00     0.023 A 
ATOM     76  C   UNL A   1      45.173  25.194  35.440  1.00  0.00     0.031 A 
ATOM     77  C   UNL A   1      44.269  23.804  33.692  1.00  0.00     0.131 A 
ATOM     78  C   UNL A   1      45.196  24.074  36.284  1.00  0.00     0.055 A 
ATOM     79  C   UNL A   1      44.220  22.712  34.561  1.00  0.00     0.041 A 
ATOM     80  F   UNL A   1      43.869  23.608  32.426  1.00  0.00    -0.206 F 
ATOM     81  C   UNL A   1      44.700  22.839  35.861  1.00  0.00     0.022 A 
BRANCH  78  82
ATOM     82  S   UNL A   1      46.022  24.215  37.894  1.00  0.00     0.124 S 
ATOM     83  O   UNL A   1      46.845  23.009  37.911  1.00  0.00    -0.237 OA
ATOM     84  O   UNL A   1      46.739  25.479  37.771  1.00  0.00    -0.237 OA
ATOM     85  O   UNL A   1      44.914  24.218  38.848  1.00  0.00    -0.744 OA
ENDBRANCH  78  82
ENDBRANCH  61  75
BRANCH  62  86
ATOM     86  C   UNL A   1      44.870  32.985  27.947  1.00  0.00     0.023 A 
ATOM     87  C   UNL A   1      45.375  34.211  28.408  1.00  0.00     0.031 A 
ATOM     88  C   UNL A   1      44.358  32.934  26.637  1.00  0.00     0.131 A 
ATOM     89  C   UNL A   1      45.311  35.348  27.587  1.00  0.00     0.055 A 
ATOM     90  C   UNL A   1      44.347  34.055  25.805  1.00  0.00     0.041 A 
ATOM     91  F   UNL A   1      43.864  31.787  26.145  1.00  0.00    -0.206 F 
ATOM     92  C   UNL A   1      44.813  35.275  26.284  1.00  0.00     0.022 A 
BRANCH  89  93
ATOM     93  S   UNL A   1      45.807  36.949  28.279  1.00  0.00     0.124 S 
ATOM     94  O   UNL A   1      45.483  37.859  27.185  1.00  0.00    -0.237 OA
ATOM     95  O   UNL A   1      44.960  37.043  29.464  1.00  0.00    -0.237 OA
ATOM     96  O   UNL A   1      47.234  36.779  28.547  1.00  0.00    -0.744 OA
ENDBRANCH  89  93
ENDBRANCH  62  86
BRANCH  74  97
ATOM     97  C   UNL A   1      49.340  27.781  29.195  1.00  0.00     0.023 A 
ATOM     98  C   UNL A   1      50.544  28.220  29.771  1.00  0.00     0.031 A 
ATOM     99  C   UNL A   1      49.412  27.026  28.010  1.00  0.00     0.131 A 
ATOM    100  C   UNL A   1      51.763  27.963  29.126  1.00  0.00     0.055 A 
ATOM    101  C   UNL A   1      50.633  26.714  27.410  1.00  0.00     0.041 A 
ATOM    102  F   UNL A   1      48.293  26.580  27.414  1.00  0.00    -0.206 F 
ATOM    103  C   UNL A   1      51.816  27.198  27.959  1.00  0.00     0.022 A 
BRANCH 100 104
ATOM    104  S   UNL A   1      53.269  28.739  29.775  1.00  0.00     0.124 S 
ATOM    105  O   UNL A   1      53.293  30.006  29.053  1.00  0.00    -0.237 OA
ATOM    106  O   UNL A   1      52.986  28.823  31.204  1.00  0.00    -0.237 OA
ATOM    107  O   UNL A   1      54.325  27.796  29.408  1.00  0.00    -0.744 OA
ENDBRANCH 100 104
ENDBRANCH  74  97
ENDBRANCH  48  49
ENDBRANCH  41  43
ENDBRANCH  40  41
ENDBRANCH  39  40
ENDBRANCH  38  39
ENDBRANCH  37  38
ENDBRANCH  36  37
ENDBRANCH  35  36
ENDBRANCH  34  35
ENDBRANCH  33  34
ENDBRANCH   1  33
TORSDOF 29
ENDMDL
