MODEL 1
REMARK VINA RESULT:      -9.1      0.000      0.000
REMARK SMILES O=C(OCCOCCOCCOCCOC(=O)c1cccnc1NC[C@H](c1ccccc1)[NH+]1CCOCC1)c1ccc(-c2c3nc(c(-c4cc(S(=O)(=O)[O-])ccc4F)c4ccc([nH]4)c(-c4cc(S(=O)(=O)[O-])ccc4F)c4nc(c(-c5cc(S(=O)(=O)[O-])ccc5F)c5ccc2[nH]5)C=C4)C=C3)cc1
REMARK SMILES IDX 10 1 9 2 8 3 7 4 6 5 5 6 4 7 3 8 2 9 1 10 39 11 40 12 101 13
REMARK SMILES IDX 41 14 100 15 42 16 43 17 44 18 94 19 45 20 99 21 93 22 95 23
REMARK SMILES IDX 46 24 98 25 92 26 91 27 47 29 79 30 59 31 78 32 60 33 63 34
REMARK SMILES IDX 77 35 96 36 61 37 62 38 76 40 97 41 64 42 48 43 49 44 57 45
REMARK SMILES IDX 50 46 56 47 58 48 55 49 51 50 52 51 53 52 54 53 80 54 81 55
REMARK SMILES IDX 89 56 82 57 88 58 90 59 87 60 83 61 84 62 85 63 86 64 65 65
REMARK SMILES IDX 66 66 74 67 67 68 73 69 75 70 72 71 68 72 69 73 70 74 71 75
REMARK SMILES IDX 11 76 12 77 13 78 14 79 15 80 16 81 17 82 18 83 19 84 23 85
REMARK SMILES IDX 20 86 22 87 21 88 24 89 25 91 26 92 33 93 34 94 38 95 35 97
REMARK SMILES IDX 37 98 36 99 27 100 28 101 32 102 29 103 31 104 30 105
REMARK H PARENT 95 28 63 39 24 90 33 96
REMARK Flexibility Score: inf
ROOT
ATOM      1  C   UNL A   1      34.179  29.828  27.010  1.00  0.00     0.188 C 
ENDROOT
BRANCH   1   2
ATOM      2  O   UNL A   1      33.406  30.854  27.631  1.00  0.00    -0.377 OA
BRANCH   2   3
ATOM      3  C   UNL A   1      34.007  32.142  27.713  1.00  0.00     0.188 C 
BRANCH   3   4
ATOM      4  C   UNL A   1      34.660  32.430  29.063  1.00  0.00     0.188 C 
BRANCH   4   5
ATOM      5  O   UNL A   1      34.600  33.830  29.332  1.00  0.00    -0.376 OA
BRANCH   5   6
ATOM      6  C   UNL A   1      33.455  34.507  28.821  1.00  0.00     0.202 C 
BRANCH   6   7
ATOM      7  C   UNL A   1      33.258  35.897  29.426  1.00  0.00     0.261 C 
BRANCH   7   8
ATOM      8  O   UNL A   1      32.323  35.879  30.513  1.00  0.00    -0.460 OA
BRANCH   8   9
ATOM      9  C   UNL A   1      32.545  35.481  31.793  1.00  0.00     0.338 C 
ATOM     10  O   UNL A   1      31.615  35.594  32.594  1.00  0.00    -0.246 OA
BRANCH   9  11
ATOM     11  C   UNL A   1      33.834  34.902  32.300  1.00  0.00     0.060 A 
ATOM     12  C   UNL A   1      35.036  35.593  32.480  1.00  0.00     0.016 A 
ATOM     13  C   UNL A   1      33.797  33.554  32.701  1.00  0.00     0.016 A 
ATOM     14  C   UNL A   1      36.169  34.975  32.998  1.00  0.00     0.010 A 
ATOM     15  C   UNL A   1      34.926  32.924  33.236  1.00  0.00     0.010 A 
ATOM     16  C   UNL A   1      36.122  33.637  33.372  1.00  0.00    -0.014 A 
BRANCH  16  17
ATOM     17  C   UNL A   1      37.378  32.974  33.766  1.00  0.00     0.031 A 
ATOM     18  C   UNL A   1      37.844  33.148  35.180  1.00  0.00     0.074 A 
ATOM     19  C   UNL A   1      38.014  32.163  32.902  1.00  0.00     0.049 A 
ATOM     20  N   UNL A   1      38.954  32.760  35.741  1.00  0.00    -0.248 NA
ATOM     21  C   UNL A   1      36.917  33.845  36.091  1.00  0.00     0.031 C 
ATOM     22  C   UNL A   1      37.541  31.833  31.554  1.00  0.00     0.029 A 
ATOM     23  N   UNL A   1      39.184  31.462  33.023  1.00  0.00    -0.354 N 
ATOM     24  C   UNL A   1      38.879  33.196  37.059  1.00  0.00     0.074 A 
ATOM     25  C   UNL A   1      37.609  33.867  37.219  1.00  0.00     0.031 C 
ATOM     26  C   UNL A   1      38.421  31.000  30.973  1.00  0.00     0.029 A 
ATOM     27  C   UNL A   1      39.553  30.803  31.872  1.00  0.00     0.049 A 
ATOM     28  H   UNL A   1      39.711  31.432  33.854  1.00  0.00     0.167 HD
ATOM     29  C   UNL A   1      39.809  33.061  38.032  1.00  0.00     0.034 A 
ATOM     30  C   UNL A   1      40.706  30.170  31.572  1.00  0.00     0.034 A 
ATOM     31  C   UNL A   1      41.066  32.393  37.818  1.00  0.00     0.049 A 
ATOM     32  C   UNL A   1      41.777  30.140  32.641  1.00  0.00     0.074 A 
ATOM     33  C   UNL A   1      42.115  32.219  38.699  1.00  0.00     0.029 A 
ATOM     34  N   UNL A   1      41.444  31.800  36.619  1.00  0.00    -0.354 N 
ATOM     35  N   UNL A   1      41.723  30.594  33.875  1.00  0.00    -0.248 NA
ATOM     36  C   UNL A   1      43.064  29.536  32.278  1.00  0.00     0.031 C 
ATOM     37  C   UNL A   1      43.155  31.583  38.012  1.00  0.00     0.029 A 
ATOM     38  C   UNL A   1      42.728  31.297  36.722  1.00  0.00     0.049 A 
ATOM     39  H   UNL A   1      40.880  31.744  35.814  1.00  0.00     0.167 HD
ATOM     40  C   UNL A   1      42.968  30.323  34.435  1.00  0.00     0.074 A 
ATOM     41  C   UNL A   1      43.734  29.633  33.416  1.00  0.00     0.031 C 
ATOM     42  C   UNL A   1      43.449  30.622  35.670  1.00  0.00     0.034 A 
BRANCH  29  43
ATOM     43  C   UNL A   1      39.538  33.745  39.346  1.00  0.00     0.023 A 
ATOM     44  C   UNL A   1      40.046  35.020  39.650  1.00  0.00     0.031 A 
ATOM     45  C   UNL A   1      38.801  33.072  40.337  1.00  0.00     0.131 A 
ATOM     46  C   UNL A   1      39.858  35.557  40.935  1.00  0.00     0.055 A 
ATOM     47  C   UNL A   1      38.561  33.640  41.589  1.00  0.00     0.041 A 
ATOM     48  F   UNL A   1      38.322  31.840  40.112  1.00  0.00    -0.206 F 
ATOM     49  C   UNL A   1      39.100  34.885  41.898  1.00  0.00     0.022 A 
BRANCH  46  50
ATOM     50  S   UNL A   1      40.712  37.097  41.373  1.00  0.00     0.124 S 
ATOM     51  O   UNL A   1      41.888  36.592  42.077  1.00  0.00    -0.237 OA
ATOM     52  O   UNL A   1      40.959  37.705  40.071  1.00  0.00    -0.237 OA
ATOM     53  O   UNL A   1      39.743  37.799  42.214  1.00  0.00    -0.744 OA
ENDBRANCH  46  50
ENDBRANCH  29  43
BRANCH  30  54
ATOM     54  C   UNL A   1      40.966  29.628  30.202  1.00  0.00     0.023 A 
ATOM     55  C   UNL A   1      40.566  28.333  29.835  1.00  0.00     0.031 A 
ATOM     56  C   UNL A   1      41.710  30.369  29.262  1.00  0.00     0.131 A 
ATOM     57  C   UNL A   1      40.959  27.800  28.594  1.00  0.00     0.055 A 
ATOM     58  C   UNL A   1      42.039  29.860  28.004  1.00  0.00     0.041 A 
ATOM     59  F   UNL A   1      42.140  31.606  29.555  1.00  0.00    -0.206 F 
ATOM     60  C   UNL A   1      41.679  28.560  27.671  1.00  0.00     0.022 A 
BRANCH  57  61
ATOM     61  S   UNL A   1      40.632  26.046  28.256  1.00  0.00     0.124 S 
ATOM     62  O   UNL A   1      40.509  26.041  26.803  1.00  0.00    -0.237 OA
ATOM     63  O   UNL A   1      41.822  25.406  28.802  1.00  0.00    -0.237 OA
ATOM     64  O   UNL A   1      39.393  25.784  28.986  1.00  0.00    -0.744 OA
ENDBRANCH  57  61
ENDBRANCH  30  54
BRANCH  42  65
ATOM     65  C   UNL A   1      44.858  30.181  35.966  1.00  0.00     0.023 A 
ATOM     66  C   UNL A   1      45.124  28.916  36.514  1.00  0.00     0.031 A 
ATOM     67  C   UNL A   1      45.940  31.031  35.685  1.00  0.00     0.131 A 
ATOM     68  C   UNL A   1      46.444  28.553  36.810  1.00  0.00     0.055 A 
ATOM     69  C   UNL A   1      47.256  30.640  35.925  1.00  0.00     0.041 A 
ATOM     70  F   UNL A   1      45.734  32.250  35.160  1.00  0.00    -0.206 F 
ATOM     71  C   UNL A   1      47.513  29.399  36.502  1.00  0.00     0.022 A 
BRANCH  68  72
ATOM     72  S   UNL A   1      46.739  26.986  37.672  1.00  0.00     0.124 S 
ATOM     73  O   UNL A   1      48.193  26.975  37.790  1.00  0.00    -0.237 OA
ATOM     74  O   UNL A   1      45.999  27.167  38.917  1.00  0.00    -0.237 OA
ATOM     75  O   UNL A   1      46.182  25.986  36.763  1.00  0.00    -0.744 OA
ENDBRANCH  68  72
ENDBRANCH  42  65
ENDBRANCH  16  17
ENDBRANCH   9  11
ENDBRANCH   8   9
ENDBRANCH   7   8
ENDBRANCH   6   7
ENDBRANCH   5   6
ENDBRANCH   4   5
ENDBRANCH   3   4
ENDBRANCH   2   3
ENDBRANCH   1   2
BRANCH   1  76
ATOM     76  C   UNL A   1      33.484  28.496  26.659  1.00  0.00     0.188 C 
BRANCH  76  77
ATOM     77  O   UNL A   1      32.967  28.446  25.335  1.00  0.00    -0.376 OA
BRANCH  77  78
ATOM     78  C   UNL A   1      33.673  29.233  24.383  1.00  0.00     0.202 C 
BRANCH  78  79
ATOM     79  C   UNL A   1      34.140  28.426  23.169  1.00  0.00     0.261 C 
BRANCH  79  80
ATOM     80  O   UNL A   1      33.148  28.154  22.156  1.00  0.00    -0.460 OA
BRANCH  80  81
ATOM     81  C   UNL A   1      32.736  26.884  21.927  1.00  0.00     0.341 C 
ATOM     82  O   UNL A   1      33.294  26.033  21.257  1.00  0.00    -0.246 OA
BRANCH  81  83
ATOM     83  C   UNL A   1      31.528  26.654  22.751  1.00  0.00     0.102 A 
ATOM     84  C   UNL A   1      30.416  27.482  22.551  1.00  0.00     0.021 A 
ATOM     85  C   UNL A   1      31.526  25.718  23.802  1.00  0.00     0.140 A 
ATOM     86  C   UNL A   1      29.318  27.352  23.386  1.00  0.00     0.021 A 
ATOM     87  N   UNL A   1      30.451  25.609  24.618  1.00  0.00    -0.239 NA
ATOM     88  C   UNL A   1      29.381  26.404  24.391  1.00  0.00     0.113 A 
BRANCH  85  89
ATOM     89  N   UNL A   1      32.658  24.992  24.121  1.00  0.00    -0.363 N 
ATOM     90  H   UNL A   1      33.297  24.786  23.400  1.00  0.00     0.162 HD
BRANCH  89  91
ATOM     91  C   UNL A   1      32.961  24.512  25.478  1.00  0.00     0.184 C 
BRANCH  91  92
ATOM     92  C   UNL A   1      33.163  22.958  25.483  1.00  0.00     0.234 C 
BRANCH  92  93
ATOM     93  N   UNL A   1      32.068  22.173  24.874  1.00  0.00    -0.323 N 
ATOM     94  C   UNL A   1      32.071  20.742  25.238  1.00  0.00     0.291 C 
ATOM     95  C   UNL A   1      31.739  22.346  23.455  1.00  0.00     0.291 C 
ATOM     96  H   UNL A   1      31.294  22.650  25.334  1.00  0.00     0.348 HD
ATOM     97  C   UNL A   1      32.797  19.835  24.235  1.00  0.00     0.221 C 
ATOM     98  C   UNL A   1      32.357  21.324  22.475  1.00  0.00     0.221 C 
ATOM     99  O   UNL A   1      32.225  19.975  22.929  1.00  0.00    -0.370 OA
ENDBRANCH  92  93
BRANCH  92 100
ATOM    100  C   UNL A   1      34.579  22.614  25.038  1.00  0.00     0.011 A 
ATOM    101  C   UNL A   1      35.408  21.756  25.775  1.00  0.00     0.010 A 
ATOM    102  C   UNL A   1      35.047  23.100  23.807  1.00  0.00     0.010 A 
ATOM    103  C   UNL A   1      36.687  21.434  25.322  1.00  0.00     0.001 A 
ATOM    104  C   UNL A   1      36.315  22.753  23.340  1.00  0.00     0.001 A 
ATOM    105  C   UNL A   1      37.139  21.931  24.104  1.00  0.00     0.000 A 
ENDBRANCH  92 100
ENDBRANCH  91  92
ENDBRANCH  89  91
ENDBRANCH  85  89
ENDBRANCH  81  83
ENDBRANCH  80  81
ENDBRANCH  79  80
ENDBRANCH  78  79
ENDBRANCH  77  78
ENDBRANCH  76  77
ENDBRANCH   1  76
TORSDOF 28
ENDMDL
MODEL 2
REMARK VINA RESULT:      -9.0      5.088      8.820
REMARK SMILES O=C(OCCOCCOCCOCCOC(=O)c1cccnc1NC[C@H](c1ccccc1)[NH+]1CCOCC1)c1ccc(-c2c3nc(c(-c4cc(S(=O)(=O)[O-])ccc4F)c4ccc([nH]4)c(-c4cc(S(=O)(=O)[O-])ccc4F)c4nc(c(-c5cc(S(=O)(=O)[O-])ccc5F)c5ccc2[nH]5)C=C4)C=C3)cc1
REMARK SMILES IDX 10 1 9 2 8 3 7 4 6 5 5 6 4 7 3 8 2 9 1 10 39 11 40 12 101 13
REMARK SMILES IDX 41 14 100 15 42 16 43 17 44 18 94 19 45 20 99 21 93 22 95 23
REMARK SMILES IDX 46 24 98 25 92 26 91 27 47 29 79 30 59 31 78 32 60 33 63 34
REMARK SMILES IDX 77 35 96 36 61 37 62 38 76 40 97 41 64 42 48 43 49 44 57 45
REMARK SMILES IDX 50 46 56 47 58 48 55 49 51 50 52 51 53 52 54 53 80 54 81 55
REMARK SMILES IDX 89 56 82 57 88 58 90 59 87 60 83 61 84 62 85 63 86 64 65 65
REMARK SMILES IDX 66 66 74 67 67 68 73 69 75 70 72 71 68 72 69 73 70 74 71 75
REMARK SMILES IDX 11 76 12 77 13 78 14 79 15 80 16 81 17 82 18 83 19 84 23 85
REMARK SMILES IDX 20 86 22 87 21 88 24 89 25 91 26 92 33 93 34 94 38 95 35 97
REMARK SMILES IDX 37 98 36 99 27 100 28 101 32 102 29 103 31 104 30 105
REMARK H PARENT 95 28 63 39 24 90 33 96
REMARK Flexibility Score: inf
ROOT
ATOM      1  C   UNL A   1      38.111  29.679  27.885  1.00  0.00     0.188 C 
ENDROOT
BRANCH   1   2
ATOM      2  O   UNL A   1      38.033  30.933  28.562  1.00  0.00    -0.377 OA
BRANCH   2   3
ATOM      3  C   UNL A   1      36.834  31.680  28.381  1.00  0.00     0.188 C 
BRANCH   3   4
ATOM      4  C   UNL A   1      35.700  31.254  29.311  1.00  0.00     0.188 C 
BRANCH   4   5
ATOM      5  O   UNL A   1      34.895  32.390  29.631  1.00  0.00    -0.376 OA
BRANCH   5   6
ATOM      6  C   UNL A   1      35.462  33.302  30.567  1.00  0.00     0.202 C 
BRANCH   6   7
ATOM      7  C   UNL A   1      34.847  33.191  31.963  1.00  0.00     0.261 C 
BRANCH   7   8
ATOM      8  O   UNL A   1      35.436  32.126  32.723  1.00  0.00    -0.460 OA
BRANCH   8   9
ATOM      9  C   UNL A   1      36.522  32.189  33.536  1.00  0.00     0.338 C 
ATOM     10  O   UNL A   1      36.378  32.720  34.639  1.00  0.00    -0.246 OA
BRANCH   9  11
ATOM     11  C   UNL A   1      37.881  31.648  33.196  1.00  0.00     0.060 A 
ATOM     12  C   UNL A   1      39.092  32.035  33.778  1.00  0.00     0.016 A 
ATOM     13  C   UNL A   1      37.919  30.602  32.257  1.00  0.00     0.016 A 
ATOM     14  C   UNL A   1      40.300  31.442  33.424  1.00  0.00     0.010 A 
ATOM     15  C   UNL A   1      39.126  29.988  31.903  1.00  0.00     0.010 A 
ATOM     16  C   UNL A   1      40.324  30.421  32.481  1.00  0.00    -0.014 A 
BRANCH  16  17
ATOM     17  C   UNL A   1      41.632  29.928  32.015  1.00  0.00     0.031 A 
ATOM     18  C   UNL A   1      42.329  30.709  30.943  1.00  0.00     0.074 A 
ATOM     19  C   UNL A   1      42.209  28.872  32.616  1.00  0.00     0.049 A 
ATOM     20  N   UNL A   1      43.426  30.432  30.296  1.00  0.00    -0.248 NA
ATOM     21  C   UNL A   1      41.707  31.990  30.559  1.00  0.00     0.031 C 
ATOM     22  C   UNL A   1      41.652  28.149  33.764  1.00  0.00     0.029 A 
ATOM     23  N   UNL A   1      43.388  28.225  32.358  1.00  0.00    -0.354 N 
ATOM     24  C   UNL A   1      43.608  31.482  29.402  1.00  0.00     0.074 A 
ATOM     25  C   UNL A   1      42.516  32.409  29.600  1.00  0.00     0.031 C 
ATOM     26  C   UNL A   1      42.489  27.154  34.102  1.00  0.00     0.029 A 
ATOM     27  C   UNL A   1      43.594  27.118  33.150  1.00  0.00     0.049 A 
ATOM     28  H   UNL A   1      44.027  28.524  31.671  1.00  0.00     0.167 HD
ATOM     29  C   UNL A   1      44.593  31.632  28.488  1.00  0.00     0.034 A 
ATOM     30  C   UNL A   1      44.538  26.159  33.063  1.00  0.00     0.034 A 
ATOM     31  C   UNL A   1      45.653  30.673  28.323  1.00  0.00     0.049 A 
ATOM     32  C   UNL A   1      45.557  26.290  31.952  1.00  0.00     0.074 A 
ATOM     33  C   UNL A   1      46.691  30.677  27.412  1.00  0.00     0.029 A 
ATOM     34  N   UNL A   1      45.795  29.521  29.090  1.00  0.00    -0.354 N 
ATOM     35  N   UNL A   1      45.702  27.261  31.076  1.00  0.00    -0.248 NA
ATOM     36  C   UNL A   1      46.523  25.196  31.801  1.00  0.00     0.031 C 
ATOM     37  C   UNL A   1      47.418  29.493  27.581  1.00  0.00     0.029 A 
ATOM     38  C   UNL A   1      46.877  28.784  28.645  1.00  0.00     0.049 A 
ATOM     39  H   UNL A   1      45.211  29.269  29.841  1.00  0.00     0.167 HD
ATOM     40  C   UNL A   1      46.780  26.896  30.276  1.00  0.00     0.074 A 
ATOM     41  C   UNL A   1      47.269  25.635  30.798  1.00  0.00     0.031 C 
ATOM     42  C   UNL A   1      47.318  27.527  29.200  1.00  0.00     0.034 A 
BRANCH  29  43
ATOM     43  C   UNL A   1      44.486  32.801  27.544  1.00  0.00     0.023 A 
ATOM     44  C   UNL A   1      44.857  34.105  27.915  1.00  0.00     0.031 A 
ATOM     45  C   UNL A   1      43.943  32.607  26.262  1.00  0.00     0.131 A 
ATOM     46  C   UNL A   1      44.626  35.173  27.032  1.00  0.00     0.055 A 
ATOM     47  C   UNL A   1      43.778  33.662  25.364  1.00  0.00     0.041 A 
ATOM     48  F   UNL A   1      43.541  31.388  25.868  1.00  0.00    -0.206 F 
ATOM     49  C   UNL A   1      44.110  34.957  25.751  1.00  0.00     0.022 A 
BRANCH  46  50
ATOM     50  S   UNL A   1      44.903  36.869  27.617  1.00  0.00     0.124 S 
ATOM     51  O   UNL A   1      44.694  36.722  29.054  1.00  0.00    -0.237 OA
ATOM     52  O   UNL A   1      46.275  37.129  27.195  1.00  0.00    -0.237 OA
ATOM     53  O   UNL A   1      43.879  37.644  26.919  1.00  0.00    -0.744 OA
ENDBRANCH  46  50
ENDBRANCH  29  43
BRANCH  30  54
ATOM     54  C   UNL A   1      44.510  24.952  33.946  1.00  0.00     0.023 A 
ATOM     55  C   UNL A   1      45.012  24.988  35.257  1.00  0.00     0.031 A 
ATOM     56  C   UNL A   1      44.063  23.709  33.456  1.00  0.00     0.131 A 
ATOM     57  C   UNL A   1      45.109  23.801  36.007  1.00  0.00     0.055 A 
ATOM     58  C   UNL A   1      44.098  22.546  34.228  1.00  0.00     0.041 A 
ATOM     59  F   UNL A   1      43.588  23.600  32.205  1.00  0.00    -0.206 F 
ATOM     60  C   UNL A   1      44.642  22.585  35.506  1.00  0.00     0.022 A 
BRANCH  57  61
ATOM     61  S   UNL A   1      45.983  23.845  37.598  1.00  0.00     0.124 S 
ATOM     62  O   UNL A   1      46.556  22.505  37.660  1.00  0.00    -0.237 OA
ATOM     63  O   UNL A   1      46.926  24.938  37.395  1.00  0.00    -0.237 OA
ATOM     64  O   UNL A   1      44.918  24.111  38.563  1.00  0.00    -0.744 OA
ENDBRANCH  57  61
ENDBRANCH  30  54
BRANCH  42  65
ATOM     65  C   UNL A   1      48.498  26.857  28.548  1.00  0.00     0.023 A 
ATOM     66  C   UNL A   1      49.810  27.127  28.967  1.00  0.00     0.031 A 
ATOM     67  C   UNL A   1      48.302  25.932  27.509  1.00  0.00     0.131 A 
ATOM     68  C   UNL A   1      50.886  26.512  28.314  1.00  0.00     0.055 A 
ATOM     69  C   UNL A   1      49.374  25.277  26.904  1.00  0.00     0.041 A 
ATOM     70  F   UNL A   1      47.065  25.642  27.075  1.00  0.00    -0.206 F 
ATOM     71  C   UNL A   1      50.676  25.575  27.299  1.00  0.00     0.022 A 
BRANCH  68  72
ATOM     72  S   UNL A   1      52.570  27.009  28.764  1.00  0.00     0.124 S 
ATOM     73  O   UNL A   1      53.351  26.470  27.656  1.00  0.00    -0.237 OA
ATOM     74  O   UNL A   1      52.465  28.464  28.821  1.00  0.00    -0.237 OA
ATOM     75  O   UNL A   1      52.787  26.355  30.053  1.00  0.00    -0.744 OA
ENDBRANCH  68  72
ENDBRANCH  42  65
ENDBRANCH  16  17
ENDBRANCH   9  11
ENDBRANCH   8   9
ENDBRANCH   7   8
ENDBRANCH   6   7
ENDBRANCH   5   6
ENDBRANCH   4   5
ENDBRANCH   3   4
ENDBRANCH   2   3
ENDBRANCH   1   2
BRANCH   1  76
ATOM     76  C   UNL A   1      39.497  29.174  27.434  1.00  0.00     0.188 C 
BRANCH  76  77
ATOM     77  O   UNL A   1      40.180  28.406  28.417  1.00  0.00    -0.376 OA
BRANCH  77  78
ATOM     78  C   UNL A   1      39.369  27.472  29.120  1.00  0.00     0.202 C 
BRANCH  78  79
ATOM     79  C   UNL A   1      39.766  26.018  28.856  1.00  0.00     0.261 C 
BRANCH  79  80
ATOM     80  O   UNL A   1      39.163  25.383  27.709  1.00  0.00    -0.460 OA
BRANCH  80  81
ATOM     81  C   UNL A   1      39.925  25.012  26.653  1.00  0.00     0.341 C 
ATOM     82  O   UNL A   1      40.576  25.734  25.919  1.00  0.00    -0.246 OA
BRANCH  81  83
ATOM     83  C   UNL A   1      39.940  23.533  26.615  1.00  0.00     0.102 A 
ATOM     84  C   UNL A   1      41.123  22.867  26.958  1.00  0.00     0.021 A 
ATOM     85  C   UNL A   1      38.842  22.802  26.122  1.00  0.00     0.140 A 
ATOM     86  C   UNL A   1      41.188  21.489  26.824  1.00  0.00     0.021 A 
ATOM     87  N   UNL A   1      38.922  21.457  25.985  1.00  0.00    -0.239 NA
ATOM     88  C   UNL A   1      40.068  20.836  26.345  1.00  0.00     0.113 A 
BRANCH  85  89
ATOM     89  N   UNL A   1      37.716  23.438  25.634  1.00  0.00    -0.363 N 
ATOM     90  H   UNL A   1      37.203  24.013  26.248  1.00  0.00     0.162 HD
BRANCH  89  91
ATOM     91  C   UNL A   1      37.242  23.303  24.248  1.00  0.00     0.184 C 
BRANCH  91  92
ATOM     92  C   UNL A   1      35.844  22.596  24.208  1.00  0.00     0.234 C 
BRANCH  92  93
ATOM     93  N   UNL A   1      35.553  21.697  25.346  1.00  0.00    -0.323 N 
ATOM     94  C   UNL A   1      35.551  20.261  25.001  1.00  0.00     0.291 C 
ATOM     95  C   UNL A   1      34.457  22.011  26.269  1.00  0.00     0.291 C 
ATOM     96  H   UNL A   1      36.376  21.924  25.904  1.00  0.00     0.348 HD
ATOM     97  C   UNL A   1      34.166  19.694  24.663  1.00  0.00     0.221 C 
ATOM     98  C   UNL A   1      33.109  21.305  26.002  1.00  0.00     0.221 C 
ATOM     99  O   UNL A   1      33.259  19.906  25.751  1.00  0.00    -0.370 OA
ENDBRANCH  92  93
BRANCH  92 100
ATOM    100  C   UNL A   1      34.761  23.601  23.837  1.00  0.00     0.011 A 
ATOM    101  C   UNL A   1      34.620  24.830  24.499  1.00  0.00     0.010 A 
ATOM    102  C   UNL A   1      33.924  23.333  22.742  1.00  0.00     0.010 A 
ATOM    103  C   UNL A   1      33.639  25.742  24.112  1.00  0.00     0.001 A 
ATOM    104  C   UNL A   1      32.963  24.258  22.336  1.00  0.00     0.001 A 
ATOM    105  C   UNL A   1      32.813  25.457  23.029  1.00  0.00     0.000 A 
ENDBRANCH  92 100
ENDBRANCH  91  92
ENDBRANCH  89  91
ENDBRANCH  85  89
ENDBRANCH  81  83
ENDBRANCH  80  81
ENDBRANCH  79  80
ENDBRANCH  78  79
ENDBRANCH  77  78
ENDBRANCH  76  77
ENDBRANCH   1  76
TORSDOF 28
ENDMDL
MODEL 3
REMARK VINA RESULT:      -9.0      6.216     10.095
REMARK SMILES O=C(OCCOCCOCCOCCOC(=O)c1cccnc1NC[C@H](c1ccccc1)[NH+]1CCOCC1)c1ccc(-c2c3nc(c(-c4cc(S(=O)(=O)[O-])ccc4F)c4ccc([nH]4)c(-c4cc(S(=O)(=O)[O-])ccc4F)c4nc(c(-c5cc(S(=O)(=O)[O-])ccc5F)c5ccc2[nH]5)C=C4)C=C3)cc1
REMARK SMILES IDX 10 1 9 2 8 3 7 4 6 5 5 6 4 7 3 8 2 9 1 10 39 11 40 12 101 13
REMARK SMILES IDX 41 14 100 15 42 16 43 17 44 18 94 19 45 20 99 21 93 22 95 23
REMARK SMILES IDX 46 24 98 25 92 26 91 27 47 29 79 30 59 31 78 32 60 33 63 34
REMARK SMILES IDX 77 35 96 36 61 37 62 38 76 40 97 41 64 42 48 43 49 44 57 45
REMARK SMILES IDX 50 46 56 47 58 48 55 49 51 50 52 51 53 52 54 53 80 54 81 55
REMARK SMILES IDX 89 56 82 57 88 58 90 59 87 60 83 61 84 62 85 63 86 64 65 65
REMARK SMILES IDX 66 66 74 67 67 68 73 69 75 70 72 71 68 72 69 73 70 74 71 75
REMARK SMILES IDX 11 76 12 77 13 78 14 79 15 80 16 81 17 82 18 83 19 84 23 85
REMARK SMILES IDX 20 86 22 87 21 88 24 89 25 91 26 92 33 93 34 94 38 95 35 97
REMARK SMILES IDX 37 98 36 99 27 100 28 101 32 102 29 103 31 104 30 105
REMARK H PARENT 95 28 63 39 24 90 33 96
REMARK Flexibility Score: inf
ROOT
ATOM      1  C   UNL A   1      33.248  30.111  27.275  1.00  0.00     0.188 C 
ENDROOT
BRANCH   1   2
ATOM      2  O   UNL A   1      33.135  31.516  27.496  1.00  0.00    -0.377 OA
BRANCH   2   3
ATOM      3  C   UNL A   1      34.206  32.137  28.200  1.00  0.00     0.188 C 
BRANCH   3   4
ATOM      4  C   UNL A   1      35.553  31.448  27.999  1.00  0.00     0.188 C 
BRANCH   4   5
ATOM      5  O   UNL A   1      36.262  31.418  29.238  1.00  0.00    -0.376 OA
BRANCH   5   6
ATOM      6  C   UNL A   1      35.901  30.367  30.129  1.00  0.00     0.202 C 
BRANCH   6   7
ATOM      7  C   UNL A   1      36.282  30.652  31.582  1.00  0.00     0.261 C 
BRANCH   7   8
ATOM      8  O   UNL A   1      36.867  29.506  32.215  1.00  0.00    -0.460 OA
BRANCH   8   9
ATOM      9  C   UNL A   1      38.181  29.163  32.260  1.00  0.00     0.338 C 
ATOM     10  O   UNL A   1      38.494  28.199  32.961  1.00  0.00    -0.246 OA
BRANCH   9  11
ATOM     11  C   UNL A   1      39.277  29.862  31.509  1.00  0.00     0.060 A 
ATOM     12  C   UNL A   1      39.423  29.912  30.119  1.00  0.00     0.016 A 
ATOM     13  C   UNL A   1      40.195  30.595  32.283  1.00  0.00     0.016 A 
ATOM     14  C   UNL A   1      40.454  30.624  29.514  1.00  0.00     0.010 A 
ATOM     15  C   UNL A   1      41.227  31.326  31.685  1.00  0.00     0.010 A 
ATOM     16  C   UNL A   1      41.364  31.329  30.293  1.00  0.00    -0.014 A 
BRANCH  16  17
ATOM     17  C   UNL A   1      42.531  31.938  29.630  1.00  0.00     0.031 A 
ATOM     18  C   UNL A   1      43.620  31.023  29.158  1.00  0.00     0.074 A 
ATOM     19  C   UNL A   1      42.550  33.259  29.376  1.00  0.00     0.049 A 
ATOM     20  N   UNL A   1      44.783  31.314  28.646  1.00  0.00    -0.248 NA
ATOM     21  C   UNL A   1      43.350  29.578  29.266  1.00  0.00     0.031 C 
ATOM     22  C   UNL A   1      41.459  34.190  29.679  1.00  0.00     0.029 A 
ATOM     23  N   UNL A   1      43.510  34.048  28.800  1.00  0.00    -0.354 N 
ATOM     24  C   UNL A   1      45.401  30.092  28.405  1.00  0.00     0.074 A 
ATOM     25  C   UNL A   1      44.479  29.056  28.814  1.00  0.00     0.031 C 
ATOM     26  C   UNL A   1      41.819  35.425  29.293  1.00  0.00     0.029 A 
ATOM     27  C   UNL A   1      43.188  35.387  28.792  1.00  0.00     0.049 A 
ATOM     28  H   UNL A   1      44.349  33.693  28.428  1.00  0.00     0.167 HD
ATOM     29  C   UNL A   1      46.638  29.871  27.907  1.00  0.00     0.034 A 
ATOM     30  C   UNL A   1      43.949  36.455  28.473  1.00  0.00     0.034 A 
ATOM     31  C   UNL A   1      47.523  30.940  27.525  1.00  0.00     0.049 A 
ATOM     32  C   UNL A   1      45.372  36.184  28.034  1.00  0.00     0.074 A 
ATOM     33  C   UNL A   1      48.817  30.864  27.046  1.00  0.00     0.029 A 
ATOM     34  N   UNL A   1      47.199  32.290  27.598  1.00  0.00    -0.354 N 
ATOM     35  N   UNL A   1      45.972  35.027  27.850  1.00  0.00    -0.248 NA
ATOM     36  C   UNL A   1      46.224  37.351  27.780  1.00  0.00     0.031 C 
ATOM     37  C   UNL A   1      49.299  32.169  26.896  1.00  0.00     0.029 A 
ATOM     38  C   UNL A   1      48.282  33.060  27.214  1.00  0.00     0.049 A 
ATOM     39  H   UNL A   1      46.326  32.646  27.880  1.00  0.00     0.167 HD
ATOM     40  C   UNL A   1      47.270  35.331  27.452  1.00  0.00     0.074 A 
ATOM     41  C   UNL A   1      47.352  36.777  27.388  1.00  0.00     0.031 C 
ATOM     42  C   UNL A   1      48.311  34.503  27.175  1.00  0.00     0.034 A 
BRANCH  29  43
ATOM     43  C   UNL A   1      47.124  28.446  27.869  1.00  0.00     0.023 A 
ATOM     44  C   UNL A   1      46.952  27.622  26.744  1.00  0.00     0.031 A 
ATOM     45  C   UNL A   1      47.720  27.888  29.014  1.00  0.00     0.131 A 
ATOM     46  C   UNL A   1      47.321  26.268  26.809  1.00  0.00     0.055 A 
ATOM     47  C   UNL A   1      48.146  26.559  29.050  1.00  0.00     0.041 A 
ATOM     48  F   UNL A   1      47.877  28.621  30.127  1.00  0.00    -0.206 F 
ATOM     49  C   UNL A   1      47.938  25.738  27.946  1.00  0.00     0.022 A 
BRANCH  46  50
ATOM     50  S   UNL A   1      46.885  25.174  25.428  1.00  0.00     0.124 S 
ATOM     51  O   UNL A   1      48.011  25.381  24.521  1.00  0.00    -0.237 OA
ATOM     52  O   UNL A   1      46.815  23.866  26.070  1.00  0.00    -0.237 OA
ATOM     53  O   UNL A   1      45.607  25.707  24.959  1.00  0.00    -0.744 OA
ENDBRANCH  46  50
ENDBRANCH  29  43
BRANCH  30  54
ATOM     54  C   UNL A   1      43.452  37.853  28.661  1.00  0.00     0.023 A 
ATOM     55  C   UNL A   1      43.665  38.555  29.858  1.00  0.00     0.031 A 
ATOM     56  C   UNL A   1      42.666  38.478  27.673  1.00  0.00     0.131 A 
ATOM     57  C   UNL A   1      43.055  39.807  30.059  1.00  0.00     0.055 A 
ATOM     58  C   UNL A   1      42.119  39.751  27.850  1.00  0.00     0.041 A 
ATOM     59  F   UNL A   1      42.407  37.856  26.512  1.00  0.00    -0.206 F 
ATOM     60  C   UNL A   1      42.297  40.415  29.057  1.00  0.00     0.022 A 
BRANCH  57  61
ATOM     61  S   UNL A   1      43.155  40.571  31.703  1.00  0.00     0.124 S 
ATOM     62  O   UNL A   1      41.812  41.120  31.858  1.00  0.00    -0.237 OA
ATOM     63  O   UNL A   1      43.483  39.429  32.548  1.00  0.00    -0.237 OA
ATOM     64  O   UNL A   1      44.219  41.561  31.554  1.00  0.00    -0.744 OA
ENDBRANCH  57  61
ENDBRANCH  30  54
BRANCH  42  65
ATOM     65  C   UNL A   1      49.602  35.160  26.766  1.00  0.00     0.023 A 
ATOM     66  C   UNL A   1      50.582  35.492  27.714  1.00  0.00     0.031 A 
ATOM     67  C   UNL A   1      49.854  35.444  25.413  1.00  0.00     0.131 A 
ATOM     68  C   UNL A   1      51.756  36.134  27.301  1.00  0.00     0.055 A 
ATOM     69  C   UNL A   1      51.051  36.029  25.001  1.00  0.00     0.041 A 
ATOM     70  F   UNL A   1      48.946  35.144  24.470  1.00  0.00    -0.206 F 
ATOM     71  C   UNL A   1      52.006  36.387  25.950  1.00  0.00     0.022 A 
BRANCH  68  72
ATOM     72  S   UNL A   1      52.924  36.701  28.566  1.00  0.00     0.124 S 
ATOM     73  O   UNL A   1      52.698  38.141  28.564  1.00  0.00    -0.237 OA
ATOM     74  O   UNL A   1      52.472  35.986  29.755  1.00  0.00    -0.237 OA
ATOM     75  O   UNL A   1      54.223  36.275  28.047  1.00  0.00    -0.744 OA
ENDBRANCH  68  72
ENDBRANCH  42  65
ENDBRANCH  16  17
ENDBRANCH   9  11
ENDBRANCH   8   9
ENDBRANCH   7   8
ENDBRANCH   6   7
ENDBRANCH   5   6
ENDBRANCH   4   5
ENDBRANCH   3   4
ENDBRANCH   2   3
ENDBRANCH   1   2
BRANCH   1  76
ATOM     76  C   UNL A   1      32.048  29.368  26.652  1.00  0.00     0.188 C 
BRANCH  76  77
ATOM     77  O   UNL A   1      32.361  28.670  25.453  1.00  0.00    -0.376 OA
BRANCH  77  78
ATOM     78  C   UNL A   1      33.320  29.308  24.618  1.00  0.00     0.202 C 
BRANCH  78  79
ATOM     79  C   UNL A   1      34.023  28.339  23.665  1.00  0.00     0.261 C 
BRANCH  79  80
ATOM     80  O   UNL A   1      33.427  28.173  22.360  1.00  0.00    -0.460 OA
BRANCH  80  81
ATOM     81  C   UNL A   1      32.922  26.972  21.988  1.00  0.00     0.341 C 
ATOM     82  O   UNL A   1      33.467  26.116  21.314  1.00  0.00    -0.246 OA
BRANCH  81  83
ATOM     83  C   UNL A   1      31.613  26.815  22.658  1.00  0.00     0.102 A 
ATOM     84  C   UNL A   1      30.612  27.761  22.400  1.00  0.00     0.021 A 
ATOM     85  C   UNL A   1      31.404  25.821  23.632  1.00  0.00     0.140 A 
ATOM     86  C   UNL A   1      29.418  27.691  23.100  1.00  0.00     0.021 A 
ATOM     87  N   UNL A   1      30.237  25.770  24.318  1.00  0.00    -0.239 NA
ATOM     88  C   UNL A   1      29.278  26.681  24.034  1.00  0.00     0.113 A 
BRANCH  85  89
ATOM     89  N   UNL A   1      32.420  24.967  24.018  1.00  0.00    -0.363 N 
ATOM     90  H   UNL A   1      33.235  25.359  24.407  1.00  0.00     0.162 HD
BRANCH  89  91
ATOM     91  C   UNL A   1      32.349  23.505  23.879  1.00  0.00     0.184 C 
BRANCH  91  92
ATOM     92  C   UNL A   1      33.126  22.800  25.044  1.00  0.00     0.234 C 
BRANCH  92  93
ATOM     93  N   UNL A   1      32.645  21.449  25.403  1.00  0.00    -0.323 N 
ATOM     94  C   UNL A   1      33.677  20.573  25.995  1.00  0.00     0.291 C 
ATOM     95  C   UNL A   1      31.798  20.697  24.471  1.00  0.00     0.291 C 
ATOM     96  H   UNL A   1      31.976  21.736  26.118  1.00  0.00     0.348 HD
ATOM     97  C   UNL A   1      34.386  19.661  24.985  1.00  0.00     0.221 C 
ATOM     98  C   UNL A   1      32.514  19.667  23.570  1.00  0.00     0.221 C 
ATOM     99  O   UNL A   1      33.433  18.845  24.293  1.00  0.00    -0.370 OA
ENDBRANCH  92  93
BRANCH  92 100
ATOM    100  C   UNL A   1      34.628  22.957  24.840  1.00  0.00     0.011 A 
ATOM    101  C   UNL A   1      35.242  22.747  23.596  1.00  0.00     0.010 A 
ATOM    102  C   UNL A   1      35.421  23.410  25.906  1.00  0.00     0.010 A 
ATOM    103  C   UNL A   1      36.614  22.933  23.435  1.00  0.00     0.001 A 
ATOM    104  C   UNL A   1      36.788  23.625  25.738  1.00  0.00     0.001 A 
ATOM    105  C   UNL A   1      37.386  23.374  24.505  1.00  0.00     0.000 A 
ENDBRANCH  92 100
ENDBRANCH  91  92
ENDBRANCH  89  91
ENDBRANCH  85  89
ENDBRANCH  81  83
ENDBRANCH  80  81
ENDBRANCH  79  80
ENDBRANCH  78  79
ENDBRANCH  77  78
ENDBRANCH  76  77
ENDBRANCH   1  76
TORSDOF 28
ENDMDL
