MODEL 1
REMARK VINA RESULT:      -8.7      0.000      0.000
REMARK SMILES CC(C)(C)C(=O)NCCC(=O)N1C[C@@H](O)C[C@@H]1C(=O)OCCOCCOCCOCCOC(=O)c1ccc(-c2c3nc(c(-c4cc(S(=O)(=O)[O-])ccc4F)c4ccc([nH]4)c(-c4cc(S(=O)(=O)[O-])ccc4F)c4nc(c(-c5cc(S(=O)(=O)[O-])ccc5F)c5ccc2[nH]5)C=C4)C=C3)cc1
REMARK SMILES IDX 25 1 24 2 23 3 22 4 21 5 20 6 18 7 19 8 17 9 12 10 13 11
REMARK SMILES IDX 14 12 16 13 10 14 11 15 9 16 8 17 7 18 5 19 6 20 2 22 1 23
REMARK SMILES IDX 3 24 4 25 15 26 26 28 27 29 28 30 29 31 30 32 31 33 32 34
REMARK SMILES IDX 33 35 34 36 35 37 36 38 97 39 37 40 96 41 38 42 39 43 40 44
REMARK SMILES IDX 90 45 41 46 95 47 89 48 91 49 42 50 94 51 88 52 87 53 43 55
REMARK SMILES IDX 75 56 55 57 74 58 56 59 59 60 73 61 92 62 57 63 58 64 72 66
REMARK SMILES IDX 93 67 60 68 44 69 45 70 53 71 46 72 52 73 54 74 51 75 47 76
REMARK SMILES IDX 48 77 49 78 50 79 76 80 77 81 85 82 78 83 84 84 86 85 83 86
REMARK SMILES IDX 79 87 80 88 81 89 82 90 61 91 62 92 70 93 63 94 69 95 71 96
REMARK SMILES IDX 68 97 64 98 65 99 66 100 67 101
REMARK H PARENT 7 21 15 27 91 54 59 65
REMARK Flexibility Score: inf
ROOT
ATOM      1  C   UNL A   1      43.330  18.744  25.599  1.00  0.00     0.188 C 
ENDROOT
BRANCH   1   2
ATOM      2  C   UNL A   1      42.188  19.187  26.532  1.00  0.00     0.188 C 
BRANCH   2   3
ATOM      3  O   UNL A   1      41.228  20.150  26.116  1.00  0.00    -0.376 OA
BRANCH   3   4
ATOM      4  C   UNL A   1      40.574  20.961  27.083  1.00  0.00     0.202 C 
BRANCH   4   5
ATOM      5  C   UNL A   1      39.820  22.227  26.634  1.00  0.00     0.261 C 
BRANCH   5   6
ATOM      6  O   UNL A   1      38.755  22.016  25.684  1.00  0.00    -0.462 OA
BRANCH   6   7
ATOM      7  C   UNL A   1      37.713  22.881  25.712  1.00  0.00     0.329 C 
ATOM      8  O   UNL A   1      37.731  23.963  26.295  1.00  0.00    -0.250 OA
BRANCH   7   9
ATOM      9  C   UNL A   1      36.480  22.420  24.888  1.00  0.00     0.197 C 
ATOM     10  N   UNL A   1      35.112  22.640  25.392  1.00  0.00    -0.326 N 
ATOM     11  C   UNL A   1      34.349  21.409  25.425  1.00  0.00     0.152 C 
ATOM     12  C   UNL A   1      35.362  20.281  25.379  1.00  0.00     0.136 C 
ATOM     13  C   UNL A   1      36.582  20.890  24.695  1.00  0.00     0.070 C 
BRANCH  10  14
ATOM     14  C   UNL A   1      34.570  23.903  25.535  1.00  0.00     0.225 C 
ATOM     15  O   UNL A   1      33.880  24.188  26.513  1.00  0.00    -0.275 OA
BRANCH  14  16
ATOM     16  C   UNL A   1      34.749  24.898  24.379  1.00  0.00     0.121 C 
BRANCH  16  17
ATOM     17  C   UNL A   1      33.494  25.588  23.838  1.00  0.00     0.125 C 
BRANCH  17  18
ATOM     18  N   UNL A   1      33.622  27.041  23.778  1.00  0.00    -0.355 N 
ATOM     19  C   UNL A   1      32.757  28.053  23.504  1.00  0.00     0.225 C 
ATOM     20  O   UNL A   1      33.286  29.099  23.108  1.00  0.00    -0.275 OA
ATOM     21  H   UNL A   1      34.533  27.356  23.980  1.00  0.00     0.163 HD
BRANCH  19  22
ATOM     22  C   UNL A   1      31.241  27.977  23.767  1.00  0.00     0.041 C 
ATOM     23  C   UNL A   1      30.549  27.394  22.508  1.00  0.00     0.021 C 
ATOM     24  C   UNL A   1      30.716  29.406  23.968  1.00  0.00     0.021 C 
ATOM     25  C   UNL A   1      30.838  27.097  24.948  1.00  0.00     0.021 C 
ENDBRANCH  19  22
ENDBRANCH  17  18
ENDBRANCH  16  17
ENDBRANCH  14  16
ENDBRANCH  10  14
BRANCH  12  26
ATOM     26  O   UNL A   1      34.897  19.147  24.661  1.00  0.00    -0.391 OA
ATOM     27  H   UNL A   1      33.928  19.161  24.628  1.00  0.00     0.211 HD
ENDBRANCH  12  26
ENDBRANCH   7   9
ENDBRANCH   6   7
ENDBRANCH   5   6
ENDBRANCH   4   5
ENDBRANCH   3   4
ENDBRANCH   2   3
ENDBRANCH   1   2
BRANCH   1  28
ATOM     28  O   UNL A   1      43.710  19.670  24.607  1.00  0.00    -0.377 OA
BRANCH  28  29
ATOM     29  C   UNL A   1      44.871  20.434  24.879  1.00  0.00     0.188 C 
BRANCH  29  30
ATOM     30  C   UNL A   1      45.077  21.703  24.028  1.00  0.00     0.188 C 
BRANCH  30  31
ATOM     31  O   UNL A   1      43.894  22.481  23.872  1.00  0.00    -0.376 OA
BRANCH  31  32
ATOM     32  C   UNL A   1      43.140  22.817  25.025  1.00  0.00     0.202 C 
BRANCH  32  33
ATOM     33  C   UNL A   1      43.522  24.084  25.802  1.00  0.00     0.261 C 
BRANCH  33  34
ATOM     34  O   UNL A   1      43.112  25.334  25.231  1.00  0.00    -0.460 OA
BRANCH  34  35
ATOM     35  C   UNL A   1      41.988  25.926  25.697  1.00  0.00     0.338 C 
ATOM     36  O   UNL A   1      40.884  25.435  25.746  1.00  0.00    -0.246 OA
BRANCH  35  37
ATOM     37  C   UNL A   1      42.400  27.219  26.301  1.00  0.00     0.060 A 
ATOM     38  C   UNL A   1      43.246  27.215  27.416  1.00  0.00     0.016 A 
ATOM     39  C   UNL A   1      41.974  28.432  25.754  1.00  0.00     0.016 A 
ATOM     40  C   UNL A   1      43.635  28.420  28.008  1.00  0.00     0.010 A 
ATOM     41  C   UNL A   1      42.362  29.640  26.347  1.00  0.00     0.010 A 
ATOM     42  C   UNL A   1      43.160  29.639  27.505  1.00  0.00    -0.014 A 
BRANCH  42  43
ATOM     43  C   UNL A   1      43.301  30.878  28.317  1.00  0.00     0.031 A 
ATOM     44  C   UNL A   1      44.433  31.817  27.988  1.00  0.00     0.074 A 
ATOM     45  C   UNL A   1      42.443  31.183  29.306  1.00  0.00     0.049 A 
ATOM     46  N   UNL A   1      44.793  32.932  28.570  1.00  0.00    -0.248 NA
ATOM     47  C   UNL A   1      45.282  31.431  26.851  1.00  0.00     0.031 C 
ATOM     48  C   UNL A   1      41.293  30.373  29.705  1.00  0.00     0.029 A 
ATOM     49  N   UNL A   1      42.413  32.255  30.165  1.00  0.00    -0.354 N 
ATOM     50  C   UNL A   1      45.918  33.373  27.880  1.00  0.00     0.074 A 
ATOM     51  C   UNL A   1      46.208  32.375  26.872  1.00  0.00     0.031 C 
ATOM     52  C   UNL A   1      40.679  30.970  30.741  1.00  0.00     0.029 A 
ATOM     53  C   UNL A   1      41.412  32.183  31.105  1.00  0.00     0.049 A 
ATOM     54  H   UNL A   1      43.049  33.005  30.113  1.00  0.00     0.167 HD
ATOM     55  C   UNL A   1      46.636  34.509  28.060  1.00  0.00     0.034 A 
ATOM     56  C   UNL A   1      41.138  32.983  32.158  1.00  0.00     0.034 A 
ATOM     57  C   UNL A   1      46.338  35.487  29.078  1.00  0.00     0.049 A 
ATOM     58  C   UNL A   1      41.990  34.207  32.393  1.00  0.00     0.074 A 
ATOM     59  C   UNL A   1      46.973  36.691  29.328  1.00  0.00     0.029 A 
ATOM     60  N   UNL A   1      45.334  35.363  30.032  1.00  0.00    -0.354 N 
ATOM     61  N   UNL A   1      43.032  34.633  31.714  1.00  0.00    -0.248 NA
ATOM     62  C   UNL A   1      41.624  35.064  33.529  1.00  0.00     0.031 C 
ATOM     63  C   UNL A   1      46.419  37.245  30.487  1.00  0.00     0.029 A 
ATOM     64  C   UNL A   1      45.366  36.443  30.903  1.00  0.00     0.049 A 
ATOM     65  H   UNL A   1      44.693  34.618  30.082  1.00  0.00     0.167 HD
ATOM     66  C   UNL A   1      43.427  35.822  32.325  1.00  0.00     0.074 A 
ATOM     67  C   UNL A   1      42.503  36.050  33.419  1.00  0.00     0.031 C 
ATOM     68  C   UNL A   1      44.454  36.653  32.005  1.00  0.00     0.034 A 
BRANCH  55  69
ATOM     69  C   UNL A   1      47.849  34.707  27.177  1.00  0.00     0.023 A 
ATOM     70  C   UNL A   1      49.139  34.322  27.585  1.00  0.00     0.031 A 
ATOM     71  C   UNL A   1      47.722  35.354  25.935  1.00  0.00     0.131 A 
ATOM     72  C   UNL A   1      50.254  34.682  26.812  1.00  0.00     0.055 A 
ATOM     73  C   UNL A   1      48.826  35.618  25.123  1.00  0.00     0.041 A 
ATOM     74  F   UNL A   1      46.522  35.770  25.500  1.00  0.00    -0.206 F 
ATOM     75  C   UNL A   1      50.105  35.301  25.571  1.00  0.00     0.022 A 
BRANCH  72  76
ATOM     76  S   UNL A   1      51.905  34.514  27.549  1.00  0.00     0.124 S 
ATOM     77  O   UNL A   1      51.577  34.174  28.932  1.00  0.00    -0.237 OA
ATOM     78  O   UNL A   1      52.498  33.446  26.752  1.00  0.00    -0.237 OA
ATOM     79  O   UNL A   1      52.499  35.836  27.365  1.00  0.00    -0.744 OA
ENDBRANCH  72  76
ENDBRANCH  55  69
BRANCH  56  80
ATOM     80  C   UNL A   1      40.040  32.619  33.102  1.00  0.00     0.023 A 
ATOM     81  C   UNL A   1      38.757  33.178  32.997  1.00  0.00     0.031 A 
ATOM     82  C   UNL A   1      40.276  31.705  34.147  1.00  0.00     0.131 A 
ATOM     83  C   UNL A   1      37.767  32.837  33.934  1.00  0.00     0.055 A 
ATOM     84  C   UNL A   1      39.275  31.330  35.043  1.00  0.00     0.041 A 
ATOM     85  F   UNL A   1      41.488  31.147  34.299  1.00  0.00    -0.206 F 
ATOM     86  C   UNL A   1      38.012  31.902  34.944  1.00  0.00     0.022 A 
BRANCH  83  87
ATOM     87  S   UNL A   1      36.161  33.680  33.857  1.00  0.00     0.124 S 
ATOM     88  O   UNL A   1      35.547  33.042  32.699  1.00  0.00    -0.237 OA
ATOM     89  O   UNL A   1      35.582  33.349  35.155  1.00  0.00    -0.237 OA
ATOM     90  O   UNL A   1      36.521  35.085  33.679  1.00  0.00    -0.744 OA
ENDBRANCH  83  87
ENDBRANCH  56  80
BRANCH  68  91
ATOM     91  C   UNL A   1      44.609  37.915  32.824  1.00  0.00     0.023 A 
ATOM     92  C   UNL A   1      43.814  39.054  32.599  1.00  0.00     0.031 A 
ATOM     93  C   UNL A   1      45.569  37.976  33.852  1.00  0.00     0.131 A 
ATOM     94  C   UNL A   1      44.033  40.219  33.350  1.00  0.00     0.055 A 
ATOM     95  C   UNL A   1      45.731  39.114  34.643  1.00  0.00     0.041 A 
ATOM     96  F   UNL A   1      46.361  36.924  34.111  1.00  0.00    -0.206 F 
ATOM     97  C   UNL A   1      44.971  40.249  34.386  1.00  0.00     0.022 A 
BRANCH  94  98
ATOM     98  S   UNL A   1      43.150  41.735  32.887  1.00  0.00     0.124 S 
ATOM     99  O   UNL A   1      42.777  42.276  34.190  1.00  0.00    -0.237 OA
ATOM    100  O   UNL A   1      44.170  42.480  32.155  1.00  0.00    -0.237 OA
ATOM    101  O   UNL A   1      42.036  41.250  32.075  1.00  0.00    -0.744 OA
ENDBRANCH  94  98
ENDBRANCH  68  91
ENDBRANCH  42  43
ENDBRANCH  35  37
ENDBRANCH  34  35
ENDBRANCH  33  34
ENDBRANCH  32  33
ENDBRANCH  31  32
ENDBRANCH  30  31
ENDBRANCH  29  30
ENDBRANCH  28  29
ENDBRANCH   1  28
TORSDOF 29
ENDMDL
MODEL 2
REMARK VINA RESULT:      -8.7      5.204      9.826
REMARK SMILES CC(C)(C)C(=O)NCCC(=O)N1C[C@@H](O)C[C@@H]1C(=O)OCCOCCOCCOCCOC(=O)c1ccc(-c2c3nc(c(-c4cc(S(=O)(=O)[O-])ccc4F)c4ccc([nH]4)c(-c4cc(S(=O)(=O)[O-])ccc4F)c4nc(c(-c5cc(S(=O)(=O)[O-])ccc5F)c5ccc2[nH]5)C=C4)C=C3)cc1
REMARK SMILES IDX 25 1 24 2 23 3 22 4 21 5 20 6 18 7 19 8 17 9 12 10 13 11
REMARK SMILES IDX 14 12 16 13 10 14 11 15 9 16 8 17 7 18 5 19 6 20 2 22 1 23
REMARK SMILES IDX 3 24 4 25 15 26 26 28 27 29 28 30 29 31 30 32 31 33 32 34
REMARK SMILES IDX 33 35 34 36 35 37 36 38 97 39 37 40 96 41 38 42 39 43 40 44
REMARK SMILES IDX 90 45 41 46 95 47 89 48 91 49 42 50 94 51 88 52 87 53 43 55
REMARK SMILES IDX 75 56 55 57 74 58 56 59 59 60 73 61 92 62 57 63 58 64 72 66
REMARK SMILES IDX 93 67 60 68 44 69 45 70 53 71 46 72 52 73 54 74 51 75 47 76
REMARK SMILES IDX 48 77 49 78 50 79 76 80 77 81 85 82 78 83 84 84 86 85 83 86
REMARK SMILES IDX 79 87 80 88 81 89 82 90 61 91 62 92 70 93 63 94 69 95 71 96
REMARK SMILES IDX 68 97 64 98 65 99 66 100 67 101
REMARK H PARENT 7 21 15 27 91 54 59 65
REMARK Flexibility Score: inf
ROOT
ATOM      1  C   UNL A   1      34.415  33.293  29.045  1.00  0.00     0.188 C 
ENDROOT
BRANCH   1   2
ATOM      2  C   UNL A   1      34.939  32.185  28.114  1.00  0.00     0.188 C 
BRANCH   2   3
ATOM      3  O   UNL A   1      34.106  31.106  27.710  1.00  0.00    -0.376 OA
BRANCH   3   4
ATOM      4  C   UNL A   1      34.690  29.896  27.246  1.00  0.00     0.202 C 
BRANCH   4   5
ATOM      5  C   UNL A   1      33.844  28.609  27.200  1.00  0.00     0.261 C 
BRANCH   5   6
ATOM      6  O   UNL A   1      33.772  27.954  25.917  1.00  0.00    -0.462 OA
BRANCH   6   7
ATOM      7  C   UNL A   1      32.633  27.281  25.624  1.00  0.00     0.329 C 
ATOM      8  O   UNL A   1      31.502  27.699  25.864  1.00  0.00    -0.250 OA
BRANCH   7   9
ATOM      9  C   UNL A   1      32.863  25.929  24.893  1.00  0.00     0.197 C 
ATOM     10  N   UNL A   1      32.291  25.689  23.556  1.00  0.00    -0.326 N 
ATOM     11  C   UNL A   1      31.500  24.476  23.523  1.00  0.00     0.152 C 
ATOM     12  C   UNL A   1      31.162  24.150  24.965  1.00  0.00     0.136 C 
ATOM     13  C   UNL A   1      32.276  24.805  25.776  1.00  0.00     0.070 C 
BRANCH  10  14
ATOM     14  C   UNL A   1      32.705  26.387  22.438  1.00  0.00     0.225 C 
ATOM     15  O   UNL A   1      33.652  25.990  21.759  1.00  0.00    -0.275 OA
BRANCH  14  16
ATOM     16  C   UNL A   1      32.031  27.734  22.140  1.00  0.00     0.121 C 
BRANCH  16  17
ATOM     17  C   UNL A   1      30.557  27.889  22.522  1.00  0.00     0.125 C 
BRANCH  17  18
ATOM     18  N   UNL A   1      30.335  28.906  23.544  1.00  0.00    -0.355 N 
ATOM     19  C   UNL A   1      29.581  30.036  23.603  1.00  0.00     0.225 C 
ATOM     20  O   UNL A   1      29.965  30.877  24.424  1.00  0.00    -0.275 OA
ATOM     21  H   UNL A   1      30.840  28.736  24.372  1.00  0.00     0.163 HD
BRANCH  19  22
ATOM     22  C   UNL A   1      28.278  30.236  22.807  1.00  0.00     0.041 C 
ATOM     23  C   UNL A   1      27.554  31.494  23.350  1.00  0.00     0.021 C 
ATOM     24  C   UNL A   1      27.368  29.026  23.066  1.00  0.00     0.021 C 
ATOM     25  C   UNL A   1      28.466  30.440  21.306  1.00  0.00     0.021 C 
ENDBRANCH  19  22
ENDBRANCH  17  18
ENDBRANCH  16  17
ENDBRANCH  14  16
ENDBRANCH  10  14
BRANCH  12  26
ATOM     26  O   UNL A   1      31.109  22.753  25.219  1.00  0.00    -0.391 OA
ATOM     27  H   UNL A   1      30.184  22.474  25.299  1.00  0.00     0.211 HD
ENDBRANCH  12  26
ENDBRANCH   7   9
ENDBRANCH   6   7
ENDBRANCH   5   6
ENDBRANCH   4   5
ENDBRANCH   3   4
ENDBRANCH   2   3
ENDBRANCH   1   2
BRANCH   1  28
ATOM     28  O   UNL A   1      34.605  34.616  28.597  1.00  0.00    -0.377 OA
BRANCH  28  29
ATOM     29  C   UNL A   1      33.649  35.566  29.032  1.00  0.00     0.188 C 
BRANCH  29  30
ATOM     30  C   UNL A   1      33.087  35.376  30.454  1.00  0.00     0.188 C 
BRANCH  30  31
ATOM     31  O   UNL A   1      33.992  35.770  31.481  1.00  0.00    -0.376 OA
BRANCH  31  32
ATOM     32  C   UNL A   1      34.418  34.801  32.425  1.00  0.00     0.202 C 
BRANCH  32  33
ATOM     33  C   UNL A   1      35.921  34.521  32.555  1.00  0.00     0.261 C 
BRANCH  33  34
ATOM     34  O   UNL A   1      36.669  34.453  31.334  1.00  0.00    -0.460 OA
BRANCH  34  35
ATOM     35  C   UNL A   1      37.494  33.400  31.133  1.00  0.00     0.338 C 
ATOM     36  O   UNL A   1      37.198  32.229  31.205  1.00  0.00    -0.246 OA
BRANCH  35  37
ATOM     37  C   UNL A   1      38.780  33.950  30.632  1.00  0.00     0.060 A 
ATOM     38  C   UNL A   1      38.894  34.298  29.280  1.00  0.00     0.016 A 
ATOM     39  C   UNL A   1      39.861  34.143  31.495  1.00  0.00     0.016 A 
ATOM     40  C   UNL A   1      40.100  34.805  28.785  1.00  0.00     0.010 A 
ATOM     41  C   UNL A   1      41.069  34.649  30.999  1.00  0.00     0.010 A 
ATOM     42  C   UNL A   1      41.209  34.941  29.631  1.00  0.00    -0.014 A 
BRANCH  42  43
ATOM     43  C   UNL A   1      42.560  35.161  29.047  1.00  0.00     0.031 A 
ATOM     44  C   UNL A   1      43.511  33.993  28.998  1.00  0.00     0.074 A 
ATOM     45  C   UNL A   1      42.935  36.353  28.550  1.00  0.00     0.049 A 
ATOM     46  N   UNL A   1      44.749  33.939  28.580  1.00  0.00    -0.248 NA
ATOM     47  C   UNL A   1      42.991  32.716  29.508  1.00  0.00     0.031 C 
ATOM     48  C   UNL A   1      42.099  37.552  28.512  1.00  0.00     0.029 A 
ATOM     49  N   UNL A   1      44.124  36.754  27.990  1.00  0.00    -0.354 N 
ATOM     50  C   UNL A   1      45.161  32.626  28.790  1.00  0.00     0.074 A 
ATOM     51  C   UNL A   1      44.056  31.937  29.421  1.00  0.00     0.031 C 
ATOM     52  C   UNL A   1      42.808  38.559  27.971  1.00  0.00     0.029 A 
ATOM     53  C   UNL A   1      44.158  38.089  27.660  1.00  0.00     0.049 A 
ATOM     54  H   UNL A   1      44.881  36.143  27.838  1.00  0.00     0.167 HD
ATOM     55  C   UNL A   1      46.346  32.045  28.475  1.00  0.00     0.034 A 
ATOM     56  C   UNL A   1      45.170  38.851  27.194  1.00  0.00     0.034 A 
ATOM     57  C   UNL A   1      47.440  32.752  27.856  1.00  0.00     0.049 A 
ATOM     58  C   UNL A   1      46.508  38.208  26.916  1.00  0.00     0.074 A 
ATOM     59  C   UNL A   1      48.670  32.257  27.458  1.00  0.00     0.029 A 
ATOM     60  N   UNL A   1      47.448  34.111  27.565  1.00  0.00    -0.354 N 
ATOM     61  N   UNL A   1      46.877  36.958  27.086  1.00  0.00    -0.248 NA
ATOM     62  C   UNL A   1      47.562  39.076  26.373  1.00  0.00     0.031 C 
ATOM     63  C   UNL A   1      49.452  33.331  27.020  1.00  0.00     0.029 A 
ATOM     64  C   UNL A   1      48.679  34.481  27.043  1.00  0.00     0.049 A 
ATOM     65  H   UNL A   1      46.690  34.723  27.710  1.00  0.00     0.167 HD
ATOM     66  C   UNL A   1      48.197  36.886  26.644  1.00  0.00     0.074 A 
ATOM     67  C   UNL A   1      48.553  38.215  26.190  1.00  0.00     0.031 C 
ATOM     68  C   UNL A   1      49.034  35.815  26.610  1.00  0.00     0.034 A 
BRANCH  55  69
ATOM     69  C   UNL A   1      46.528  30.593  28.863  1.00  0.00     0.023 A 
ATOM     70  C   UNL A   1      47.098  30.216  30.092  1.00  0.00     0.031 A 
ATOM     71  C   UNL A   1      46.187  29.571  27.959  1.00  0.00     0.131 A 
ATOM     72  C   UNL A   1      47.409  28.869  30.336  1.00  0.00     0.055 A 
ATOM     73  C   UNL A   1      46.404  28.224  28.253  1.00  0.00     0.041 A 
ATOM     74  F   UNL A   1      45.662  29.866  26.759  1.00  0.00    -0.206 F 
ATOM     75  C   UNL A   1      47.039  27.867  29.438  1.00  0.00     0.022 A 
BRANCH  72  76
ATOM     76  S   UNL A   1      48.482  28.473  31.746  1.00  0.00     0.124 S 
ATOM     77  O   UNL A   1      48.386  27.015  31.788  1.00  0.00    -0.237 OA
ATOM     78  O   UNL A   1      49.768  29.017  31.324  1.00  0.00    -0.237 OA
ATOM     79  O   UNL A   1      47.846  29.164  32.865  1.00  0.00    -0.744 OA
ENDBRANCH  72  76
ENDBRANCH  55  69
BRANCH  56  80
ATOM     80  C   UNL A   1      44.972  40.320  27.015  1.00  0.00     0.023 A 
ATOM     81  C   UNL A   1      44.497  40.863  25.811  1.00  0.00     0.031 A 
ATOM     82  C   UNL A   1      45.280  41.210  28.062  1.00  0.00     0.131 A 
ATOM     83  C   UNL A   1      44.366  42.255  25.675  1.00  0.00     0.055 A 
ATOM     84  C   UNL A   1      45.098  42.588  27.940  1.00  0.00     0.041 A 
ATOM     85  F   UNL A   1      45.746  40.746  29.232  1.00  0.00    -0.206 F 
ATOM     86  C   UNL A   1      44.645  43.119  26.738  1.00  0.00     0.022 A 
BRANCH  83  87
ATOM     87  S   UNL A   1      43.884  42.936  24.063  1.00  0.00     0.124 S 
ATOM     88  O   UNL A   1      44.904  42.373  23.187  1.00  0.00    -0.237 OA
ATOM     89  O   UNL A   1      42.534  42.405  23.901  1.00  0.00    -0.237 OA
ATOM     90  O   UNL A   1      43.962  44.381  24.265  1.00  0.00    -0.744 OA
ENDBRANCH  83  87
ENDBRANCH  56  80
BRANCH  68  91
ATOM     91  C   UNL A   1      50.410  36.026  26.019  1.00  0.00     0.023 A 
ATOM     92  C   UNL A   1      51.562  36.117  26.822  1.00  0.00     0.031 A 
ATOM     93  C   UNL A   1      50.570  36.134  24.625  1.00  0.00     0.131 A 
ATOM     94  C   UNL A   1      52.809  36.366  26.229  1.00  0.00     0.055 A 
ATOM     95  C   UNL A   1      51.824  36.309  24.037  1.00  0.00     0.041 A 
ATOM     96  F   UNL A   1      49.509  36.062  23.807  1.00  0.00    -0.206 F 
ATOM     97  C   UNL A   1      52.952  36.441  24.840  1.00  0.00     0.022 A 
BRANCH  94  98
ATOM     98  S   UNL A   1      54.234  36.701  27.302  1.00  0.00     0.124 S 
ATOM     99  O   UNL A   1      55.334  36.140  26.524  1.00  0.00    -0.237 OA
ATOM    100  O   UNL A   1      54.208  38.156  27.412  1.00  0.00    -0.237 OA
ATOM    101  O   UNL A   1      53.915  35.981  28.533  1.00  0.00    -0.744 OA
ENDBRANCH  94  98
ENDBRANCH  68  91
ENDBRANCH  42  43
ENDBRANCH  35  37
ENDBRANCH  34  35
ENDBRANCH  33  34
ENDBRANCH  32  33
ENDBRANCH  31  32
ENDBRANCH  30  31
ENDBRANCH  29  30
ENDBRANCH  28  29
ENDBRANCH   1  28
TORSDOF 29
ENDMDL
MODEL 3
REMARK VINA RESULT:      -8.6      2.004      2.338
REMARK SMILES CC(C)(C)C(=O)NCCC(=O)N1C[C@@H](O)C[C@@H]1C(=O)OCCOCCOCCOCCOC(=O)c1ccc(-c2c3nc(c(-c4cc(S(=O)(=O)[O-])ccc4F)c4ccc([nH]4)c(-c4cc(S(=O)(=O)[O-])ccc4F)c4nc(c(-c5cc(S(=O)(=O)[O-])ccc5F)c5ccc2[nH]5)C=C4)C=C3)cc1
REMARK SMILES IDX 25 1 24 2 23 3 22 4 21 5 20 6 18 7 19 8 17 9 12 10 13 11
REMARK SMILES IDX 14 12 16 13 10 14 11 15 9 16 8 17 7 18 5 19 6 20 2 22 1 23
REMARK SMILES IDX 3 24 4 25 15 26 26 28 27 29 28 30 29 31 30 32 31 33 32 34
REMARK SMILES IDX 33 35 34 36 35 37 36 38 97 39 37 40 96 41 38 42 39 43 40 44
REMARK SMILES IDX 90 45 41 46 95 47 89 48 91 49 42 50 94 51 88 52 87 53 43 55
REMARK SMILES IDX 75 56 55 57 74 58 56 59 59 60 73 61 92 62 57 63 58 64 72 66
REMARK SMILES IDX 93 67 60 68 44 69 45 70 53 71 46 72 52 73 54 74 51 75 47 76
REMARK SMILES IDX 48 77 49 78 50 79 76 80 77 81 85 82 78 83 84 84 86 85 83 86
REMARK SMILES IDX 79 87 80 88 81 89 82 90 61 91 62 92 70 93 63 94 69 95 71 96
REMARK SMILES IDX 68 97 64 98 65 99 66 100 67 101
REMARK H PARENT 7 21 15 27 91 54 59 65
REMARK Flexibility Score: inf
ROOT
ATOM      1  C   UNL A   1      43.510  18.881  25.402  1.00  0.00     0.188 C 
ENDROOT
BRANCH   1   2
ATOM      2  C   UNL A   1      42.326  19.497  26.170  1.00  0.00     0.188 C 
BRANCH   2   3
ATOM      3  O   UNL A   1      41.219  20.068  25.484  1.00  0.00    -0.376 OA
BRANCH   3   4
ATOM      4  C   UNL A   1      39.980  20.238  26.159  1.00  0.00     0.202 C 
BRANCH   4   5
ATOM      5  C   UNL A   1      39.231  21.580  26.053  1.00  0.00     0.261 C 
BRANCH   5   6
ATOM      6  O   UNL A   1      38.053  21.575  25.221  1.00  0.00    -0.462 OA
BRANCH   6   7
ATOM      7  C   UNL A   1      37.226  22.646  25.304  1.00  0.00     0.329 C 
ATOM      8  O   UNL A   1      37.601  23.788  25.561  1.00  0.00    -0.250 OA
BRANCH   7   9
ATOM      9  C   UNL A   1      35.739  22.328  24.987  1.00  0.00     0.197 C 
ATOM     10  N   UNL A   1      34.669  23.264  25.378  1.00  0.00    -0.326 N 
ATOM     11  C   UNL A   1      33.646  22.607  26.165  1.00  0.00     0.152 C 
ATOM     12  C   UNL A   1      34.271  21.330  26.693  1.00  0.00     0.136 C 
ATOM     13  C   UNL A   1      35.375  21.003  25.693  1.00  0.00     0.070 C 
BRANCH  10  14
ATOM     14  C   UNL A   1      34.542  24.519  24.815  1.00  0.00     0.225 C 
ATOM     15  O   UNL A   1      34.670  25.534  25.499  1.00  0.00    -0.275 OA
BRANCH  14  16
ATOM     16  C   UNL A   1      34.113  24.609  23.344  1.00  0.00     0.121 C 
BRANCH  16  17
ATOM     17  C   UNL A   1      32.648  24.942  23.052  1.00  0.00     0.125 C 
BRANCH  17  18
ATOM     18  N   UNL A   1      31.972  25.580  24.177  1.00  0.00    -0.355 N 
ATOM     19  C   UNL A   1      31.755  26.874  24.537  1.00  0.00     0.225 C 
ATOM     20  O   UNL A   1      31.549  27.052  25.743  1.00  0.00    -0.275 OA
ATOM     21  H   UNL A   1      31.589  24.934  24.813  1.00  0.00     0.163 HD
BRANCH  19  22
ATOM     22  C   UNL A   1      31.650  28.035  23.530  1.00  0.00     0.041 C 
ATOM     23  C   UNL A   1      30.894  29.208  24.204  1.00  0.00     0.021 C 
ATOM     24  C   UNL A   1      30.806  27.561  22.338  1.00  0.00     0.021 C 
ATOM     25  C   UNL A   1      32.988  28.585  23.042  1.00  0.00     0.021 C 
ENDBRANCH  19  22
ENDBRANCH  17  18
ENDBRANCH  16  17
ENDBRANCH  14  16
ENDBRANCH  10  14
BRANCH  12  26
ATOM     26  O   UNL A   1      33.344  20.258  26.788  1.00  0.00    -0.391 OA
ATOM     27  H   UNL A   1      33.382  19.876  27.678  1.00  0.00     0.211 HD
ENDBRANCH  12  26
ENDBRANCH   7   9
ENDBRANCH   6   7
ENDBRANCH   5   6
ENDBRANCH   4   5
ENDBRANCH   3   4
ENDBRANCH   2   3
ENDBRANCH   1   2
BRANCH   1  28
ATOM     28  O   UNL A   1      44.061  19.677  24.377  1.00  0.00    -0.377 OA
BRANCH  28  29
ATOM     29  C   UNL A   1      45.050  20.609  24.775  1.00  0.00     0.188 C 
BRANCH  29  30
ATOM     30  C   UNL A   1      45.087  21.945  24.009  1.00  0.00     0.188 C 
BRANCH  30  31
ATOM     31  O   UNL A   1      43.805  22.548  23.854  1.00  0.00    -0.376 OA
BRANCH  31  32
ATOM     32  C   UNL A   1      43.053  22.861  25.016  1.00  0.00     0.202 C 
BRANCH  32  33
ATOM     33  C   UNL A   1      43.417  24.130  25.799  1.00  0.00     0.261 C 
BRANCH  33  34
ATOM     34  O   UNL A   1      43.098  25.382  25.178  1.00  0.00    -0.460 OA
BRANCH  34  35
ATOM     35  C   UNL A   1      41.973  26.029  25.558  1.00  0.00     0.338 C 
ATOM     36  O   UNL A   1      40.837  25.629  25.444  1.00  0.00    -0.246 OA
BRANCH  35  37
ATOM     37  C   UNL A   1      42.405  27.239  26.306  1.00  0.00     0.060 A 
ATOM     38  C   UNL A   1      43.040  27.087  27.544  1.00  0.00     0.016 A 
ATOM     39  C   UNL A   1      42.205  28.516  25.777  1.00  0.00     0.016 A 
ATOM     40  C   UNL A   1      43.442  28.212  28.270  1.00  0.00     0.010 A 
ATOM     41  C   UNL A   1      42.606  29.643  26.504  1.00  0.00     0.010 A 
ATOM     42  C   UNL A   1      43.188  29.499  27.776  1.00  0.00    -0.014 A 
BRANCH  42  43
ATOM     43  C   UNL A   1      43.313  30.675  28.680  1.00  0.00     0.031 A 
ATOM     44  C   UNL A   1      44.604  31.452  28.659  1.00  0.00     0.074 A 
ATOM     45  C   UNL A   1      42.308  31.064  29.484  1.00  0.00     0.049 A 
ATOM     46  N   UNL A   1      44.974  32.481  29.377  1.00  0.00    -0.248 NA
ATOM     47  C   UNL A   1      45.621  30.988  27.704  1.00  0.00     0.031 C 
ATOM     48  C   UNL A   1      41.002  30.415  29.577  1.00  0.00     0.029 A 
ATOM     49  N   UNL A   1      42.236  32.098  30.386  1.00  0.00    -0.354 N 
ATOM     50  C   UNL A   1      46.271  32.778  28.970  1.00  0.00     0.074 A 
ATOM     51  C   UNL A   1      46.638  31.786  27.982  1.00  0.00     0.031 C 
ATOM     52  C   UNL A   1      40.262  31.058  30.498  1.00  0.00     0.029 A 
ATOM     53  C   UNL A   1      41.053  32.138  31.087  1.00  0.00     0.049 A 
ATOM     54  H   UNL A   1      42.961  32.750  30.519  1.00  0.00     0.167 HD
ATOM     55  C   UNL A   1      47.078  33.792  29.373  1.00  0.00     0.034 A 
ATOM     56  C   UNL A   1      40.665  32.930  32.109  1.00  0.00     0.034 A 
ATOM     57  C   UNL A   1      46.698  34.765  30.367  1.00  0.00     0.049 A 
ATOM     58  C   UNL A   1      41.601  34.009  32.599  1.00  0.00     0.074 A 
ATOM     59  C   UNL A   1      47.418  35.855  30.825  1.00  0.00     0.029 A 
ATOM     60  N   UNL A   1      45.503  34.754  31.078  1.00  0.00    -0.354 N 
ATOM     61  N   UNL A   1      42.813  34.305  32.185  1.00  0.00    -0.248 NA
ATOM     62  C   UNL A   1      41.114  34.869  33.687  1.00  0.00     0.031 C 
ATOM     63  C   UNL A   1      46.704  36.441  31.875  1.00  0.00     0.029 A 
ATOM     64  C   UNL A   1      45.489  35.786  32.005  1.00  0.00     0.049 A 
ATOM     65  H   UNL A   1      44.773  34.108  30.942  1.00  0.00     0.167 HD
ATOM     66  C   UNL A   1      43.221  35.401  32.943  1.00  0.00     0.074 A 
ATOM     67  C   UNL A   1      42.120  35.721  33.830  1.00  0.00     0.031 C 
ATOM     68  C   UNL A   1      44.394  36.086  32.902  1.00  0.00     0.034 A 
BRANCH  55  69
ATOM     69  C   UNL A   1      48.469  33.844  28.780  1.00  0.00     0.023 A 
ATOM     70  C   UNL A   1      48.735  34.486  27.557  1.00  0.00     0.031 A 
ATOM     71  C   UNL A   1      49.535  33.184  29.416  1.00  0.00     0.131 A 
ATOM     72  C   UNL A   1      49.999  34.360  26.960  1.00  0.00     0.055 A 
ATOM     73  C   UNL A   1      50.817  33.151  28.866  1.00  0.00     0.041 A 
ATOM     74  F   UNL A   1      49.342  32.532  30.574  1.00  0.00    -0.206 F 
ATOM     75  C   UNL A   1      51.050  33.722  27.619  1.00  0.00     0.022 A 
BRANCH  72  76
ATOM     76  S   UNL A   1      50.188  34.863  25.226  1.00  0.00     0.124 S 
ATOM     77  O   UNL A   1      50.905  33.720  24.664  1.00  0.00    -0.237 OA
ATOM     78  O   UNL A   1      48.805  35.025  24.792  1.00  0.00    -0.237 OA
ATOM     79  O   UNL A   1      50.967  36.096  25.309  1.00  0.00    -0.744 OA
ENDBRANCH  72  76
ENDBRANCH  55  69
BRANCH  56  80
ATOM     80  C   UNL A   1      39.350  32.696  32.775  1.00  0.00     0.023 A 
ATOM     81  C   UNL A   1      38.178  33.339  32.347  1.00  0.00     0.031 A 
ATOM     82  C   UNL A   1      39.257  31.823  33.876  1.00  0.00     0.131 A 
ATOM     83  C   UNL A   1      36.970  33.119  33.031  1.00  0.00     0.055 A 
ATOM     84  C   UNL A   1      38.045  31.567  34.518  1.00  0.00     0.041 A 
ATOM     85  F   UNL A   1      40.349  31.188  34.332  1.00  0.00    -0.206 F 
ATOM     86  C   UNL A   1      36.892  32.222  34.100  1.00  0.00     0.022 A 
BRANCH  83  87
ATOM     87  S   UNL A   1      35.502  34.070  32.544  1.00  0.00     0.124 S 
ATOM     88  O   UNL A   1      34.426  33.260  33.103  1.00  0.00    -0.237 OA
ATOM     89  O   UNL A   1      35.744  35.354  33.194  1.00  0.00    -0.237 OA
ATOM     90  O   UNL A   1      35.576  34.089  31.085  1.00  0.00    -0.744 OA
ENDBRANCH  83  87
ENDBRANCH  56  80
BRANCH  68  91
ATOM     91  C   UNL A   1      44.534  37.282  33.817  1.00  0.00     0.023 A 
ATOM     92  C   UNL A   1      45.008  37.163  35.135  1.00  0.00     0.031 A 
ATOM     93  C   UNL A   1      44.189  38.567  33.356  1.00  0.00     0.131 A 
ATOM     94  C   UNL A   1      45.070  38.296  35.962  1.00  0.00     0.055 A 
ATOM     95  C   UNL A   1      44.322  39.700  34.160  1.00  0.00     0.041 A 
ATOM     96  F   UNL A   1      43.725  38.745  32.109  1.00  0.00    -0.206 F 
ATOM     97  C   UNL A   1      44.751  39.568  35.476  1.00  0.00     0.022 A 
BRANCH  94  98
ATOM     98  S   UNL A   1      45.469  38.075  37.718  1.00  0.00     0.124 S 
ATOM     99  O   UNL A   1      46.017  36.723  37.734  1.00  0.00    -0.237 OA
ATOM    100  O   UNL A   1      46.424  39.153  37.959  1.00  0.00    -0.237 OA
ATOM    101  O   UNL A   1      44.179  38.230  38.387  1.00  0.00    -0.744 OA
ENDBRANCH  94  98
ENDBRANCH  68  91
ENDBRANCH  42  43
ENDBRANCH  35  37
ENDBRANCH  34  35
ENDBRANCH  33  34
ENDBRANCH  32  33
ENDBRANCH  31  32
ENDBRANCH  30  31
ENDBRANCH  29  30
ENDBRANCH  28  29
ENDBRANCH   1  28
TORSDOF 29
ENDMDL
