MODEL 1
REMARK VINA RESULT:      -8.7      0.000      0.000
REMARK SMILES CC(C)(C[NH+]1CCC(C(N)=S)CC1)C(=O)OCCOCCOCCOCCOC(=O)c1ccc(-c2c3nc(c(-c4cc(S(=O)(=O)[O-])ccc4F)c4ccc([nH]4)c(-c4cc(S(=O)(=O)[O-])ccc4F)c4nc(c(-c5cc(S(=O)(=O)[O-])ccc5F)c5ccc2[nH]5)C=C4)C=C3)cc1
REMARK SMILES IDX 21 1 20 2 19 3 18 4 17 5 16 6 14 7 15 8 2 9 1 10 3 11 4 12
REMARK SMILES IDX 5 13 6 14 13 15 7 17 12 18 8 19 9 20 11 21 10 22 22 25 23 26
REMARK SMILES IDX 24 27 25 28 26 29 27 30 28 31 29 32 30 33 31 34 32 35 93 36
REMARK SMILES IDX 33 37 92 38 34 39 35 40 36 41 86 42 37 43 91 44 85 45 87 46
REMARK SMILES IDX 38 47 90 48 84 49 83 50 39 52 71 53 51 54 70 55 52 56 55 57
REMARK SMILES IDX 69 58 88 59 53 60 54 61 68 63 89 64 56 65 40 66 41 67 49 68
REMARK SMILES IDX 42 69 48 70 50 71 47 72 43 73 44 74 45 75 46 76 72 77 73 78
REMARK SMILES IDX 81 79 74 80 80 81 82 82 79 83 75 84 76 85 77 86 78 87 57 88
REMARK SMILES IDX 58 89 66 90 59 91 65 92 67 93 64 94 60 95 61 96 62 97 63 98
REMARK H PARENT 5 16 10 23 10 24 87 51 55 62
REMARK Flexibility Score: inf
ROOT
ATOM      1  C   UNL A   1      33.778  30.924  27.235  1.00  0.00     0.188 C 
ENDROOT
BRANCH   1   2
ATOM      2  C   UNL A   1      32.320  30.883  26.762  1.00  0.00     0.188 C 
BRANCH   2   3
ATOM      3  O   UNL A   1      31.784  29.634  26.346  1.00  0.00    -0.376 OA
BRANCH   3   4
ATOM      4  C   UNL A   1      31.746  28.563  27.288  1.00  0.00     0.202 C 
BRANCH   4   5
ATOM      5  C   UNL A   1      32.343  27.184  26.929  1.00  0.00     0.261 C 
BRANCH   5   6
ATOM      6  O   UNL A   1      33.530  27.159  26.091  1.00  0.00    -0.463 OA
BRANCH   6   7
ATOM      7  C   UNL A   1      33.319  26.829  24.797  1.00  0.00     0.317 C 
ATOM      8  O   UNL A   1      32.985  27.659  23.948  1.00  0.00    -0.251 OA
BRANCH   7   9
ATOM      9  C   UNL A   1      33.477  25.341  24.412  1.00  0.00     0.111 C 
ATOM     10  C   UNL A   1      34.730  24.828  25.145  1.00  0.00     0.029 C 
ATOM     11  C   UNL A   1      33.786  25.428  22.894  1.00  0.00     0.029 C 
BRANCH   9  12
ATOM     12  C   UNL A   1      32.270  24.347  24.553  1.00  0.00     0.280 C 
BRANCH  12  13
ATOM     13  N   UNL A   1      32.559  22.893  24.635  1.00  0.00    -0.334 N 
ATOM     14  C   UNL A   1      31.738  22.256  25.677  1.00  0.00     0.262 C 
ATOM     15  C   UNL A   1      32.307  22.159  23.376  1.00  0.00     0.262 C 
ATOM     16  H   UNL A   1      33.556  22.837  24.850  1.00  0.00     0.348 HD
ATOM     17  C   UNL A   1      32.283  20.856  25.922  1.00  0.00     0.072 C 
ATOM     18  C   UNL A   1      32.794  20.701  23.470  1.00  0.00     0.072 C 
ATOM     19  C   UNL A   1      32.247  19.946  24.694  1.00  0.00     0.058 C 
BRANCH  19  20
ATOM     20  C   UNL A   1      32.971  18.633  25.042  1.00  0.00     0.076 C 
ATOM     21  S   UNL A   1      33.874  17.693  23.997  1.00  0.00    -0.066 S 
BRANCH  20  22
ATOM     22  N   UNL A   1      32.938  18.263  26.358  1.00  0.00    -0.393 N 
ATOM     23  H   UNL A   1      33.752  18.327  26.908  1.00  0.00     0.157 HD
ATOM     24  H   UNL A   1      32.101  17.932  26.755  1.00  0.00     0.157 HD
ENDBRANCH  20  22
ENDBRANCH  19  20
ENDBRANCH  12  13
ENDBRANCH   9  12
ENDBRANCH   7   9
ENDBRANCH   6   7
ENDBRANCH   5   6
ENDBRANCH   4   5
ENDBRANCH   3   4
ENDBRANCH   2   3
ENDBRANCH   1   2
BRANCH   1  25
ATOM     25  O   UNL A   1      33.946  31.627  28.451  1.00  0.00    -0.377 OA
BRANCH  25  26
ATOM     26  C   UNL A   1      35.139  32.359  28.705  1.00  0.00     0.188 C 
BRANCH  26  27
ATOM     27  C   UNL A   1      35.276  33.768  28.108  1.00  0.00     0.188 C 
BRANCH  27  28
ATOM     28  O   UNL A   1      34.100  34.557  27.905  1.00  0.00    -0.376 OA
BRANCH  28  29
ATOM     29  C   UNL A   1      33.962  35.771  28.634  1.00  0.00     0.202 C 
BRANCH  29  30
ATOM     30  C   UNL A   1      32.984  35.753  29.802  1.00  0.00     0.261 C 
BRANCH  30  31
ATOM     31  O   UNL A   1      33.657  36.012  31.042  1.00  0.00    -0.460 OA
BRANCH  31  32
ATOM     32  C   UNL A   1      33.557  35.010  31.945  1.00  0.00     0.338 C 
ATOM     33  O   UNL A   1      32.571  34.684  32.576  1.00  0.00    -0.246 OA
BRANCH  32  34
ATOM     34  C   UNL A   1      34.794  34.216  31.925  1.00  0.00     0.060 A 
ATOM     35  C   UNL A   1      34.720  32.925  32.462  1.00  0.00     0.016 A 
ATOM     36  C   UNL A   1      36.007  34.743  31.475  1.00  0.00     0.016 A 
ATOM     37  C   UNL A   1      35.873  32.167  32.600  1.00  0.00     0.010 A 
ATOM     38  C   UNL A   1      37.171  33.988  31.639  1.00  0.00     0.010 A 
ATOM     39  C   UNL A   1      37.107  32.719  32.240  1.00  0.00    -0.014 A 
BRANCH  39  40
ATOM     40  C   UNL A   1      38.335  32.046  32.706  1.00  0.00     0.031 A 
ATOM     41  C   UNL A   1      38.947  30.999  31.818  1.00  0.00     0.074 A 
ATOM     42  C   UNL A   1      38.921  32.421  33.853  1.00  0.00     0.049 A 
ATOM     43  N   UNL A   1      39.998  30.253  32.016  1.00  0.00    -0.248 NA
ATOM     44  C   UNL A   1      38.275  30.769  30.528  1.00  0.00     0.031 C 
ATOM     45  C   UNL A   1      38.444  33.492  34.727  1.00  0.00     0.029 A 
ATOM     46  N   UNL A   1      40.045  31.949  34.475  1.00  0.00    -0.354 N 
ATOM     47  C   UNL A   1      40.117  29.461  30.877  1.00  0.00     0.074 A 
ATOM     48  C   UNL A   1      39.004  29.792  30.014  1.00  0.00     0.031 C 
ATOM     49  C   UNL A   1      39.271  33.590  35.782  1.00  0.00     0.029 A 
ATOM     50  C   UNL A   1      40.300  32.558  35.680  1.00  0.00     0.049 A 
ATOM     51  H   UNL A   1      40.615  31.242  34.096  1.00  0.00     0.167 HD
ATOM     52  C   UNL A   1      41.075  28.550  30.582  1.00  0.00     0.034 A 
ATOM     53  C   UNL A   1      41.240  32.282  36.604  1.00  0.00     0.034 A 
ATOM     54  C   UNL A   1      42.157  28.231  31.482  1.00  0.00     0.049 A 
ATOM     55  C   UNL A   1      42.211  31.162  36.321  1.00  0.00     0.074 A 
ATOM     56  C   UNL A   1      43.186  27.326  31.310  1.00  0.00     0.029 A 
ATOM     57  N   UNL A   1      42.332  28.800  32.739  1.00  0.00    -0.354 N 
ATOM     58  N   UNL A   1      42.317  30.412  35.245  1.00  0.00    -0.248 NA
ATOM     59  C   UNL A   1      43.183  30.845  37.374  1.00  0.00     0.031 C 
ATOM     60  C   UNL A   1      43.929  27.283  32.495  1.00  0.00     0.029 A 
ATOM     61  C   UNL A   1      43.420  28.226  33.375  1.00  0.00     0.049 A 
ATOM     62  H   UNL A   1      41.766  29.509  33.121  1.00  0.00     0.167 HD
ATOM     63  C   UNL A   1      43.381  29.548  35.486  1.00  0.00     0.074 A 
ATOM     64  C   UNL A   1      43.894  29.884  36.800  1.00  0.00     0.031 C 
ATOM     65  C   UNL A   1      43.892  28.568  34.698  1.00  0.00     0.034 A 
BRANCH  52  66
ATOM     66  C   UNL A   1      40.941  27.799  29.279  1.00  0.00     0.023 A 
ATOM     67  C   UNL A   1      41.788  28.055  28.186  1.00  0.00     0.031 A 
ATOM     68  C   UNL A   1      39.912  26.858  29.105  1.00  0.00     0.131 A 
ATOM     69  C   UNL A   1      41.533  27.448  26.946  1.00  0.00     0.055 A 
ATOM     70  C   UNL A   1      39.720  26.188  27.894  1.00  0.00     0.041 A 
ATOM     71  F   UNL A   1      39.052  26.592  30.101  1.00  0.00    -0.206 F 
ATOM     72  C   UNL A   1      40.522  26.496  26.799  1.00  0.00     0.022 A 
BRANCH  69  73
ATOM     73  S   UNL A   1      42.425  28.056  25.486  1.00  0.00     0.124 S 
ATOM     74  O   UNL A   1      41.536  29.119  25.022  1.00  0.00    -0.237 OA
ATOM     75  O   UNL A   1      43.697  28.487  26.051  1.00  0.00    -0.237 OA
ATOM     76  O   UNL A   1      42.491  26.885  24.613  1.00  0.00    -0.744 OA
ENDBRANCH  69  73
ENDBRANCH  52  66
BRANCH  53  77
ATOM     77  C   UNL A   1      41.276  33.034  37.889  1.00  0.00     0.023 A 
ATOM     78  C   UNL A   1      40.516  32.619  38.992  1.00  0.00     0.031 A 
ATOM     79  C   UNL A   1      42.054  34.200  38.026  1.00  0.00     0.131 A 
ATOM     80  C   UNL A   1      40.523  33.380  40.172  1.00  0.00     0.055 A 
ATOM     81  C   UNL A   1      42.101  34.921  39.219  1.00  0.00     0.041 A 
ATOM     82  F   UNL A   1      42.797  34.646  37.000  1.00  0.00    -0.206 F 
ATOM     83  C   UNL A   1      41.324  34.516  40.300  1.00  0.00     0.022 A 
BRANCH  80  84
ATOM     84  S   UNL A   1      39.404  32.902  41.516  1.00  0.00     0.124 S 
ATOM     85  O   UNL A   1      39.848  31.543  41.802  1.00  0.00    -0.237 OA
ATOM     86  O   UNL A   1      39.708  33.905  42.532  1.00  0.00    -0.237 OA
ATOM     87  O   UNL A   1      38.079  33.014  40.910  1.00  0.00    -0.744 OA
ENDBRANCH  80  84
ENDBRANCH  53  77
BRANCH  65  88
ATOM     88  C   UNL A   1      45.075  27.803  35.235  1.00  0.00     0.023 A 
ATOM     89  C   UNL A   1      46.392  28.240  35.014  1.00  0.00     0.031 A 
ATOM     90  C   UNL A   1      44.881  26.638  35.999  1.00  0.00     0.131 A 
ATOM     91  C   UNL A   1      47.467  27.493  35.513  1.00  0.00     0.055 A 
ATOM     92  C   UNL A   1      45.953  25.936  36.549  1.00  0.00     0.041 A 
ATOM     93  F   UNL A   1      43.644  26.175  36.238  1.00  0.00    -0.206 F 
ATOM     94  C   UNL A   1      47.256  26.357  36.299  1.00  0.00     0.022 A 
BRANCH  91  95
ATOM     95  S   UNL A   1      49.151  27.986  35.059  1.00  0.00     0.124 S 
ATOM     96  O   UNL A   1      49.815  28.024  36.359  1.00  0.00    -0.237 OA
ATOM     97  O   UNL A   1      49.563  26.909  34.165  1.00  0.00    -0.237 OA
ATOM     98  O   UNL A   1      48.967  29.287  34.419  1.00  0.00    -0.744 OA
ENDBRANCH  91  95
ENDBRANCH  65  88
ENDBRANCH  39  40
ENDBRANCH  32  34
ENDBRANCH  31  32
ENDBRANCH  30  31
ENDBRANCH  29  30
ENDBRANCH  28  29
ENDBRANCH  27  28
ENDBRANCH  26  27
ENDBRANCH  25  26
ENDBRANCH   1  25
TORSDOF 27
ENDMDL
MODEL 2
REMARK VINA RESULT:      -8.1      5.225      8.230
REMARK SMILES CC(C)(C[NH+]1CCC(C(N)=S)CC1)C(=O)OCCOCCOCCOCCOC(=O)c1ccc(-c2c3nc(c(-c4cc(S(=O)(=O)[O-])ccc4F)c4ccc([nH]4)c(-c4cc(S(=O)(=O)[O-])ccc4F)c4nc(c(-c5cc(S(=O)(=O)[O-])ccc5F)c5ccc2[nH]5)C=C4)C=C3)cc1
REMARK SMILES IDX 21 1 20 2 19 3 18 4 17 5 16 6 14 7 15 8 2 9 1 10 3 11 4 12
REMARK SMILES IDX 5 13 6 14 13 15 7 17 12 18 8 19 9 20 11 21 10 22 22 25 23 26
REMARK SMILES IDX 24 27 25 28 26 29 27 30 28 31 29 32 30 33 31 34 32 35 93 36
REMARK SMILES IDX 33 37 92 38 34 39 35 40 36 41 86 42 37 43 91 44 85 45 87 46
REMARK SMILES IDX 38 47 90 48 84 49 83 50 39 52 71 53 51 54 70 55 52 56 55 57
REMARK SMILES IDX 69 58 88 59 53 60 54 61 68 63 89 64 56 65 40 66 41 67 49 68
REMARK SMILES IDX 42 69 48 70 50 71 47 72 43 73 44 74 45 75 46 76 72 77 73 78
REMARK SMILES IDX 81 79 74 80 80 81 82 82 79 83 75 84 76 85 77 86 78 87 57 88
REMARK SMILES IDX 58 89 66 90 59 91 65 92 67 93 64 94 60 95 61 96 62 97 63 98
REMARK H PARENT 5 16 10 23 10 24 87 51 55 62
REMARK Flexibility Score: inf
ROOT
ATOM      1  C   UNL A   1      35.195  31.002  28.416  1.00  0.00     0.188 C 
ENDROOT
BRANCH   1   2
ATOM      2  C   UNL A   1      35.819  29.707  27.882  1.00  0.00     0.188 C 
BRANCH   2   3
ATOM      3  O   UNL A   1      37.192  29.724  27.519  1.00  0.00    -0.376 OA
BRANCH   3   4
ATOM      4  C   UNL A   1      38.171  29.666  28.555  1.00  0.00     0.202 C 
BRANCH   4   5
ATOM      5  C   UNL A   1      39.642  29.326  28.224  1.00  0.00     0.261 C 
BRANCH   5   6
ATOM      6  O   UNL A   1      40.058  27.939  28.348  1.00  0.00    -0.463 OA
BRANCH   6   7
ATOM      7  C   UNL A   1      40.999  27.536  27.463  1.00  0.00     0.317 C 
ATOM      8  O   UNL A   1      40.897  27.738  26.251  1.00  0.00    -0.251 OA
BRANCH   7   9
ATOM      9  C   UNL A   1      42.215  26.767  28.026  1.00  0.00     0.111 C 
ATOM     10  C   UNL A   1      42.639  27.496  29.314  1.00  0.00     0.029 C 
ATOM     11  C   UNL A   1      43.289  27.013  26.934  1.00  0.00     0.029 C 
BRANCH   9  12
ATOM     12  C   UNL A   1      42.152  25.212  28.229  1.00  0.00     0.280 C 
BRANCH  12  13
ATOM     13  N   UNL A   1      42.819  24.342  27.227  1.00  0.00    -0.334 N 
ATOM     14  C   UNL A   1      43.891  23.552  27.854  1.00  0.00     0.262 C 
ATOM     15  C   UNL A   1      41.908  23.385  26.562  1.00  0.00     0.262 C 
ATOM     16  H   UNL A   1      43.183  24.986  26.524  1.00  0.00     0.348 HD
ATOM     17  C   UNL A   1      44.725  22.920  26.748  1.00  0.00     0.072 C 
ATOM     18  C   UNL A   1      42.617  22.642  25.415  1.00  0.00     0.072 C 
ATOM     19  C   UNL A   1      43.941  21.979  25.833  1.00  0.00     0.058 C 
BRANCH  19  20
ATOM     20  C   UNL A   1      44.862  21.547  24.678  1.00  0.00     0.076 C 
ATOM     21  S   UNL A   1      46.090  20.417  24.760  1.00  0.00    -0.066 S 
BRANCH  20  22
ATOM     22  N   UNL A   1      44.575  22.081  23.453  1.00  0.00    -0.393 N 
ATOM     23  H   UNL A   1      44.808  23.016  23.257  1.00  0.00     0.157 HD
ATOM     24  H   UNL A   1      44.134  21.529  22.767  1.00  0.00     0.157 HD
ENDBRANCH  20  22
ENDBRANCH  19  20
ENDBRANCH  12  13
ENDBRANCH   9  12
ENDBRANCH   7   9
ENDBRANCH   6   7
ENDBRANCH   5   6
ENDBRANCH   4   5
ENDBRANCH   3   4
ENDBRANCH   2   3
ENDBRANCH   1   2
BRANCH   1  25
ATOM     25  O   UNL A   1      35.521  32.137  27.637  1.00  0.00    -0.377 OA
BRANCH  25  26
ATOM     26  C   UNL A   1      35.828  33.379  28.258  1.00  0.00     0.188 C 
BRANCH  26  27
ATOM     27  C   UNL A   1      36.781  33.379  29.463  1.00  0.00     0.188 C 
BRANCH  27  28
ATOM     28  O   UNL A   1      36.360  33.991  30.686  1.00  0.00    -0.376 OA
BRANCH  28  29
ATOM     29  C   UNL A   1      34.970  34.032  30.983  1.00  0.00     0.202 C 
BRANCH  29  30
ATOM     30  C   UNL A   1      34.482  33.087  32.073  1.00  0.00     0.261 C 
BRANCH  30  31
ATOM     31  O   UNL A   1      35.434  32.041  32.312  1.00  0.00    -0.460 OA
BRANCH  31  32
ATOM     32  C   UNL A   1      36.235  32.257  33.380  1.00  0.00     0.338 C 
ATOM     33  O   UNL A   1      35.950  32.837  34.409  1.00  0.00    -0.246 OA
BRANCH  32  34
ATOM     34  C   UNL A   1      37.488  31.507  33.205  1.00  0.00     0.060 A 
ATOM     35  C   UNL A   1      38.590  31.943  33.949  1.00  0.00     0.016 A 
ATOM     36  C   UNL A   1      37.606  30.465  32.282  1.00  0.00     0.016 A 
ATOM     37  C   UNL A   1      39.836  31.371  33.739  1.00  0.00     0.010 A 
ATOM     38  C   UNL A   1      38.866  29.908  32.052  1.00  0.00     0.010 A 
ATOM     39  C   UNL A   1      39.986  30.393  32.751  1.00  0.00    -0.014 A 
BRANCH  39  40
ATOM     40  C   UNL A   1      41.352  30.050  32.309  1.00  0.00     0.031 A 
ATOM     41  C   UNL A   1      42.047  30.992  31.367  1.00  0.00     0.074 A 
ATOM     42  C   UNL A   1      41.972  28.968  32.802  1.00  0.00     0.049 A 
ATOM     43  N   UNL A   1      43.226  30.897  30.817  1.00  0.00    -0.248 NA
ATOM     44  C   UNL A   1      41.303  32.208  31.000  1.00  0.00     0.031 C 
ATOM     45  C   UNL A   1      41.404  28.052  33.791  1.00  0.00     0.029 A 
ATOM     46  N   UNL A   1      43.216  28.459  32.543  1.00  0.00    -0.354 N 
ATOM     47  C   UNL A   1      43.369  32.041  30.036  1.00  0.00     0.074 A 
ATOM     48  C   UNL A   1      42.137  32.790  30.154  1.00  0.00     0.031 C 
ATOM     49  C   UNL A   1      42.300  27.085  34.051  1.00  0.00     0.029 A 
ATOM     50  C   UNL A   1      43.478  27.286  33.210  1.00  0.00     0.049 A 
ATOM     51  H   UNL A   1      43.861  28.891  31.937  1.00  0.00     0.167 HD
ATOM     52  C   UNL A   1      44.438  32.427  29.299  1.00  0.00     0.034 A 
ATOM     53  C   UNL A   1      44.537  26.459  33.117  1.00  0.00     0.034 A 
ATOM     54  C   UNL A   1      45.640  31.639  29.188  1.00  0.00     0.049 A 
ATOM     55  C   UNL A   1      45.656  26.835  32.177  1.00  0.00     0.074 A 
ATOM     56  C   UNL A   1      46.790  31.911  28.471  1.00  0.00     0.029 A 
ATOM     57  N   UNL A   1      45.836  30.406  29.803  1.00  0.00    -0.354 N 
ATOM     58  N   UNL A   1      45.785  27.914  31.436  1.00  0.00    -0.248 NA
ATOM     59  C   UNL A   1      46.766  25.883  32.052  1.00  0.00     0.031 C 
ATOM     60  C   UNL A   1      47.641  30.805  28.580  1.00  0.00     0.029 A 
ATOM     61  C   UNL A   1      47.063  29.880  29.438  1.00  0.00     0.049 A 
ATOM     62  H   UNL A   1      45.195  29.971  30.411  1.00  0.00     0.167 HD
ATOM     63  C   UNL A   1      47.001  27.778  30.774  1.00  0.00     0.074 A 
ATOM     64  C   UNL A   1      47.574  26.522  31.218  1.00  0.00     0.031 C 
ATOM     65  C   UNL A   1      47.596  28.611  29.881  1.00  0.00     0.034 A 
BRANCH  52  66
ATOM     66  C   UNL A   1      44.310  33.710  28.511  1.00  0.00     0.023 A 
ATOM     67  C   UNL A   1      44.484  34.969  29.112  1.00  0.00     0.031 A 
ATOM     68  C   UNL A   1      43.949  33.676  27.153  1.00  0.00     0.131 A 
ATOM     69  C   UNL A   1      44.206  36.137  28.384  1.00  0.00     0.055 A 
ATOM     70  C   UNL A   1      43.763  34.843  26.409  1.00  0.00     0.041 A 
ATOM     71  F   UNL A   1      43.740  32.505  26.530  1.00  0.00    -0.206 F 
ATOM     72  C   UNL A   1      43.873  36.083  27.029  1.00  0.00     0.022 A 
BRANCH  69  73
ATOM     73  S   UNL A   1      44.107  37.712  29.280  1.00  0.00     0.124 S 
ATOM     74  O   UNL A   1      42.940  38.331  28.657  1.00  0.00    -0.237 OA
ATOM     75  O   UNL A   1      43.941  37.279  30.662  1.00  0.00    -0.237 OA
ATOM     76  O   UNL A   1      45.382  38.360  28.976  1.00  0.00    -0.744 OA
ENDBRANCH  69  73
ENDBRANCH  52  66
BRANCH  53  77
ATOM     77  C   UNL A   1      44.567  25.185  33.890  1.00  0.00     0.023 A 
ATOM     78  C   UNL A   1      44.968  25.163  35.233  1.00  0.00     0.031 A 
ATOM     79  C   UNL A   1      44.218  23.963  33.286  1.00  0.00     0.131 A 
ATOM     80  C   UNL A   1      45.043  23.942  35.920  1.00  0.00     0.055 A 
ATOM     81  C   UNL A   1      44.240  22.758  33.989  1.00  0.00     0.041 A 
ATOM     82  F   UNL A   1      43.832  23.924  32.000  1.00  0.00    -0.206 F 
ATOM     83  C   UNL A   1      44.664  22.742  35.314  1.00  0.00     0.022 A 
BRANCH  80  84
ATOM     84  S   UNL A   1      45.721  23.935  37.602  1.00  0.00     0.124 S 
ATOM     85  O   UNL A   1      45.907  22.508  37.839  1.00  0.00    -0.237 OA
ATOM     86  O   UNL A   1      46.938  24.723  37.440  1.00  0.00    -0.237 OA
ATOM     87  O   UNL A   1      44.670  24.569  38.394  1.00  0.00    -0.744 OA
ENDBRANCH  80  84
ENDBRANCH  53  77
BRANCH  65  88
ATOM     88  C   UNL A   1      48.939  28.192  29.343  1.00  0.00     0.023 A 
ATOM     89  C   UNL A   1      49.051  27.400  28.187  1.00  0.00     0.031 A 
ATOM     90  C   UNL A   1      50.123  28.609  29.979  1.00  0.00     0.131 A 
ATOM     91  C   UNL A   1      50.317  27.014  27.727  1.00  0.00     0.055 A 
ATOM     92  C   UNL A   1      51.381  28.276  29.477  1.00  0.00     0.041 A 
ATOM     93  F   UNL A   1      50.073  29.364  31.088  1.00  0.00    -0.206 F 
ATOM     94  C   UNL A   1      51.483  27.466  28.350  1.00  0.00     0.022 A 
BRANCH  91  95
ATOM     95  S   UNL A   1      50.418  25.849  26.342  1.00  0.00     0.124 S 
ATOM     96  O   UNL A   1      51.359  26.522  25.450  1.00  0.00    -0.237 OA
ATOM     97  O   UNL A   1      50.909  24.636  26.987  1.00  0.00    -0.237 OA
ATOM     98  O   UNL A   1      49.043  25.779  25.852  1.00  0.00    -0.744 OA
ENDBRANCH  91  95
ENDBRANCH  65  88
ENDBRANCH  39  40
ENDBRANCH  32  34
ENDBRANCH  31  32
ENDBRANCH  30  31
ENDBRANCH  29  30
ENDBRANCH  28  29
ENDBRANCH  27  28
ENDBRANCH  26  27
ENDBRANCH  25  26
ENDBRANCH   1  25
TORSDOF 27
ENDMDL
MODEL 3
REMARK VINA RESULT:      -8.0      1.965      2.447
REMARK SMILES CC(C)(C[NH+]1CCC(C(N)=S)CC1)C(=O)OCCOCCOCCOCCOC(=O)c1ccc(-c2c3nc(c(-c4cc(S(=O)(=O)[O-])ccc4F)c4ccc([nH]4)c(-c4cc(S(=O)(=O)[O-])ccc4F)c4nc(c(-c5cc(S(=O)(=O)[O-])ccc5F)c5ccc2[nH]5)C=C4)C=C3)cc1
REMARK SMILES IDX 21 1 20 2 19 3 18 4 17 5 16 6 14 7 15 8 2 9 1 10 3 11 4 12
REMARK SMILES IDX 5 13 6 14 13 15 7 17 12 18 8 19 9 20 11 21 10 22 22 25 23 26
REMARK SMILES IDX 24 27 25 28 26 29 27 30 28 31 29 32 30 33 31 34 32 35 93 36
REMARK SMILES IDX 33 37 92 38 34 39 35 40 36 41 86 42 37 43 91 44 85 45 87 46
REMARK SMILES IDX 38 47 90 48 84 49 83 50 39 52 71 53 51 54 70 55 52 56 55 57
REMARK SMILES IDX 69 58 88 59 53 60 54 61 68 63 89 64 56 65 40 66 41 67 49 68
REMARK SMILES IDX 42 69 48 70 50 71 47 72 43 73 44 74 45 75 46 76 72 77 73 78
REMARK SMILES IDX 81 79 74 80 80 81 82 82 79 83 75 84 76 85 77 86 78 87 57 88
REMARK SMILES IDX 58 89 66 90 59 91 65 92 67 93 64 94 60 95 61 96 62 97 63 98
REMARK H PARENT 5 16 10 23 10 24 87 51 55 62
REMARK Flexibility Score: inf
ROOT
ATOM      1  C   UNL A   1      34.880  29.664  27.322  1.00  0.00     0.188 C 
ENDROOT
BRANCH   1   2
ATOM      2  C   UNL A   1      33.387  29.997  27.220  1.00  0.00     0.188 C 
BRANCH   2   3
ATOM      3  O   UNL A   1      32.847  30.270  25.935  1.00  0.00    -0.376 OA
BRANCH   3   4
ATOM      4  C   UNL A   1      31.753  29.477  25.474  1.00  0.00     0.202 C 
BRANCH   4   5
ATOM      5  C   UNL A   1      31.785  28.845  24.065  1.00  0.00     0.261 C 
BRANCH   5   6
ATOM      6  O   UNL A   1      31.860  27.396  23.976  1.00  0.00    -0.463 OA
BRANCH   6   7
ATOM      7  C   UNL A   1      33.073  26.861  24.246  1.00  0.00     0.317 C 
ATOM      8  O   UNL A   1      34.098  27.544  24.307  1.00  0.00    -0.251 OA
BRANCH   7   9
ATOM      9  C   UNL A   1      33.142  25.330  24.447  1.00  0.00     0.111 C 
ATOM     10  C   UNL A   1      31.888  24.934  25.249  1.00  0.00     0.029 C 
ATOM     11  C   UNL A   1      34.388  25.177  25.357  1.00  0.00     0.029 C 
BRANCH   9  12
ATOM     12  C   UNL A   1      33.378  24.376  23.223  1.00  0.00     0.280 C 
BRANCH  12  13
ATOM     13  N   UNL A   1      33.504  22.918  23.480  1.00  0.00    -0.334 N 
ATOM     14  C   UNL A   1      34.364  22.667  24.648  1.00  0.00     0.262 C 
ATOM     15  C   UNL A   1      32.215  22.240  23.737  1.00  0.00     0.262 C 
ATOM     16  H   UNL A   1      33.907  22.537  22.622  1.00  0.00     0.348 HD
ATOM     17  C   UNL A   1      34.700  21.182  24.679  1.00  0.00     0.072 C 
ATOM     18  C   UNL A   1      32.391  20.712  23.815  1.00  0.00     0.072 C 
ATOM     19  C   UNL A   1      33.482  20.267  24.804  1.00  0.00     0.058 C 
BRANCH  19  20
ATOM     20  C   UNL A   1      33.954  18.809  24.660  1.00  0.00     0.076 C 
ATOM     21  S   UNL A   1      32.995  17.488  24.305  1.00  0.00    -0.066 S 
BRANCH  20  22
ATOM     22  N   UNL A   1      35.304  18.607  24.743  1.00  0.00    -0.393 N 
ATOM     23  H   UNL A   1      35.708  18.329  25.596  1.00  0.00     0.157 HD
ATOM     24  H   UNL A   1      35.871  18.739  23.949  1.00  0.00     0.157 HD
ENDBRANCH  20  22
ENDBRANCH  19  20
ENDBRANCH  12  13
ENDBRANCH   9  12
ENDBRANCH   7   9
ENDBRANCH   6   7
ENDBRANCH   5   6
ENDBRANCH   4   5
ENDBRANCH   3   4
ENDBRANCH   2   3
ENDBRANCH   1   2
BRANCH   1  25
ATOM     25  O   UNL A   1      35.471  30.130  28.520  1.00  0.00    -0.377 OA
BRANCH  25  26
ATOM     26  C   UNL A   1      36.014  31.442  28.598  1.00  0.00     0.188 C 
BRANCH  26  27
ATOM     27  C   UNL A   1      35.216  32.603  27.984  1.00  0.00     0.188 C 
BRANCH  27  28
ATOM     28  O   UNL A   1      35.392  33.924  28.506  1.00  0.00    -0.376 OA
BRANCH  28  29
ATOM     29  C   UNL A   1      34.483  34.941  28.103  1.00  0.00     0.202 C 
BRANCH  29  30
ATOM     30  C   UNL A   1      33.468  35.394  29.144  1.00  0.00     0.261 C 
BRANCH  30  31
ATOM     31  O   UNL A   1      33.389  34.458  30.228  1.00  0.00    -0.460 OA
BRANCH  31  32
ATOM     32  C   UNL A   1      33.253  35.032  31.445  1.00  0.00     0.338 C 
ATOM     33  O   UNL A   1      32.305  35.673  31.855  1.00  0.00    -0.246 OA
BRANCH  32  34
ATOM     34  C   UNL A   1      34.364  34.605  32.309  1.00  0.00     0.060 A 
ATOM     35  C   UNL A   1      35.611  35.192  32.064  1.00  0.00     0.016 A 
ATOM     36  C   UNL A   1      34.214  33.602  33.270  1.00  0.00     0.016 A 
ATOM     37  C   UNL A   1      36.732  34.745  32.746  1.00  0.00     0.010 A 
ATOM     38  C   UNL A   1      35.348  33.134  33.937  1.00  0.00     0.010 A 
ATOM     39  C   UNL A   1      36.611  33.678  33.642  1.00  0.00    -0.014 A 
BRANCH  39  40
ATOM     40  C   UNL A   1      37.843  32.999  34.091  1.00  0.00     0.031 A 
ATOM     41  C   UNL A   1      38.361  31.856  33.264  1.00  0.00     0.074 A 
ATOM     42  C   UNL A   1      38.513  33.450  35.162  1.00  0.00     0.049 A 
ATOM     43  N   UNL A   1      39.396  31.088  33.465  1.00  0.00    -0.248 NA
ATOM     44  C   UNL A   1      37.600  31.541  32.044  1.00  0.00     0.031 C 
ATOM     45  C   UNL A   1      38.130  34.610  35.965  1.00  0.00     0.029 A 
ATOM     46  N   UNL A   1      39.658  32.989  35.755  1.00  0.00    -0.354 N 
ATOM     47  C   UNL A   1      39.414  30.197  32.396  1.00  0.00     0.074 A 
ATOM     48  C   UNL A   1      38.261  30.495  31.575  1.00  0.00     0.031 C 
ATOM     49  C   UNL A   1      39.026  34.767  36.954  1.00  0.00     0.029 A 
ATOM     50  C   UNL A   1      40.010  33.690  36.882  1.00  0.00     0.049 A 
ATOM     51  H   UNL A   1      40.178  32.229  35.406  1.00  0.00     0.167 HD
ATOM     52  C   UNL A   1      40.320  29.226  32.126  1.00  0.00     0.034 A 
ATOM     53  C   UNL A   1      40.998  33.458  37.769  1.00  0.00     0.034 A 
ATOM     54  C   UNL A   1      41.445  28.943  32.983  1.00  0.00     0.049 A 
ATOM     55  C   UNL A   1      41.910  32.280  37.528  1.00  0.00     0.074 A 
ATOM     56  C   UNL A   1      42.430  27.986  32.830  1.00  0.00     0.029 A 
ATOM     57  N   UNL A   1      41.720  29.612  34.171  1.00  0.00    -0.354 N 
ATOM     58  N   UNL A   1      41.920  31.435  36.520  1.00  0.00    -0.248 NA
ATOM     59  C   UNL A   1      42.936  32.017  38.545  1.00  0.00     0.031 C 
ATOM     60  C   UNL A   1      43.246  28.017  33.967  1.00  0.00     0.029 A 
ATOM     61  C   UNL A   1      42.826  29.053  34.789  1.00  0.00     0.049 A 
ATOM     62  H   UNL A   1      41.204  30.374  34.522  1.00  0.00     0.167 HD
ATOM     63  C   UNL A   1      42.968  30.554  36.772  1.00  0.00     0.074 A 
ATOM     64  C   UNL A   1      43.575  30.982  38.017  1.00  0.00     0.031 C 
ATOM     65  C   UNL A   1      43.394  29.489  36.045  1.00  0.00     0.034 A 
BRANCH  52  66
ATOM     66  C   UNL A   1      40.077  28.370  30.905  1.00  0.00     0.023 A 
ATOM     67  C   UNL A   1      40.725  28.622  29.683  1.00  0.00     0.031 A 
ATOM     68  C   UNL A   1      39.137  27.326  30.946  1.00  0.00     0.131 A 
ATOM     69  C   UNL A   1      40.358  27.903  28.534  1.00  0.00     0.055 A 
ATOM     70  C   UNL A   1      38.843  26.552  29.821  1.00  0.00     0.041 A 
ATOM     71  F   UNL A   1      38.464  27.055  32.076  1.00  0.00    -0.206 F 
ATOM     72  C   UNL A   1      39.441  26.851  28.601  1.00  0.00     0.022 A 
BRANCH  69  73
ATOM     73  S   UNL A   1      40.959  28.481  26.922  1.00  0.00     0.124 S 
ATOM     74  O   UNL A   1      42.149  29.237  27.308  1.00  0.00    -0.237 OA
ATOM     75  O   UNL A   1      41.197  27.233  26.209  1.00  0.00    -0.237 OA
ATOM     76  O   UNL A   1      39.854  29.292  26.415  1.00  0.00    -0.744 OA
ENDBRANCH  69  73
ENDBRANCH  52  66
BRANCH  53  77
ATOM     77  C   UNL A   1      41.142  34.318  38.977  1.00  0.00     0.023 A 
ATOM     78  C   UNL A   1      40.414  34.051  40.145  1.00  0.00     0.031 A 
ATOM     79  C   UNL A   1      41.993  35.439  38.972  1.00  0.00     0.131 A 
ATOM     80  C   UNL A   1      40.525  34.910  41.249  1.00  0.00     0.055 A 
ATOM     81  C   UNL A   1      42.141  36.259  40.092  1.00  0.00     0.041 A 
ATOM     82  F   UNL A   1      42.709  35.745  37.878  1.00  0.00    -0.206 F 
ATOM     83  C   UNL A   1      41.396  36.001  41.237  1.00  0.00     0.022 A 
BRANCH  80  84
ATOM     84  S   UNL A   1      39.447  34.625  42.679  1.00  0.00     0.124 S 
ATOM     85  O   UNL A   1      40.409  34.598  43.774  1.00  0.00    -0.237 OA
ATOM     86  O   UNL A   1      38.564  35.787  42.628  1.00  0.00    -0.237 OA
ATOM     87  O   UNL A   1      38.810  33.346  42.375  1.00  0.00    -0.744 OA
ENDBRANCH  80  84
ENDBRANCH  53  77
BRANCH  65  88
ATOM     88  C   UNL A   1      44.581  28.728  36.576  1.00  0.00     0.023 A 
ATOM     89  C   UNL A   1      44.427  27.685  37.504  1.00  0.00     0.031 A 
ATOM     90  C   UNL A   1      45.879  29.034  36.129  1.00  0.00     0.131 A 
ATOM     91  C   UNL A   1      45.556  27.012  37.990  1.00  0.00     0.055 A 
ATOM     92  C   UNL A   1      46.993  28.316  36.568  1.00  0.00     0.041 A 
ATOM     93  F   UNL A   1      46.083  30.023  35.245  1.00  0.00    -0.206 F 
ATOM     94  C   UNL A   1      46.836  27.305  37.511  1.00  0.00     0.022 A 
BRANCH  91  95
ATOM     95  S   UNL A   1      45.338  25.796  39.317  1.00  0.00     0.124 S 
ATOM     96  O   UNL A   1      44.925  24.609  38.573  1.00  0.00    -0.237 OA
ATOM     97  O   UNL A   1      46.666  25.742  39.916  1.00  0.00    -0.237 OA
ATOM     98  O   UNL A   1      44.301  26.391  40.159  1.00  0.00    -0.744 OA
ENDBRANCH  91  95
ENDBRANCH  65  88
ENDBRANCH  39  40
ENDBRANCH  32  34
ENDBRANCH  31  32
ENDBRANCH  30  31
ENDBRANCH  29  30
ENDBRANCH  28  29
ENDBRANCH  27  28
ENDBRANCH  26  27
ENDBRANCH  25  26
ENDBRANCH   1  25
TORSDOF 27
ENDMDL
