MODEL 1
REMARK VINA RESULT:      -9.7      0.000      0.000
REMARK SMILES Cc1cccc2c1[C@H]1c3c(C)cccc3[C@H](CC(=O)OCCOCCOCCOCCOC(=O)c3ccc(-c4c5nc(c(-c6cc(S(=O)(=O)[O-])ccc6F)c6ccc([nH]6)c(-c6cc(S(=O)(=O)[O-])ccc6F)c6nc(c(-c7cc(S(=O)(=O)[O-])ccc7F)c7ccc4[nH]7)C=C6)C=C5)cc3)C[C@H]1CC2
REMARK SMILES IDX 27 1 26 2 25 3 24 4 23 5 22 6 21 7 20 8 18 9 19 10 17 11
REMARK SMILES IDX 16 12 1 13 2 14 3 15 7 16 4 17 6 18 8 19 5 20 101 21 9 22
REMARK SMILES IDX 99 23 100 24 10 25 15 26 98 27 12 28 11 29 14 30 13 31 28 32
REMARK SMILES IDX 29 33 30 34 31 35 32 36 33 37 34 38 35 39 36 40 97 41 37 42
REMARK SMILES IDX 96 43 38 44 39 45 40 46 90 47 41 48 95 49 89 50 91 51 42 52
REMARK SMILES IDX 94 53 88 54 87 55 43 57 75 58 55 59 74 60 56 61 59 62 73 63
REMARK SMILES IDX 92 64 57 65 58 66 72 68 93 69 60 70 44 71 45 72 53 73 46 74
REMARK SMILES IDX 52 75 54 76 51 77 47 78 48 79 49 80 50 81 76 82 77 83 85 84
REMARK SMILES IDX 78 85 84 86 86 87 83 88 79 89 80 90 81 91 82 92 61 93 62 94
REMARK SMILES IDX 70 95 63 96 69 97 71 98 68 99 64 100 65 101 66 102 67 103
REMARK H PARENT 91 56 59 67
REMARK Flexibility Score: inf
ROOT
ATOM      1  C   UNL A   1      38.390  28.945  28.595  1.00  0.00     0.188 C 
ENDROOT
BRANCH   1   2
ATOM      2  O   UNL A   1      38.474  27.631  28.076  1.00  0.00    -0.377 OA
BRANCH   2   3
ATOM      3  C   UNL A   1      39.790  27.111  28.025  1.00  0.00     0.188 C 
BRANCH   3   4
ATOM      4  C   UNL A   1      39.898  25.616  28.398  1.00  0.00     0.188 C 
BRANCH   4   5
ATOM      5  O   UNL A   1      39.771  24.613  27.397  1.00  0.00    -0.376 OA
BRANCH   5   6
ATOM      6  C   UNL A   1      38.482  24.372  26.853  1.00  0.00     0.202 C 
BRANCH   6   7
ATOM      7  C   UNL A   1      38.234  23.084  26.040  1.00  0.00     0.261 C 
BRANCH   7   8
ATOM      8  O   UNL A   1      36.874  22.591  25.976  1.00  0.00    -0.463 OA
BRANCH   8   9
ATOM      9  C   UNL A   1      36.518  21.827  24.904  1.00  0.00     0.306 C 
ATOM     10  O   UNL A   1      37.311  21.348  24.101  1.00  0.00    -0.252 OA
BRANCH   9  11
ATOM     11  C   UNL A   1      35.001  21.700  24.755  1.00  0.00     0.131 C 
BRANCH  11  12
ATOM     12  C   UNL A   1      34.039  22.843  24.252  1.00  0.00     0.031 C 
ATOM     13  C   UNL A   1      33.492  28.895  25.351  1.00  0.00     0.044 C 
ATOM     14  C   UNL A   1      32.378  28.313  24.529  1.00  0.00    -0.047 A 
ATOM     15  C   UNL A   1      31.329  29.208  24.233  1.00  0.00     0.004 A 
ATOM     16  C   UNL A   1      32.395  27.030  23.930  1.00  0.00    -0.034 A 
ATOM     17  C   UNL A   1      30.402  28.917  23.244  1.00  0.00     0.001 A 
ATOM     18  C   UNL A   1      31.622  26.875  22.764  1.00  0.00    -0.044 A 
ATOM     19  C   UNL A   1      33.164  25.800  24.465  1.00  0.00     0.053 C 
ATOM     20  C   UNL A   1      30.602  27.792  22.456  1.00  0.00     0.004 A 
ATOM     21  C   UNL A   1      32.039  25.893  21.699  1.00  0.00     0.036 C 
ATOM     22  C   UNL A   1      32.329  24.645  25.139  1.00  0.00    -0.034 A 
ATOM     23  C   UNL A   1      33.955  25.215  23.273  1.00  0.00     0.002 C 
ATOM     24  C   UNL A   1      32.986  24.786  22.147  1.00  0.00     0.009 C 
ATOM     25  C   UNL A   1      31.139  24.879  25.892  1.00  0.00    -0.047 A 
ATOM     26  C   UNL A   1      32.782  23.272  25.019  1.00  0.00    -0.040 A 
ATOM     27  C   UNL A   1      34.848  24.059  23.758  1.00  0.00     0.013 C 
ATOM     28  C   UNL A   1      30.410  23.790  26.415  1.00  0.00     0.004 A 
ATOM     29  C   UNL A   1      30.507  26.221  26.142  1.00  0.00     0.044 C 
ATOM     30  C   UNL A   1      31.967  22.227  25.496  1.00  0.00     0.004 A 
ATOM     31  C   UNL A   1      30.807  22.480  26.208  1.00  0.00     0.001 A 
ENDBRANCH  11  12
ENDBRANCH   9  11
ENDBRANCH   8   9
ENDBRANCH   7   8
ENDBRANCH   6   7
ENDBRANCH   5   6
ENDBRANCH   4   5
ENDBRANCH   3   4
ENDBRANCH   2   3
ENDBRANCH   1   2
BRANCH   1  32
ATOM     32  C   UNL A   1      37.209  29.206  29.554  1.00  0.00     0.188 C 
BRANCH  32  33
ATOM     33  O   UNL A   1      36.037  29.675  28.904  1.00  0.00    -0.376 OA
BRANCH  33  34
ATOM     34  C   UNL A   1      36.144  30.594  27.835  1.00  0.00     0.202 C 
BRANCH  34  35
ATOM     35  C   UNL A   1      35.037  31.623  27.623  1.00  0.00     0.261 C 
BRANCH  35  36
ATOM     36  O   UNL A   1      34.270  31.971  28.777  1.00  0.00    -0.460 OA
BRANCH  36  37
ATOM     37  C   UNL A   1      34.415  33.189  29.331  1.00  0.00     0.338 C 
ATOM     38  O   UNL A   1      33.836  34.215  29.022  1.00  0.00    -0.246 OA
BRANCH  37  39
ATOM     39  C   UNL A   1      35.316  33.020  30.489  1.00  0.00     0.060 A 
ATOM     40  C   UNL A   1      36.424  33.870  30.590  1.00  0.00     0.016 A 
ATOM     41  C   UNL A   1      35.058  32.072  31.486  1.00  0.00     0.016 A 
ATOM     42  C   UNL A   1      37.277  33.780  31.684  1.00  0.00     0.010 A 
ATOM     43  C   UNL A   1      35.953  31.940  32.557  1.00  0.00     0.010 A 
ATOM     44  C   UNL A   1      37.081  32.774  32.638  1.00  0.00    -0.014 A 
BRANCH  44  45
ATOM     45  C   UNL A   1      38.230  32.442  33.511  1.00  0.00     0.031 A 
ATOM     46  C   UNL A   1      39.363  31.674  32.889  1.00  0.00     0.074 A 
ATOM     47  C   UNL A   1      38.323  32.901  34.771  1.00  0.00     0.049 A 
ATOM     48  N   UNL A   1      40.517  31.346  33.400  1.00  0.00    -0.248 NA
ATOM     49  C   UNL A   1      39.175  31.235  31.493  1.00  0.00     0.031 C 
ATOM     50  C   UNL A   1      37.310  33.700  35.455  1.00  0.00     0.029 A 
ATOM     51  N   UNL A   1      39.327  32.761  35.698  1.00  0.00    -0.354 N 
ATOM     52  C   UNL A   1      41.196  30.678  32.388  1.00  0.00     0.074 A 
ATOM     53  C   UNL A   1      40.322  30.621  31.242  1.00  0.00     0.031 C 
ATOM     54  C   UNL A   1      37.734  33.961  36.704  1.00  0.00     0.029 A 
ATOM     55  C   UNL A   1      39.040  33.333  36.914  1.00  0.00     0.049 A 
ATOM     56  H   UNL A   1      40.174  32.295  35.508  1.00  0.00     0.167 HD
ATOM     57  C   UNL A   1      42.445  30.165  32.415  1.00  0.00     0.034 A 
ATOM     58  C   UNL A   1      39.741  33.331  38.068  1.00  0.00     0.034 A 
ATOM     59  C   UNL A   1      43.303  30.216  33.564  1.00  0.00     0.049 A 
ATOM     60  C   UNL A   1      41.111  32.697  38.095  1.00  0.00     0.074 A 
ATOM     61  C   UNL A   1      44.590  29.726  33.685  1.00  0.00     0.029 A 
ATOM     62  N   UNL A   1      42.966  30.776  34.786  1.00  0.00    -0.354 N 
ATOM     63  N   UNL A   1      41.764  32.112  37.117  1.00  0.00    -0.248 NA
ATOM     64  C   UNL A   1      41.850  32.730  39.365  1.00  0.00     0.031 C 
ATOM     65  C   UNL A   1      45.008  29.933  34.998  1.00  0.00     0.029 A 
ATOM     66  C   UNL A   1      44.011  30.619  35.676  1.00  0.00     0.049 A 
ATOM     67  H   UNL A   1      42.110  31.219  34.989  1.00  0.00     0.167 HD
ATOM     68  C   UNL A   1      42.995  31.731  37.646  1.00  0.00     0.074 A 
ATOM     69  C   UNL A   1      43.004  32.166  39.027  1.00  0.00     0.031 C 
ATOM     70  C   UNL A   1      44.019  31.079  37.042  1.00  0.00     0.034 A 
BRANCH  57  71
ATOM     71  C   UNL A   1      42.975  29.492  31.181  1.00  0.00     0.023 A 
ATOM     72  C   UNL A   1      43.439  30.276  30.111  1.00  0.00     0.031 A 
ATOM     73  C   UNL A   1      42.878  28.101  31.005  1.00  0.00     0.131 A 
ATOM     74  C   UNL A   1      43.731  29.669  28.886  1.00  0.00     0.055 A 
ATOM     75  C   UNL A   1      43.208  27.496  29.793  1.00  0.00     0.041 A 
ATOM     76  F   UNL A   1      42.454  27.315  32.009  1.00  0.00    -0.206 F 
ATOM     77  C   UNL A   1      43.621  28.284  28.722  1.00  0.00     0.022 A 
BRANCH  74  78
ATOM     78  S   UNL A   1      44.210  30.665  27.449  1.00  0.00     0.124 S 
ATOM     79  O   UNL A   1      43.353  30.117  26.400  1.00  0.00    -0.237 OA
ATOM     80  O   UNL A   1      43.874  32.014  27.891  1.00  0.00    -0.237 OA
ATOM     81  O   UNL A   1      45.634  30.385  27.291  1.00  0.00    -0.744 OA
ENDBRANCH  74  78
ENDBRANCH  57  71
BRANCH  58  82
ATOM     82  C   UNL A   1      39.140  33.959  39.280  1.00  0.00     0.023 A 
ATOM     83  C   UNL A   1      39.541  35.248  39.678  1.00  0.00     0.031 A 
ATOM     84  C   UNL A   1      38.235  33.265  40.099  1.00  0.00     0.131 A 
ATOM     85  C   UNL A   1      39.093  35.774  40.895  1.00  0.00     0.055 A 
ATOM     86  C   UNL A   1      37.740  33.821  41.282  1.00  0.00     0.041 A 
ATOM     87  F   UNL A   1      37.825  32.033  39.763  1.00  0.00    -0.206 F 
ATOM     88  C   UNL A   1      38.182  35.076  41.693  1.00  0.00     0.022 A 
BRANCH  85  89
ATOM     89  S   UNL A   1      39.760  37.338  41.528  1.00  0.00     0.124 S 
ATOM     90  O   UNL A   1      38.961  38.326  40.811  1.00  0.00    -0.237 OA
ATOM     91  O   UNL A   1      39.483  37.219  42.958  1.00  0.00    -0.237 OA
ATOM     92  O   UNL A   1      41.171  37.285  41.162  1.00  0.00    -0.744 OA
ENDBRANCH  85  89
ENDBRANCH  58  82
BRANCH  70  93
ATOM     93  C   UNL A   1      45.269  30.786  37.834  1.00  0.00     0.023 A 
ATOM     94  C   UNL A   1      45.317  29.647  38.661  1.00  0.00     0.031 A 
ATOM     95  C   UNL A   1      46.313  31.721  37.922  1.00  0.00     0.131 A 
ATOM     96  C   UNL A   1      46.360  29.500  39.582  1.00  0.00     0.055 A 
ATOM     97  C   UNL A   1      47.376  31.544  38.808  1.00  0.00     0.041 A 
ATOM     98  F   UNL A   1      46.302  32.828  37.162  1.00  0.00    -0.206 F 
ATOM     99  C   UNL A   1      47.394  30.439  39.655  1.00  0.00     0.022 A 
BRANCH  96 100
ATOM    100  S   UNL A   1      46.367  28.132  40.774  1.00  0.00     0.124 S 
ATOM    101  O   UNL A   1      47.018  27.069  40.011  1.00  0.00    -0.237 OA
ATOM    102  O   UNL A   1      47.156  28.686  41.871  1.00  0.00    -0.237 OA
ATOM    103  O   UNL A   1      44.955  27.910  41.064  1.00  0.00    -0.744 OA
ENDBRANCH  96 100
ENDBRANCH  70  93
ENDBRANCH  44  45
ENDBRANCH  37  39
ENDBRANCH  36  37
ENDBRANCH  35  36
ENDBRANCH  34  35
ENDBRANCH  33  34
ENDBRANCH  32  33
ENDBRANCH   1  32
TORSDOF 24
ENDMDL
MODEL 2
REMARK VINA RESULT:      -9.5      1.860      2.143
REMARK SMILES Cc1cccc2c1[C@H]1c3c(C)cccc3[C@H](CC(=O)OCCOCCOCCOCCOC(=O)c3ccc(-c4c5nc(c(-c6cc(S(=O)(=O)[O-])ccc6F)c6ccc([nH]6)c(-c6cc(S(=O)(=O)[O-])ccc6F)c6nc(c(-c7cc(S(=O)(=O)[O-])ccc7F)c7ccc4[nH]7)C=C6)C=C5)cc3)C[C@H]1CC2
REMARK SMILES IDX 27 1 26 2 25 3 24 4 23 5 22 6 21 7 20 8 18 9 19 10 17 11
REMARK SMILES IDX 16 12 1 13 2 14 3 15 7 16 4 17 6 18 8 19 5 20 101 21 9 22
REMARK SMILES IDX 99 23 100 24 10 25 15 26 98 27 12 28 11 29 14 30 13 31 28 32
REMARK SMILES IDX 29 33 30 34 31 35 32 36 33 37 34 38 35 39 36 40 97 41 37 42
REMARK SMILES IDX 96 43 38 44 39 45 40 46 90 47 41 48 95 49 89 50 91 51 42 52
REMARK SMILES IDX 94 53 88 54 87 55 43 57 75 58 55 59 74 60 56 61 59 62 73 63
REMARK SMILES IDX 92 64 57 65 58 66 72 68 93 69 60 70 44 71 45 72 53 73 46 74
REMARK SMILES IDX 52 75 54 76 51 77 47 78 48 79 49 80 50 81 76 82 77 83 85 84
REMARK SMILES IDX 78 85 84 86 86 87 83 88 79 89 80 90 81 91 82 92 61 93 62 94
REMARK SMILES IDX 70 95 63 96 69 97 71 98 68 99 64 100 65 101 66 102 67 103
REMARK H PARENT 91 56 59 67
REMARK Flexibility Score: inf
ROOT
ATOM      1  C   UNL A   1      38.548  28.983  28.870  1.00  0.00     0.188 C 
ENDROOT
BRANCH   1   2
ATOM      2  O   UNL A   1      38.597  27.795  28.105  1.00  0.00    -0.377 OA
BRANCH   2   3
ATOM      3  C   UNL A   1      39.808  27.071  28.233  1.00  0.00     0.188 C 
BRANCH   3   4
ATOM      4  C   UNL A   1      39.625  25.544  28.379  1.00  0.00     0.188 C 
BRANCH   4   5
ATOM      5  O   UNL A   1      39.690  24.699  27.237  1.00  0.00    -0.376 OA
BRANCH   5   6
ATOM      6  C   UNL A   1      38.480  24.406  26.553  1.00  0.00     0.202 C 
BRANCH   6   7
ATOM      7  C   UNL A   1      38.194  22.955  26.113  1.00  0.00     0.261 C 
BRANCH   7   8
ATOM      8  O   UNL A   1      36.809  22.577  25.932  1.00  0.00    -0.463 OA
BRANCH   8   9
ATOM      9  C   UNL A   1      36.512  21.666  24.961  1.00  0.00     0.306 C 
ATOM     10  O   UNL A   1      37.350  21.065  24.297  1.00  0.00    -0.252 OA
BRANCH   9  11
ATOM     11  C   UNL A   1      35.008  21.535  24.723  1.00  0.00     0.131 C 
BRANCH  11  12
ATOM     12  C   UNL A   1      34.067  22.689  24.203  1.00  0.00     0.031 C 
ATOM     13  C   UNL A   1      33.659  28.772  25.183  1.00  0.00     0.044 C 
ATOM     14  C   UNL A   1      32.525  28.198  24.381  1.00  0.00    -0.047 A 
ATOM     15  C   UNL A   1      31.494  29.109  24.075  1.00  0.00     0.004 A 
ATOM     16  C   UNL A   1      32.510  26.902  23.808  1.00  0.00    -0.034 A 
ATOM     17  C   UNL A   1      30.553  28.818  23.099  1.00  0.00     0.001 A 
ATOM     18  C   UNL A   1      31.725  26.740  22.652  1.00  0.00    -0.044 A 
ATOM     19  C   UNL A   1      33.257  25.667  24.362  1.00  0.00     0.053 C 
ATOM     20  C   UNL A   1      30.722  27.673  22.333  1.00  0.00     0.004 A 
ATOM     21  C   UNL A   1      32.112  25.728  21.604  1.00  0.00     0.036 C 
ATOM     22  C   UNL A   1      32.403  24.544  25.066  1.00  0.00    -0.034 A 
ATOM     23  C   UNL A   1      34.025  25.041  23.176  1.00  0.00     0.002 C 
ATOM     24  C   UNL A   1      33.039  24.610  22.068  1.00  0.00     0.009 C 
ATOM     25  C   UNL A   1      31.225  24.819  25.824  1.00  0.00    -0.047 A 
ATOM     26  C   UNL A   1      32.825  23.160  24.971  1.00  0.00    -0.040 A 
ATOM     27  C   UNL A   1      34.897  23.876  23.679  1.00  0.00     0.013 C 
ATOM     28  C   UNL A   1      30.476  23.757  26.374  1.00  0.00     0.004 A 
ATOM     29  C   UNL A   1      30.624  26.180  26.051  1.00  0.00     0.044 C 
ATOM     30  C   UNL A   1      31.992  22.143  25.476  1.00  0.00     0.004 A 
ATOM     31  C   UNL A   1      30.843  22.435  26.192  1.00  0.00     0.001 A 
ENDBRANCH  11  12
ENDBRANCH   9  11
ENDBRANCH   8   9
ENDBRANCH   7   8
ENDBRANCH   6   7
ENDBRANCH   5   6
ENDBRANCH   4   5
ENDBRANCH   3   4
ENDBRANCH   2   3
ENDBRANCH   1   2
BRANCH   1  32
ATOM     32  C   UNL A   1      37.320  29.129  29.794  1.00  0.00     0.188 C 
BRANCH  32  33
ATOM     33  O   UNL A   1      36.220  29.786  29.183  1.00  0.00    -0.376 OA
BRANCH  33  34
ATOM     34  C   UNL A   1      36.443  30.713  28.140  1.00  0.00     0.202 C 
BRANCH  34  35
ATOM     35  C   UNL A   1      35.395  31.787  27.859  1.00  0.00     0.261 C 
BRANCH  35  36
ATOM     36  O   UNL A   1      34.459  32.043  28.907  1.00  0.00    -0.460 OA
BRANCH  36  37
ATOM     37  C   UNL A   1      34.483  33.226  29.548  1.00  0.00     0.338 C 
ATOM     38  O   UNL A   1      33.825  34.219  29.294  1.00  0.00    -0.246 OA
BRANCH  37  39
ATOM     39  C   UNL A   1      35.367  33.052  30.720  1.00  0.00     0.060 A 
ATOM     40  C   UNL A   1      36.429  33.949  30.882  1.00  0.00     0.016 A 
ATOM     41  C   UNL A   1      35.133  32.051  31.671  1.00  0.00     0.016 A 
ATOM     42  C   UNL A   1      37.261  33.854  31.992  1.00  0.00     0.010 A 
ATOM     43  C   UNL A   1      36.010  31.918  32.756  1.00  0.00     0.010 A 
ATOM     44  C   UNL A   1      37.094  32.801  32.898  1.00  0.00    -0.014 A 
BRANCH  44  45
ATOM     45  C   UNL A   1      38.239  32.488  33.784  1.00  0.00     0.031 A 
ATOM     46  C   UNL A   1      39.453  31.876  33.143  1.00  0.00     0.074 A 
ATOM     47  C   UNL A   1      38.251  32.837  35.082  1.00  0.00     0.049 A 
ATOM     48  N   UNL A   1      40.614  31.600  33.669  1.00  0.00    -0.248 NA
ATOM     49  C   UNL A   1      39.348  31.550  31.708  1.00  0.00     0.031 C 
ATOM     50  C   UNL A   1      37.151  33.485  35.792  1.00  0.00     0.029 A 
ATOM     51  N   UNL A   1      39.233  32.698  36.032  1.00  0.00    -0.354 N 
ATOM     52  C   UNL A   1      41.380  31.085  32.631  1.00  0.00     0.074 A 
ATOM     53  C   UNL A   1      40.552  31.060  31.450  1.00  0.00     0.031 C 
ATOM     54  C   UNL A   1      37.511  33.665  37.075  1.00  0.00     0.029 A 
ATOM     55  C   UNL A   1      38.859  33.132  37.281  1.00  0.00     0.049 A 
ATOM     56  H   UNL A   1      40.122  32.323  35.836  1.00  0.00     0.167 HD
ATOM     57  C   UNL A   1      42.667  30.677  32.662  1.00  0.00     0.034 A 
ATOM     58  C   UNL A   1      39.519  33.084  38.458  1.00  0.00     0.034 A 
ATOM     59  C   UNL A   1      43.480  30.695  33.844  1.00  0.00     0.049 A 
ATOM     60  C   UNL A   1      40.937  32.566  38.484  1.00  0.00     0.074 A 
ATOM     61  C   UNL A   1      44.800  30.305  33.973  1.00  0.00     0.029 A 
ATOM     62  N   UNL A   1      43.057  31.112  35.096  1.00  0.00    -0.354 N 
ATOM     63  N   UNL A   1      41.670  32.128  37.485  1.00  0.00    -0.248 NA
ATOM     64  C   UNL A   1      41.630  32.545  39.780  1.00  0.00     0.031 C 
ATOM     65  C   UNL A   1      45.156  30.426  35.315  1.00  0.00     0.029 A 
ATOM     66  C   UNL A   1      44.083  30.963  36.011  1.00  0.00     0.049 A 
ATOM     67  H   UNL A   1      42.160  31.462  35.303  1.00  0.00     0.167 HD
ATOM     68  C   UNL A   1      42.911  31.804  38.028  1.00  0.00     0.074 A 
ATOM     69  C   UNL A   1      42.838  32.112  39.440  1.00  0.00     0.031 C 
ATOM     70  C   UNL A   1      44.007  31.297  37.411  1.00  0.00     0.034 A 
BRANCH  57  71
ATOM     71  C   UNL A   1      43.293  30.165  31.396  1.00  0.00     0.023 A 
ATOM     72  C   UNL A   1      43.328  28.781  31.152  1.00  0.00     0.031 A 
ATOM     73  C   UNL A   1      43.982  31.021  30.521  1.00  0.00     0.131 A 
ATOM     74  C   UNL A   1      44.091  28.286  30.092  1.00  0.00     0.055 A 
ATOM     75  C   UNL A   1      44.710  30.525  29.440  1.00  0.00     0.041 A 
ATOM     76  F   UNL A   1      43.960  32.351  30.710  1.00  0.00    -0.206 F 
ATOM     77  C   UNL A   1      44.779  29.149  29.232  1.00  0.00     0.022 A 
BRANCH  74  78
ATOM     78  S   UNL A   1      44.260  26.501  29.825  1.00  0.00     0.124 S 
ATOM     79  O   UNL A   1      43.194  26.236  28.861  1.00  0.00    -0.237 OA
ATOM     80  O   UNL A   1      45.617  26.401  29.301  1.00  0.00    -0.237 OA
ATOM     81  O   UNL A   1      44.047  25.929  31.151  1.00  0.00    -0.744 OA
ENDBRANCH  74  78
ENDBRANCH  57  71
BRANCH  58  82
ATOM     82  C   UNL A   1      38.828  33.547  39.695  1.00  0.00     0.023 A 
ATOM     83  C   UNL A   1      37.968  32.676  40.390  1.00  0.00     0.031 A 
ATOM     84  C   UNL A   1      38.940  34.870  40.152  1.00  0.00     0.131 A 
ATOM     85  C   UNL A   1      37.202  33.156  41.459  1.00  0.00     0.055 A 
ATOM     86  C   UNL A   1      38.222  35.327  41.261  1.00  0.00     0.041 A 
ATOM     87  F   UNL A   1      39.745  35.738  39.522  1.00  0.00    -0.206 F 
ATOM     88  C   UNL A   1      37.335  34.472  41.910  1.00  0.00     0.022 A 
BRANCH  85  89
ATOM     89  S   UNL A   1      35.937  32.112  42.232  1.00  0.00     0.124 S 
ATOM     90  O   UNL A   1      36.741  31.091  42.896  1.00  0.00    -0.237 OA
ATOM     91  O   UNL A   1      35.269  33.064  43.116  1.00  0.00    -0.237 OA
ATOM     92  O   UNL A   1      35.138  31.646  41.104  1.00  0.00    -0.744 OA
ENDBRANCH  85  89
ENDBRANCH  58  82
BRANCH  70  93
ATOM     93  C   UNL A   1      45.251  31.039  38.223  1.00  0.00     0.023 A 
ATOM     94  C   UNL A   1      45.364  29.843  38.959  1.00  0.00     0.031 A 
ATOM     95  C   UNL A   1      46.213  32.041  38.423  1.00  0.00     0.131 A 
ATOM     96  C   UNL A   1      46.387  29.702  39.904  1.00  0.00     0.055 A 
ATOM     97  C   UNL A   1      47.259  31.876  39.331  1.00  0.00     0.041 A 
ATOM     98  F   UNL A   1      46.137  33.202  37.752  1.00  0.00    -0.206 F 
ATOM     99  C   UNL A   1      47.339  30.710  40.088  1.00  0.00     0.022 A 
BRANCH  96 100
ATOM    100  S   UNL A   1      46.467  28.248  40.984  1.00  0.00     0.124 S 
ATOM    101  O   UNL A   1      46.466  28.857  42.312  1.00  0.00    -0.237 OA
ATOM    102  O   UNL A   1      45.248  27.531  40.625  1.00  0.00    -0.237 OA
ATOM    103  O   UNL A   1      47.716  27.595  40.604  1.00  0.00    -0.744 OA
ENDBRANCH  96 100
ENDBRANCH  70  93
ENDBRANCH  44  45
ENDBRANCH  37  39
ENDBRANCH  36  37
ENDBRANCH  35  36
ENDBRANCH  34  35
ENDBRANCH  33  34
ENDBRANCH  32  33
ENDBRANCH   1  32
TORSDOF 24
ENDMDL
MODEL 3
REMARK VINA RESULT:      -9.2      2.009      2.258
REMARK SMILES Cc1cccc2c1[C@H]1c3c(C)cccc3[C@H](CC(=O)OCCOCCOCCOCCOC(=O)c3ccc(-c4c5nc(c(-c6cc(S(=O)(=O)[O-])ccc6F)c6ccc([nH]6)c(-c6cc(S(=O)(=O)[O-])ccc6F)c6nc(c(-c7cc(S(=O)(=O)[O-])ccc7F)c7ccc4[nH]7)C=C6)C=C5)cc3)C[C@H]1CC2
REMARK SMILES IDX 27 1 26 2 25 3 24 4 23 5 22 6 21 7 20 8 18 9 19 10 17 11
REMARK SMILES IDX 16 12 1 13 2 14 3 15 7 16 4 17 6 18 8 19 5 20 101 21 9 22
REMARK SMILES IDX 99 23 100 24 10 25 15 26 98 27 12 28 11 29 14 30 13 31 28 32
REMARK SMILES IDX 29 33 30 34 31 35 32 36 33 37 34 38 35 39 36 40 97 41 37 42
REMARK SMILES IDX 96 43 38 44 39 45 40 46 90 47 41 48 95 49 89 50 91 51 42 52
REMARK SMILES IDX 94 53 88 54 87 55 43 57 75 58 55 59 74 60 56 61 59 62 73 63
REMARK SMILES IDX 92 64 57 65 58 66 72 68 93 69 60 70 44 71 45 72 53 73 46 74
REMARK SMILES IDX 52 75 54 76 51 77 47 78 48 79 49 80 50 81 76 82 77 83 85 84
REMARK SMILES IDX 78 85 84 86 86 87 83 88 79 89 80 90 81 91 82 92 61 93 62 94
REMARK SMILES IDX 70 95 63 96 69 97 71 98 68 99 64 100 65 101 66 102 67 103
REMARK H PARENT 91 56 59 67
REMARK Flexibility Score: inf
ROOT
ATOM      1  C   UNL A   1      38.803  28.814  28.787  1.00  0.00     0.188 C 
ENDROOT
BRANCH   1   2
ATOM      2  O   UNL A   1      38.809  27.715  27.896  1.00  0.00    -0.377 OA
BRANCH   2   3
ATOM      3  C   UNL A   1      40.040  27.016  27.845  1.00  0.00     0.188 C 
BRANCH   3   4
ATOM      4  C   UNL A   1      39.957  25.546  28.310  1.00  0.00     0.188 C 
BRANCH   4   5
ATOM      5  O   UNL A   1      39.883  24.493  27.356  1.00  0.00    -0.376 OA
BRANCH   5   6
ATOM      6  C   UNL A   1      38.674  24.332  26.629  1.00  0.00     0.202 C 
BRANCH   6   7
ATOM      7  C   UNL A   1      38.352  22.964  25.992  1.00  0.00     0.261 C 
BRANCH   7   8
ATOM      8  O   UNL A   1      36.967  22.544  25.988  1.00  0.00    -0.463 OA
BRANCH   8   9
ATOM      9  C   UNL A   1      36.526  21.795  24.937  1.00  0.00     0.306 C 
ATOM     10  O   UNL A   1      37.257  21.300  24.085  1.00  0.00    -0.252 OA
BRANCH   9  11
ATOM     11  C   UNL A   1      35.000  21.709  24.880  1.00  0.00     0.131 C 
BRANCH  11  12
ATOM     12  C   UNL A   1      34.046  22.846  24.348  1.00  0.00     0.031 C 
ATOM     13  C   UNL A   1      33.419  28.891  25.436  1.00  0.00     0.044 C 
ATOM     14  C   UNL A   1      32.335  28.302  24.578  1.00  0.00    -0.047 A 
ATOM     15  C   UNL A   1      31.289  29.190  24.251  1.00  0.00     0.004 A 
ATOM     16  C   UNL A   1      32.380  27.020  23.979  1.00  0.00    -0.034 A 
ATOM     17  C   UNL A   1      30.396  28.892  23.232  1.00  0.00     0.001 A 
ATOM     18  C   UNL A   1      31.646  26.860  22.789  1.00  0.00    -0.044 A 
ATOM     19  C   UNL A   1      33.142  25.795  24.536  1.00  0.00     0.053 C 
ATOM     20  C   UNL A   1      30.629  27.770  22.450  1.00  0.00     0.004 A 
ATOM     21  C   UNL A   1      32.103  25.883  21.736  1.00  0.00     0.036 C 
ATOM     22  C   UNL A   1      32.296  24.633  25.183  1.00  0.00    -0.034 A 
ATOM     23  C   UNL A   1      33.974  25.218  23.369  1.00  0.00     0.002 C 
ATOM     24  C   UNL A   1      33.045  24.783  22.213  1.00  0.00     0.009 C 
ATOM     25  C   UNL A   1      31.081  24.857  25.898  1.00  0.00    -0.047 A 
ATOM     26  C   UNL A   1      32.762  23.264  25.075  1.00  0.00    -0.040 A 
ATOM     27  C   UNL A   1      34.860  24.068  23.881  1.00  0.00     0.013 C 
ATOM     28  C   UNL A   1      30.344  23.762  26.397  1.00  0.00     0.004 A 
ATOM     29  C   UNL A   1      30.431  26.194  26.130  1.00  0.00     0.044 C 
ATOM     30  C   UNL A   1      31.941  22.213  25.525  1.00  0.00     0.004 A 
ATOM     31  C   UNL A   1      30.757  22.455  26.202  1.00  0.00     0.001 A 
ENDBRANCH  11  12
ENDBRANCH   9  11
ENDBRANCH   8   9
ENDBRANCH   7   8
ENDBRANCH   6   7
ENDBRANCH   5   6
ENDBRANCH   4   5
ENDBRANCH   3   4
ENDBRANCH   2   3
ENDBRANCH   1   2
BRANCH   1  32
ATOM     32  C   UNL A   1      37.619  28.862  29.776  1.00  0.00     0.188 C 
BRANCH  32  33
ATOM     33  O   UNL A   1      36.572  29.732  29.372  1.00  0.00    -0.376 OA
BRANCH  33  34
ATOM     34  C   UNL A   1      36.726  30.532  28.217  1.00  0.00     0.202 C 
BRANCH  34  35
ATOM     35  C   UNL A   1      35.580  31.441  27.780  1.00  0.00     0.261 C 
BRANCH  35  36
ATOM     36  O   UNL A   1      34.580  31.710  28.763  1.00  0.00    -0.460 OA
BRANCH  36  37
ATOM     37  C   UNL A   1      34.556  32.907  29.378  1.00  0.00     0.338 C 
ATOM     38  O   UNL A   1      33.858  33.866  29.104  1.00  0.00    -0.246 OA
BRANCH  37  39
ATOM     39  C   UNL A   1      35.447  32.794  30.551  1.00  0.00     0.060 A 
ATOM     40  C   UNL A   1      36.492  33.718  30.675  1.00  0.00     0.016 A 
ATOM     41  C   UNL A   1      35.238  31.826  31.540  1.00  0.00     0.016 A 
ATOM     42  C   UNL A   1      37.331  33.680  31.784  1.00  0.00     0.010 A 
ATOM     43  C   UNL A   1      36.121  31.751  32.626  1.00  0.00     0.010 A 
ATOM     44  C   UNL A   1      37.187  32.659  32.730  1.00  0.00    -0.014 A 
BRANCH  44  45
ATOM     45  C   UNL A   1      38.342  32.403  33.622  1.00  0.00     0.031 A 
ATOM     46  C   UNL A   1      39.579  31.826  32.991  1.00  0.00     0.074 A 
ATOM     47  C   UNL A   1      38.339  32.772  34.914  1.00  0.00     0.049 A 
ATOM     48  N   UNL A   1      40.749  31.601  33.522  1.00  0.00    -0.248 NA
ATOM     49  C   UNL A   1      39.489  31.475  31.561  1.00  0.00     0.031 C 
ATOM     50  C   UNL A   1      37.215  33.389  35.613  1.00  0.00     0.029 A 
ATOM     51  N   UNL A   1      39.324  32.683  35.867  1.00  0.00    -0.354 N 
ATOM     52  C   UNL A   1      41.534  31.099  32.493  1.00  0.00     0.074 A 
ATOM     53  C   UNL A   1      40.710  31.025  31.312  1.00  0.00     0.031 C 
ATOM     54  C   UNL A   1      37.566  33.602  36.893  1.00  0.00     0.029 A 
ATOM     55  C   UNL A   1      38.932  33.122  37.109  1.00  0.00     0.049 A 
ATOM     56  H   UNL A   1      40.227  32.338  35.678  1.00  0.00     0.167 HD
ATOM     57  C   UNL A   1      42.836  30.739  32.532  1.00  0.00     0.034 A 
ATOM     58  C   UNL A   1      39.592  33.116  38.287  1.00  0.00     0.034 A 
ATOM     59  C   UNL A   1      43.646  30.805  33.714  1.00  0.00     0.049 A 
ATOM     60  C   UNL A   1      41.028  32.651  38.322  1.00  0.00     0.074 A 
ATOM     61  C   UNL A   1      44.979  30.466  33.851  1.00  0.00     0.029 A 
ATOM     62  N   UNL A   1      43.205  31.226  34.959  1.00  0.00    -0.354 N 
ATOM     63  N   UNL A   1      41.778  32.226  37.331  1.00  0.00    -0.248 NA
ATOM     64  C   UNL A   1      41.719  32.676  39.620  1.00  0.00     0.031 C 
ATOM     65  C   UNL A   1      45.328  30.621  35.191  1.00  0.00     0.029 A 
ATOM     66  C   UNL A   1      44.235  31.128  35.877  1.00  0.00     0.049 A 
ATOM     67  H   UNL A   1      42.296  31.546  35.160  1.00  0.00     0.167 HD
ATOM     68  C   UNL A   1      43.029  31.956  37.880  1.00  0.00     0.074 A 
ATOM     69  C   UNL A   1      42.943  32.282  39.287  1.00  0.00     0.031 C 
ATOM     70  C   UNL A   1      44.144  31.480  37.272  1.00  0.00     0.034 A 
BRANCH  57  71
ATOM     71  C   UNL A   1      43.482  30.231  31.275  1.00  0.00     0.023 A 
ATOM     72  C   UNL A   1      43.864  31.143  30.276  1.00  0.00     0.031 A 
ATOM     73  C   UNL A   1      43.575  28.856  31.002  1.00  0.00     0.131 A 
ATOM     74  C   UNL A   1      44.266  30.669  29.024  1.00  0.00     0.055 A 
ATOM     75  C   UNL A   1      44.014  28.387  29.765  1.00  0.00     0.041 A 
ATOM     76  F   UNL A   1      43.235  27.951  31.936  1.00  0.00    -0.206 F 
ATOM     77  C   UNL A   1      44.346  29.297  28.763  1.00  0.00     0.022 A 
BRANCH  74  78
ATOM     78  S   UNL A   1      44.644  31.819  27.675  1.00  0.00     0.124 S 
ATOM     79  O   UNL A   1      44.064  33.066  28.167  1.00  0.00    -0.237 OA
ATOM     80  O   UNL A   1      46.102  31.776  27.642  1.00  0.00    -0.237 OA
ATOM     81  O   UNL A   1      43.966  31.238  26.521  1.00  0.00    -0.744 OA
ENDBRANCH  74  78
ENDBRANCH  57  71
BRANCH  58  82
ATOM     82  C   UNL A   1      38.882  33.573  39.516  1.00  0.00     0.023 A 
ATOM     83  C   UNL A   1      37.940  32.733  40.139  1.00  0.00     0.031 A 
ATOM     84  C   UNL A   1      39.061  34.865  40.035  1.00  0.00     0.131 A 
ATOM     85  C   UNL A   1      37.164  33.216  41.198  1.00  0.00     0.055 A 
ATOM     86  C   UNL A   1      38.329  35.322  41.135  1.00  0.00     0.041 A 
ATOM     87  F   UNL A   1      39.945  35.703  39.475  1.00  0.00    -0.206 F 
ATOM     88  C   UNL A   1      37.363  34.501  41.712  1.00  0.00     0.022 A 
BRANCH  85  89
ATOM     89  S   UNL A   1      35.803  32.227  41.875  1.00  0.00     0.124 S 
ATOM     90  O   UNL A   1      34.809  33.247  42.193  1.00  0.00    -0.237 OA
ATOM     91  O   UNL A   1      35.479  31.360  40.745  1.00  0.00    -0.237 OA
ATOM     92  O   UNL A   1      36.402  31.555  43.022  1.00  0.00    -0.744 OA
ENDBRANCH  85  89
ENDBRANCH  58  82
BRANCH  70  93
ATOM     93  C   UNL A   1      45.396  31.281  38.089  1.00  0.00     0.023 A 
ATOM     94  C   UNL A   1      46.343  32.321  38.174  1.00  0.00     0.031 A 
ATOM     95  C   UNL A   1      45.738  30.021  38.605  1.00  0.00     0.131 A 
ATOM     96  C   UNL A   1      47.609  32.066  38.713  1.00  0.00     0.055 A 
ATOM     97  C   UNL A   1      46.985  29.786  39.185  1.00  0.00     0.041 A 
ATOM     98  F   UNL A   1      44.872  28.998  38.533  1.00  0.00    -0.206 F 
ATOM     99  C   UNL A   1      47.932  30.806  39.226  1.00  0.00     0.022 A 
BRANCH  96 100
ATOM    100  S   UNL A   1      48.906  33.334  38.690  1.00  0.00     0.124 S 
ATOM    101  O   UNL A   1      49.501  33.182  40.016  1.00  0.00    -0.237 OA
ATOM    102  O   UNL A   1      49.742  32.897  37.577  1.00  0.00    -0.237 OA
ATOM    103  O   UNL A   1      48.177  34.580  38.479  1.00  0.00    -0.744 OA
ENDBRANCH  96 100
ENDBRANCH  70  93
ENDBRANCH  44  45
ENDBRANCH  37  39
ENDBRANCH  36  37
ENDBRANCH  35  36
ENDBRANCH  34  35
ENDBRANCH  33  34
ENDBRANCH  32  33
ENDBRANCH   1  32
TORSDOF 24
ENDMDL
