MODEL 1
REMARK VINA RESULT:      -7.3      0.000      0.000
REMARK SMILES C[C@H](Cc1ccc(N)cc1)C(=O)OCCOCCOCCOCCOC(=O)c1ccc(-c2c3nc(c(-c4cc(S(=O)(=O)[O-])ccc4F)c4ccc([nH]4)c(-c4cc(S(=O)(=O)[O-])ccc4F)c4nc(c(-c5cc(S(=O)(=O)[O-])ccc5F)c5ccc2[nH]5)C=C4)C=C3)cc1
REMARK SMILES IDX 19 1 18 2 17 3 16 4 15 5 14 6 13 7 11 8 12 9 2 10 1 11 3 12
REMARK SMILES IDX 4 13 5 14 10 15 6 16 9 17 7 18 8 19 20 22 21 23 22 24 23 25
REMARK SMILES IDX 24 26 25 27 26 28 27 29 28 30 29 31 90 32 30 33 89 34 31 35
REMARK SMILES IDX 32 36 33 37 83 38 34 39 88 40 82 41 84 42 35 43 87 44 81 45
REMARK SMILES IDX 80 46 36 48 68 49 48 50 67 51 49 52 52 53 66 54 85 55 50 56
REMARK SMILES IDX 51 57 65 59 86 60 53 61 37 62 38 63 46 64 39 65 45 66 47 67
REMARK SMILES IDX 44 68 40 69 41 70 42 71 43 72 69 73 70 74 78 75 71 76 77 77
REMARK SMILES IDX 79 78 76 79 72 80 73 81 74 82 75 83 54 84 55 85 63 86 56 87
REMARK SMILES IDX 62 88 64 89 61 90 57 91 58 92 59 93 60 94
REMARK H PARENT 8 20 8 21 84 47 52 58
REMARK Flexibility Score: inf
ROOT
ATOM      1  O   UNL A   1      46.534  23.916  24.262  1.00  0.00    -0.377 OA
ENDROOT
BRANCH   1   2
ATOM      2  C   UNL A   1      47.550  24.840  24.585  1.00  0.00     0.188 C 
BRANCH   2   3
ATOM      3  C   UNL A   1      47.298  26.336  24.358  1.00  0.00     0.188 C 
BRANCH   3   4
ATOM      4  O   UNL A   1      45.982  26.811  24.502  1.00  0.00    -0.376 OA
BRANCH   4   5
ATOM      5  C   UNL A   1      45.668  27.863  25.400  1.00  0.00     0.202 C 
BRANCH   5   6
ATOM      6  C   UNL A   1      46.676  28.826  26.052  1.00  0.00     0.261 C 
BRANCH   6   7
ATOM      7  O   UNL A   1      46.200  29.737  27.047  1.00  0.00    -0.463 OA
BRANCH   7   8
ATOM      8  C   UNL A   1      46.134  31.036  26.690  1.00  0.00     0.309 C 
ATOM      9  O   UNL A   1      47.054  31.633  26.133  1.00  0.00    -0.252 OA
BRANCH   8  10
ATOM     10  C   UNL A   1      44.813  31.737  26.991  1.00  0.00     0.100 C 
ATOM     11  C   UNL A   1      43.763  30.655  27.250  1.00  0.00     0.020 C 
BRANCH  10  12
ATOM     12  C   UNL A   1      44.240  32.877  26.118  1.00  0.00     0.050 C 
BRANCH  12  13
ATOM     13  C   UNL A   1      43.623  34.134  26.671  1.00  0.00    -0.047 A 
ATOM     14  C   UNL A   1      43.132  35.175  25.885  1.00  0.00     0.006 A 
ATOM     15  C   UNL A   1      43.530  34.262  28.071  1.00  0.00     0.006 A 
ATOM     16  C   UNL A   1      42.633  36.339  26.483  1.00  0.00     0.026 A 
ATOM     17  C   UNL A   1      43.021  35.421  28.660  1.00  0.00     0.026 A 
ATOM     18  C   UNL A   1      42.559  36.468  27.870  1.00  0.00     0.031 A 
BRANCH  18  19
ATOM     19  N   UNL A   1      42.122  37.642  28.447  1.00  0.00    -0.399 N 
ATOM     20  H   UNL A   1      41.450  37.617  29.166  1.00  0.00     0.156 HD
ATOM     21  H   UNL A   1      42.481  38.506  28.138  1.00  0.00     0.156 HD
ENDBRANCH  18  19
ENDBRANCH  12  13
ENDBRANCH  10  12
ENDBRANCH   8  10
ENDBRANCH   7   8
ENDBRANCH   6   7
ENDBRANCH   5   6
ENDBRANCH   4   5
ENDBRANCH   3   4
ENDBRANCH   2   3
ENDBRANCH   1   2
BRANCH   1  22
ATOM     22  C   UNL A   1      46.223  22.828  25.121  1.00  0.00     0.188 C 
BRANCH  22  23
ATOM     23  C   UNL A   1      45.712  21.489  24.555  1.00  0.00     0.188 C 
BRANCH  23  24
ATOM     24  O   UNL A   1      45.477  20.480  25.525  1.00  0.00    -0.376 OA
BRANCH  24  25
ATOM     25  C   UNL A   1      44.993  19.227  25.067  1.00  0.00     0.202 C 
BRANCH  25  26
ATOM     26  C   UNL A   1      43.471  19.024  25.018  1.00  0.00     0.261 C 
BRANCH  26  27
ATOM     27  O   UNL A   1      42.756  19.232  26.248  1.00  0.00    -0.460 OA
BRANCH  27  28
ATOM     28  C   UNL A   1      41.709  20.084  26.237  1.00  0.00     0.338 C 
ATOM     29  O   UNL A   1      40.542  19.808  26.006  1.00  0.00    -0.246 OA
BRANCH  28  30
ATOM     30  C   UNL A   1      42.187  21.393  26.726  1.00  0.00     0.060 A 
ATOM     31  C   UNL A   1      42.393  21.578  28.099  1.00  0.00     0.016 A 
ATOM     32  C   UNL A   1      42.438  22.435  25.830  1.00  0.00     0.016 A 
ATOM     33  C   UNL A   1      42.842  22.810  28.582  1.00  0.00     0.010 A 
ATOM     34  C   UNL A   1      42.864  23.674  26.319  1.00  0.00     0.010 A 
ATOM     35  C   UNL A   1      43.052  23.876  27.699  1.00  0.00    -0.014 A 
BRANCH  35  36
ATOM     36  C   UNL A   1      43.330  25.239  28.222  1.00  0.00     0.031 A 
ATOM     37  C   UNL A   1      44.760  25.652  28.440  1.00  0.00     0.074 A 
ATOM     38  C   UNL A   1      42.332  26.102  28.493  1.00  0.00     0.049 A 
ATOM     39  N   UNL A   1      45.237  26.746  28.975  1.00  0.00    -0.248 NA
ATOM     40  C   UNL A   1      45.791  24.705  27.983  1.00  0.00     0.031 C 
ATOM     41  C   UNL A   1      40.914  25.860  28.237  1.00  0.00     0.029 A 
ATOM     42  N   UNL A   1      42.359  27.352  29.065  1.00  0.00    -0.354 N 
ATOM     43  C   UNL A   1      46.621  26.624  28.917  1.00  0.00     0.074 A 
ATOM     44  C   UNL A   1      46.906  25.334  28.326  1.00  0.00     0.031 C 
ATOM     45  C   UNL A   1      40.201  26.902  28.700  1.00  0.00     0.029 A 
ATOM     46  C   UNL A   1      41.108  27.872  29.310  1.00  0.00     0.049 A 
ATOM     47  H   UNL A   1      43.192  27.830  29.277  1.00  0.00     0.167 HD
ATOM     48  C   UNL A   1      47.564  27.513  29.310  1.00  0.00     0.034 A 
ATOM     49  C   UNL A   1      40.736  28.980  29.984  1.00  0.00     0.034 A 
ATOM     50  C   UNL A   1      47.264  28.793  29.905  1.00  0.00     0.049 A 
ATOM     51  C   UNL A   1      41.808  29.891  30.539  1.00  0.00     0.074 A 
ATOM     52  C   UNL A   1      48.147  29.777  30.314  1.00  0.00     0.029 A 
ATOM     53  N   UNL A   1      45.989  29.259  30.196  1.00  0.00    -0.354 N 
ATOM     54  N   UNL A   1      43.114  29.776  30.456  1.00  0.00    -0.248 NA
ATOM     55  C   UNL A   1      41.357  31.090  31.260  1.00  0.00     0.031 C 
ATOM     56  C   UNL A   1      47.413  30.794  30.933  1.00  0.00     0.029 A 
ATOM     57  C   UNL A   1      46.065  30.491  30.825  1.00  0.00     0.049 A 
ATOM     58  H   UNL A   1      45.154  28.782  29.985  1.00  0.00     0.167 HD
ATOM     59  C   UNL A   1      43.635  30.910  31.078  1.00  0.00     0.074 A 
ATOM     60  C   UNL A   1      42.505  31.701  31.514  1.00  0.00     0.031 C 
ATOM     61  C   UNL A   1      44.931  31.268  31.265  1.00  0.00     0.034 A 
BRANCH  48  62
ATOM     62  C   UNL A   1      49.012  27.115  29.163  1.00  0.00     0.023 A 
ATOM     63  C   UNL A   1      49.754  27.412  28.008  1.00  0.00     0.031 A 
ATOM     64  C   UNL A   1      49.664  26.441  30.212  1.00  0.00     0.131 A 
ATOM     65  C   UNL A   1      51.092  26.997  27.910  1.00  0.00     0.055 A 
ATOM     66  C   UNL A   1      51.014  26.096  30.139  1.00  0.00     0.041 A 
ATOM     67  F   UNL A   1      48.997  26.108  31.328  1.00  0.00    -0.206 F 
ATOM     68  C   UNL A   1      51.734  26.366  28.979  1.00  0.00     0.022 A 
BRANCH  65  69
ATOM     69  S   UNL A   1      51.951  27.194  26.326  1.00  0.00     0.124 S 
ATOM     70  O   UNL A   1      50.951  26.698  25.384  1.00  0.00    -0.237 OA
ATOM     71  O   UNL A   1      52.212  28.628  26.284  1.00  0.00    -0.237 OA
ATOM     72  O   UNL A   1      53.135  26.348  26.470  1.00  0.00    -0.744 OA
ENDBRANCH  65  69
ENDBRANCH  48  62
BRANCH  49  73
ATOM     73  C   UNL A   1      39.293  29.278  30.234  1.00  0.00     0.023 A 
ATOM     74  C   UNL A   1      38.590  30.195  29.437  1.00  0.00     0.031 A 
ATOM     75  C   UNL A   1      38.624  28.721  31.340  1.00  0.00     0.131 A 
ATOM     76  C   UNL A   1      37.289  30.583  29.797  1.00  0.00     0.055 A 
ATOM     77  C   UNL A   1      37.307  29.062  31.657  1.00  0.00     0.041 A 
ATOM     78  F   UNL A   1      39.245  27.837  32.137  1.00  0.00    -0.206 F 
ATOM     79  C   UNL A   1      36.639  30.014  30.894  1.00  0.00     0.022 A 
BRANCH  76  80
ATOM     80  S   UNL A   1      36.508  31.942  28.883  1.00  0.00     0.124 S 
ATOM     81  O   UNL A   1      37.605  32.899  28.784  1.00  0.00    -0.237 OA
ATOM     82  O   UNL A   1      36.118  31.284  27.641  1.00  0.00    -0.237 OA
ATOM     83  O   UNL A   1      35.403  32.344  29.749  1.00  0.00    -0.744 OA
ENDBRANCH  76  80
ENDBRANCH  49  73
BRANCH  61  84
ATOM     84  C   UNL A   1      45.192  32.599  31.932  1.00  0.00     0.023 A 
ATOM     85  C   UNL A   1      45.370  33.779  31.188  1.00  0.00     0.031 A 
ATOM     86  C   UNL A   1      45.272  32.687  33.334  1.00  0.00     0.131 A 
ATOM     87  C   UNL A   1      45.681  34.979  31.842  1.00  0.00     0.055 A 
ATOM     88  C   UNL A   1      45.509  33.899  33.983  1.00  0.00     0.041 A 
ATOM     89  F   UNL A   1      45.115  31.595  34.098  1.00  0.00    -0.206 F 
ATOM     90  C   UNL A   1      45.731  35.052  33.237  1.00  0.00     0.022 A 
BRANCH  87  91
ATOM     91  S   UNL A   1      46.125  36.425  30.842  1.00  0.00     0.124 S 
ATOM     92  O   UNL A   1      47.312  36.918  31.533  1.00  0.00    -0.237 OA
ATOM     93  O   UNL A   1      46.351  35.838  29.525  1.00  0.00    -0.237 OA
ATOM     94  O   UNL A   1      44.948  37.287  30.943  1.00  0.00    -0.744 OA
ENDBRANCH  87  91
ENDBRANCH  61  84
ENDBRANCH  35  36
ENDBRANCH  28  30
ENDBRANCH  27  28
ENDBRANCH  26  27
ENDBRANCH  25  26
ENDBRANCH  24  25
ENDBRANCH  23  24
ENDBRANCH  22  23
ENDBRANCH   1  22
TORSDOF 26
ENDMDL
MODEL 2
REMARK VINA RESULT:      -6.7      4.544     10.316
REMARK SMILES C[C@H](Cc1ccc(N)cc1)C(=O)OCCOCCOCCOCCOC(=O)c1ccc(-c2c3nc(c(-c4cc(S(=O)(=O)[O-])ccc4F)c4ccc([nH]4)c(-c4cc(S(=O)(=O)[O-])ccc4F)c4nc(c(-c5cc(S(=O)(=O)[O-])ccc5F)c5ccc2[nH]5)C=C4)C=C3)cc1
REMARK SMILES IDX 19 1 18 2 17 3 16 4 15 5 14 6 13 7 11 8 12 9 2 10 1 11 3 12
REMARK SMILES IDX 4 13 5 14 10 15 6 16 9 17 7 18 8 19 20 22 21 23 22 24 23 25
REMARK SMILES IDX 24 26 25 27 26 28 27 29 28 30 29 31 90 32 30 33 89 34 31 35
REMARK SMILES IDX 32 36 33 37 83 38 34 39 88 40 82 41 84 42 35 43 87 44 81 45
REMARK SMILES IDX 80 46 36 48 68 49 48 50 67 51 49 52 52 53 66 54 85 55 50 56
REMARK SMILES IDX 51 57 65 59 86 60 53 61 37 62 38 63 46 64 39 65 45 66 47 67
REMARK SMILES IDX 44 68 40 69 41 70 42 71 43 72 69 73 70 74 78 75 71 76 77 77
REMARK SMILES IDX 79 78 76 79 72 80 73 81 74 82 75 83 54 84 55 85 63 86 56 87
REMARK SMILES IDX 62 88 64 89 61 90 57 91 58 92 59 93 60 94
REMARK H PARENT 8 20 8 21 84 47 52 58
REMARK Flexibility Score: inf
ROOT
ATOM      1  O   UNL A   1      37.571  21.013  25.673  1.00  0.00    -0.377 OA
ENDROOT
BRANCH   1   2
ATOM      2  C   UNL A   1      36.567  21.343  24.740  1.00  0.00     0.188 C 
BRANCH   2   3
ATOM      3  C   UNL A   1      35.160  20.756  24.916  1.00  0.00     0.188 C 
BRANCH   3   4
ATOM      4  O   UNL A   1      34.111  21.327  24.172  1.00  0.00    -0.376 OA
BRANCH   4   5
ATOM      5  C   UNL A   1      33.133  22.153  24.783  1.00  0.00     0.202 C 
BRANCH   5   6
ATOM      6  C   UNL A   1      31.824  21.672  25.436  1.00  0.00     0.261 C 
BRANCH   6   7
ATOM      7  O   UNL A   1      30.675  22.521  25.358  1.00  0.00    -0.463 OA
BRANCH   7   8
ATOM      8  C   UNL A   1      30.610  23.528  26.253  1.00  0.00     0.309 C 
ATOM      9  O   UNL A   1      30.449  23.352  27.460  1.00  0.00    -0.252 OA
BRANCH   8  10
ATOM     10  C   UNL A   1      30.782  24.931  25.680  1.00  0.00     0.100 C 
ATOM     11  C   UNL A   1      30.451  24.866  24.188  1.00  0.00     0.020 C 
BRANCH  10  12
ATOM     12  C   UNL A   1      32.030  25.805  25.940  1.00  0.00     0.050 C 
BRANCH  12  13
ATOM     13  C   UNL A   1      32.000  27.306  26.059  1.00  0.00    -0.047 A 
ATOM     14  C   UNL A   1      32.213  28.178  24.994  1.00  0.00     0.006 A 
ATOM     15  C   UNL A   1      31.731  27.861  27.326  1.00  0.00     0.006 A 
ATOM     16  C   UNL A   1      32.232  29.563  25.206  1.00  0.00     0.026 A 
ATOM     17  C   UNL A   1      31.740  29.242  27.527  1.00  0.00     0.026 A 
ATOM     18  C   UNL A   1      31.983  30.108  26.466  1.00  0.00     0.031 A 
BRANCH  18  19
ATOM     19  N   UNL A   1      32.063  31.469  26.674  1.00  0.00    -0.399 N 
ATOM     20  H   UNL A   1      32.037  32.086  25.909  1.00  0.00     0.156 HD
ATOM     21  H   UNL A   1      32.148  31.823  27.589  1.00  0.00     0.156 HD
ENDBRANCH  18  19
ENDBRANCH  12  13
ENDBRANCH  10  12
ENDBRANCH   8  10
ENDBRANCH   7   8
ENDBRANCH   6   7
ENDBRANCH   5   6
ENDBRANCH   4   5
ENDBRANCH   3   4
ENDBRANCH   2   3
ENDBRANCH   1   2
BRANCH   1  22
ATOM     22  C   UNL A   1      38.792  21.737  25.733  1.00  0.00     0.188 C 
BRANCH  22  23
ATOM     23  C   UNL A   1      40.039  21.138  26.413  1.00  0.00     0.188 C 
BRANCH  23  24
ATOM     24  O   UNL A   1      40.944  20.487  25.537  1.00  0.00    -0.376 OA
BRANCH  24  25
ATOM     25  C   UNL A   1      42.158  19.998  26.087  1.00  0.00     0.202 C 
BRANCH  25  26
ATOM     26  C   UNL A   1      43.444  20.785  25.790  1.00  0.00     0.261 C 
BRANCH  26  27
ATOM     27  O   UNL A   1      43.450  22.172  26.170  1.00  0.00    -0.460 OA
BRANCH  27  28
ATOM     28  C   UNL A   1      43.627  23.094  25.200  1.00  0.00     0.338 C 
ATOM     29  O   UNL A   1      43.495  22.927  23.998  1.00  0.00    -0.246 OA
BRANCH  28  30
ATOM     30  C   UNL A   1      43.842  24.401  25.853  1.00  0.00     0.060 A 
ATOM     31  C   UNL A   1      44.278  24.439  27.183  1.00  0.00     0.016 A 
ATOM     32  C   UNL A   1      43.621  25.588  25.150  1.00  0.00     0.016 A 
ATOM     33  C   UNL A   1      44.483  25.666  27.820  1.00  0.00     0.010 A 
ATOM     34  C   UNL A   1      43.805  26.814  25.798  1.00  0.00     0.010 A 
ATOM     35  C   UNL A   1      44.220  26.862  27.141  1.00  0.00    -0.014 A 
BRANCH  35  36
ATOM     36  C   UNL A   1      44.240  28.158  27.870  1.00  0.00     0.031 A 
ATOM     37  C   UNL A   1      42.942  28.719  28.383  1.00  0.00     0.074 A 
ATOM     38  C   UNL A   1      45.391  28.825  28.079  1.00  0.00     0.049 A 
ATOM     39  N   UNL A   1      42.703  29.869  28.955  1.00  0.00    -0.248 NA
ATOM     40  C   UNL A   1      41.756  27.859  28.239  1.00  0.00     0.031 C 
ATOM     41  C   UNL A   1      46.723  28.346  27.717  1.00  0.00     0.029 A 
ATOM     42  N   UNL A   1      45.621  30.063  28.631  1.00  0.00    -0.354 N 
ATOM     43  C   UNL A   1      41.343  29.874  29.245  1.00  0.00     0.074 A 
ATOM     44  C   UNL A   1      40.803  28.624  28.752  1.00  0.00     0.031 C 
ATOM     45  C   UNL A   1      47.626  29.300  28.006  1.00  0.00     0.029 A 
ATOM     46  C   UNL A   1      46.934  30.468  28.546  1.00  0.00     0.049 A 
ATOM     47  H   UNL A   1      44.916  30.607  29.049  1.00  0.00     0.167 HD
ATOM     48  C   UNL A   1      40.616  30.829  29.873  1.00  0.00     0.034 A 
ATOM     49  C   UNL A   1      47.505  31.657  28.831  1.00  0.00     0.034 A 
ATOM     50  C   UNL A   1      41.166  32.073  30.351  1.00  0.00     0.049 A 
ATOM     51  C   UNL A   1      46.645  32.761  29.404  1.00  0.00     0.074 A 
ATOM     52  C   UNL A   1      40.520  33.095  31.025  1.00  0.00     0.029 A 
ATOM     53  N   UNL A   1      42.486  32.476  30.191  1.00  0.00    -0.354 N 
ATOM     54  N   UNL A   1      45.363  32.744  29.694  1.00  0.00    -0.248 NA
ATOM     55  C   UNL A   1      47.309  34.036  29.706  1.00  0.00     0.031 C 
ATOM     56  C   UNL A   1      41.422  34.150  31.189  1.00  0.00     0.029 A 
ATOM     57  C   UNL A   1      42.658  33.752  30.706  1.00  0.00     0.049 A 
ATOM     58  H   UNL A   1      43.193  31.935  29.773  1.00  0.00     0.167 HD
ATOM     59  C   UNL A   1      45.083  33.991  30.252  1.00  0.00     0.074 A 
ATOM     60  C   UNL A   1      46.329  34.726  30.271  1.00  0.00     0.031 C 
ATOM     61  C   UNL A   1      43.904  34.481  30.712  1.00  0.00     0.034 A 
BRANCH  48  62
ATOM     62  C   UNL A   1      39.134  30.594  30.032  1.00  0.00     0.023 A 
ATOM     63  C   UNL A   1      38.186  31.226  29.211  1.00  0.00     0.031 A 
ATOM     64  C   UNL A   1      38.667  29.703  31.016  1.00  0.00     0.131 A 
ATOM     65  C   UNL A   1      36.817  30.993  29.416  1.00  0.00     0.055 A 
ATOM     66  C   UNL A   1      37.309  29.419  31.167  1.00  0.00     0.041 A 
ATOM     67  F   UNL A   1      39.525  29.091  31.846  1.00  0.00    -0.206 F 
ATOM     68  C   UNL A   1      36.374  30.073  30.370  1.00  0.00     0.022 A 
BRANCH  65  69
ATOM     69  S   UNL A   1      35.615  31.991  28.495  1.00  0.00     0.124 S 
ATOM     70  O   UNL A   1      34.614  32.269  29.522  1.00  0.00    -0.237 OA
ATOM     71  O   UNL A   1      36.417  33.129  28.061  1.00  0.00    -0.237 OA
ATOM     72  O   UNL A   1      35.172  31.096  27.428  1.00  0.00    -0.744 OA
ENDBRANCH  65  69
ENDBRANCH  48  62
BRANCH  49  73
ATOM     73  C   UNL A   1      48.947  31.907  28.534  1.00  0.00     0.023 A 
ATOM     74  C   UNL A   1      49.348  32.540  27.347  1.00  0.00     0.031 A 
ATOM     75  C   UNL A   1      49.954  31.423  29.392  1.00  0.00     0.131 A 
ATOM     76  C   UNL A   1      50.711  32.608  27.014  1.00  0.00     0.055 A 
ATOM     77  C   UNL A   1      51.311  31.551  29.086  1.00  0.00     0.041 A 
ATOM     78  F   UNL A   1      49.632  30.811  30.543  1.00  0.00    -0.206 F 
ATOM     79  C   UNL A   1      51.695  32.129  27.881  1.00  0.00     0.022 A 
BRANCH  76  80
ATOM     80  S   UNL A   1      51.169  33.216  25.367  1.00  0.00     0.124 S 
ATOM     81  O   UNL A   1      52.414  33.922  25.650  1.00  0.00    -0.237 OA
ATOM     82  O   UNL A   1      51.293  31.973  24.612  1.00  0.00    -0.237 OA
ATOM     83  O   UNL A   1      50.041  34.063  24.991  1.00  0.00    -0.744 OA
ENDBRANCH  76  80
ENDBRANCH  49  73
BRANCH  61  84
ATOM     84  C   UNL A   1      43.920  35.864  31.320  1.00  0.00     0.023 A 
ATOM     85  C   UNL A   1      43.985  36.062  32.710  1.00  0.00     0.031 A 
ATOM     86  C   UNL A   1      43.860  37.002  30.495  1.00  0.00     0.131 A 
ATOM     87  C   UNL A   1      43.925  37.361  33.236  1.00  0.00     0.055 A 
ATOM     88  C   UNL A   1      43.874  38.295  31.022  1.00  0.00     0.041 A 
ATOM     89  F   UNL A   1      43.791  36.878  29.160  1.00  0.00    -0.206 F 
ATOM     90  C   UNL A   1      43.891  38.480  32.400  1.00  0.00     0.022 A 
BRANCH  87  91
ATOM     91  S   UNL A   1      43.784  37.566  35.033  1.00  0.00     0.124 S 
ATOM     92  O   UNL A   1      43.839  39.017  35.176  1.00  0.00    -0.237 OA
ATOM     93  O   UNL A   1      42.495  36.945  35.319  1.00  0.00    -0.237 OA
ATOM     94  O   UNL A   1      44.947  36.847  35.552  1.00  0.00    -0.744 OA
ENDBRANCH  87  91
ENDBRANCH  61  84
ENDBRANCH  35  36
ENDBRANCH  28  30
ENDBRANCH  27  28
ENDBRANCH  26  27
ENDBRANCH  25  26
ENDBRANCH  24  25
ENDBRANCH  23  24
ENDBRANCH  22  23
ENDBRANCH   1  22
TORSDOF 26
ENDMDL
MODEL 3
REMARK VINA RESULT:      -6.4      5.589     11.848
REMARK SMILES C[C@H](Cc1ccc(N)cc1)C(=O)OCCOCCOCCOCCOC(=O)c1ccc(-c2c3nc(c(-c4cc(S(=O)(=O)[O-])ccc4F)c4ccc([nH]4)c(-c4cc(S(=O)(=O)[O-])ccc4F)c4nc(c(-c5cc(S(=O)(=O)[O-])ccc5F)c5ccc2[nH]5)C=C4)C=C3)cc1
REMARK SMILES IDX 19 1 18 2 17 3 16 4 15 5 14 6 13 7 11 8 12 9 2 10 1 11 3 12
REMARK SMILES IDX 4 13 5 14 10 15 6 16 9 17 7 18 8 19 20 22 21 23 22 24 23 25
REMARK SMILES IDX 24 26 25 27 26 28 27 29 28 30 29 31 90 32 30 33 89 34 31 35
REMARK SMILES IDX 32 36 33 37 83 38 34 39 88 40 82 41 84 42 35 43 87 44 81 45
REMARK SMILES IDX 80 46 36 48 68 49 48 50 67 51 49 52 52 53 66 54 85 55 50 56
REMARK SMILES IDX 51 57 65 59 86 60 53 61 37 62 38 63 46 64 39 65 45 66 47 67
REMARK SMILES IDX 44 68 40 69 41 70 42 71 43 72 69 73 70 74 78 75 71 76 77 77
REMARK SMILES IDX 79 78 76 79 72 80 73 81 74 82 75 83 54 84 55 85 63 86 56 87
REMARK SMILES IDX 62 88 64 89 61 90 57 91 58 92 59 93 60 94
REMARK H PARENT 8 20 8 21 84 47 52 58
REMARK Flexibility Score: inf
ROOT
ATOM      1  O   UNL A   1      39.598  19.133  25.718  1.00  0.00    -0.377 OA
ENDROOT
BRANCH   1   2
ATOM      2  C   UNL A   1      38.500  19.632  24.988  1.00  0.00     0.188 C 
BRANCH   2   3
ATOM      3  C   UNL A   1      37.910  20.997  25.367  1.00  0.00     0.188 C 
BRANCH   3   4
ATOM      4  O   UNL A   1      36.703  21.384  24.756  1.00  0.00    -0.376 OA
BRANCH   4   5
ATOM      5  C   UNL A   1      35.506  20.648  24.949  1.00  0.00     0.202 C 
BRANCH   5   6
ATOM      6  C   UNL A   1      35.380  19.114  24.968  1.00  0.00     0.261 C 
BRANCH   6   7
ATOM      7  O   UNL A   1      34.332  18.509  24.206  1.00  0.00    -0.463 OA
BRANCH   7   8
ATOM      8  C   UNL A   1      33.070  18.784  24.595  1.00  0.00     0.309 C 
ATOM      9  O   UNL A   1      32.643  18.548  25.725  1.00  0.00    -0.252 OA
BRANCH   8  10
ATOM     10  C   UNL A   1      32.186  19.450  23.546  1.00  0.00     0.100 C 
ATOM     11  C   UNL A   1      32.222  18.578  22.289  1.00  0.00     0.020 C 
BRANCH  10  12
ATOM     12  C   UNL A   1      32.278  20.951  23.189  1.00  0.00     0.050 C 
BRANCH  12  13
ATOM     13  C   UNL A   1      31.795  22.062  24.084  1.00  0.00    -0.047 A 
ATOM     14  C   UNL A   1      31.466  21.895  25.428  1.00  0.00     0.006 A 
ATOM     15  C   UNL A   1      31.674  23.350  23.528  1.00  0.00     0.006 A 
ATOM     16  C   UNL A   1      30.961  22.970  26.171  1.00  0.00     0.026 A 
ATOM     17  C   UNL A   1      31.181  24.419  24.278  1.00  0.00     0.026 A 
ATOM     18  C   UNL A   1      30.827  24.241  25.611  1.00  0.00     0.031 A 
BRANCH  18  19
ATOM     19  N   UNL A   1      30.273  25.276  26.335  1.00  0.00    -0.399 N 
ATOM     20  H   UNL A   1      30.277  26.189  25.970  1.00  0.00     0.156 HD
ATOM     21  H   UNL A   1      29.874  25.100  27.218  1.00  0.00     0.156 HD
ENDBRANCH  18  19
ENDBRANCH  12  13
ENDBRANCH  10  12
ENDBRANCH   8  10
ENDBRANCH   7   8
ENDBRANCH   6   7
ENDBRANCH   5   6
ENDBRANCH   4   5
ENDBRANCH   3   4
ENDBRANCH   2   3
ENDBRANCH   1   2
BRANCH   1  22
ATOM     22  C   UNL A   1      40.788  19.893  25.876  1.00  0.00     0.188 C 
BRANCH  22  23
ATOM     23  C   UNL A   1      42.144  19.206  26.132  1.00  0.00     0.188 C 
BRANCH  23  24
ATOM     24  O   UNL A   1      42.997  19.126  25.002  1.00  0.00    -0.376 OA
BRANCH  24  25
ATOM     25  C   UNL A   1      44.009  20.112  24.869  1.00  0.00     0.202 C 
BRANCH  25  26
ATOM     26  C   UNL A   1      43.907  21.363  25.755  1.00  0.00     0.261 C 
BRANCH  26  27
ATOM     27  O   UNL A   1      43.088  22.435  25.259  1.00  0.00    -0.460 OA
BRANCH  27  28
ATOM     28  C   UNL A   1      42.530  23.274  26.157  1.00  0.00     0.338 C 
ATOM     29  O   UNL A   1      41.548  23.058  26.850  1.00  0.00    -0.246 OA
BRANCH  28  30
ATOM     30  C   UNL A   1      43.417  24.448  26.292  1.00  0.00     0.060 A 
ATOM     31  C   UNL A   1      43.749  25.190  25.152  1.00  0.00     0.016 A 
ATOM     32  C   UNL A   1      43.914  24.819  27.543  1.00  0.00     0.016 A 
ATOM     33  C   UNL A   1      44.590  26.301  25.259  1.00  0.00     0.010 A 
ATOM     34  C   UNL A   1      44.775  25.917  27.643  1.00  0.00     0.010 A 
ATOM     35  C   UNL A   1      45.132  26.655  26.499  1.00  0.00    -0.014 A 
BRANCH  35  36
ATOM     36  C   UNL A   1      46.182  27.704  26.588  1.00  0.00     0.031 A 
ATOM     37  C   UNL A   1      45.761  29.148  26.610  1.00  0.00     0.074 A 
ATOM     38  C   UNL A   1      47.488  27.383  26.655  1.00  0.00     0.049 A 
ATOM     39  N   UNL A   1      46.497  30.228  26.585  1.00  0.00    -0.248 NA
ATOM     40  C   UNL A   1      44.313  29.406  26.680  1.00  0.00     0.031 C 
ATOM     41  C   UNL A   1      48.021  26.025  26.737  1.00  0.00     0.029 A 
ATOM     42  N   UNL A   1      48.608  28.180  26.643  1.00  0.00    -0.354 N 
ATOM     43  C   UNL A   1      45.606  31.295  26.640  1.00  0.00     0.074 A 
ATOM     44  C   UNL A   1      44.273  30.730  26.664  1.00  0.00     0.031 C 
ATOM     45  C   UNL A   1      49.364  26.079  26.713  1.00  0.00     0.029 A 
ATOM     46  C   UNL A   1      49.787  27.471  26.585  1.00  0.00     0.049 A 
ATOM     47  H   UNL A   1      48.571  29.163  26.675  1.00  0.00     0.167 HD
ATOM     48  C   UNL A   1      45.878  32.622  26.678  1.00  0.00     0.034 A 
ATOM     49  C   UNL A   1      51.057  27.895  26.407  1.00  0.00     0.034 A 
ATOM     50  C   UNL A   1      47.212  33.170  26.645  1.00  0.00     0.049 A 
ATOM     51  C   UNL A   1      51.324  29.380  26.311  1.00  0.00     0.074 A 
ATOM     52  C   UNL A   1      47.596  34.498  26.705  1.00  0.00     0.029 A 
ATOM     53  N   UNL A   1      48.378  32.426  26.522  1.00  0.00    -0.354 N 
ATOM     54  N   UNL A   1      50.474  30.379  26.388  1.00  0.00    -0.248 NA
ATOM     55  C   UNL A   1      52.721  29.796  26.125  1.00  0.00     0.031 C 
ATOM     56  C   UNL A   1      48.981  34.562  26.527  1.00  0.00     0.029 A 
ATOM     57  C   UNL A   1      49.475  33.270  26.452  1.00  0.00     0.049 A 
ATOM     58  H   UNL A   1      48.418  31.443  26.489  1.00  0.00     0.167 HD
ATOM     59  C   UNL A   1      51.243  31.540  26.302  1.00  0.00     0.074 A 
ATOM     60  C   UNL A   1      52.621  31.115  26.184  1.00  0.00     0.031 C 
ATOM     61  C   UNL A   1      50.846  32.837  26.325  1.00  0.00     0.034 A 
BRANCH  48  62
ATOM     62  C   UNL A   1      44.712  33.579  26.703  1.00  0.00     0.023 A 
ATOM     63  C   UNL A   1      44.223  34.126  27.901  1.00  0.00     0.031 A 
ATOM     64  C   UNL A   1      44.093  33.963  25.500  1.00  0.00     0.131 A 
ATOM     65  C   UNL A   1      43.119  34.994  27.873  1.00  0.00     0.055 A 
ATOM     66  C   UNL A   1      43.043  34.882  25.472  1.00  0.00     0.041 A 
ATOM     67  F   UNL A   1      44.502  33.451  24.328  1.00  0.00    -0.206 F 
ATOM     68  C   UNL A   1      42.544  35.396  26.664  1.00  0.00     0.022 A 
BRANCH  65  69
ATOM     69  S   UNL A   1      42.371  35.503  29.445  1.00  0.00     0.124 S 
ATOM     70  O   UNL A   1      42.919  36.848  29.609  1.00  0.00    -0.237 OA
ATOM     71  O   UNL A   1      40.944  35.426  29.155  1.00  0.00    -0.237 OA
ATOM     72  O   UNL A   1      42.869  34.514  30.398  1.00  0.00    -0.744 OA
ENDBRANCH  65  69
ENDBRANCH  48  62
BRANCH  49  73
ATOM     73  C   UNL A   1      52.175  26.918  26.247  1.00  0.00     0.023 A 
ATOM     74  C   UNL A   1      53.152  26.758  27.243  1.00  0.00     0.031 A 
ATOM     75  C   UNL A   1      52.339  26.200  25.047  1.00  0.00     0.131 A 
ATOM     76  C   UNL A   1      54.281  25.962  26.996  1.00  0.00     0.055 A 
ATOM     77  C   UNL A   1      53.432  25.359  24.831  1.00  0.00     0.041 A 
ATOM     78  F   UNL A   1      51.436  26.311  24.059  1.00  0.00    -0.206 F 
ATOM     79  C   UNL A   1      54.423  25.252  25.802  1.00  0.00     0.022 A 
BRANCH  76  80
ATOM     80  S   UNL A   1      55.630  25.974  28.210  1.00  0.00     0.124 S 
ATOM     81  O   UNL A   1      56.648  25.183  27.527  1.00  0.00    -0.237 OA
ATOM     82  O   UNL A   1      55.905  27.400  28.340  1.00  0.00    -0.237 OA
ATOM     83  O   UNL A   1      55.034  25.345  29.386  1.00  0.00    -0.744 OA
ENDBRANCH  76  80
ENDBRANCH  49  73
BRANCH  61  84
ATOM     84  C   UNL A   1      51.927  33.892  26.269  1.00  0.00     0.023 A 
ATOM     85  C   UNL A   1      52.396  34.408  25.048  1.00  0.00     0.031 A 
ATOM     86  C   UNL A   1      52.501  34.384  27.455  1.00  0.00     0.131 A 
ATOM     87  C   UNL A   1      53.450  35.333  25.037  1.00  0.00     0.055 A 
ATOM     88  C   UNL A   1      53.499  35.359  27.441  1.00  0.00     0.041 A 
ATOM     89  F   UNL A   1      52.098  33.927  28.651  1.00  0.00    -0.206 F 
ATOM     90  C   UNL A   1      53.991  35.828  26.227  1.00  0.00     0.022 A 
BRANCH  87  91
ATOM     91  S   UNL A   1      54.178  35.804  23.444  1.00  0.00     0.124 S 
ATOM     92  O   UNL A   1      53.521  34.878  22.527  1.00  0.00    -0.237 OA
ATOM     93  O   UNL A   1      53.788  37.205  23.324  1.00  0.00    -0.237 OA
ATOM     94  O   UNL A   1      55.608  35.573  23.639  1.00  0.00    -0.744 OA
ENDBRANCH  87  91
ENDBRANCH  61  84
ENDBRANCH  35  36
ENDBRANCH  28  30
ENDBRANCH  27  28
ENDBRANCH  26  27
ENDBRANCH  25  26
ENDBRANCH  24  25
ENDBRANCH  23  24
ENDBRANCH  22  23
ENDBRANCH   1  22
TORSDOF 26
ENDMDL
