MODEL 1
REMARK VINA RESULT:      -9.1      0.000      0.000
REMARK SMILES Cc1cc(C(=O)N2CCC[C@@H]2C)sc1/C=C/C(=O)OCCOCCOCCOCCOC(=O)c1ccc(-c2c3nc(c(-c4cc(S(=O)(=O)[O-])ccc4F)c4ccc([nH]4)c(-c4cc(S(=O)(=O)[O-])ccc4F)c4nc(c(-c5cc(S(=O)(=O)[O-])ccc5F)c5ccc2[nH]5)C=C4)C=C3)cc1
REMARK SMILES IDX 25 1 24 2 23 3 22 4 21 5 20 6 19 7 17 8 18 9 16 10 15 11
REMARK SMILES IDX 14 12 1 13 2 14 3 15 4 16 13 17 5 18 6 19 7 20 8 21 11 22
REMARK SMILES IDX 9 23 10 24 12 25 26 26 27 27 28 28 29 29 30 30 31 31 32 32
REMARK SMILES IDX 33 33 34 34 35 35 96 36 36 37 95 38 37 39 38 40 39 41 89 42
REMARK SMILES IDX 40 43 94 44 88 45 90 46 41 47 93 48 87 49 86 50 42 52 74 53
REMARK SMILES IDX 54 54 73 55 55 56 58 57 72 58 91 59 56 60 57 61 71 63 92 64
REMARK SMILES IDX 59 65 43 66 44 67 52 68 45 69 51 70 53 71 50 72 46 73 47 74
REMARK SMILES IDX 48 75 49 76 75 77 76 78 84 79 77 80 83 81 85 82 82 83 78 84
REMARK SMILES IDX 79 85 80 86 81 87 60 88 61 89 69 90 62 91 68 92 70 93 67 94
REMARK SMILES IDX 63 95 64 96 65 97 66 98
REMARK H PARENT 90 51 58 62
REMARK Flexibility Score: inf
ROOT
ATOM      1  O   UNL A   1      34.828  24.472  24.516  1.00  0.00    -0.377 OA
ENDROOT
BRANCH   1   2
ATOM      2  C   UNL A   1      34.039  25.121  23.535  1.00  0.00     0.188 C 
BRANCH   2   3
ATOM      3  C   UNL A   1      33.980  26.654  23.657  1.00  0.00     0.188 C 
BRANCH   3   4
ATOM      4  O   UNL A   1      33.162  27.104  24.722  1.00  0.00    -0.376 OA
BRANCH   4   5
ATOM      5  C   UNL A   1      32.123  28.039  24.492  1.00  0.00     0.202 C 
BRANCH   5   6
ATOM      6  C   UNL A   1      30.646  27.637  24.331  1.00  0.00     0.261 C 
BRANCH   6   7
ATOM      7  O   UNL A   1      30.357  26.245  24.190  1.00  0.00    -0.460 OA
BRANCH   7   8
ATOM      8  C   UNL A   1      30.377  25.483  25.300  1.00  0.00     0.330 C 
ATOM      9  O   UNL A   1      29.895  25.768  26.384  1.00  0.00    -0.247 OA
BRANCH   8  10
ATOM     10  C   UNL A   1      30.943  24.146  25.004  1.00  0.00     0.095 C 
ATOM     11  C   UNL A   1      31.768  23.475  25.828  1.00  0.00     0.027 C 
BRANCH  11  12
ATOM     12  C   UNL A   1      32.324  22.189  25.518  1.00  0.00     0.031 A 
ATOM     13  C   UNL A   1      33.807  21.802  27.597  1.00  0.00     0.046 C 
ATOM     14  C   UNL A   1      33.227  21.433  26.264  1.00  0.00    -0.032 A 
ATOM     15  C   UNL A   1      33.485  20.159  25.650  1.00  0.00     0.029 A 
ATOM     16  C   UNL A   1      32.790  19.957  24.475  1.00  0.00     0.093 A 
ATOM     17  S   UNL A   1      31.923  21.361  24.057  1.00  0.00    -0.130 S 
BRANCH  16  18
ATOM     18  C   UNL A   1      32.612  18.680  23.788  1.00  0.00     0.264 C 
ATOM     19  O   UNL A   1      32.277  18.641  22.600  1.00  0.00    -0.268 OA
BRANCH  18  20
ATOM     20  N   UNL A   1      32.942  17.496  24.429  1.00  0.00    -0.335 N 
ATOM     21  C   UNL A   1      32.261  17.120  25.644  1.00  0.00     0.120 C 
ATOM     22  C   UNL A   1      34.092  16.628  24.187  1.00  0.00     0.082 C 
ATOM     23  C   UNL A   1      32.449  15.616  25.676  1.00  0.00     0.024 C 
ATOM     24  C   UNL A   1      33.856  15.419  25.116  1.00  0.00     0.026 C 
ATOM     25  C   UNL A   1      35.398  17.334  24.558  1.00  0.00     0.031 C 
ENDBRANCH  18  20
ENDBRANCH  16  18
ENDBRANCH  11  12
ENDBRANCH   8  10
ENDBRANCH   7   8
ENDBRANCH   6   7
ENDBRANCH   5   6
ENDBRANCH   4   5
ENDBRANCH   3   4
ENDBRANCH   2   3
ENDBRANCH   1   2
BRANCH   1  26
ATOM     26  C   UNL A   1      35.660  23.375  24.133  1.00  0.00     0.188 C 
BRANCH  26  27
ATOM     27  C   UNL A   1      36.554  22.598  25.132  1.00  0.00     0.188 C 
BRANCH  27  28
ATOM     28  O   UNL A   1      37.533  21.760  24.534  1.00  0.00    -0.376 OA
BRANCH  28  29
ATOM     29  C   UNL A   1      37.440  20.367  24.777  1.00  0.00     0.202 C 
BRANCH  29  30
ATOM     30  C   UNL A   1      38.515  19.785  25.704  1.00  0.00     0.261 C 
BRANCH  30  31
ATOM     31  O   UNL A   1      39.857  20.227  25.457  1.00  0.00    -0.460 OA
BRANCH  31  32
ATOM     32  C   UNL A   1      40.707  20.223  26.508  1.00  0.00     0.338 C 
ATOM     33  O   UNL A   1      41.260  19.251  26.997  1.00  0.00    -0.246 OA
BRANCH  32  34
ATOM     34  C   UNL A   1      41.003  21.628  26.851  1.00  0.00     0.060 A 
ATOM     35  C   UNL A   1      41.035  22.589  25.832  1.00  0.00     0.016 A 
ATOM     36  C   UNL A   1      41.234  21.994  28.179  1.00  0.00     0.016 A 
ATOM     37  C   UNL A   1      41.335  23.919  26.138  1.00  0.00     0.010 A 
ATOM     38  C   UNL A   1      41.551  23.322  28.480  1.00  0.00     0.010 A 
ATOM     39  C   UNL A   1      41.635  24.284  27.458  1.00  0.00    -0.014 A 
BRANCH  39  40
ATOM     40  C   UNL A   1      42.226  25.615  27.743  1.00  0.00     0.031 A 
ATOM     41  C   UNL A   1      41.368  26.640  28.437  1.00  0.00     0.074 A 
ATOM     42  C   UNL A   1      43.495  25.910  27.409  1.00  0.00     0.049 A 
ATOM     43  N   UNL A   1      41.628  27.887  28.728  1.00  0.00    -0.248 NA
ATOM     44  C   UNL A   1      40.029  26.189  28.851  1.00  0.00     0.031 C 
ATOM     45  C   UNL A   1      44.439  24.988  26.779  1.00  0.00     0.029 A 
ATOM     46  N   UNL A   1      44.206  27.077  27.545  1.00  0.00    -0.354 N 
ATOM     47  C   UNL A   1      40.486  28.374  29.356  1.00  0.00     0.074 A 
ATOM     48  C   UNL A   1      39.518  27.297  29.362  1.00  0.00     0.031 C 
ATOM     49  C   UNL A   1      45.603  25.630  26.575  1.00  0.00     0.029 A 
ATOM     50  C   UNL A   1      45.474  27.019  27.016  1.00  0.00     0.049 A 
ATOM     51  H   UNL A   1      43.841  27.882  27.982  1.00  0.00     0.167 HD
ATOM     52  C   UNL A   1      40.269  29.603  29.886  1.00  0.00     0.034 A 
ATOM     53  C   UNL A   1      46.409  27.983  26.877  1.00  0.00     0.034 A 
ATOM     54  C   UNL A   1      41.238  30.670  29.856  1.00  0.00     0.049 A 
ATOM     55  C   UNL A   1      46.107  29.376  27.382  1.00  0.00     0.074 A 
ATOM     56  C   UNL A   1      41.124  31.950  30.367  1.00  0.00     0.029 A 
ATOM     57  N   UNL A   1      42.494  30.588  29.267  1.00  0.00    -0.354 N 
ATOM     58  N   UNL A   1      45.025  29.825  27.978  1.00  0.00    -0.248 NA
ATOM     59  C   UNL A   1      47.155  30.390  27.202  1.00  0.00     0.031 C 
ATOM     60  C   UNL A   1      42.274  32.666  30.017  1.00  0.00     0.029 A 
ATOM     61  C   UNL A   1      43.148  31.807  29.369  1.00  0.00     0.049 A 
ATOM     62  H   UNL A   1      42.865  29.783  28.839  1.00  0.00     0.167 HD
ATOM     63  C   UNL A   1      45.281  31.163  28.275  1.00  0.00     0.074 A 
ATOM     64  C   UNL A   1      46.621  31.442  27.804  1.00  0.00     0.031 C 
ATOM     65  C   UNL A   1      44.484  32.077  28.888  1.00  0.00     0.034 A 
BRANCH  52  66
ATOM     66  C   UNL A   1      38.909  29.866  30.490  1.00  0.00     0.023 A 
ATOM     67  C   UNL A   1      37.902  30.544  29.781  1.00  0.00     0.031 A 
ATOM     68  C   UNL A   1      38.629  29.462  31.807  1.00  0.00     0.131 A 
ATOM     69  C   UNL A   1      36.692  30.862  30.417  1.00  0.00     0.055 A 
ATOM     70  C   UNL A   1      37.391  29.706  32.404  1.00  0.00     0.041 A 
ATOM     71  F   UNL A   1      39.559  28.837  32.544  1.00  0.00    -0.206 F 
ATOM     72  C   UNL A   1      36.418  30.424  31.714  1.00  0.00     0.022 A 
BRANCH  69  73
ATOM     73  S   UNL A   1      35.545  31.992  29.579  1.00  0.00     0.124 S 
ATOM     74  O   UNL A   1      34.626  32.336  30.662  1.00  0.00    -0.237 OA
ATOM     75  O   UNL A   1      36.429  33.060  29.127  1.00  0.00    -0.237 OA
ATOM     76  O   UNL A   1      34.967  31.168  28.520  1.00  0.00    -0.744 OA
ENDBRANCH  69  73
ENDBRANCH  52  66
BRANCH  53  77
ATOM     77  C   UNL A   1      47.703  27.692  26.191  1.00  0.00     0.023 A 
ATOM     78  C   UNL A   1      47.833  27.807  24.797  1.00  0.00     0.031 A 
ATOM     79  C   UNL A   1      48.815  27.227  26.917  1.00  0.00     0.131 A 
ATOM     80  C   UNL A   1      49.026  27.414  24.170  1.00  0.00     0.055 A 
ATOM     81  C   UNL A   1      50.021  26.897  26.295  1.00  0.00     0.041 A 
ATOM     82  F   UNL A   1      48.746  27.090  28.251  1.00  0.00    -0.206 F 
ATOM     83  C   UNL A   1      50.127  26.977  24.911  1.00  0.00     0.022 A 
BRANCH  80  84
ATOM     84  S   UNL A   1      49.089  27.393  22.357  1.00  0.00     0.124 S 
ATOM     85  O   UNL A   1      50.508  27.618  22.108  1.00  0.00    -0.237 OA
ATOM     86  O   UNL A   1      48.586  26.058  22.052  1.00  0.00    -0.237 OA
ATOM     87  O   UNL A   1      48.206  28.492  21.973  1.00  0.00    -0.744 OA
ENDBRANCH  80  84
ENDBRANCH  53  77
BRANCH  65  88
ATOM     88  C   UNL A   1      45.065  33.451  29.137  1.00  0.00     0.023 A 
ATOM     89  C   UNL A   1      45.774  33.760  30.310  1.00  0.00     0.031 A 
ATOM     90  C   UNL A   1      44.902  34.468  28.177  1.00  0.00     0.131 A 
ATOM     91  C   UNL A   1      46.243  35.067  30.520  1.00  0.00     0.055 A 
ATOM     92  C   UNL A   1      45.432  35.745  28.361  1.00  0.00     0.041 A 
ATOM     93  F   UNL A   1      44.231  34.233  27.039  1.00  0.00    -0.206 F 
ATOM     94  C   UNL A   1      46.094  36.055  29.545  1.00  0.00     0.022 A 
BRANCH  91  95
ATOM     95  S   UNL A   1      46.963  35.486  32.132  1.00  0.00     0.124 S 
ATOM     96  O   UNL A   1      46.739  36.925  32.198  1.00  0.00    -0.237 OA
ATOM     97  O   UNL A   1      46.169  34.674  33.049  1.00  0.00    -0.237 OA
ATOM     98  O   UNL A   1      48.361  35.080  31.999  1.00  0.00    -0.744 OA
ENDBRANCH  91  95
ENDBRANCH  65  88
ENDBRANCH  39  40
ENDBRANCH  32  34
ENDBRANCH  31  32
ENDBRANCH  30  31
ENDBRANCH  29  30
ENDBRANCH  28  29
ENDBRANCH  27  28
ENDBRANCH  26  27
ENDBRANCH   1  26
TORSDOF 26
ENDMDL
MODEL 2
REMARK VINA RESULT:      -8.9      2.124      2.523
REMARK SMILES Cc1cc(C(=O)N2CCC[C@@H]2C)sc1/C=C/C(=O)OCCOCCOCCOCCOC(=O)c1ccc(-c2c3nc(c(-c4cc(S(=O)(=O)[O-])ccc4F)c4ccc([nH]4)c(-c4cc(S(=O)(=O)[O-])ccc4F)c4nc(c(-c5cc(S(=O)(=O)[O-])ccc5F)c5ccc2[nH]5)C=C4)C=C3)cc1
REMARK SMILES IDX 25 1 24 2 23 3 22 4 21 5 20 6 19 7 17 8 18 9 16 10 15 11
REMARK SMILES IDX 14 12 1 13 2 14 3 15 4 16 13 17 5 18 6 19 7 20 8 21 11 22
REMARK SMILES IDX 9 23 10 24 12 25 26 26 27 27 28 28 29 29 30 30 31 31 32 32
REMARK SMILES IDX 33 33 34 34 35 35 96 36 36 37 95 38 37 39 38 40 39 41 89 42
REMARK SMILES IDX 40 43 94 44 88 45 90 46 41 47 93 48 87 49 86 50 42 52 74 53
REMARK SMILES IDX 54 54 73 55 55 56 58 57 72 58 91 59 56 60 57 61 71 63 92 64
REMARK SMILES IDX 59 65 43 66 44 67 52 68 45 69 51 70 53 71 50 72 46 73 47 74
REMARK SMILES IDX 48 75 49 76 75 77 76 78 84 79 77 80 83 81 85 82 82 83 78 84
REMARK SMILES IDX 79 85 80 86 81 87 60 88 61 89 69 90 62 91 68 92 70 93 67 94
REMARK SMILES IDX 63 95 64 96 65 97 66 98
REMARK H PARENT 90 51 58 62
REMARK Flexibility Score: inf
ROOT
ATOM      1  O   UNL A   1      34.483  24.952  25.824  1.00  0.00    -0.377 OA
ENDROOT
BRANCH   1   2
ATOM      2  C   UNL A   1      34.079  26.195  25.279  1.00  0.00     0.188 C 
BRANCH   2   3
ATOM      3  C   UNL A   1      33.364  27.137  26.264  1.00  0.00     0.188 C 
BRANCH   3   4
ATOM      4  O   UNL A   1      32.086  27.553  25.820  1.00  0.00    -0.376 OA
BRANCH   4   5
ATOM      5  C   UNL A   1      31.943  28.311  24.631  1.00  0.00     0.202 C 
BRANCH   5   6
ATOM      6  C   UNL A   1      31.199  27.796  23.386  1.00  0.00     0.261 C 
BRANCH   6   7
ATOM      7  O   UNL A   1      31.292  26.399  23.098  1.00  0.00    -0.460 OA
BRANCH   7   8
ATOM      8  C   UNL A   1      30.331  25.591  23.586  1.00  0.00     0.330 C 
ATOM      9  O   UNL A   1      29.175  25.901  23.823  1.00  0.00    -0.247 OA
BRANCH   8  10
ATOM     10  C   UNL A   1      30.817  24.193  23.664  1.00  0.00     0.095 C 
ATOM     11  C   UNL A   1      31.665  23.739  24.605  1.00  0.00     0.027 C 
BRANCH  11  12
ATOM     12  C   UNL A   1      32.142  22.388  24.655  1.00  0.00     0.031 A 
ATOM     13  C   UNL A   1      32.795  22.210  27.148  1.00  0.00     0.046 C 
ATOM     14  C   UNL A   1      32.653  21.690  25.749  1.00  0.00    -0.032 A 
ATOM     15  C   UNL A   1      32.953  20.324  25.412  1.00  0.00     0.029 A 
ATOM     16  C   UNL A   1      32.669  19.999  24.100  1.00  0.00     0.093 A 
ATOM     17  S   UNL A   1      32.157  21.383  23.251  1.00  0.00    -0.130 S 
BRANCH  16  18
ATOM     18  C   UNL A   1      32.585  18.651  23.546  1.00  0.00     0.264 C 
ATOM     19  O   UNL A   1      32.090  18.454  22.432  1.00  0.00    -0.268 OA
BRANCH  18  20
ATOM     20  N   UNL A   1      33.178  17.589  24.211  1.00  0.00    -0.335 N 
ATOM     21  C   UNL A   1      32.510  16.980  25.336  1.00  0.00     0.120 C 
ATOM     22  C   UNL A   1      34.553  17.106  24.098  1.00  0.00     0.082 C 
ATOM     23  C   UNL A   1      33.129  15.597  25.379  1.00  0.00     0.024 C 
ATOM     24  C   UNL A   1      34.584  15.843  24.984  1.00  0.00     0.026 C 
ATOM     25  C   UNL A   1      35.544  18.146  24.624  1.00  0.00     0.031 C 
ENDBRANCH  18  20
ENDBRANCH  16  18
ENDBRANCH  11  12
ENDBRANCH   8  10
ENDBRANCH   7   8
ENDBRANCH   6   7
ENDBRANCH   5   6
ENDBRANCH   4   5
ENDBRANCH   3   4
ENDBRANCH   2   3
ENDBRANCH   1   2
BRANCH   1  26
ATOM     26  C   UNL A   1      35.577  24.249  25.231  1.00  0.00     0.188 C 
BRANCH  26  27
ATOM     27  C   UNL A   1      36.433  23.209  25.999  1.00  0.00     0.188 C 
BRANCH  27  28
ATOM     28  O   UNL A   1      37.667  22.876  25.379  1.00  0.00    -0.376 OA
BRANCH  28  29
ATOM     29  C   UNL A   1      37.864  21.527  24.994  1.00  0.00     0.202 C 
BRANCH  29  30
ATOM     30  C   UNL A   1      38.656  20.664  25.985  1.00  0.00     0.261 C 
BRANCH  30  31
ATOM     31  O   UNL A   1      40.039  20.460  25.665  1.00  0.00    -0.460 OA
BRANCH  31  32
ATOM     32  C   UNL A   1      40.891  20.296  26.703  1.00  0.00     0.338 C 
ATOM     33  O   UNL A   1      41.093  19.266  27.325  1.00  0.00    -0.246 OA
BRANCH  32  34
ATOM     34  C   UNL A   1      41.678  21.538  26.839  1.00  0.00     0.060 A 
ATOM     35  C   UNL A   1      42.280  21.834  28.068  1.00  0.00     0.016 A 
ATOM     36  C   UNL A   1      41.829  22.398  25.749  1.00  0.00     0.016 A 
ATOM     37  C   UNL A   1      43.009  23.016  28.220  1.00  0.00     0.010 A 
ATOM     38  C   UNL A   1      42.545  23.588  25.908  1.00  0.00     0.010 A 
ATOM     39  C   UNL A   1      43.111  23.919  27.152  1.00  0.00    -0.014 A 
BRANCH  39  40
ATOM     40  C   UNL A   1      43.633  25.288  27.385  1.00  0.00     0.031 A 
ATOM     41  C   UNL A   1      42.681  26.332  27.906  1.00  0.00     0.074 A 
ATOM     42  C   UNL A   1      44.921  25.601  27.154  1.00  0.00     0.049 A 
ATOM     43  N   UNL A   1      42.876  27.607  28.119  1.00  0.00    -0.248 NA
ATOM     44  C   UNL A   1      41.320  25.868  28.221  1.00  0.00     0.031 C 
ATOM     45  C   UNL A   1      45.948  24.667  26.697  1.00  0.00     0.029 A 
ATOM     46  N   UNL A   1      45.581  26.800  27.265  1.00  0.00    -0.354 N 
ATOM     47  C   UNL A   1      41.664  28.101  28.590  1.00  0.00     0.074 A 
ATOM     48  C   UNL A   1      40.730  26.994  28.588  1.00  0.00     0.031 C 
ATOM     49  C   UNL A   1      47.109  25.332  26.558  1.00  0.00     0.029 A 
ATOM     50  C   UNL A   1      46.897  26.745  26.870  1.00  0.00     0.049 A 
ATOM     51  H   UNL A   1      45.152  27.623  27.597  1.00  0.00     0.167 HD
ATOM     52  C   UNL A   1      41.360  29.358  28.995  1.00  0.00     0.034 A 
ATOM     53  C   UNL A   1      47.815  27.728  26.745  1.00  0.00     0.034 A 
ATOM     54  C   UNL A   1      42.298  30.454  28.973  1.00  0.00     0.049 A 
ATOM     55  C   UNL A   1      47.425  29.146  27.104  1.00  0.00     0.074 A 
ATOM     56  C   UNL A   1      42.097  31.765  29.366  1.00  0.00     0.029 A 
ATOM     57  N   UNL A   1      43.608  30.372  28.519  1.00  0.00    -0.354 N 
ATOM     58  N   UNL A   1      46.277  29.600  27.552  1.00  0.00    -0.248 NA
ATOM     59  C   UNL A   1      48.457  30.178  26.946  1.00  0.00     0.031 C 
ATOM     60  C   UNL A   1      43.256  32.492  29.073  1.00  0.00     0.029 A 
ATOM     61  C   UNL A   1      44.214  31.617  28.586  1.00  0.00     0.049 A 
ATOM     62  H   UNL A   1      44.042  29.549  28.196  1.00  0.00     0.167 HD
ATOM     63  C   UNL A   1      46.464  30.966  27.763  1.00  0.00     0.074 A 
ATOM     64  C   UNL A   1      47.837  31.255  27.405  1.00  0.00     0.031 C 
ATOM     65  C   UNL A   1      45.585  31.896  28.219  1.00  0.00     0.034 A 
BRANCH  52  66
ATOM     66  C   UNL A   1      39.939  29.620  29.438  1.00  0.00     0.023 A 
ATOM     67  C   UNL A   1      39.588  29.690  30.797  1.00  0.00     0.031 A 
ATOM     68  C   UNL A   1      38.916  29.766  28.485  1.00  0.00     0.131 A 
ATOM     69  C   UNL A   1      38.240  29.827  31.165  1.00  0.00     0.055 A 
ATOM     70  C   UNL A   1      37.589  29.989  28.858  1.00  0.00     0.041 A 
ATOM     71  F   UNL A   1      39.184  29.679  27.173  1.00  0.00    -0.206 F 
ATOM     72  C   UNL A   1      37.242  30.005  30.206  1.00  0.00     0.022 A 
BRANCH  69  73
ATOM     73  S   UNL A   1      37.794  29.612  32.911  1.00  0.00     0.124 S 
ATOM     74  O   UNL A   1      39.047  29.951  33.580  1.00  0.00    -0.237 OA
ATOM     75  O   UNL A   1      36.703  30.565  33.076  1.00  0.00    -0.237 OA
ATOM     76  O   UNL A   1      37.413  28.204  32.995  1.00  0.00    -0.744 OA
ENDBRANCH  69  73
ENDBRANCH  52  66
BRANCH  53  77
ATOM     77  C   UNL A   1      49.179  27.431  26.216  1.00  0.00     0.023 A 
ATOM     78  C   UNL A   1      50.293  27.359  27.069  1.00  0.00     0.031 A 
ATOM     79  C   UNL A   1      49.399  27.281  24.835  1.00  0.00     0.131 A 
ATOM     80  C   UNL A   1      51.578  27.194  26.529  1.00  0.00     0.055 A 
ATOM     81  C   UNL A   1      50.673  27.055  24.308  1.00  0.00     0.041 A 
ATOM     82  F   UNL A   1      48.373  27.348  23.972  1.00  0.00    -0.206 F 
ATOM     83  C   UNL A   1      51.774  27.024  25.157  1.00  0.00     0.022 A 
BRANCH  80  84
ATOM     84  S   UNL A   1      53.008  27.300  27.641  1.00  0.00     0.124 S 
ATOM     85  O   UNL A   1      52.580  28.336  28.574  1.00  0.00    -0.237 OA
ATOM     86  O   UNL A   1      53.079  25.944  28.175  1.00  0.00    -0.237 OA
ATOM     87  O   UNL A   1      54.104  27.676  26.751  1.00  0.00    -0.744 OA
ENDBRANCH  80  84
ENDBRANCH  53  77
BRANCH  65  88
ATOM     88  C   UNL A   1      46.099  33.305  28.411  1.00  0.00     0.023 A 
ATOM     89  C   UNL A   1      46.790  33.695  29.571  1.00  0.00     0.031 A 
ATOM     90  C   UNL A   1      45.891  34.272  27.410  1.00  0.00     0.131 A 
ATOM     91  C   UNL A   1      47.196  35.030  29.728  1.00  0.00     0.055 A 
ATOM     92  C   UNL A   1      46.359  35.580  27.541  1.00  0.00     0.041 A 
ATOM     93  F   UNL A   1      45.235  33.959  26.282  1.00  0.00    -0.206 F 
ATOM     94  C   UNL A   1      47.003  35.970  28.712  1.00  0.00     0.022 A 
BRANCH  91  95
ATOM     95  S   UNL A   1      47.890  35.549  31.321  1.00  0.00     0.124 S 
ATOM     96  O   UNL A   1      48.392  34.289  31.857  1.00  0.00    -0.237 OA
ATOM     97  O   UNL A   1      48.903  36.520  30.920  1.00  0.00    -0.237 OA
ATOM     98  O   UNL A   1      46.741  36.110  32.029  1.00  0.00    -0.744 OA
ENDBRANCH  91  95
ENDBRANCH  65  88
ENDBRANCH  39  40
ENDBRANCH  32  34
ENDBRANCH  31  32
ENDBRANCH  30  31
ENDBRANCH  29  30
ENDBRANCH  28  29
ENDBRANCH  27  28
ENDBRANCH  26  27
ENDBRANCH   1  26
TORSDOF 26
ENDMDL
MODEL 3
REMARK VINA RESULT:      -8.5      2.756      7.704
REMARK SMILES Cc1cc(C(=O)N2CCC[C@@H]2C)sc1/C=C/C(=O)OCCOCCOCCOCCOC(=O)c1ccc(-c2c3nc(c(-c4cc(S(=O)(=O)[O-])ccc4F)c4ccc([nH]4)c(-c4cc(S(=O)(=O)[O-])ccc4F)c4nc(c(-c5cc(S(=O)(=O)[O-])ccc5F)c5ccc2[nH]5)C=C4)C=C3)cc1
REMARK SMILES IDX 25 1 24 2 23 3 22 4 21 5 20 6 19 7 17 8 18 9 16 10 15 11
REMARK SMILES IDX 14 12 1 13 2 14 3 15 4 16 13 17 5 18 6 19 7 20 8 21 11 22
REMARK SMILES IDX 9 23 10 24 12 25 26 26 27 27 28 28 29 29 30 30 31 31 32 32
REMARK SMILES IDX 33 33 34 34 35 35 96 36 36 37 95 38 37 39 38 40 39 41 89 42
REMARK SMILES IDX 40 43 94 44 88 45 90 46 41 47 93 48 87 49 86 50 42 52 74 53
REMARK SMILES IDX 54 54 73 55 55 56 58 57 72 58 91 59 56 60 57 61 71 63 92 64
REMARK SMILES IDX 59 65 43 66 44 67 52 68 45 69 51 70 53 71 50 72 46 73 47 74
REMARK SMILES IDX 48 75 49 76 75 77 76 78 84 79 77 80 83 81 85 82 82 83 78 84
REMARK SMILES IDX 79 85 80 86 81 87 60 88 61 89 69 90 62 91 68 92 70 93 67 94
REMARK SMILES IDX 63 95 64 96 65 97 66 98
REMARK H PARENT 90 51 58 62
REMARK Flexibility Score: inf
ROOT
ATOM      1  O   UNL A   1      34.023  25.299  25.912  1.00  0.00    -0.377 OA
ENDROOT
BRANCH   1   2
ATOM      2  C   UNL A   1      33.966  26.713  25.981  1.00  0.00     0.188 C 
BRANCH   2   3
ATOM      3  C   UNL A   1      32.694  27.283  26.632  1.00  0.00     0.188 C 
BRANCH   3   4
ATOM      4  O   UNL A   1      31.676  27.600  25.701  1.00  0.00    -0.376 OA
BRANCH   4   5
ATOM      5  C   UNL A   1      31.547  28.914  25.188  1.00  0.00     0.202 C 
BRANCH   5   6
ATOM      6  C   UNL A   1      32.003  29.317  23.774  1.00  0.00     0.261 C 
BRANCH   6   7
ATOM      7  O   UNL A   1      32.094  28.280  22.794  1.00  0.00    -0.460 OA
BRANCH   7   8
ATOM      8  C   UNL A   1      30.951  27.695  22.388  1.00  0.00     0.330 C 
ATOM      9  O   UNL A   1      29.987  28.255  21.892  1.00  0.00    -0.247 OA
BRANCH   8  10
ATOM     10  C   UNL A   1      31.060  26.221  22.479  1.00  0.00     0.095 C 
ATOM     11  C   UNL A   1      32.082  25.573  23.068  1.00  0.00     0.027 C 
BRANCH  11  12
ATOM     12  C   UNL A   1      32.183  24.143  23.129  1.00  0.00     0.031 A 
ATOM     13  C   UNL A   1      33.443  23.665  20.926  1.00  0.00     0.046 C 
ATOM     14  C   UNL A   1      32.763  23.276  22.204  1.00  0.00    -0.032 A 
ATOM     15  C   UNL A   1      32.733  21.914  22.665  1.00  0.00     0.029 A 
ATOM     16  C   UNL A   1      32.151  21.759  23.907  1.00  0.00     0.093 A 
ATOM     17  S   UNL A   1      31.533  23.248  24.455  1.00  0.00    -0.130 S 
BRANCH  16  18
ATOM     18  C   UNL A   1      32.235  20.574  24.756  1.00  0.00     0.264 C 
ATOM     19  O   UNL A   1      31.504  20.448  25.743  1.00  0.00    -0.268 OA
BRANCH  18  20
ATOM     20  N   UNL A   1      33.050  19.514  24.388  1.00  0.00    -0.335 N 
ATOM     21  C   UNL A   1      34.485  19.657  24.438  1.00  0.00     0.120 C 
ATOM     22  C   UNL A   1      32.674  18.281  23.700  1.00  0.00     0.082 C 
ATOM     23  C   UNL A   1      34.956  18.221  24.553  1.00  0.00     0.024 C 
ATOM     24  C   UNL A   1      33.973  17.449  23.675  1.00  0.00     0.026 C 
ATOM     25  C   UNL A   1      32.203  18.572  22.273  1.00  0.00     0.031 C 
ENDBRANCH  18  20
ENDBRANCH  16  18
ENDBRANCH  11  12
ENDBRANCH   8  10
ENDBRANCH   7   8
ENDBRANCH   6   7
ENDBRANCH   5   6
ENDBRANCH   4   5
ENDBRANCH   3   4
ENDBRANCH   2   3
ENDBRANCH   1   2
BRANCH   1  26
ATOM     26  C   UNL A   1      34.960  24.678  25.029  1.00  0.00     0.188 C 
BRANCH  26  27
ATOM     27  C   UNL A   1      35.495  23.238  25.237  1.00  0.00     0.188 C 
BRANCH  27  28
ATOM     28  O   UNL A   1      36.751  23.155  25.894  1.00  0.00    -0.376 OA
BRANCH  28  29
ATOM     29  C   UNL A   1      37.830  22.580  25.178  1.00  0.00     0.202 C 
BRANCH  29  30
ATOM     30  C   UNL A   1      38.590  21.466  25.908  1.00  0.00     0.261 C 
BRANCH  30  31
ATOM     31  O   UNL A   1      40.019  21.587  25.911  1.00  0.00    -0.460 OA
BRANCH  31  32
ATOM     32  C   UNL A   1      40.633  21.581  27.116  1.00  0.00     0.338 C 
ATOM     33  O   UNL A   1      40.878  20.604  27.806  1.00  0.00    -0.246 OA
BRANCH  32  34
ATOM     34  C   UNL A   1      41.127  22.948  27.376  1.00  0.00     0.060 A 
ATOM     35  C   UNL A   1      41.715  23.238  28.613  1.00  0.00     0.016 A 
ATOM     36  C   UNL A   1      41.019  23.933  26.392  1.00  0.00     0.016 A 
ATOM     37  C   UNL A   1      42.167  24.533  28.882  1.00  0.00     0.010 A 
ATOM     38  C   UNL A   1      41.457  25.231  26.670  1.00  0.00     0.010 A 
ATOM     39  C   UNL A   1      42.003  25.545  27.927  1.00  0.00    -0.014 A 
BRANCH  39  40
ATOM     40  C   UNL A   1      42.216  26.965  28.306  1.00  0.00     0.031 A 
ATOM     41  C   UNL A   1      43.625  27.494  28.315  1.00  0.00     0.074 A 
ATOM     42  C   UNL A   1      41.188  27.772  28.622  1.00  0.00     0.049 A 
ATOM     43  N   UNL A   1      44.074  28.667  28.678  1.00  0.00    -0.248 NA
ATOM     44  C   UNL A   1      44.669  26.562  27.858  1.00  0.00     0.031 C 
ATOM     45  C   UNL A   1      39.776  27.391  28.601  1.00  0.00     0.029 A 
ATOM     46  N   UNL A   1      41.175  29.082  29.034  1.00  0.00    -0.354 N 
ATOM     47  C   UNL A   1      45.452  28.615  28.497  1.00  0.00     0.074 A 
ATOM     48  C   UNL A   1      45.767  27.280  28.035  1.00  0.00     0.031 C 
ATOM     49  C   UNL A   1      39.036  28.443  28.993  1.00  0.00     0.029 A 
ATOM     50  C   UNL A   1      39.921  29.556  29.336  1.00  0.00     0.049 A 
ATOM     51  H   UNL A   1      41.990  29.632  29.105  1.00  0.00     0.167 HD
ATOM     52  C   UNL A   1      46.370  29.595  28.690  1.00  0.00     0.034 A 
ATOM     53  C   UNL A   1      39.535  30.740  29.859  1.00  0.00     0.034 A 
ATOM     54  C   UNL A   1      46.041  30.915  29.170  1.00  0.00     0.049 A 
ATOM     55  C   UNL A   1      40.587  31.784  30.166  1.00  0.00     0.074 A 
ATOM     56  C   UNL A   1      46.890  31.984  29.395  1.00  0.00     0.029 A 
ATOM     57  N   UNL A   1      44.765  31.343  29.513  1.00  0.00    -0.354 N 
ATOM     58  N   UNL A   1      41.887  31.727  29.987  1.00  0.00    -0.248 NA
ATOM     59  C   UNL A   1      40.116  33.052  30.737  1.00  0.00     0.031 C 
ATOM     60  C   UNL A   1      46.142  33.027  29.952  1.00  0.00     0.029 A 
ATOM     61  C   UNL A   1      44.810  32.646  29.985  1.00  0.00     0.049 A 
ATOM     62  H   UNL A   1      43.947  30.800  29.433  1.00  0.00     0.167 HD
ATOM     63  C   UNL A   1      42.382  32.966  30.391  1.00  0.00     0.074 A 
ATOM     64  C   UNL A   1      41.240  33.750  30.810  1.00  0.00     0.031 C 
ATOM     65  C   UNL A   1      43.663  33.418  30.408  1.00  0.00     0.034 A 
BRANCH  52  66
ATOM     66  C   UNL A   1      47.818  29.248  28.437  1.00  0.00     0.023 A 
ATOM     67  C   UNL A   1      48.710  28.976  29.489  1.00  0.00     0.031 A 
ATOM     68  C   UNL A   1      48.321  29.222  27.124  1.00  0.00     0.131 A 
ATOM     69  C   UNL A   1      50.071  28.764  29.215  1.00  0.00     0.055 A 
ATOM     70  C   UNL A   1      49.657  28.925  26.854  1.00  0.00     0.041 A 
ATOM     71  F   UNL A   1      47.525  29.502  26.081  1.00  0.00    -0.206 F 
ATOM     72  C   UNL A   1      50.545  28.709  27.904  1.00  0.00     0.022 A 
BRANCH  69  73
ATOM     73  S   UNL A   1      51.236  28.718  30.605  1.00  0.00     0.124 S 
ATOM     74  O   UNL A   1      50.376  28.264  31.696  1.00  0.00    -0.237 OA
ATOM     75  O   UNL A   1      52.238  27.765  30.144  1.00  0.00    -0.237 OA
ATOM     76  O   UNL A   1      51.692  30.101  30.716  1.00  0.00    -0.744 OA
ENDBRANCH  69  73
ENDBRANCH  52  66
BRANCH  53  77
ATOM     77  C   UNL A   1      38.099  30.999  30.175  1.00  0.00     0.023 A 
ATOM     78  C   UNL A   1      37.200  31.429  29.184  1.00  0.00     0.031 A 
ATOM     79  C   UNL A   1      37.619  30.885  31.492  1.00  0.00     0.131 A 
ATOM     80  C   UNL A   1      35.886  31.776  29.535  1.00  0.00     0.055 A 
ATOM     81  C   UNL A   1      36.293  31.172  31.825  1.00  0.00     0.041 A 
ATOM     82  F   UNL A   1      38.435  30.487  32.480  1.00  0.00    -0.206 F 
ATOM     83  C   UNL A   1      35.421  31.634  30.845  1.00  0.00     0.022 A 
BRANCH  80  84
ATOM     84  S   UNL A   1      34.813  32.509  28.268  1.00  0.00     0.124 S 
ATOM     85  O   UNL A   1      34.521  31.356  27.425  1.00  0.00    -0.237 OA
ATOM     86  O   UNL A   1      33.705  33.019  29.068  1.00  0.00    -0.237 OA
ATOM     87  O   UNL A   1      35.660  33.531  27.656  1.00  0.00    -0.744 OA
ENDBRANCH  80  84
ENDBRANCH  53  77
BRANCH  65  88
ATOM     88  C   UNL A   1      43.891  34.849  30.841  1.00  0.00     0.023 A 
ATOM     89  C   UNL A   1      43.852  35.919  29.931  1.00  0.00     0.031 A 
ATOM     90  C   UNL A   1      44.150  35.142  32.193  1.00  0.00     0.131 A 
ATOM     91  C   UNL A   1      44.128  37.223  30.372  1.00  0.00     0.055 A 
ATOM     92  C   UNL A   1      44.354  36.449  32.637  1.00  0.00     0.041 A 
ATOM     93  F   UNL A   1      44.202  34.161  33.108  1.00  0.00    -0.206 F 
ATOM     94  C   UNL A   1      44.358  37.497  31.723  1.00  0.00     0.022 A 
BRANCH  91  95
ATOM     95  S   UNL A   1      44.283  38.546  29.140  1.00  0.00     0.124 S 
ATOM     96  O   UNL A   1      44.133  37.813  27.888  1.00  0.00    -0.237 OA
ATOM     97  O   UNL A   1      43.181  39.434  29.495  1.00  0.00    -0.237 OA
ATOM     98  O   UNL A   1      45.619  39.088  29.386  1.00  0.00    -0.744 OA
ENDBRANCH  91  95
ENDBRANCH  65  88
ENDBRANCH  39  40
ENDBRANCH  32  34
ENDBRANCH  31  32
ENDBRANCH  30  31
ENDBRANCH  29  30
ENDBRANCH  28  29
ENDBRANCH  27  28
ENDBRANCH  26  27
ENDBRANCH   1  26
TORSDOF 26
ENDMDL
