MODEL 1
REMARK VINA RESULT:     -10.0      0.000      0.000
REMARK SMILES CCC(CC)([NH2+]CC(=O)Nc1ccc(C)cc1)C(=O)OCCOCCOCCOCCOC(=O)c1ccc(-c2c3nc(c(-c4cc(S(=O)(=O)[O-])ccc4F)c4ccc([nH]4)c(-c4cc(S(=O)(=O)[O-])ccc4F)c4nc(c(-c5cc(S(=O)(=O)[O-])ccc5F)c5ccc2[nH]5)C=C4)C=C3)cc1
REMARK SMILES IDX 25 1 24 2 23 3 22 4 21 5 20 6 18 7 19 8 3 9 2 10 1 11 4 12
REMARK SMILES IDX 5 13 6 14 7 17 8 18 9 19 10 20 11 22 12 23 17 24 13 25 16 26
REMARK SMILES IDX 14 27 15 28 26 29 27 30 28 31 29 32 30 33 31 34 32 35 33 36
REMARK SMILES IDX 34 37 35 38 36 39 97 40 37 41 96 42 38 43 39 44 40 45 90 46
REMARK SMILES IDX 41 47 95 48 89 49 91 50 42 51 94 52 88 53 87 54 43 56 75 57
REMARK SMILES IDX 55 58 74 59 56 60 59 61 73 62 92 63 57 64 58 65 72 67 93 68
REMARK SMILES IDX 60 69 44 70 45 71 53 72 46 73 52 74 54 75 51 76 47 77 48 78
REMARK SMILES IDX 49 79 50 80 76 81 77 82 85 83 78 84 84 85 86 86 83 87 79 88
REMARK SMILES IDX 80 89 81 90 82 91 61 92 62 93 70 94 63 95 69 96 71 97 68 98
REMARK SMILES IDX 64 99 65 100 66 101 67 102
REMARK H PARENT 6 15 6 16 10 21 91 55 59 66
REMARK Flexibility Score: inf
ROOT
ATOM      1  C   UNL A   1      35.380  33.265  28.047  1.00  0.00     0.188 C 
ENDROOT
BRANCH   1   2
ATOM      2  C   UNL A   1      35.518  31.723  28.004  1.00  0.00     0.188 C 
BRANCH   2   3
ATOM      3  O   UNL A   1      34.378  30.885  27.923  1.00  0.00    -0.376 OA
BRANCH   3   4
ATOM      4  C   UNL A   1      34.460  29.643  27.227  1.00  0.00     0.202 C 
BRANCH   4   5
ATOM      5  C   UNL A   1      33.179  29.082  26.612  1.00  0.00     0.261 C 
BRANCH   5   6
ATOM      6  O   UNL A   1      33.208  27.641  26.606  1.00  0.00    -0.459 OA
BRANCH   6   7
ATOM      7  C   UNL A   1      31.998  27.001  26.591  1.00  0.00     0.368 C 
ATOM      8  O   UNL A   1      31.095  27.272  27.373  1.00  0.00    -0.245 OA
BRANCH   7   9
ATOM      9  C   UNL A   1      31.776  26.108  25.316  1.00  0.00     0.194 C 
BRANCH   9  10
ATOM     10  C   UNL A   1      30.213  26.203  25.142  1.00  0.00     0.077 C 
ATOM     11  C   UNL A   1      29.753  26.827  23.804  1.00  0.00     0.011 C 
ENDBRANCH   9  10
BRANCH   9  12
ATOM     12  C   UNL A   1      32.090  24.595  25.435  1.00  0.00     0.077 C 
ATOM     13  C   UNL A   1      30.887  23.664  25.612  1.00  0.00     0.011 C 
ENDBRANCH   9  12
BRANCH   9  14
ATOM     14  N   UNL A   1      32.527  26.649  24.144  1.00  0.00    -0.324 N 
ATOM     15  H   UNL A   1      33.151  27.378  24.491  1.00  0.00     0.347 HD
ATOM     16  H   UNL A   1      31.806  26.966  23.496  1.00  0.00     0.347 HD
BRANCH  14  17
ATOM     17  C   UNL A   1      33.359  25.682  23.350  1.00  0.00     0.363 C 
BRANCH  17  18
ATOM     18  C   UNL A   1      32.766  25.179  22.009  1.00  0.00     0.279 C 
ATOM     19  O   UNL A   1      32.150  25.961  21.271  1.00  0.00    -0.268 OA
ATOM     20  N   UNL A   1      32.810  23.848  21.608  1.00  0.00    -0.321 N 
ATOM     21  H   UNL A   1      32.621  23.669  20.659  1.00  0.00     0.170 HD
BRANCH  20  22
ATOM     22  C   UNL A   1      33.095  22.729  22.411  1.00  0.00     0.041 A 
ATOM     23  C   UNL A   1      32.182  21.681  22.536  1.00  0.00     0.026 A 
ATOM     24  C   UNL A   1      34.255  22.659  23.137  1.00  0.00     0.026 A 
ATOM     25  C   UNL A   1      32.291  20.773  23.600  1.00  0.00     0.005 A 
ATOM     26  C   UNL A   1      34.332  21.812  24.230  1.00  0.00     0.005 A 
ATOM     27  C   UNL A   1      33.333  20.893  24.512  1.00  0.00    -0.051 A 
ATOM     28  C   UNL A   1      33.397  20.089  25.777  1.00  0.00     0.044 C 
ENDBRANCH  20  22
ENDBRANCH  17  18
ENDBRANCH  14  17
ENDBRANCH   9  14
ENDBRANCH   7   9
ENDBRANCH   6   7
ENDBRANCH   5   6
ENDBRANCH   4   5
ENDBRANCH   3   4
ENDBRANCH   2   3
ENDBRANCH   1   2
BRANCH   1  29
ATOM     29  O   UNL A   1      34.227  33.855  28.609  1.00  0.00    -0.377 OA
BRANCH  29  30
ATOM     30  C   UNL A   1      34.266  35.281  28.615  1.00  0.00     0.188 C 
BRANCH  30  31
ATOM     31  C   UNL A   1      32.909  35.807  29.068  1.00  0.00     0.188 C 
BRANCH  31  32
ATOM     32  O   UNL A   1      33.007  36.696  30.187  1.00  0.00    -0.376 OA
BRANCH  32  33
ATOM     33  C   UNL A   1      32.473  36.183  31.409  1.00  0.00     0.202 C 
BRANCH  33  34
ATOM     34  C   UNL A   1      33.519  36.176  32.526  1.00  0.00     0.261 C 
BRANCH  34  35
ATOM     35  O   UNL A   1      34.658  35.411  32.092  1.00  0.00    -0.460 OA
BRANCH  35  36
ATOM     36  C   UNL A   1      35.140  34.570  33.055  1.00  0.00     0.338 C 
ATOM     37  O   UNL A   1      35.111  34.786  34.236  1.00  0.00    -0.246 OA
BRANCH  36  38
ATOM     38  C   UNL A   1      35.822  33.399  32.418  1.00  0.00     0.060 A 
ATOM     39  C   UNL A   1      35.754  32.153  33.056  1.00  0.00     0.016 A 
ATOM     40  C   UNL A   1      36.698  33.574  31.346  1.00  0.00     0.016 A 
ATOM     41  C   UNL A   1      36.654  31.136  32.708  1.00  0.00     0.010 A 
ATOM     42  C   UNL A   1      37.645  32.596  31.066  1.00  0.00     0.010 A 
ATOM     43  C   UNL A   1      37.677  31.389  31.780  1.00  0.00    -0.014 A 
BRANCH  43  44
ATOM     44  C   UNL A   1      38.952  30.630  31.769  1.00  0.00     0.031 A 
ATOM     45  C   UNL A   1      39.307  29.558  30.778  1.00  0.00     0.074 A 
ATOM     46  C   UNL A   1      39.954  31.129  32.523  1.00  0.00     0.049 A 
ATOM     47  N   UNL A   1      40.375  28.811  30.797  1.00  0.00    -0.248 NA
ATOM     48  C   UNL A   1      38.421  29.206  29.683  1.00  0.00     0.031 C 
ATOM     49  C   UNL A   1      41.374  30.948  32.272  1.00  0.00     0.029 A 
ATOM     50  N   UNL A   1      39.932  31.945  33.644  1.00  0.00    -0.354 N 
ATOM     51  C   UNL A   1      40.463  28.107  29.606  1.00  0.00     0.074 A 
ATOM     52  C   UNL A   1      39.170  28.336  29.004  1.00  0.00     0.031 C 
ATOM     53  C   UNL A   1      42.066  31.578  33.221  1.00  0.00     0.029 A 
ATOM     54  C   UNL A   1      41.171  31.921  34.265  1.00  0.00     0.049 A 
ATOM     55  H   UNL A   1      39.153  32.463  33.952  1.00  0.00     0.167 HD
ATOM     56  C   UNL A   1      41.633  27.490  29.215  1.00  0.00     0.034 A 
ATOM     57  C   UNL A   1      41.357  31.386  35.501  1.00  0.00     0.034 A 
ATOM     58  C   UNL A   1      42.651  27.367  30.320  1.00  0.00     0.049 A 
ATOM     59  C   UNL A   1      42.070  30.033  35.517  1.00  0.00     0.074 A 
ATOM     60  C   UNL A   1      44.038  27.299  30.386  1.00  0.00     0.029 A 
ATOM     61  N   UNL A   1      42.258  27.330  31.686  1.00  0.00    -0.354 N 
ATOM     62  N   UNL A   1      42.193  29.221  34.480  1.00  0.00    -0.248 NA
ATOM     63  C   UNL A   1      42.775  29.531  36.688  1.00  0.00     0.031 C 
ATOM     64  C   UNL A   1      44.458  27.399  31.737  1.00  0.00     0.029 A 
ATOM     65  C   UNL A   1      43.340  27.354  32.548  1.00  0.00     0.049 A 
ATOM     66  H   UNL A   1      41.321  27.293  31.985  1.00  0.00     0.167 HD
ATOM     67  C   UNL A   1      42.949  28.119  34.831  1.00  0.00     0.074 A 
ATOM     68  C   UNL A   1      43.302  28.386  36.220  1.00  0.00     0.031 C 
ATOM     69  C   UNL A   1      43.287  27.083  33.988  1.00  0.00     0.034 A 
BRANCH  56  70
ATOM     70  C   UNL A   1      41.960  27.181  27.694  1.00  0.00     0.023 A 
ATOM     71  C   UNL A   1      42.551  25.955  27.292  1.00  0.00     0.031 A 
ATOM     72  C   UNL A   1      41.830  28.073  26.604  1.00  0.00     0.131 A 
ATOM     73  C   UNL A   1      43.105  25.729  26.001  1.00  0.00     0.055 A 
ATOM     74  C   UNL A   1      42.370  27.860  25.318  1.00  0.00     0.041 A 
ATOM     75  F   UNL A   1      41.100  29.186  26.665  1.00  0.00    -0.206 F 
ATOM     76  C   UNL A   1      43.037  26.694  25.013  1.00  0.00     0.022 A 
BRANCH  73  77
ATOM     77  S   UNL A   1      43.915  24.147  25.597  1.00  0.00     0.124 S 
ATOM     78  O   UNL A   1      44.885  24.552  24.586  1.00  0.00    -0.237 OA
ATOM     79  O   UNL A   1      44.462  23.724  26.881  1.00  0.00    -0.237 OA
ATOM     80  O   UNL A   1      42.812  23.325  25.098  1.00  0.00    -0.744 OA
ENDBRANCH  73  77
ENDBRANCH  56  70
BRANCH  57  81
ATOM     81  C   UNL A   1      40.546  32.145  36.491  1.00  0.00     0.023 A 
ATOM     82  C   UNL A   1      41.046  33.452  36.732  1.00  0.00     0.031 A 
ATOM     83  C   UNL A   1      39.156  31.958  36.527  1.00  0.00     0.131 A 
ATOM     84  C   UNL A   1      40.171  34.547  36.697  1.00  0.00     0.055 A 
ATOM     85  C   UNL A   1      38.283  33.055  36.587  1.00  0.00     0.041 A 
ATOM     86  F   UNL A   1      38.628  30.749  36.287  1.00  0.00    -0.206 F 
ATOM     87  C   UNL A   1      38.790  34.356  36.607  1.00  0.00     0.022 A 
BRANCH  84  88
ATOM     88  S   UNL A   1      40.846  36.214  36.372  1.00  0.00     0.124 S 
ATOM     89  O   UNL A   1      41.138  36.690  37.719  1.00  0.00    -0.237 OA
ATOM     90  O   UNL A   1      42.002  35.945  35.524  1.00  0.00    -0.237 OA
ATOM     91  O   UNL A   1      39.736  36.872  35.688  1.00  0.00    -0.744 OA
ENDBRANCH  84  88
ENDBRANCH  57  81
BRANCH  69  92
ATOM     92  C   UNL A   1      43.883  25.722  34.411  1.00  0.00     0.023 A 
ATOM     93  C   UNL A   1      45.251  25.462  34.544  1.00  0.00     0.031 A 
ATOM     94  C   UNL A   1      43.044  24.626  34.775  1.00  0.00     0.131 A 
ATOM     95  C   UNL A   1      45.729  24.172  34.864  1.00  0.00     0.055 A 
ATOM     96  C   UNL A   1      43.514  23.344  35.074  1.00  0.00     0.041 A 
ATOM     97  F   UNL A   1      41.719  24.754  34.931  1.00  0.00    -0.206 F 
ATOM     98  C   UNL A   1      44.871  23.104  35.103  1.00  0.00     0.022 A 
BRANCH  95  99
ATOM     99  S   UNL A   1      47.517  23.930  35.020  1.00  0.00     0.124 S 
ATOM    100  O   UNL A   1      47.600  22.509  35.340  1.00  0.00    -0.237 OA
ATOM    101  O   UNL A   1      47.999  24.313  33.697  1.00  0.00    -0.237 OA
ATOM    102  O   UNL A   1      47.893  24.838  36.101  1.00  0.00    -0.744 OA
ENDBRANCH  95  99
ENDBRANCH  69  92
ENDBRANCH  43  44
ENDBRANCH  36  38
ENDBRANCH  35  36
ENDBRANCH  34  35
ENDBRANCH  33  34
ENDBRANCH  32  33
ENDBRANCH  31  32
ENDBRANCH  30  31
ENDBRANCH  29  30
ENDBRANCH   1  29
TORSDOF 29
ENDMDL
MODEL 2
REMARK VINA RESULT:      -9.3      4.243     10.581
REMARK SMILES CCC(CC)([NH2+]CC(=O)Nc1ccc(C)cc1)C(=O)OCCOCCOCCOCCOC(=O)c1ccc(-c2c3nc(c(-c4cc(S(=O)(=O)[O-])ccc4F)c4ccc([nH]4)c(-c4cc(S(=O)(=O)[O-])ccc4F)c4nc(c(-c5cc(S(=O)(=O)[O-])ccc5F)c5ccc2[nH]5)C=C4)C=C3)cc1
REMARK SMILES IDX 25 1 24 2 23 3 22 4 21 5 20 6 18 7 19 8 3 9 2 10 1 11 4 12
REMARK SMILES IDX 5 13 6 14 7 17 8 18 9 19 10 20 11 22 12 23 17 24 13 25 16 26
REMARK SMILES IDX 14 27 15 28 26 29 27 30 28 31 29 32 30 33 31 34 32 35 33 36
REMARK SMILES IDX 34 37 35 38 36 39 97 40 37 41 96 42 38 43 39 44 40 45 90 46
REMARK SMILES IDX 41 47 95 48 89 49 91 50 42 51 94 52 88 53 87 54 43 56 75 57
REMARK SMILES IDX 55 58 74 59 56 60 59 61 73 62 92 63 57 64 58 65 72 67 93 68
REMARK SMILES IDX 60 69 44 70 45 71 53 72 46 73 52 74 54 75 51 76 47 77 48 78
REMARK SMILES IDX 49 79 50 80 76 81 77 82 85 83 78 84 84 85 86 86 83 87 79 88
REMARK SMILES IDX 80 89 81 90 82 91 61 92 62 93 70 94 63 95 69 96 71 97 68 98
REMARK SMILES IDX 64 99 65 100 66 101 67 102
REMARK H PARENT 6 15 6 16 10 21 91 55 59 66
REMARK Flexibility Score: inf
ROOT
ATOM      1  C   UNL A   1      35.790  21.088  25.626  1.00  0.00     0.188 C 
ENDROOT
BRANCH   1   2
ATOM      2  C   UNL A   1      34.547  21.286  26.527  1.00  0.00     0.188 C 
BRANCH   2   3
ATOM      3  O   UNL A   1      33.381  20.500  26.355  1.00  0.00    -0.376 OA
BRANCH   3   4
ATOM      4  C   UNL A   1      33.127  19.873  25.099  1.00  0.00     0.202 C 
BRANCH   4   5
ATOM      5  C   UNL A   1      32.344  20.662  24.051  1.00  0.00     0.261 C 
BRANCH   5   6
ATOM      6  O   UNL A   1      31.595  21.726  24.672  1.00  0.00    -0.459 OA
BRANCH   6   7
ATOM      7  C   UNL A   1      31.454  22.881  23.951  1.00  0.00     0.368 C 
ATOM      8  O   UNL A   1      30.569  23.040  23.120  1.00  0.00    -0.245 OA
BRANCH   7   9
ATOM      9  C   UNL A   1      32.339  24.067  24.485  1.00  0.00     0.194 C 
BRANCH   9  10
ATOM     10  C   UNL A   1      33.744  23.701  23.875  1.00  0.00     0.077 C 
ATOM     11  C   UNL A   1      34.888  24.660  24.277  1.00  0.00     0.011 C 
ENDBRANCH   9  10
BRANCH   9  12
ATOM     12  C   UNL A   1      32.561  24.166  26.016  1.00  0.00     0.077 C 
ATOM     13  C   UNL A   1      31.440  24.829  26.821  1.00  0.00     0.011 C 
ENDBRANCH   9  12
BRANCH   9  14
ATOM     14  N   UNL A   1      31.819  25.381  24.003  1.00  0.00    -0.324 N 
ATOM     15  H   UNL A   1      32.455  26.104  24.340  1.00  0.00     0.347 HD
ATOM     16  H   UNL A   1      30.868  25.435  24.366  1.00  0.00     0.347 HD
BRANCH  14  17
ATOM     17  C   UNL A   1      31.674  25.565  22.518  1.00  0.00     0.363 C 
BRANCH  17  18
ATOM     18  C   UNL A   1      32.673  26.527  21.826  1.00  0.00     0.279 C 
ATOM     19  O   UNL A   1      33.426  26.104  20.937  1.00  0.00    -0.268 OA
ATOM     20  N   UNL A   1      32.843  27.854  22.208  1.00  0.00    -0.321 N 
ATOM     21  H   UNL A   1      33.319  28.435  21.572  1.00  0.00     0.170 HD
BRANCH  20  22
ATOM     22  C   UNL A   1      32.409  28.454  23.403  1.00  0.00     0.041 A 
ATOM     23  C   UNL A   1      31.091  28.886  23.555  1.00  0.00     0.026 A 
ATOM     24  C   UNL A   1      33.281  28.680  24.436  1.00  0.00     0.026 A 
ATOM     25  C   UNL A   1      30.759  29.801  24.565  1.00  0.00     0.005 A 
ATOM     26  C   UNL A   1      32.980  29.635  25.393  1.00  0.00     0.005 A 
ATOM     27  C   UNL A   1      31.738  30.249  25.445  1.00  0.00    -0.051 A 
ATOM     28  C   UNL A   1      31.502  31.370  26.413  1.00  0.00     0.044 C 
ENDBRANCH  20  22
ENDBRANCH  17  18
ENDBRANCH  14  17
ENDBRANCH   9  14
ENDBRANCH   7   9
ENDBRANCH   6   7
ENDBRANCH   5   6
ENDBRANCH   4   5
ENDBRANCH   3   4
ENDBRANCH   2   3
ENDBRANCH   1   2
BRANCH   1  29
ATOM     29  O   UNL A   1      36.962  21.838  25.867  1.00  0.00    -0.377 OA
BRANCH  29  30
ATOM     30  C   UNL A   1      38.037  21.505  24.989  1.00  0.00     0.188 C 
BRANCH  30  31
ATOM     31  C   UNL A   1      38.750  20.273  25.532  1.00  0.00     0.188 C 
BRANCH  31  32
ATOM     32  O   UNL A   1      39.511  20.552  26.713  1.00  0.00    -0.376 OA
BRANCH  32  33
ATOM     33  C   UNL A   1      40.886  20.169  26.647  1.00  0.00     0.202 C 
BRANCH  33  34
ATOM     34  C   UNL A   1      41.785  21.349  26.273  1.00  0.00     0.261 C 
BRANCH  34  35
ATOM     35  O   UNL A   1      41.196  22.562  26.780  1.00  0.00    -0.460 OA
BRANCH  35  36
ATOM     36  C   UNL A   1      41.750  23.692  26.249  1.00  0.00     0.338 C 
ATOM     37  O   UNL A   1      42.769  23.728  25.614  1.00  0.00    -0.246 OA
BRANCH  36  38
ATOM     38  C   UNL A   1      40.971  24.896  26.681  1.00  0.00     0.060 A 
ATOM     39  C   UNL A   1      41.058  26.063  25.911  1.00  0.00     0.016 A 
ATOM     40  C   UNL A   1      40.358  24.943  27.932  1.00  0.00     0.016 A 
ATOM     41  C   UNL A   1      40.656  27.292  26.452  1.00  0.00     0.010 A 
ATOM     42  C   UNL A   1      40.044  26.174  28.498  1.00  0.00     0.010 A 
ATOM     43  C   UNL A   1      40.243  27.370  27.792  1.00  0.00    -0.014 A 
BRANCH  43  44
ATOM     44  C   UNL A   1      40.344  28.617  28.589  1.00  0.00     0.031 A 
ATOM     45  C   UNL A   1      39.299  29.695  28.639  1.00  0.00     0.074 A 
ATOM     46  C   UNL A   1      41.307  28.647  29.535  1.00  0.00     0.049 A 
ATOM     47  N   UNL A   1      39.399  30.839  29.254  1.00  0.00    -0.248 NA
ATOM     48  C   UNL A   1      38.040  29.571  27.928  1.00  0.00     0.031 C 
ATOM     49  C   UNL A   1      41.269  29.433  30.757  1.00  0.00     0.029 A 
ATOM     50  N   UNL A   1      42.502  27.952  29.642  1.00  0.00    -0.354 N 
ATOM     51  C   UNL A   1      38.160  31.461  29.268  1.00  0.00     0.074 A 
ATOM     52  C   UNL A   1      37.389  30.657  28.349  1.00  0.00     0.031 C 
ATOM     53  C   UNL A   1      42.389  29.215  31.447  1.00  0.00     0.029 A 
ATOM     54  C   UNL A   1      43.309  28.551  30.597  1.00  0.00     0.049 A 
ATOM     55  H   UNL A   1      42.741  27.153  29.117  1.00  0.00     0.167 HD
ATOM     56  C   UNL A   1      37.890  32.520  30.110  1.00  0.00     0.034 A 
ATOM     57  C   UNL A   1      44.483  29.160  30.283  1.00  0.00     0.034 A 
ATOM     58  C   UNL A   1      39.123  33.127  30.732  1.00  0.00     0.049 A 
ATOM     59  C   UNL A   1      44.445  30.689  30.325  1.00  0.00     0.074 A 
ATOM     60  C   UNL A   1      39.404  33.810  31.910  1.00  0.00     0.029 A 
ATOM     61  N   UNL A   1      40.391  33.038  30.096  1.00  0.00    -0.354 N 
ATOM     62  N   UNL A   1      43.350  31.429  30.292  1.00  0.00    -0.248 NA
ATOM     63  C   UNL A   1      45.645  31.498  30.495  1.00  0.00     0.031 C 
ATOM     64  C   UNL A   1      40.807  33.960  32.051  1.00  0.00     0.029 A 
ATOM     65  C   UNL A   1      41.414  33.534  30.886  1.00  0.00     0.049 A 
ATOM     66  H   UNL A   1      40.527  32.666  29.195  1.00  0.00     0.167 HD
ATOM     67  C   UNL A   1      43.680  32.765  30.412  1.00  0.00     0.074 A 
ATOM     68  C   UNL A   1      45.130  32.738  30.559  1.00  0.00     0.031 C 
ATOM     69  C   UNL A   1      42.781  33.809  30.434  1.00  0.00     0.034 A 
BRANCH  56  70
ATOM     70  C   UNL A   1      36.416  32.883  30.570  1.00  0.00     0.023 A 
ATOM     71  C   UNL A   1      35.541  33.637  29.746  1.00  0.00     0.031 A 
ATOM     72  C   UNL A   1      35.841  32.627  31.837  1.00  0.00     0.131 A 
ATOM     73  C   UNL A   1      34.324  34.213  30.203  1.00  0.00     0.055 A 
ATOM     74  C   UNL A   1      34.632  33.189  32.302  1.00  0.00     0.041 A 
ATOM     75  F   UNL A   1      36.353  31.751  32.699  1.00  0.00    -0.206 F 
ATOM     76  C   UNL A   1      33.875  34.009  31.495  1.00  0.00     0.022 A 
BRANCH  73  77
ATOM     77  S   UNL A   1      33.300  35.233  29.092  1.00  0.00     0.124 S 
ATOM     78  O   UNL A   1      32.652  34.222  28.264  1.00  0.00    -0.237 OA
ATOM     79  O   UNL A   1      32.435  35.956  30.018  1.00  0.00    -0.237 OA
ATOM     80  O   UNL A   1      34.284  36.061  28.396  1.00  0.00    -0.744 OA
ENDBRANCH  73  77
ENDBRANCH  56  70
BRANCH  57  81
ATOM     81  C   UNL A   1      45.414  28.159  29.697  1.00  0.00     0.023 A 
ATOM     82  C   UNL A   1      45.601  28.326  28.300  1.00  0.00     0.031 A 
ATOM     83  C   UNL A   1      46.506  27.711  30.455  1.00  0.00     0.131 A 
ATOM     84  C   UNL A   1      46.900  28.340  27.770  1.00  0.00     0.055 A 
ATOM     85  C   UNL A   1      47.790  27.636  29.895  1.00  0.00     0.041 A 
ATOM     86  F   UNL A   1      46.392  27.556  31.783  1.00  0.00    -0.206 F 
ATOM     87  C   UNL A   1      47.999  28.012  28.566  1.00  0.00     0.022 A 
BRANCH  84  88
ATOM     88  S   UNL A   1      47.196  29.158  26.164  1.00  0.00     0.124 S 
ATOM     89  O   UNL A   1      45.885  29.070  25.533  1.00  0.00    -0.237 OA
ATOM     90  O   UNL A   1      47.632  30.497  26.548  1.00  0.00    -0.237 OA
ATOM     91  O   UNL A   1      48.245  28.327  25.578  1.00  0.00    -0.744 OA
ENDBRANCH  84  88
ENDBRANCH  57  81
BRANCH  69  92
ATOM     92  C   UNL A   1      43.123  35.309  30.287  1.00  0.00     0.023 A 
ATOM     93  C   UNL A   1      42.940  36.053  29.117  1.00  0.00     0.031 A 
ATOM     94  C   UNL A   1      43.599  36.073  31.395  1.00  0.00     0.131 A 
ATOM     95  C   UNL A   1      43.343  37.404  29.032  1.00  0.00     0.055 A 
ATOM     96  C   UNL A   1      44.016  37.404  31.309  1.00  0.00     0.041 A 
ATOM     97  F   UNL A   1      43.620  35.591  32.646  1.00  0.00    -0.206 F 
ATOM     98  C   UNL A   1      43.906  38.078  30.111  1.00  0.00     0.022 A 
BRANCH  95  99
ATOM     99  S   UNL A   1      43.060  38.291  27.479  1.00  0.00     0.124 S 
ATOM    100  O   UNL A   1      41.877  39.083  27.797  1.00  0.00    -0.237 OA
ATOM    101  O   UNL A   1      44.303  39.040  27.318  1.00  0.00    -0.237 OA
ATOM    102  O   UNL A   1      42.854  37.221  26.505  1.00  0.00    -0.744 OA
ENDBRANCH  95  99
ENDBRANCH  69  92
ENDBRANCH  43  44
ENDBRANCH  36  38
ENDBRANCH  35  36
ENDBRANCH  34  35
ENDBRANCH  33  34
ENDBRANCH  32  33
ENDBRANCH  31  32
ENDBRANCH  30  31
ENDBRANCH  29  30
ENDBRANCH   1  29
TORSDOF 29
ENDMDL
MODEL 3
REMARK VINA RESULT:      -9.3      2.462      3.494
REMARK SMILES CCC(CC)([NH2+]CC(=O)Nc1ccc(C)cc1)C(=O)OCCOCCOCCOCCOC(=O)c1ccc(-c2c3nc(c(-c4cc(S(=O)(=O)[O-])ccc4F)c4ccc([nH]4)c(-c4cc(S(=O)(=O)[O-])ccc4F)c4nc(c(-c5cc(S(=O)(=O)[O-])ccc5F)c5ccc2[nH]5)C=C4)C=C3)cc1
REMARK SMILES IDX 25 1 24 2 23 3 22 4 21 5 20 6 18 7 19 8 3 9 2 10 1 11 4 12
REMARK SMILES IDX 5 13 6 14 7 17 8 18 9 19 10 20 11 22 12 23 17 24 13 25 16 26
REMARK SMILES IDX 14 27 15 28 26 29 27 30 28 31 29 32 30 33 31 34 32 35 33 36
REMARK SMILES IDX 34 37 35 38 36 39 97 40 37 41 96 42 38 43 39 44 40 45 90 46
REMARK SMILES IDX 41 47 95 48 89 49 91 50 42 51 94 52 88 53 87 54 43 56 75 57
REMARK SMILES IDX 55 58 74 59 56 60 59 61 73 62 92 63 57 64 58 65 72 67 93 68
REMARK SMILES IDX 60 69 44 70 45 71 53 72 46 73 52 74 54 75 51 76 47 77 48 78
REMARK SMILES IDX 49 79 50 80 76 81 77 82 85 83 78 84 84 85 86 86 83 87 79 88
REMARK SMILES IDX 80 89 81 90 82 91 61 92 62 93 70 94 63 95 69 96 71 97 68 98
REMARK SMILES IDX 64 99 65 100 66 101 67 102
REMARK H PARENT 6 15 6 16 10 21 91 55 59 66
REMARK Flexibility Score: inf
ROOT
ATOM      1  C   UNL A   1      32.795  30.474  26.820  1.00  0.00     0.188 C 
ENDROOT
BRANCH   1   2
ATOM      2  C   UNL A   1      32.686  28.944  26.604  1.00  0.00     0.188 C 
BRANCH   2   3
ATOM      3  O   UNL A   1      33.299  28.313  25.493  1.00  0.00    -0.376 OA
BRANCH   3   4
ATOM      4  C   UNL A   1      33.731  26.958  25.597  1.00  0.00     0.202 C 
BRANCH   4   5
ATOM      5  C   UNL A   1      33.937  26.171  24.303  1.00  0.00     0.261 C 
BRANCH   5   6
ATOM      6  O   UNL A   1      33.745  24.761  24.531  1.00  0.00    -0.459 OA
BRANCH   6   7
ATOM      7  C   UNL A   1      32.453  24.331  24.674  1.00  0.00     0.368 C 
ATOM      8  O   UNL A   1      31.573  24.594  23.864  1.00  0.00    -0.245 OA
BRANCH   7   9
ATOM      9  C   UNL A   1      32.272  23.249  25.801  1.00  0.00     0.194 C 
BRANCH   9  10
ATOM     10  C   UNL A   1      30.882  23.670  26.411  1.00  0.00     0.077 C 
ATOM     11  C   UNL A   1      29.935  22.488  26.725  1.00  0.00     0.011 C 
ENDBRANCH   9  10
BRANCH   9  12
ATOM     12  C   UNL A   1      33.272  23.269  26.985  1.00  0.00     0.077 C 
ATOM     13  C   UNL A   1      33.521  21.930  27.685  1.00  0.00     0.011 C 
ENDBRANCH   9  12
BRANCH   9  14
ATOM     14  N   UNL A   1      32.262  21.871  25.223  1.00  0.00    -0.324 N 
ATOM     15  H   UNL A   1      31.311  21.679  24.907  1.00  0.00     0.347 HD
ATOM     16  H   UNL A   1      32.602  21.271  25.974  1.00  0.00     0.347 HD
BRANCH  14  17
ATOM     17  C   UNL A   1      33.184  21.599  24.068  1.00  0.00     0.363 C 
BRANCH  17  18
ATOM     18  C   UNL A   1      34.620  21.125  24.410  1.00  0.00     0.279 C 
ATOM     19  O   UNL A   1      35.585  21.874  24.205  1.00  0.00    -0.268 OA
ATOM     20  N   UNL A   1      34.911  19.844  24.867  1.00  0.00    -0.321 N 
ATOM     21  H   UNL A   1      35.800  19.713  25.270  1.00  0.00     0.170 HD
BRANCH  20  22
ATOM     22  C   UNL A   1      34.075  18.715  24.814  1.00  0.00     0.041 A 
ATOM     23  C   UNL A   1      33.072  18.517  25.764  1.00  0.00     0.026 A 
ATOM     24  C   UNL A   1      34.253  17.749  23.859  1.00  0.00     0.026 A 
ATOM     25  C   UNL A   1      32.504  17.245  25.938  1.00  0.00     0.005 A 
ATOM     26  C   UNL A   1      33.751  16.475  24.068  1.00  0.00     0.005 A 
ATOM     27  C   UNL A   1      32.913  16.187  25.134  1.00  0.00    -0.051 A 
ATOM     28  C   UNL A   1      32.500  14.769  25.395  1.00  0.00     0.044 C 
ENDBRANCH  20  22
ENDBRANCH  17  18
ENDBRANCH  14  17
ENDBRANCH   9  14
ENDBRANCH   7   9
ENDBRANCH   6   7
ENDBRANCH   5   6
ENDBRANCH   4   5
ENDBRANCH   3   4
ENDBRANCH   2   3
ENDBRANCH   1   2
BRANCH   1  29
ATOM     29  O   UNL A   1      31.829  31.335  26.258  1.00  0.00    -0.377 OA
BRANCH  29  30
ATOM     30  C   UNL A   1      31.593  32.507  27.038  1.00  0.00     0.188 C 
BRANCH  30  31
ATOM     31  C   UNL A   1      32.932  33.160  27.360  1.00  0.00     0.188 C 
BRANCH  31  32
ATOM     32  O   UNL A   1      32.812  34.222  28.314  1.00  0.00    -0.376 OA
BRANCH  32  33
ATOM     33  C   UNL A   1      33.819  34.235  29.328  1.00  0.00     0.202 C 
BRANCH  33  34
ATOM     34  C   UNL A   1      34.401  32.840  29.565  1.00  0.00     0.261 C 
BRANCH  34  35
ATOM     35  O   UNL A   1      35.837  32.933  29.594  1.00  0.00    -0.460 OA
BRANCH  35  36
ATOM     36  C   UNL A   1      36.394  32.320  30.680  1.00  0.00     0.338 C 
ATOM     37  O   UNL A   1      36.302  32.708  31.814  1.00  0.00    -0.246 OA
BRANCH  36  38
ATOM     38  C   UNL A   1      37.242  31.167  30.239  1.00  0.00     0.060 A 
ATOM     39  C   UNL A   1      37.160  29.963  30.951  1.00  0.00     0.016 A 
ATOM     40  C   UNL A   1      38.256  31.341  29.298  1.00  0.00     0.016 A 
ATOM     41  C   UNL A   1      38.168  28.998  30.815  1.00  0.00     0.010 A 
ATOM     42  C   UNL A   1      39.298  30.423  29.234  1.00  0.00     0.010 A 
ATOM     43  C   UNL A   1      39.301  29.269  30.032  1.00  0.00    -0.014 A 
BRANCH  43  44
ATOM     44  C   UNL A   1      40.610  28.610  30.265  1.00  0.00     0.031 A 
ATOM     45  C   UNL A   1      41.146  27.455  29.469  1.00  0.00     0.074 A 
ATOM     46  C   UNL A   1      41.482  29.272  31.056  1.00  0.00     0.049 A 
ATOM     47  N   UNL A   1      42.246  26.797  29.706  1.00  0.00    -0.248 NA
ATOM     48  C   UNL A   1      40.423  26.907  28.336  1.00  0.00     0.031 C 
ATOM     49  C   UNL A   1      42.930  29.166  30.994  1.00  0.00     0.029 A 
ATOM     50  N   UNL A   1      41.275  30.214  32.052  1.00  0.00    -0.354 N 
ATOM     51  C   UNL A   1      42.521  25.962  28.635  1.00  0.00     0.074 A 
ATOM     52  C   UNL A   1      41.300  26.018  27.865  1.00  0.00     0.031 C 
ATOM     53  C   UNL A   1      43.463  29.958  31.925  1.00  0.00     0.029 A 
ATOM     54  C   UNL A   1      42.428  30.358  32.808  1.00  0.00     0.049 A 
ATOM     55  H   UNL A   1      40.434  30.707  32.199  1.00  0.00     0.167 HD
ATOM     56  C   UNL A   1      43.764  25.389  28.463  1.00  0.00     0.034 A 
ATOM     57  C   UNL A   1      42.493  29.994  34.116  1.00  0.00     0.034 A 
ATOM     58  C   UNL A   1      44.645  25.479  29.683  1.00  0.00     0.049 A 
ATOM     59  C   UNL A   1      43.277  28.709  34.389  1.00  0.00     0.074 A 
ATOM     60  C   UNL A   1      46.015  25.522  29.915  1.00  0.00     0.029 A 
ATOM     61  N   UNL A   1      44.091  25.580  30.989  1.00  0.00    -0.354 N 
ATOM     62  N   UNL A   1      43.574  27.788  33.487  1.00  0.00    -0.248 NA
ATOM     63  C   UNL A   1      43.862  28.408  35.688  1.00  0.00     0.031 C 
ATOM     64  C   UNL A   1      46.260  25.817  31.280  1.00  0.00     0.029 A 
ATOM     65  C   UNL A   1      45.056  25.789  31.958  1.00  0.00     0.049 A 
ATOM     66  H   UNL A   1      43.128  25.510  31.182  1.00  0.00     0.167 HD
ATOM     67  C   UNL A   1      44.344  26.796  34.062  1.00  0.00     0.074 A 
ATOM     68  C   UNL A   1      44.508  27.256  35.436  1.00  0.00     0.031 C 
ATOM     69  C   UNL A   1      44.844  25.693  33.406  1.00  0.00     0.034 A 
BRANCH  56  70
ATOM     70  C   UNL A   1      44.293  24.921  27.042  1.00  0.00     0.023 A 
ATOM     71  C   UNL A   1      44.200  23.570  26.620  1.00  0.00     0.031 A 
ATOM     72  C   UNL A   1      44.997  25.710  26.102  1.00  0.00     0.131 A 
ATOM     73  C   UNL A   1      44.885  23.046  25.488  1.00  0.00     0.055 A 
ATOM     74  C   UNL A   1      45.677  25.204  24.974  1.00  0.00     0.041 A 
ATOM     75  F   UNL A   1      45.017  27.041  26.147  1.00  0.00    -0.206 F 
ATOM     76  C   UNL A   1      45.648  23.861  24.672  1.00  0.00     0.022 A 
BRANCH  73  77
ATOM     77  S   UNL A   1      44.769  21.278  25.064  1.00  0.00     0.124 S 
ATOM     78  O   UNL A   1      44.545  21.325  23.623  1.00  0.00    -0.237 OA
ATOM     79  O   UNL A   1      46.059  20.753  25.498  1.00  0.00    -0.237 OA
ATOM     80  O   UNL A   1      43.623  20.820  25.850  1.00  0.00    -0.744 OA
ENDBRANCH  73  77
ENDBRANCH  56  70
BRANCH  57  81
ATOM     81  C   UNL A   1      41.523  30.806  34.900  1.00  0.00     0.023 A 
ATOM     82  C   UNL A   1      41.350  32.115  34.381  1.00  0.00     0.031 A 
ATOM     83  C   UNL A   1      40.410  30.177  35.478  1.00  0.00     0.131 A 
ATOM     84  C   UNL A   1      40.055  32.618  34.182  1.00  0.00     0.055 A 
ATOM     85  C   UNL A   1      39.127  30.732  35.357  1.00  0.00     0.041 A 
ATOM     86  F   UNL A   1      40.512  28.932  35.965  1.00  0.00    -0.206 F 
ATOM     87  C   UNL A   1      38.939  31.922  34.652  1.00  0.00     0.022 A 
BRANCH  84  88
ATOM     88  S   UNL A   1      39.801  33.966  32.976  1.00  0.00     0.124 S 
ATOM     89  O   UNL A   1      38.498  34.485  33.372  1.00  0.00    -0.237 OA
ATOM     90  O   UNL A   1      40.941  34.846  33.215  1.00  0.00    -0.237 OA
ATOM     91  O   UNL A   1      39.845  33.256  31.699  1.00  0.00    -0.744 OA
ENDBRANCH  84  88
ENDBRANCH  57  81
BRANCH  69  92
ATOM     92  C   UNL A   1      45.463  24.442  34.067  1.00  0.00     0.023 A 
ATOM     93  C   UNL A   1      46.664  24.436  34.784  1.00  0.00     0.031 A 
ATOM     94  C   UNL A   1      44.790  23.183  34.049  1.00  0.00     0.131 A 
ATOM     95  C   UNL A   1      47.209  23.240  35.301  1.00  0.00     0.055 A 
ATOM     96  C   UNL A   1      45.334  21.995  34.543  1.00  0.00     0.041 A 
ATOM     97  F   UNL A   1      43.529  23.047  33.612  1.00  0.00    -0.206 F 
ATOM     98  C   UNL A   1      46.566  22.014  35.162  1.00  0.00     0.022 A 
BRANCH  95  99
ATOM     99  S   UNL A   1      48.766  23.329  36.221  1.00  0.00     0.124 S 
ATOM    100  O   UNL A   1      48.448  24.307  37.256  1.00  0.00    -0.237 OA
ATOM    101  O   UNL A   1      48.937  21.953  36.678  1.00  0.00    -0.237 OA
ATOM    102  O   UNL A   1      49.732  23.771  35.218  1.00  0.00    -0.744 OA
ENDBRANCH  95  99
ENDBRANCH  69  92
ENDBRANCH  43  44
ENDBRANCH  36  38
ENDBRANCH  35  36
ENDBRANCH  34  35
ENDBRANCH  33  34
ENDBRANCH  32  33
ENDBRANCH  31  32
ENDBRANCH  30  31
ENDBRANCH  29  30
ENDBRANCH   1  29
TORSDOF 29
ENDMDL
