MODEL 1
REMARK VINA RESULT:      -7.7      0.000      0.000
REMARK SMILES COc1cccc(-c2nn(-c3cc4c(cc3C(N)=O)OCO4)cc2C(=O)OCCOCCOCCOCCOC(=O)c2ccc(-c3c4nc(c(-c5cc(S(=O)(=O)[O-])ccc5F)c5ccc([nH]5)c(-c5cc(S(=O)(=O)[O-])ccc5F)c5nc(c(-c6cc(S(=O)(=O)[O-])ccc6F)c6ccc3[nH]6)C=C5)C=C4)cc2)c1
REMARK SMILES IDX 34 1 33 2 32 3 31 4 30 5 29 6 28 7 27 8 25 9 26 10 24 11
REMARK SMILES IDX 8 12 9 13 10 14 23 15 7 16 3 17 4 18 105 19 5 20 6 21 2 22
REMARK SMILES IDX 1 23 11 24 12 25 16 26 13 27 15 28 14 29 22 30 20 31 21 32
REMARK SMILES IDX 17 33 18 34 19 35 35 38 36 39 37 40 38 41 39 42 40 43 41 44
REMARK SMILES IDX 42 45 43 46 104 47 44 48 103 49 45 50 46 51 47 52 97 53
REMARK SMILES IDX 48 54 102 55 96 56 98 57 49 58 101 59 95 60 94 61 50 63
REMARK SMILES IDX 82 64 62 65 81 66 63 67 66 68 80 69 99 70 64 71 65 72 79 74
REMARK SMILES IDX 100 75 67 76 51 77 52 78 60 79 53 80 59 81 61 82 58 83 54 84
REMARK SMILES IDX 55 85 56 86 57 87 83 88 84 89 92 90 85 91 91 92 93 93 90 94
REMARK SMILES IDX 86 95 87 96 88 97 89 98 68 99 69 100 77 101 70 102 76 103
REMARK SMILES IDX 78 104 75 105 71 106 72 107 73 108 74 109
REMARK H PARENT 18 36 18 37 98 62 66 73
REMARK Flexibility Score: inf
ROOT
ATOM      1  C   UNL A   1      45.669  26.223  29.322  1.00  0.00     0.188 C 
ENDROOT
BRANCH   1   2
ATOM      2  O   UNL A   1      46.889  26.948  29.181  1.00  0.00    -0.377 OA
BRANCH   2   3
ATOM      3  C   UNL A   1      48.069  26.177  29.302  1.00  0.00     0.188 C 
BRANCH   3   4
ATOM      4  C   UNL A   1      49.355  27.026  29.436  1.00  0.00     0.188 C 
BRANCH   4   5
ATOM      5  O   UNL A   1      50.470  26.830  28.576  1.00  0.00    -0.376 OA
BRANCH   5   6
ATOM      6  C   UNL A   1      50.443  27.260  27.226  1.00  0.00     0.202 C 
BRANCH   6   7
ATOM      7  C   UNL A   1      51.653  27.944  26.569  1.00  0.00     0.261 C 
BRANCH   7   8
ATOM      8  O   UNL A   1      52.200  27.303  25.416  1.00  0.00    -0.460 OA
BRANCH   8   9
ATOM      9  C   UNL A   1      53.209  27.984  24.779  1.00  0.00     0.342 C 
ATOM     10  O   UNL A   1      54.342  27.594  24.658  1.00  0.00    -0.246 OA
BRANCH   9  11
ATOM     11  C   UNL A   1      52.699  29.205  24.180  1.00  0.00     0.106 A 
ATOM     12  C   UNL A   1      51.788  29.387  23.099  1.00  0.00     0.107 A 
ATOM     13  N   UNL A   1      51.635  30.696  22.816  1.00  0.00    -0.167 NA
ATOM     14  N   UNL A   1      52.583  31.294  23.581  1.00  0.00    -0.239 N 
ATOM     15  C   UNL A   1      52.953  30.483  24.620  1.00  0.00     0.131 A 
BRANCH  12  16
ATOM     16  C   UNL A   1      51.013  28.361  22.412  1.00  0.00     0.007 A 
ATOM     17  C   UNL A   1      49.212  26.741  22.418  1.00  0.00     0.119 A 
ATOM     18  C   UNL A   1      49.381  26.560  21.042  1.00  0.00     0.046 A 
ATOM     19  C   UNL A   1      50.023  27.651  23.100  1.00  0.00     0.056 A 
ATOM     20  C   UNL A   1      50.370  27.258  20.350  1.00  0.00     0.005 A 
ATOM     21  C   UNL A   1      51.204  28.136  21.041  1.00  0.00     0.011 A 
BRANCH  17  22
ATOM     22  O   UNL A   1      48.236  25.962  22.978  1.00  0.00    -0.497 OA
ATOM     23  C   UNL A   1      47.743  26.380  24.244  1.00  0.00     0.278 C 
ENDBRANCH  17  22
ENDBRANCH  12  16
BRANCH  14  24
ATOM     24  C   UNL A   1      53.055  32.603  23.324  1.00  0.00     0.081 A 
ATOM     25  C   UNL A   1      52.513  33.658  24.083  1.00  0.00     0.079 A 
ATOM     26  C   UNL A   1      54.051  32.852  22.328  1.00  0.00     0.069 A 
ATOM     27  C   UNL A   1      53.032  34.916  23.880  1.00  0.00     0.167 A 
ATOM     28  C   UNL A   1      54.614  34.134  22.238  1.00  0.00     0.066 A 
ATOM     29  C   UNL A   1      54.071  35.137  23.009  1.00  0.00     0.166 A 
ATOM     30  O   UNL A   1      52.603  36.068  24.461  1.00  0.00    -0.454 OA
ATOM     31  O   UNL A   1      54.429  36.448  22.941  1.00  0.00    -0.454 OA
ATOM     32  C   UNL A   1      53.380  37.041  23.733  1.00  0.00     0.468 C 
BRANCH  26  33
ATOM     33  C   UNL A   1      54.301  31.890  21.195  1.00  0.00     0.251 C 
ATOM     34  N   UNL A   1      53.368  31.762  20.205  1.00  0.00    -0.366 N 
ATOM     35  O   UNL A   1      55.267  31.139  21.157  1.00  0.00    -0.269 OA
ATOM     36  H   UNL A   1      52.575  32.345  20.198  1.00  0.00     0.159 HD
ATOM     37  H   UNL A   1      53.488  31.086  19.499  1.00  0.00     0.159 HD
ENDBRANCH  26  33
ENDBRANCH  14  24
ENDBRANCH   9  11
ENDBRANCH   8   9
ENDBRANCH   7   8
ENDBRANCH   6   7
ENDBRANCH   5   6
ENDBRANCH   4   5
ENDBRANCH   3   4
ENDBRANCH   2   3
ENDBRANCH   1   2
BRANCH   1  38
ATOM     38  C   UNL A   1      45.685  24.683  29.144  1.00  0.00     0.188 C 
BRANCH  38  39
ATOM     39  O   UNL A   1      45.410  24.221  27.822  1.00  0.00    -0.376 OA
BRANCH  39  40
ATOM     40  C   UNL A   1      45.288  25.122  26.734  1.00  0.00     0.202 C 
BRANCH  40  41
ATOM     41  C   UNL A   1      44.557  24.568  25.516  1.00  0.00     0.261 C 
BRANCH  41  42
ATOM     42  O   UNL A   1      43.225  25.031  25.417  1.00  0.00    -0.460 OA
BRANCH  42  43
ATOM     43  C   UNL A   1      42.294  24.172  25.876  1.00  0.00     0.338 C 
ATOM     44  O   UNL A   1      42.076  23.039  25.486  1.00  0.00    -0.246 OA
BRANCH  43  45
ATOM     45  C   UNL A   1      41.492  24.875  26.877  1.00  0.00     0.060 A 
ATOM     46  C   UNL A   1      40.628  25.835  26.362  1.00  0.00     0.016 A 
ATOM     47  C   UNL A   1      41.921  24.864  28.216  1.00  0.00     0.016 A 
ATOM     48  C   UNL A   1      40.482  26.983  27.088  1.00  0.00     0.010 A 
ATOM     49  C   UNL A   1      41.786  26.019  28.933  1.00  0.00     0.010 A 
ATOM     50  C   UNL A   1      41.175  27.091  28.298  1.00  0.00    -0.014 A 
BRANCH  50  51
ATOM     51  C   UNL A   1      41.233  28.398  28.893  1.00  0.00     0.031 A 
ATOM     52  C   UNL A   1      42.403  29.162  28.448  1.00  0.00     0.074 A 
ATOM     53  C   UNL A   1      40.287  28.849  29.732  1.00  0.00     0.049 A 
ATOM     54  N   UNL A   1      43.457  29.440  29.132  1.00  0.00    -0.248 NA
ATOM     55  C   UNL A   1      42.508  29.458  27.012  1.00  0.00     0.031 C 
ATOM     56  C   UNL A   1      38.967  28.285  30.016  1.00  0.00     0.029 A 
ATOM     57  N   UNL A   1      40.285  30.013  30.425  1.00  0.00    -0.354 N 
ATOM     58  C   UNL A   1      44.263  30.167  28.272  1.00  0.00     0.074 A 
ATOM     59  C   UNL A   1      43.746  29.942  26.950  1.00  0.00     0.031 C 
ATOM     60  C   UNL A   1      38.209  29.234  30.614  1.00  0.00     0.029 A 
ATOM     61  C   UNL A   1      39.029  30.414  30.851  1.00  0.00     0.049 A 
ATOM     62  H   UNL A   1      41.103  30.528  30.610  1.00  0.00     0.167 HD
ATOM     63  C   UNL A   1      45.116  31.109  28.751  1.00  0.00     0.034 A 
ATOM     64  C   UNL A   1      38.689  31.672  31.237  1.00  0.00     0.034 A 
ATOM     65  C   UNL A   1      45.375  30.914  30.161  1.00  0.00     0.049 A 
ATOM     66  C   UNL A   1      39.953  32.353  31.643  1.00  0.00     0.074 A 
ATOM     67  C   UNL A   1      45.851  29.849  30.907  1.00  0.00     0.029 A 
ATOM     68  N   UNL A   1      44.757  31.748  31.069  1.00  0.00    -0.354 N 
ATOM     69  N   UNL A   1      40.673  31.977  32.669  1.00  0.00    -0.248 NA
ATOM     70  C   UNL A   1      40.683  33.111  30.633  1.00  0.00     0.031 C 
ATOM     71  C   UNL A   1      45.062  29.846  32.093  1.00  0.00     0.029 A 
ATOM     72  C   UNL A   1      44.205  30.948  32.043  1.00  0.00     0.049 A 
ATOM     73  H   UNL A   1      44.719  32.730  31.028  1.00  0.00     0.167 HD
ATOM     74  C   UNL A   1      41.992  32.064  32.243  1.00  0.00     0.074 A 
ATOM     75  C   UNL A   1      41.940  32.861  31.018  1.00  0.00     0.031 C 
ATOM     76  C   UNL A   1      42.968  31.248  32.747  1.00  0.00     0.034 A 
BRANCH  63  77
ATOM     77  C   UNL A   1      45.412  32.398  28.030  1.00  0.00     0.023 A 
ATOM     78  C   UNL A   1      44.438  33.406  28.105  1.00  0.00     0.031 A 
ATOM     79  C   UNL A   1      46.432  32.594  27.067  1.00  0.00     0.131 A 
ATOM     80  C   UNL A   1      44.444  34.477  27.198  1.00  0.00     0.055 A 
ATOM     81  C   UNL A   1      46.477  33.704  26.222  1.00  0.00     0.041 A 
ATOM     82  F   UNL A   1      47.383  31.689  26.813  1.00  0.00    -0.206 F 
ATOM     83  C   UNL A   1      45.460  34.637  26.261  1.00  0.00     0.022 A 
BRANCH  80  84
ATOM     84  S   UNL A   1      42.989  35.549  27.145  1.00  0.00     0.124 S 
ATOM     85  O   UNL A   1      42.422  35.210  25.844  1.00  0.00    -0.237 OA
ATOM     86  O   UNL A   1      42.243  35.096  28.313  1.00  0.00    -0.237 OA
ATOM     87  O   UNL A   1      43.557  36.891  27.247  1.00  0.00    -0.744 OA
ENDBRANCH  80  84
ENDBRANCH  63  77
BRANCH  64  88
ATOM     88  C   UNL A   1      37.422  32.369  30.876  1.00  0.00     0.023 A 
ATOM     89  C   UNL A   1      36.557  32.927  31.838  1.00  0.00     0.031 A 
ATOM     90  C   UNL A   1      37.138  32.677  29.523  1.00  0.00     0.131 A 
ATOM     91  C   UNL A   1      35.461  33.728  31.432  1.00  0.00     0.055 A 
ATOM     92  C   UNL A   1      36.045  33.449  29.127  1.00  0.00     0.041 A 
ATOM     93  F   UNL A   1      37.963  32.306  28.531  1.00  0.00    -0.206 F 
ATOM     94  C   UNL A   1      35.202  33.984  30.083  1.00  0.00     0.022 A 
BRANCH  91  95
ATOM     95  S   UNL A   1      34.400  34.535  32.672  1.00  0.00     0.124 S 
ATOM     96  O   UNL A   1      35.256  35.609  33.162  1.00  0.00    -0.237 OA
ATOM     97  O   UNL A   1      33.243  34.935  31.880  1.00  0.00    -0.237 OA
ATOM     98  O   UNL A   1      34.137  33.469  33.641  1.00  0.00    -0.744 OA
ENDBRANCH  91  95
ENDBRANCH  64  88
BRANCH  76  99
ATOM     99  C   UNL A   1      42.671  30.414  33.981  1.00  0.00     0.023 A 
ATOM    100  C   UNL A   1      42.504  29.010  33.981  1.00  0.00     0.031 A 
ATOM    101  C   UNL A   1      42.709  31.062  35.229  1.00  0.00     0.131 A 
ATOM    102  C   UNL A   1      42.377  28.314  35.200  1.00  0.00     0.055 A 
ATOM    103  C   UNL A   1      42.605  30.367  36.434  1.00  0.00     0.041 A 
ATOM    104  F   UNL A   1      42.895  32.391  35.301  1.00  0.00    -0.206 F 
ATOM    105  C   UNL A   1      42.433  28.988  36.424  1.00  0.00     0.022 A 
BRANCH 102 106
ATOM    106  S   UNL A   1      42.129  26.508  35.218  1.00  0.00     0.124 S 
ATOM    107  O   UNL A   1      40.725  26.353  34.858  1.00  0.00    -0.237 OA
ATOM    108  O   UNL A   1      43.100  26.046  34.230  1.00  0.00    -0.237 OA
ATOM    109  O   UNL A   1      42.446  26.136  36.600  1.00  0.00    -0.744 OA
ENDBRANCH 102 106
ENDBRANCH  76  99
ENDBRANCH  50  51
ENDBRANCH  43  45
ENDBRANCH  42  43
ENDBRANCH  41  42
ENDBRANCH  40  41
ENDBRANCH  39  40
ENDBRANCH  38  39
ENDBRANCH   1  38
TORSDOF 27
ENDMDL
MODEL 2
REMARK VINA RESULT:      -7.7      4.944     13.368
REMARK SMILES COc1cccc(-c2nn(-c3cc4c(cc3C(N)=O)OCO4)cc2C(=O)OCCOCCOCCOCCOC(=O)c2ccc(-c3c4nc(c(-c5cc(S(=O)(=O)[O-])ccc5F)c5ccc([nH]5)c(-c5cc(S(=O)(=O)[O-])ccc5F)c5nc(c(-c6cc(S(=O)(=O)[O-])ccc6F)c6ccc3[nH]6)C=C5)C=C4)cc2)c1
REMARK SMILES IDX 34 1 33 2 32 3 31 4 30 5 29 6 28 7 27 8 25 9 26 10 24 11
REMARK SMILES IDX 8 12 9 13 10 14 23 15 7 16 3 17 4 18 105 19 5 20 6 21 2 22
REMARK SMILES IDX 1 23 11 24 12 25 16 26 13 27 15 28 14 29 22 30 20 31 21 32
REMARK SMILES IDX 17 33 18 34 19 35 35 38 36 39 37 40 38 41 39 42 40 43 41 44
REMARK SMILES IDX 42 45 43 46 104 47 44 48 103 49 45 50 46 51 47 52 97 53
REMARK SMILES IDX 48 54 102 55 96 56 98 57 49 58 101 59 95 60 94 61 50 63
REMARK SMILES IDX 82 64 62 65 81 66 63 67 66 68 80 69 99 70 64 71 65 72 79 74
REMARK SMILES IDX 100 75 67 76 51 77 52 78 60 79 53 80 59 81 61 82 58 83 54 84
REMARK SMILES IDX 55 85 56 86 57 87 83 88 84 89 92 90 85 91 91 92 93 93 90 94
REMARK SMILES IDX 86 95 87 96 88 97 89 98 68 99 69 100 77 101 70 102 76 103
REMARK SMILES IDX 78 104 75 105 71 106 72 107 73 108 74 109
REMARK H PARENT 18 36 18 37 98 62 66 73
REMARK Flexibility Score: inf
ROOT
ATOM      1  C   UNL A   1      33.363  34.438  29.148  1.00  0.00     0.188 C 
ENDROOT
BRANCH   1   2
ATOM      2  O   UNL A   1      32.698  34.919  30.315  1.00  0.00    -0.377 OA
BRANCH   2   3
ATOM      3  C   UNL A   1      33.307  36.031  30.944  1.00  0.00     0.188 C 
BRANCH   3   4
ATOM      4  C   UNL A   1      33.786  35.742  32.386  1.00  0.00     0.188 C 
BRANCH   4   5
ATOM      5  O   UNL A   1      35.116  35.316  32.657  1.00  0.00    -0.376 OA
BRANCH   5   6
ATOM      6  C   UNL A   1      35.397  34.401  33.702  1.00  0.00     0.202 C 
BRANCH   6   7
ATOM      7  C   UNL A   1      36.016  33.021  33.427  1.00  0.00     0.261 C 
BRANCH   7   8
ATOM      8  O   UNL A   1      36.676  32.387  34.522  1.00  0.00    -0.460 OA
BRANCH   8   9
ATOM      9  C   UNL A   1      36.834  33.157  35.648  1.00  0.00     0.342 C 
ATOM     10  O   UNL A   1      35.958  33.773  36.199  1.00  0.00    -0.246 OA
BRANCH   9  11
ATOM     11  C   UNL A   1      38.194  33.052  36.148  1.00  0.00     0.106 A 
ATOM     12  C   UNL A   1      38.674  32.914  37.483  1.00  0.00     0.107 A 
ATOM     13  N   UNL A   1      40.021  32.920  37.511  1.00  0.00    -0.167 NA
ATOM     14  N   UNL A   1      40.360  33.251  36.240  1.00  0.00    -0.239 N 
ATOM     15  C   UNL A   1      39.331  32.982  35.377  1.00  0.00     0.131 A 
BRANCH  12  16
ATOM     16  C   UNL A   1      37.885  32.691  38.688  1.00  0.00     0.007 A 
ATOM     17  C   UNL A   1      36.970  33.513  40.776  1.00  0.00     0.119 A 
ATOM     18  C   UNL A   1      36.197  32.352  40.885  1.00  0.00     0.046 A 
ATOM     19  C   UNL A   1      37.806  33.685  39.670  1.00  0.00     0.056 A 
ATOM     20  C   UNL A   1      36.275  31.354  39.915  1.00  0.00     0.005 A 
ATOM     21  C   UNL A   1      37.140  31.511  38.832  1.00  0.00     0.011 A 
BRANCH  17  22
ATOM     22  O   UNL A   1      36.829  34.389  41.818  1.00  0.00    -0.497 OA
ATOM     23  C   UNL A   1      38.032  34.879  42.397  1.00  0.00     0.278 C 
ENDBRANCH  17  22
ENDBRANCH  12  16
BRANCH  14  24
ATOM     24  C   UNL A   1      41.636  33.756  35.897  1.00  0.00     0.081 A 
ATOM     25  C   UNL A   1      41.715  35.081  35.428  1.00  0.00     0.079 A 
ATOM     26  C   UNL A   1      42.813  32.952  36.022  1.00  0.00     0.069 A 
ATOM     27  C   UNL A   1      42.967  35.589  35.169  1.00  0.00     0.167 A 
ATOM     28  C   UNL A   1      44.067  33.553  35.844  1.00  0.00     0.066 A 
ATOM     29  C   UNL A   1      44.106  34.856  35.403  1.00  0.00     0.166 A 
ATOM     30  O   UNL A   1      43.249  36.814  34.652  1.00  0.00    -0.454 OA
ATOM     31  O   UNL A   1      45.240  35.530  35.071  1.00  0.00    -0.454 OA
ATOM     32  C   UNL A   1      44.671  36.695  34.439  1.00  0.00     0.468 C 
BRANCH  26  33
ATOM     33  C   UNL A   1      42.748  31.445  36.044  1.00  0.00     0.251 C 
ATOM     34  N   UNL A   1      42.142  30.815  37.094  1.00  0.00    -0.366 N 
ATOM     35  O   UNL A   1      43.293  30.741  35.204  1.00  0.00    -0.269 OA
ATOM     36  H   UNL A   1      41.692  31.344  37.792  1.00  0.00     0.159 HD
ATOM     37  H   UNL A   1      42.157  29.832  37.153  1.00  0.00     0.159 HD
ENDBRANCH  26  33
ENDBRANCH  14  24
ENDBRANCH   9  11
ENDBRANCH   8   9
ENDBRANCH   7   8
ENDBRANCH   6   7
ENDBRANCH   5   6
ENDBRANCH   4   5
ENDBRANCH   3   4
ENDBRANCH   2   3
ENDBRANCH   1   2
BRANCH   1  38
ATOM     38  C   UNL A   1      34.910  34.518  29.076  1.00  0.00     0.188 C 
BRANCH  38  39
ATOM     39  O   UNL A   1      35.606  33.571  29.885  1.00  0.00    -0.376 OA
BRANCH  39  40
ATOM     40  C   UNL A   1      36.942  33.195  29.598  1.00  0.00     0.202 C 
BRANCH  40  41
ATOM     41  C   UNL A   1      38.011  34.002  30.328  1.00  0.00     0.261 C 
BRANCH  41  42
ATOM     42  O   UNL A   1      39.079  33.202  30.796  1.00  0.00    -0.460 OA
BRANCH  42  43
ATOM     43  C   UNL A   1      39.955  33.843  31.594  1.00  0.00     0.338 C 
ATOM     44  O   UNL A   1      39.708  34.690  32.435  1.00  0.00    -0.246 OA
BRANCH  43  45
ATOM     45  C   UNL A   1      41.302  33.424  31.209  1.00  0.00     0.060 A 
ATOM     46  C   UNL A   1      41.390  32.832  29.953  1.00  0.00     0.016 A 
ATOM     47  C   UNL A   1      42.269  33.246  32.213  1.00  0.00     0.016 A 
ATOM     48  C   UNL A   1      42.253  31.780  29.829  1.00  0.00     0.010 A 
ATOM     49  C   UNL A   1      43.119  32.184  32.092  1.00  0.00     0.010 A 
ATOM     50  C   UNL A   1      43.000  31.403  30.950  1.00  0.00    -0.014 A 
BRANCH  50  51
ATOM     51  C   UNL A   1      43.675  30.137  30.879  1.00  0.00     0.031 A 
ATOM     52  C   UNL A   1      44.892  30.198  30.063  1.00  0.00     0.074 A 
ATOM     53  C   UNL A   1      43.232  29.048  31.527  1.00  0.00     0.049 A 
ATOM     54  N   UNL A   1      45.067  29.702  28.889  1.00  0.00    -0.248 NA
ATOM     55  C   UNL A   1      45.958  31.105  30.511  1.00  0.00     0.031 C 
ATOM     56  C   UNL A   1      42.207  28.952  32.567  1.00  0.00     0.029 A 
ATOM     57  N   UNL A   1      43.723  27.787  31.456  1.00  0.00    -0.354 N 
ATOM     58  C   UNL A   1      46.369  30.031  28.550  1.00  0.00     0.074 A 
ATOM     59  C   UNL A   1      46.771  31.071  29.457  1.00  0.00     0.031 C 
ATOM     60  C   UNL A   1      42.339  27.762  33.198  1.00  0.00     0.029 A 
ATOM     61  C   UNL A   1      43.371  26.984  32.527  1.00  0.00     0.049 A 
ATOM     62  H   UNL A   1      44.281  27.471  30.709  1.00  0.00     0.167 HD
ATOM     63  C   UNL A   1      47.096  29.230  27.729  1.00  0.00     0.034 A 
ATOM     64  C   UNL A   1      43.994  25.832  32.890  1.00  0.00     0.034 A 
ATOM     65  C   UNL A   1      46.241  28.344  26.968  1.00  0.00     0.049 A 
ATOM     66  C   UNL A   1      44.700  25.325  31.678  1.00  0.00     0.074 A 
ATOM     67  C   UNL A   1      45.173  28.550  26.112  1.00  0.00     0.029 A 
ATOM     68  N   UNL A   1      46.158  27.020  27.344  1.00  0.00    -0.354 N 
ATOM     69  N   UNL A   1      44.078  24.927  30.598  1.00  0.00    -0.248 NA
ATOM     70  C   UNL A   1      46.085  25.733  31.465  1.00  0.00     0.031 C 
ATOM     71  C   UNL A   1      44.242  27.518  26.428  1.00  0.00     0.029 A 
ATOM     72  C   UNL A   1      44.821  26.697  27.399  1.00  0.00     0.049 A 
ATOM     73  H   UNL A   1      46.912  26.418  27.537  1.00  0.00     0.167 HD
ATOM     74  C   UNL A   1      44.821  25.433  29.539  1.00  0.00     0.074 A 
ATOM     75  C   UNL A   1      46.095  25.834  30.132  1.00  0.00     0.031 C 
ATOM     76  C   UNL A   1      44.243  25.753  28.341  1.00  0.00     0.034 A 
BRANCH  63  77
ATOM     77  C   UNL A   1      48.576  29.003  27.895  1.00  0.00     0.023 A 
ATOM     78  C   UNL A   1      48.969  27.839  28.573  1.00  0.00     0.031 A 
ATOM     79  C   UNL A   1      49.591  29.969  27.687  1.00  0.00     0.131 A 
ATOM     80  C   UNL A   1      50.268  27.714  29.090  1.00  0.00     0.055 A 
ATOM     81  C   UNL A   1      50.902  29.803  28.132  1.00  0.00     0.041 A 
ATOM     82  F   UNL A   1      49.361  31.165  27.134  1.00  0.00    -0.206 F 
ATOM     83  C   UNL A   1      51.240  28.685  28.870  1.00  0.00     0.022 A 
BRANCH  80  84
ATOM     84  S   UNL A   1      50.601  26.343  30.222  1.00  0.00     0.124 S 
ATOM     85  O   UNL A   1      52.051  26.421  30.358  1.00  0.00    -0.237 OA
ATOM     86  O   UNL A   1      49.820  26.728  31.392  1.00  0.00    -0.237 OA
ATOM     87  O   UNL A   1      50.104  25.179  29.494  1.00  0.00    -0.744 OA
ENDBRANCH  80  84
ENDBRANCH  63  77
BRANCH  64  88
ATOM     88  C   UNL A   1      44.305  25.426  34.291  1.00  0.00     0.023 A 
ATOM     89  C   UNL A   1      44.447  26.356  35.340  1.00  0.00     0.031 A 
ATOM     90  C   UNL A   1      44.270  24.060  34.663  1.00  0.00     0.131 A 
ATOM     91  C   UNL A   1      44.567  25.907  36.679  1.00  0.00     0.055 A 
ATOM     92  C   UNL A   1      44.410  23.622  35.980  1.00  0.00     0.041 A 
ATOM     93  F   UNL A   1      44.014  23.096  33.765  1.00  0.00    -0.206 F 
ATOM     94  C   UNL A   1      44.555  24.546  36.998  1.00  0.00     0.022 A 
BRANCH  91  95
ATOM     95  S   UNL A   1      44.649  27.103  38.049  1.00  0.00     0.124 S 
ATOM     96  O   UNL A   1      44.055  28.296  37.455  1.00  0.00    -0.237 OA
ATOM     97  O   UNL A   1      43.873  26.439  39.090  1.00  0.00    -0.237 OA
ATOM     98  O   UNL A   1      46.082  27.205  38.328  1.00  0.00    -0.744 OA
ENDBRANCH  91  95
ENDBRANCH  64  88
BRANCH  76  99
ATOM     99  C   UNL A   1      42.818  25.305  28.063  1.00  0.00     0.023 A 
ATOM    100  C   UNL A   1      42.461  24.044  27.532  1.00  0.00     0.031 A 
ATOM    101  C   UNL A   1      41.776  26.142  28.500  1.00  0.00     0.131 A 
ATOM    102  C   UNL A   1      41.104  23.671  27.450  1.00  0.00     0.055 A 
ATOM    103  C   UNL A   1      40.436  25.760  28.438  1.00  0.00     0.041 A 
ATOM    104  F   UNL A   1      42.048  27.341  29.044  1.00  0.00    -0.206 F 
ATOM    105  C   UNL A   1      40.094  24.523  27.906  1.00  0.00     0.022 A 
BRANCH 102 106
ATOM    106  S   UNL A   1      40.623  22.063  26.737  1.00  0.00     0.124 S 
ATOM    107  O   UNL A   1      39.286  22.309  26.212  1.00  0.00    -0.237 OA
ATOM    108  O   UNL A   1      41.670  21.833  25.745  1.00  0.00    -0.237 OA
ATOM    109  O   UNL A   1      40.667  21.156  27.887  1.00  0.00    -0.744 OA
ENDBRANCH 102 106
ENDBRANCH  76  99
ENDBRANCH  50  51
ENDBRANCH  43  45
ENDBRANCH  42  43
ENDBRANCH  41  42
ENDBRANCH  40  41
ENDBRANCH  39  40
ENDBRANCH  38  39
ENDBRANCH   1  38
TORSDOF 27
ENDMDL
MODEL 3
REMARK VINA RESULT:      -7.5      5.745     11.203
REMARK SMILES COc1cccc(-c2nn(-c3cc4c(cc3C(N)=O)OCO4)cc2C(=O)OCCOCCOCCOCCOC(=O)c2ccc(-c3c4nc(c(-c5cc(S(=O)(=O)[O-])ccc5F)c5ccc([nH]5)c(-c5cc(S(=O)(=O)[O-])ccc5F)c5nc(c(-c6cc(S(=O)(=O)[O-])ccc6F)c6ccc3[nH]6)C=C5)C=C4)cc2)c1
REMARK SMILES IDX 34 1 33 2 32 3 31 4 30 5 29 6 28 7 27 8 25 9 26 10 24 11
REMARK SMILES IDX 8 12 9 13 10 14 23 15 7 16 3 17 4 18 105 19 5 20 6 21 2 22
REMARK SMILES IDX 1 23 11 24 12 25 16 26 13 27 15 28 14 29 22 30 20 31 21 32
REMARK SMILES IDX 17 33 18 34 19 35 35 38 36 39 37 40 38 41 39 42 40 43 41 44
REMARK SMILES IDX 42 45 43 46 104 47 44 48 103 49 45 50 46 51 47 52 97 53
REMARK SMILES IDX 48 54 102 55 96 56 98 57 49 58 101 59 95 60 94 61 50 63
REMARK SMILES IDX 82 64 62 65 81 66 63 67 66 68 80 69 99 70 64 71 65 72 79 74
REMARK SMILES IDX 100 75 67 76 51 77 52 78 60 79 53 80 59 81 61 82 58 83 54 84
REMARK SMILES IDX 55 85 56 86 57 87 83 88 84 89 92 90 85 91 91 92 93 93 90 94
REMARK SMILES IDX 86 95 87 96 88 97 89 98 68 99 69 100 77 101 70 102 76 103
REMARK SMILES IDX 78 104 75 105 71 106 72 107 73 108 74 109
REMARK H PARENT 18 36 18 37 98 62 66 73
REMARK Flexibility Score: inf
ROOT
ATOM      1  C   UNL A   1      52.298  39.032  30.957  1.00  0.00     0.188 C 
ENDROOT
BRANCH   1   2
ATOM      2  O   UNL A   1      52.179  39.959  29.879  1.00  0.00    -0.377 OA
BRANCH   2   3
ATOM      3  C   UNL A   1      51.371  39.530  28.799  1.00  0.00     0.188 C 
BRANCH   3   4
ATOM      4  C   UNL A   1      49.931  40.094  28.839  1.00  0.00     0.188 C 
BRANCH   4   5
ATOM      5  O   UNL A   1      49.044  39.948  27.737  1.00  0.00    -0.376 OA
BRANCH   5   6
ATOM      6  C   UNL A   1      49.025  38.764  26.959  1.00  0.00     0.202 C 
BRANCH   6   7
ATOM      7  C   UNL A   1      47.774  37.876  26.865  1.00  0.00     0.261 C 
BRANCH   7   8
ATOM      8  O   UNL A   1      46.824  37.996  27.923  1.00  0.00    -0.460 OA
BRANCH   8   9
ATOM      9  C   UNL A   1      45.628  38.581  27.586  1.00  0.00     0.342 C 
ATOM     10  O   UNL A   1      44.912  38.232  26.683  1.00  0.00    -0.246 OA
BRANCH   9  11
ATOM     11  C   UNL A   1      45.290  39.629  28.534  1.00  0.00     0.106 A 
ATOM     12  C   UNL A   1      44.379  40.718  28.414  1.00  0.00     0.107 A 
ATOM     13  N   UNL A   1      44.419  41.500  29.511  1.00  0.00    -0.167 NA
ATOM     14  N   UNL A   1      45.475  41.009  30.207  1.00  0.00    -0.239 N 
ATOM     15  C   UNL A   1      45.755  39.724  29.825  1.00  0.00     0.131 A 
BRANCH  12  16
ATOM     16  C   UNL A   1      43.430  40.963  27.335  1.00  0.00     0.007 A 
ATOM     17  C   UNL A   1      42.944  41.857  25.135  1.00  0.00     0.119 A 
ATOM     18  C   UNL A   1      41.689  41.241  25.172  1.00  0.00     0.046 A 
ATOM     19  C   UNL A   1      43.818  41.708  26.215  1.00  0.00     0.056 A 
ATOM     20  C   UNL A   1      41.292  40.504  26.287  1.00  0.00     0.005 A 
ATOM     21  C   UNL A   1      42.151  40.389  27.379  1.00  0.00     0.011 A 
BRANCH  17  22
ATOM     22  O   UNL A   1      43.186  42.584  24.002  1.00  0.00    -0.497 OA
ATOM     23  C   UNL A   1      43.960  43.766  24.164  1.00  0.00     0.278 C 
ENDBRANCH  17  22
ENDBRANCH  12  16
BRANCH  14  24
ATOM     24  C   UNL A   1      46.133  41.750  31.217  1.00  0.00     0.081 A 
ATOM     25  C   UNL A   1      47.421  42.245  30.936  1.00  0.00     0.079 A 
ATOM     26  C   UNL A   1      45.515  41.992  32.484  1.00  0.00     0.069 A 
ATOM     27  C   UNL A   1      48.023  43.028  31.894  1.00  0.00     0.167 A 
ATOM     28  C   UNL A   1      46.130  42.880  33.379  1.00  0.00     0.066 A 
ATOM     29  C   UNL A   1      47.380  43.360  33.062  1.00  0.00     0.166 A 
ATOM     30  O   UNL A   1      49.280  43.543  31.841  1.00  0.00    -0.454 OA
ATOM     31  O   UNL A   1      48.148  44.128  33.882  1.00  0.00    -0.454 OA
ATOM     32  C   UNL A   1      49.402  44.089  33.171  1.00  0.00     0.468 C 
BRANCH  26  33
ATOM     33  C   UNL A   1      44.404  41.118  33.008  1.00  0.00     0.251 C 
ATOM     34  N   UNL A   1      44.678  39.829  33.367  1.00  0.00    -0.366 N 
ATOM     35  O   UNL A   1      43.234  41.476  33.047  1.00  0.00    -0.269 OA
ATOM     36  H   UNL A   1      45.606  39.499  33.349  1.00  0.00     0.159 HD
ATOM     37  H   UNL A   1      43.948  39.228  33.642  1.00  0.00     0.159 HD
ENDBRANCH  26  33
ENDBRANCH  14  24
ENDBRANCH   9  11
ENDBRANCH   8   9
ENDBRANCH   7   8
ENDBRANCH   6   7
ENDBRANCH   5   6
ENDBRANCH   4   5
ENDBRANCH   3   4
ENDBRANCH   2   3
ENDBRANCH   1   2
BRANCH   1  38
ATOM     38  C   UNL A   1      51.317  37.833  31.030  1.00  0.00     0.188 C 
BRANCH  38  39
ATOM     39  O   UNL A   1      50.659  37.662  32.285  1.00  0.00    -0.376 OA
BRANCH  39  40
ATOM     40  C   UNL A   1      49.347  37.129  32.364  1.00  0.00     0.202 C 
BRANCH  40  41
ATOM     41  C   UNL A   1      48.453  37.434  31.167  1.00  0.00     0.261 C 
BRANCH  41  42
ATOM     42  O   UNL A   1      47.138  36.939  31.323  1.00  0.00    -0.460 OA
BRANCH  42  43
ATOM     43  C   UNL A   1      46.809  35.937  30.485  1.00  0.00     0.338 C 
ATOM     44  O   UNL A   1      47.561  35.277  29.789  1.00  0.00    -0.246 OA
BRANCH  43  45
ATOM     45  C   UNL A   1      45.350  35.832  30.462  1.00  0.00     0.060 A 
ATOM     46  C   UNL A   1      44.759  35.665  31.710  1.00  0.00     0.016 A 
ATOM     47  C   UNL A   1      44.716  35.485  29.256  1.00  0.00     0.016 A 
ATOM     48  C   UNL A   1      43.687  34.821  31.773  1.00  0.00     0.010 A 
ATOM     49  C   UNL A   1      43.653  34.629  29.324  1.00  0.00     0.010 A 
ATOM     50  C   UNL A   1      43.246  34.223  30.587  1.00  0.00    -0.014 A 
BRANCH  50  51
ATOM     51  C   UNL A   1      42.316  33.136  30.721  1.00  0.00     0.031 A 
ATOM     52  C   UNL A   1      40.955  33.599  31.013  1.00  0.00     0.074 A 
ATOM     53  C   UNL A   1      42.679  31.854  30.557  1.00  0.00     0.049 A 
ATOM     54  N   UNL A   1      40.327  33.511  32.133  1.00  0.00    -0.248 NA
ATOM     55  C   UNL A   1      40.306  34.456  30.011  1.00  0.00     0.031 C 
ATOM     56  C   UNL A   1      43.921  31.315  30.003  1.00  0.00     0.029 A 
ATOM     57  N   UNL A   1      41.920  30.749  30.754  1.00  0.00    -0.354 N 
ATOM     58  C   UNL A   1      39.092  34.092  31.899  1.00  0.00     0.074 A 
ATOM     59  C   UNL A   1      39.227  34.849  30.684  1.00  0.00     0.031 C 
ATOM     60  C   UNL A   1      43.724  30.017  29.676  1.00  0.00     0.029 A 
ATOM     61  C   UNL A   1      42.390  29.619  30.106  1.00  0.00     0.049 A 
ATOM     62  H   UNL A   1      41.107  30.750  31.309  1.00  0.00     0.167 HD
ATOM     63  C   UNL A   1      37.991  33.679  32.578  1.00  0.00     0.034 A 
ATOM     64  C   UNL A   1      41.665  28.502  29.838  1.00  0.00     0.034 A 
ATOM     65  C   UNL A   1      38.355  32.964  33.783  1.00  0.00     0.049 A 
ATOM     66  C   UNL A   1      40.531  28.483  30.806  1.00  0.00     0.074 A 
ATOM     67  C   UNL A   1      39.132  33.282  34.884  1.00  0.00     0.029 A 
ATOM     68  N   UNL A   1      38.250  31.590  33.794  1.00  0.00    -0.354 N 
ATOM     69  N   UNL A   1      40.692  28.357  32.099  1.00  0.00    -0.248 NA
ATOM     70  C   UNL A   1      39.275  29.112  30.410  1.00  0.00     0.031 C 
ATOM     71  C   UNL A   1      39.859  32.092  35.179  1.00  0.00     0.029 A 
ATOM     72  C   UNL A   1      39.432  31.096  34.296  1.00  0.00     0.049 A 
ATOM     73  H   UNL A   1      37.474  31.060  33.500  1.00  0.00     0.167 HD
ATOM     74  C   UNL A   1      39.796  29.251  32.670  1.00  0.00     0.074 A 
ATOM     75  C   UNL A   1      38.884  29.614  31.587  1.00  0.00     0.031 C 
ATOM     76  C   UNL A   1      40.042  29.844  33.879  1.00  0.00     0.034 A 
BRANCH  63  77
ATOM     77  C   UNL A   1      36.619  33.605  31.960  1.00  0.00     0.023 A 
ATOM     78  C   UNL A   1      36.490  32.845  30.788  1.00  0.00     0.031 A 
ATOM     79  C   UNL A   1      35.520  34.440  32.280  1.00  0.00     0.131 A 
ATOM     80  C   UNL A   1      35.374  33.001  29.951  1.00  0.00     0.055 A 
ATOM     81  C   UNL A   1      34.377  34.530  31.486  1.00  0.00     0.041 A 
ATOM     82  F   UNL A   1      35.521  35.287  33.315  1.00  0.00    -0.206 F 
ATOM     83  C   UNL A   1      34.313  33.834  30.294  1.00  0.00     0.022 A 
BRANCH  80  84
ATOM     84  S   UNL A   1      35.431  32.240  28.312  1.00  0.00     0.124 S 
ATOM     85  O   UNL A   1      34.532  31.103  28.486  1.00  0.00    -0.237 OA
ATOM     86  O   UNL A   1      34.946  33.323  27.464  1.00  0.00    -0.237 OA
ATOM     87  O   UNL A   1      36.842  31.900  28.148  1.00  0.00    -0.744 OA
ENDBRANCH  80  84
ENDBRANCH  63  77
BRANCH  64  88
ATOM     88  C   UNL A   1      41.709  27.733  28.561  1.00  0.00     0.023 A 
ATOM     89  C   UNL A   1      42.135  26.392  28.492  1.00  0.00     0.031 A 
ATOM     90  C   UNL A   1      41.126  28.268  27.386  1.00  0.00     0.131 A 
ATOM     91  C   UNL A   1      41.990  25.659  27.288  1.00  0.00     0.055 A 
ATOM     92  C   UNL A   1      41.005  27.549  26.196  1.00  0.00     0.041 A 
ATOM     93  F   UNL A   1      40.572  29.491  27.372  1.00  0.00    -0.206 F 
ATOM     94  C   UNL A   1      41.433  26.236  26.143  1.00  0.00     0.022 A 
BRANCH  91  95
ATOM     95  S   UNL A   1      42.444  23.897  27.221  1.00  0.00     0.124 S 
ATOM     96  O   UNL A   1      43.897  23.947  27.336  1.00  0.00    -0.237 OA
ATOM     97  O   UNL A   1      41.718  23.345  28.359  1.00  0.00    -0.237 OA
ATOM     98  O   UNL A   1      41.947  23.466  25.913  1.00  0.00    -0.744 OA
ENDBRANCH  91  95
ENDBRANCH  64  88
BRANCH  76  99
ATOM     99  C   UNL A   1      41.177  29.322  34.742  1.00  0.00     0.023 A 
ATOM    100  C   UNL A   1      41.105  28.166  35.553  1.00  0.00     0.031 A 
ATOM    101  C   UNL A   1      42.432  29.945  34.613  1.00  0.00     0.131 A 
ATOM    102  C   UNL A   1      42.261  27.684  36.201  1.00  0.00     0.055 A 
ATOM    103  C   UNL A   1      43.578  29.452  35.238  1.00  0.00     0.041 A 
ATOM    104  F   UNL A   1      42.576  31.030  33.832  1.00  0.00    -0.206 F 
ATOM    105  C   UNL A   1      43.495  28.321  36.040  1.00  0.00     0.022 A 
BRANCH 102 106
ATOM    106  S   UNL A   1      42.179  26.215  37.277  1.00  0.00     0.124 S 
ATOM    107  O   UNL A   1      43.192  26.479  38.292  1.00  0.00    -0.237 OA
ATOM    108  O   UNL A   1      40.792  26.236  37.734  1.00  0.00    -0.237 OA
ATOM    109  O   UNL A   1      42.502  25.111  36.369  1.00  0.00    -0.744 OA
ENDBRANCH 102 106
ENDBRANCH  76  99
ENDBRANCH  50  51
ENDBRANCH  43  45
ENDBRANCH  42  43
ENDBRANCH  41  42
ENDBRANCH  40  41
ENDBRANCH  39  40
ENDBRANCH  38  39
ENDBRANCH   1  38
TORSDOF 27
ENDMDL
