MODEL 1
REMARK VINA RESULT:     -10.0      0.000      0.000
REMARK SMILES Cc1ccc(-c2cc(C(=O)OCCOCCOCCOCCOC(=O)c3ccc(-c4c5nc(c(-c6cc(S(=O)(=O)[O-])ccc6F)c6ccc([nH]6)c(-c6cc(S(=O)(=O)[O-])ccc6F)c6nc(c(-c7cc(S(=O)(=O)[O-])ccc7F)c7ccc4[nH]7)C=C6)C=C5)cc3)c3c(-c4cccc([N+](=O)[O-])c4)[nH]nc3n2)cc1
REMARK SMILES IDX 18 1 17 2 16 3 15 4 14 5 13 6 12 7 11 8 9 9 10 10 8 11 6 12
REMARK SMILES IDX 7 13 103 14 102 15 89 16 101 17 90 18 100 19 5 21 1 22 2 23
REMARK SMILES IDX 3 24 105 25 4 26 104 27 91 28 92 29 99 30 93 31 95 32 94 33
REMARK SMILES IDX 96 34 97 35 98 36 19 37 20 38 21 39 22 40 23 41 24 42 25 43
REMARK SMILES IDX 26 44 27 45 88 46 28 47 87 48 29 49 30 50 31 51 81 52 32 53
REMARK SMILES IDX 86 54 80 55 82 56 33 57 85 58 79 59 78 60 34 62 66 63 46 64
REMARK SMILES IDX 65 65 47 66 50 67 64 68 83 69 48 70 49 71 63 73 84 74 51 75
REMARK SMILES IDX 35 76 36 77 44 78 37 79 43 80 45 81 42 82 38 83 39 84 40 85
REMARK SMILES IDX 41 86 67 87 68 88 76 89 69 90 75 91 77 92 74 93 70 94 71 95
REMARK SMILES IDX 72 96 73 97 52 98 53 99 61 100 54 101 60 102 62 103 59 104
REMARK SMILES IDX 55 105 56 106 57 107 58 108
REMARK H PARENT 100 20 82 61 50 72
REMARK Flexibility Score: inf
ROOT
ATOM      1  C   UNL A   1      47.693  44.092  37.065  1.00  0.00     0.188 C 
ENDROOT
BRANCH   1   2
ATOM      2  O   UNL A   1      48.254  44.217  35.774  1.00  0.00    -0.377 OA
BRANCH   2   3
ATOM      3  C   UNL A   1      47.570  44.389  34.541  1.00  0.00     0.188 C 
BRANCH   3   4
ATOM      4  C   UNL A   1      45.955  44.546  34.093  1.00  0.00     0.188 C 
BRANCH   4   5
ATOM      5  O   UNL A   1      44.923  44.469  32.573  1.00  0.00    -0.376 OA
BRANCH   5   6
ATOM      6  C   UNL A   1      45.104  43.762  30.967  1.00  0.00     0.202 C 
BRANCH   6   7
ATOM      7  C   UNL A   1      46.613  42.886  30.301  1.00  0.00     0.261 C 
BRANCH   7   8
ATOM      8  O   UNL A   1      46.671  41.995  28.704  1.00  0.00    -0.460 OA
BRANCH   8   9
ATOM      9  C   UNL A   1      46.021  41.032  27.752  1.00  0.00     0.339 C 
ATOM     10  O   UNL A   1      46.532  39.952  27.465  1.00  0.00    -0.246 OA
BRANCH   9  11
ATOM     11  C   UNL A   1      44.625  41.119  26.978  1.00  0.00     0.075 A 
ATOM     12  C   UNL A   1      43.018  41.680  25.027  1.00  0.00     0.074 A 
ATOM     13  C   UNL A   1      44.193  41.833  25.817  1.00  0.00     0.045 A 
ATOM     14  N   UNL A   1      41.985  40.912  25.400  1.00  0.00    -0.226 NA
ATOM     15  C   UNL A   1      42.165  40.410  26.649  1.00  0.00     0.182 A 
ATOM     16  C   UNL A   1      43.406  40.526  27.426  1.00  0.00     0.061 A 
ATOM     17  N   UNL A   1      41.200  39.792  27.327  1.00  0.00    -0.154 NA
ATOM     18  C   UNL A   1      43.012  40.092  28.693  1.00  0.00     0.076 A 
ATOM     19  N   UNL A   1      41.757  39.568  28.517  1.00  0.00    -0.275 N 
ATOM     20  H   UNL A   1      41.296  39.061  29.224  1.00  0.00     0.190 HD
BRANCH  12  21
ATOM     21  C   UNL A   1      42.918  42.394  23.720  1.00  0.00     0.000 A 
ATOM     22  C   UNL A   1      42.662  44.232  19.765  1.00  0.00     0.044 C 
ATOM     23  C   UNL A   1      42.744  43.598  21.126  1.00  0.00    -0.051 A 
ATOM     24  C   UNL A   1      43.866  43.791  21.939  1.00  0.00     0.004 A 
ATOM     25  C   UNL A   1      41.699  42.813  21.620  1.00  0.00     0.004 A 
ATOM     26  C   UNL A   1      43.952  43.199  23.216  1.00  0.00     0.010 A 
ATOM     27  C   UNL A   1      41.790  42.219  22.891  1.00  0.00     0.010 A 
ENDBRANCH  12  21
BRANCH  18  28
ATOM     28  C   UNL A   1      43.565  40.098  30.046  1.00  0.00     0.007 A 
ATOM     29  C   UNL A   1      44.798  39.481  30.282  1.00  0.00     0.011 A 
ATOM     30  C   UNL A   1      42.899  40.722  31.112  1.00  0.00     0.096 A 
ATOM     31  C   UNL A   1      45.404  39.558  31.535  1.00  0.00     0.008 A 
ATOM     32  C   UNL A   1      43.525  40.801  32.370  1.00  0.00     0.270 A 
ATOM     33  C   UNL A   1      44.785  40.237  32.580  1.00  0.00     0.085 A 
BRANCH  32  34
ATOM     34  N   UNL A   1      42.904  41.578  33.453  1.00  0.00     0.062 N 
ATOM     35  O   UNL A   1      43.626  41.962  34.387  1.00  0.00    -0.258 OA
ATOM     36  O   UNL A   1      41.695  41.832  33.360  1.00  0.00    -0.258 OA
ENDBRANCH  32  34
ENDBRANCH  18  28
ENDBRANCH   9  11
ENDBRANCH   8   9
ENDBRANCH   7   8
ENDBRANCH   6   7
ENDBRANCH   5   6
ENDBRANCH   4   5
ENDBRANCH   3   4
ENDBRANCH   2   3
ENDBRANCH   1   2
BRANCH   1  37
ATOM     37  C   UNL A   1      48.550  43.997  38.293  1.00  0.00     0.188 C 
BRANCH  37  38
ATOM     38  O   UNL A   1      48.092  42.986  39.168  1.00  0.00    -0.376 OA
BRANCH  38  39
ATOM     39  C   UNL A   1      48.029  41.717  38.549  1.00  0.00     0.202 C 
BRANCH  39  40
ATOM     40  C   UNL A   1      46.735  40.958  38.892  1.00  0.00     0.261 C 
BRANCH  40  41
ATOM     41  O   UNL A   1      46.380  40.041  37.830  1.00  0.00    -0.460 OA
BRANCH  41  42
ATOM     42  C   UNL A   1      45.025  39.855  37.563  1.00  0.00     0.338 C 
ATOM     43  O   UNL A   1      44.245  40.717  37.342  1.00  0.00    -0.246 OA
BRANCH  42  44
ATOM     44  C   UNL A   1      44.718  38.392  37.790  1.00  0.00     0.060 A 
ATOM     45  C   UNL A   1      45.541  37.311  37.428  1.00  0.00     0.016 A 
ATOM     46  C   UNL A   1      43.423  38.102  37.992  1.00  0.00     0.016 A 
ATOM     47  C   UNL A   1      45.010  36.089  36.823  1.00  0.00     0.010 A 
ATOM     48  C   UNL A   1      42.974  36.986  37.315  1.00  0.00     0.010 A 
ATOM     49  C   UNL A   1      43.670  35.959  36.474  1.00  0.00    -0.014 A 
BRANCH  49  50
ATOM     50  C   UNL A   1      42.930  34.712  35.273  1.00  0.00     0.031 A 
ATOM     51  C   UNL A   1      43.238  34.863  33.275  1.00  0.00     0.074 A 
ATOM     52  C   UNL A   1      42.026  33.827  36.003  1.00  0.00     0.049 A 
ATOM     53  N   UNL A   1      42.283  34.942  32.304  1.00  0.00    -0.248 NA
ATOM     54  C   UNL A   1      44.367  35.650  32.321  1.00  0.00     0.031 C 
ATOM     55  C   UNL A   1      41.152  32.649  35.646  1.00  0.00     0.029 A 
ATOM     56  N   UNL A   1      41.559  33.906  37.341  1.00  0.00    -0.354 N 
ATOM     57  C   UNL A   1      42.623  35.228  31.015  1.00  0.00     0.074 A 
ATOM     58  C   UNL A   1      43.843  35.912  31.130  1.00  0.00     0.031 C 
ATOM     59  C   UNL A   1      40.366  32.140  36.584  1.00  0.00     0.029 A 
ATOM     60  C   UNL A   1      40.332  33.190  37.487  1.00  0.00     0.049 A 
ATOM     61  H   UNL A   1      42.015  34.389  38.068  1.00  0.00     0.167 HD
ATOM     62  C   UNL A   1      41.886  34.759  29.968  1.00  0.00     0.034 A 
ATOM     63  C   UNL A   1      39.130  33.759  37.713  1.00  0.00     0.034 A 
ATOM     64  C   UNL A   1      40.791  33.880  30.439  1.00  0.00     0.049 A 
ATOM     65  C   UNL A   1      38.287  33.800  36.356  1.00  0.00     0.074 A 
ATOM     66  C   UNL A   1      40.668  32.500  30.512  1.00  0.00     0.029 A 
ATOM     67  N   UNL A   1      39.762  34.377  31.247  1.00  0.00    -0.354 N 
ATOM     68  N   UNL A   1      38.757  33.907  35.112  1.00  0.00    -0.248 NA
ATOM     69  C   UNL A   1      36.888  33.373  36.320  1.00  0.00     0.031 C 
ATOM     70  C   UNL A   1      39.675  32.188  31.500  1.00  0.00     0.029 A 
ATOM     71  C   UNL A   1      39.127  33.372  31.996  1.00  0.00     0.049 A 
ATOM     72  H   UNL A   1      39.511  35.328  31.288  1.00  0.00     0.167 HD
ATOM     73  C   UNL A   1      37.788  33.617  34.149  1.00  0.00     0.074 A 
ATOM     74  C   UNL A   1      36.650  33.255  34.998  1.00  0.00     0.031 C 
ATOM     75  C   UNL A   1      37.877  33.626  32.750  1.00  0.00     0.034 A 
BRANCH  62  76
ATOM     76  C   UNL A   1      42.497  34.775  28.566  1.00  0.00     0.023 A 
ATOM     77  C   UNL A   1      43.478  33.829  28.224  1.00  0.00     0.031 A 
ATOM     78  C   UNL A   1      42.259  35.765  27.579  1.00  0.00     0.131 A 
ATOM     79  C   UNL A   1      44.273  33.983  27.067  1.00  0.00     0.055 A 
ATOM     80  C   UNL A   1      43.089  35.957  26.462  1.00  0.00     0.041 A 
ATOM     81  F   UNL A   1      41.194  36.577  27.639  1.00  0.00    -0.206 F 
ATOM     82  C   UNL A   1      44.119  35.070  26.210  1.00  0.00     0.022 A 
BRANCH  79  83
ATOM     83  S   UNL A   1      45.568  32.762  26.726  1.00  0.00     0.124 S 
ATOM     84  O   UNL A   1      46.738  33.613  26.542  1.00  0.00    -0.237 OA
ATOM     85  O   UNL A   1      45.544  31.938  27.930  1.00  0.00    -0.237 OA
ATOM     86  O   UNL A   1      45.094  32.094  25.514  1.00  0.00    -0.744 OA
ENDBRANCH  79  83
ENDBRANCH  62  76
BRANCH  63  87
ATOM     87  C   UNL A   1      39.365  34.531  38.978  1.00  0.00     0.023 A 
ATOM     88  C   UNL A   1      39.742  33.710  40.116  1.00  0.00     0.031 A 
ATOM     89  C   UNL A   1      39.838  35.837  38.961  1.00  0.00     0.131 A 
ATOM     90  C   UNL A   1      40.788  34.101  40.969  1.00  0.00     0.055 A 
ATOM     91  C   UNL A   1      40.763  36.276  39.931  1.00  0.00     0.041 A 
ATOM     92  F   UNL A   1      39.594  36.632  37.910  1.00  0.00    -0.206 F 
ATOM     93  C   UNL A   1      41.289  35.394  40.889  1.00  0.00     0.022 A 
BRANCH  90  94
ATOM     94  S   UNL A   1      41.784  32.816  41.839  1.00  0.00     0.124 S 
ATOM     95  O   UNL A   1      41.114  32.727  43.130  1.00  0.00    -0.237 OA
ATOM     96  O   UNL A   1      41.654  31.652  40.968  1.00  0.00    -0.237 OA
ATOM     97  O   UNL A   1      43.130  33.387  41.858  1.00  0.00    -0.744 OA
ENDBRANCH  90  94
ENDBRANCH  63  87
BRANCH  75  98
ATOM     98  C   UNL A   1      36.661  33.837  31.822  1.00  0.00     0.023 A 
ATOM     99  C   UNL A   1      36.403  33.014  30.727  1.00  0.00     0.031 A 
ATOM    100  C   UNL A   1      35.627  34.785  32.102  1.00  0.00     0.131 A 
ATOM    101  C   UNL A   1      35.255  33.183  29.936  1.00  0.00     0.055 A 
ATOM    102  C   UNL A   1      34.425  34.860  31.393  1.00  0.00     0.041 A 
ATOM    103  F   UNL A   1      35.707  35.687  33.087  1.00  0.00    -0.206 F 
ATOM    104  C   UNL A   1      34.238  34.063  30.285  1.00  0.00     0.022 A 
BRANCH 101 105
ATOM    105  S   UNL A   1      35.194  32.282  28.375  1.00  0.00     0.124 S 
ATOM    106  O   UNL A   1      35.959  33.168  27.499  1.00  0.00    -0.237 OA
ATOM    107  O   UNL A   1      35.841  31.021  28.718  1.00  0.00    -0.237 OA
ATOM    108  O   UNL A   1      33.766  32.196  28.082  1.00  0.00    -0.744 OA
ENDBRANCH 101 105
ENDBRANCH  75  98
ENDBRANCH  49  50
ENDBRANCH  42  44
ENDBRANCH  41  42
ENDBRANCH  40  41
ENDBRANCH  39  40
ENDBRANCH  38  39
ENDBRANCH  37  38
ENDBRANCH   1  37
TORSDOF 26
ENDMDL
MODEL 2
REMARK VINA RESULT:      -9.8      9.342     15.585
REMARK SMILES Cc1ccc(-c2cc(C(=O)OCCOCCOCCOCCOC(=O)c3ccc(-c4c5nc(c(-c6cc(S(=O)(=O)[O-])ccc6F)c6ccc([nH]6)c(-c6cc(S(=O)(=O)[O-])ccc6F)c6nc(c(-c7cc(S(=O)(=O)[O-])ccc7F)c7ccc4[nH]7)C=C6)C=C5)cc3)c3c(-c4cccc([N+](=O)[O-])c4)[nH]nc3n2)cc1
REMARK SMILES IDX 18 1 17 2 16 3 15 4 14 5 13 6 12 7 11 8 9 9 10 10 8 11 6 12
REMARK SMILES IDX 7 13 103 14 102 15 89 16 101 17 90 18 100 19 5 21 1 22 2 23
REMARK SMILES IDX 3 24 105 25 4 26 104 27 91 28 92 29 99 30 93 31 95 32 94 33
REMARK SMILES IDX 96 34 97 35 98 36 19 37 20 38 21 39 22 40 23 41 24 42 25 43
REMARK SMILES IDX 26 44 27 45 88 46 28 47 87 48 29 49 30 50 31 51 81 52 32 53
REMARK SMILES IDX 86 54 80 55 82 56 33 57 85 58 79 59 78 60 34 62 66 63 46 64
REMARK SMILES IDX 65 65 47 66 50 67 64 68 83 69 48 70 49 71 63 73 84 74 51 75
REMARK SMILES IDX 35 76 36 77 44 78 37 79 43 80 45 81 42 82 38 83 39 84 40 85
REMARK SMILES IDX 41 86 67 87 68 88 76 89 69 90 75 91 77 92 74 93 70 94 71 95
REMARK SMILES IDX 72 96 73 97 52 98 53 99 61 100 54 101 60 102 62 103 59 104
REMARK SMILES IDX 55 105 56 106 57 107 58 108
REMARK H PARENT 100 20 82 61 50 72
REMARK Flexibility Score: inf
ROOT
ATOM      1  C   UNL A   1      35.776  33.657  30.595  1.00  0.00     0.188 C 
ENDROOT
BRANCH   1   2
ATOM      2  O   UNL A   1      35.549  32.268  30.470  1.00  0.00    -0.377 OA
BRANCH   2   3
ATOM      3  C   UNL A   1      35.586  31.482  29.287  1.00  0.00     0.188 C 
BRANCH   3   4
ATOM      4  C   UNL A   1      34.824  31.560  27.788  1.00  0.00     0.188 C 
BRANCH   4   5
ATOM      5  O   UNL A   1      33.146  31.861  27.100  1.00  0.00    -0.376 OA
BRANCH   5   6
ATOM      6  C   UNL A   1      31.863  30.851  26.431  1.00  0.00     0.202 C 
BRANCH   6   7
ATOM      7  C   UNL A   1      31.475  29.088  26.907  1.00  0.00     0.261 C 
BRANCH   7   8
ATOM      8  O   UNL A   1      32.604  27.672  26.637  1.00  0.00    -0.460 OA
BRANCH   8   9
ATOM      9  C   UNL A   1      33.462  26.883  25.690  1.00  0.00     0.339 C 
ATOM     10  O   UNL A   1      34.523  27.320  25.251  1.00  0.00    -0.246 OA
BRANCH   9  11
ATOM     11  C   UNL A   1      33.272  25.410  25.099  1.00  0.00     0.075 A 
ATOM     12  C   UNL A   1      33.857  22.923  24.673  1.00  0.00     0.074 A 
ATOM     13  C   UNL A   1      34.147  24.286  24.973  1.00  0.00     0.045 A 
ATOM     14  N   UNL A   1      32.654  22.512  24.251  1.00  0.00    -0.226 NA
ATOM     15  C   UNL A   1      31.813  23.558  24.047  1.00  0.00     0.182 A 
ATOM     16  C   UNL A   1      32.105  24.948  24.418  1.00  0.00     0.061 A 
ATOM     17  N   UNL A   1      30.637  23.434  23.434  1.00  0.00    -0.154 NA
ATOM     18  C   UNL A   1      31.076  25.652  23.788  1.00  0.00     0.076 A 
ATOM     19  N   UNL A   1      30.203  24.690  23.348  1.00  0.00    -0.275 N 
ATOM     20  H   UNL A   1      29.314  24.914  22.990  1.00  0.00     0.190 HD
BRANCH  12  21
ATOM     21  C   UNL A   1      34.928  21.897  24.836  1.00  0.00     0.000 A 
ATOM     22  C   UNL A   1      38.167  18.973  25.058  1.00  0.00     0.044 C 
ATOM     23  C   UNL A   1      37.056  19.984  24.984  1.00  0.00    -0.051 A 
ATOM     24  C   UNL A   1      35.733  19.579  24.773  1.00  0.00     0.004 A 
ATOM     25  C   UNL A   1      37.311  21.348  25.139  1.00  0.00     0.004 A 
ATOM     26  C   UNL A   1      34.686  20.521  24.700  1.00  0.00     0.010 A 
ATOM     27  C   UNL A   1      36.266  22.285  25.060  1.00  0.00     0.010 A 
ENDBRANCH  12  21
BRANCH  18  28
ATOM     28  C   UNL A   1      30.761  27.047  23.488  1.00  0.00     0.007 A 
ATOM     29  C   UNL A   1      31.805  27.937  23.211  1.00  0.00     0.011 A 
ATOM     30  C   UNL A   1      29.438  27.514  23.453  1.00  0.00     0.096 A 
ATOM     31  C   UNL A   1      31.536  29.248  22.819  1.00  0.00     0.008 A 
ATOM     32  C   UNL A   1      29.180  28.837  23.047  1.00  0.00     0.270 A 
ATOM     33  C   UNL A   1      30.225  29.701  22.711  1.00  0.00     0.085 A 
BRANCH  32  34
ATOM     34  N   UNL A   1      27.794  29.293  22.865  1.00  0.00     0.062 N 
ATOM     35  O   UNL A   1      27.113  29.517  23.878  1.00  0.00    -0.258 OA
ATOM     36  O   UNL A   1      27.387  29.454  21.705  1.00  0.00    -0.258 OA
ENDBRANCH  32  34
ENDBRANCH  18  28
ENDBRANCH   9  11
ENDBRANCH   8   9
ENDBRANCH   7   8
ENDBRANCH   6   7
ENDBRANCH   5   6
ENDBRANCH   4   5
ENDBRANCH   3   4
ENDBRANCH   2   3
ENDBRANCH   1   2
BRANCH   1  37
ATOM     37  C   UNL A   1      36.784  34.372  29.744  1.00  0.00     0.188 C 
BRANCH  37  38
ATOM     38  O   UNL A   1      37.977  33.624  29.615  1.00  0.00    -0.376 OA
BRANCH  38  39
ATOM     39  C   UNL A   1      38.811  33.730  30.751  1.00  0.00     0.202 C 
BRANCH  39  40
ATOM     40  C   UNL A   1      40.078  34.560  30.476  1.00  0.00     0.261 C 
BRANCH  40  41
ATOM     41  O   UNL A   1      41.192  33.700  30.137  1.00  0.00    -0.460 OA
BRANCH  41  42
ATOM     42  C   UNL A   1      42.389  33.896  30.821  1.00  0.00     0.338 C 
ATOM     43  O   UNL A   1      42.511  34.496  31.834  1.00  0.00    -0.246 OA
BRANCH  42  44
ATOM     44  C   UNL A   1      43.501  33.366  29.945  1.00  0.00     0.060 A 
ATOM     45  C   UNL A   1      43.336  32.627  28.759  1.00  0.00     0.016 A 
ATOM     46  C   UNL A   1      44.700  33.262  30.538  1.00  0.00     0.016 A 
ATOM     47  C   UNL A   1      44.159  31.461  28.440  1.00  0.00     0.010 A 
ATOM     48  C   UNL A   1      45.377  32.091  30.260  1.00  0.00     0.010 A 
ATOM     49  C   UNL A   1      45.090  30.947  29.336  1.00  0.00    -0.014 A 
BRANCH  49  50
ATOM     50  C   UNL A   1      45.851  29.224  29.313  1.00  0.00     0.031 A 
ATOM     51  C   UNL A   1      47.534  28.829  28.255  1.00  0.00     0.074 A 
ATOM     52  C   UNL A   1      44.950  28.297  29.994  1.00  0.00     0.049 A 
ATOM     53  N   UNL A   1      47.688  27.879  27.289  1.00  0.00    -0.248 NA
ATOM     54  C   UNL A   1      48.764  29.771  27.620  1.00  0.00     0.031 C 
ATOM     55  C   UNL A   1      44.966  26.823  30.319  1.00  0.00     0.029 A 
ATOM     56  N   UNL A   1      43.625  28.496  30.463  1.00  0.00    -0.354 N 
ATOM     57  C   UNL A   1      48.815  27.841  26.523  1.00  0.00     0.074 A 
ATOM     58  C   UNL A   1      49.304  29.156  26.574  1.00  0.00     0.031 C 
ATOM     59  C   UNL A   1      43.891  26.289  30.880  1.00  0.00     0.029 A 
ATOM     60  C   UNL A   1      42.940  27.248  30.574  1.00  0.00     0.049 A 
ATOM     61  H   UNL A   1      43.231  29.372  30.682  1.00  0.00     0.167 HD
ATOM     62  C   UNL A   1      49.283  26.668  26.009  1.00  0.00     0.034 A 
ATOM     63  C   UNL A   1      41.916  26.858  29.787  1.00  0.00     0.034 A 
ATOM     64  C   UNL A   1      48.465  25.522  26.469  1.00  0.00     0.049 A 
ATOM     65  C   UNL A   1      42.442  25.826  28.686  1.00  0.00     0.074 A 
ATOM     66  C   UNL A   1      48.649  24.589  27.479  1.00  0.00     0.029 A 
ATOM     67  N   UNL A   1      47.114  25.412  26.117  1.00  0.00    -0.354 N 
ATOM     68  N   UNL A   1      43.654  25.781  28.131  1.00  0.00    -0.248 NA
ATOM     69  C   UNL A   1      41.727  24.578  28.416  1.00  0.00     0.031 C 
ATOM     70  C   UNL A   1      47.366  24.054  27.837  1.00  0.00     0.029 A 
ATOM     71  C   UNL A   1      46.388  24.601  27.005  1.00  0.00     0.049 A 
ATOM     72  H   UNL A   1      46.717  25.855  25.333  1.00  0.00     0.167 HD
ATOM     73  C   UNL A   1      43.877  24.590  27.435  1.00  0.00     0.074 A 
ATOM     74  C   UNL A   1      42.625  23.874  27.697  1.00  0.00     0.031 C 
ATOM     75  C   UNL A   1      45.002  24.165  26.714  1.00  0.00     0.034 A 
BRANCH  62  76
ATOM     76  C   UNL A   1      50.721  26.606  25.494  1.00  0.00     0.023 A 
ATOM     77  C   UNL A   1      50.999  26.956  24.162  1.00  0.00     0.031 A 
ATOM     78  C   UNL A   1      51.828  26.086  26.212  1.00  0.00     0.131 A 
ATOM     79  C   UNL A   1      52.237  26.637  23.561  1.00  0.00     0.055 A 
ATOM     80  C   UNL A   1      53.037  25.709  25.603  1.00  0.00     0.041 A 
ATOM     81  F   UNL A   1      51.798  25.944  27.545  1.00  0.00    -0.206 F 
ATOM     82  C   UNL A   1      53.240  25.968  24.260  1.00  0.00     0.022 A 
BRANCH  79  83
ATOM     83  S   UNL A   1      52.499  27.056  21.819  1.00  0.00     0.124 S 
ATOM     84  O   UNL A   1      52.441  28.513  21.851  1.00  0.00    -0.237 OA
ATOM     85  O   UNL A   1      53.805  26.462  21.549  1.00  0.00    -0.237 OA
ATOM     86  O   UNL A   1      51.377  26.408  21.141  1.00  0.00    -0.744 OA
ENDBRANCH  79  83
ENDBRANCH  62  76
BRANCH  63  87
ATOM     87  C   UNL A   1      40.911  27.954  29.989  1.00  0.00     0.023 A 
ATOM     88  C   UNL A   1      40.399  28.050  31.346  1.00  0.00     0.031 A 
ATOM     89  C   UNL A   1      40.949  29.129  29.247  1.00  0.00     0.131 A 
ATOM     90  C   UNL A   1      40.269  29.298  31.978  1.00  0.00     0.055 A 
ATOM     91  C   UNL A   1      40.646  30.366  29.851  1.00  0.00     0.041 A 
ATOM     92  F   UNL A   1      41.475  29.133  28.015  1.00  0.00    -0.206 F 
ATOM     93  C   UNL A   1      40.375  30.460  31.226  1.00  0.00     0.022 A 
BRANCH  90  94
ATOM     94  S   UNL A   1      40.422  29.412  33.812  1.00  0.00     0.124 S 
ATOM     95  O   UNL A   1      41.607  30.244  33.973  1.00  0.00    -0.237 OA
ATOM     96  O   UNL A   1      39.154  30.017  34.212  1.00  0.00    -0.237 OA
ATOM     97  O   UNL A   1      40.560  28.017  34.228  1.00  0.00    -0.744 OA
ENDBRANCH  90  94
ENDBRANCH  63  87
BRANCH  75  98
ATOM     98  C   UNL A   1      44.936  23.134  25.566  1.00  0.00     0.023 A 
ATOM     99  C   UNL A   1      45.213  21.781  25.759  1.00  0.00     0.031 A 
ATOM    100  C   UNL A   1      44.436  23.452  24.265  1.00  0.00     0.131 A 
ATOM    101  C   UNL A   1      45.082  20.850  24.716  1.00  0.00     0.055 A 
ATOM    102  C   UNL A   1      44.181  22.502  23.273  1.00  0.00     0.041 A 
ATOM    103  F   UNL A   1      44.149  24.700  23.875  1.00  0.00    -0.206 F 
ATOM    104  C   UNL A   1      44.521  21.184  23.490  1.00  0.00     0.022 A 
BRANCH 101 105
ATOM    105  S   UNL A   1      45.773  19.207  24.992  1.00  0.00     0.124 S 
ATOM    106  O   UNL A   1      44.664  18.535  25.666  1.00  0.00    -0.237 OA
ATOM    107  O   UNL A   1      46.054  18.755  23.633  1.00  0.00    -0.237 OA
ATOM    108  O   UNL A   1      46.946  19.462  25.823  1.00  0.00    -0.744 OA
ENDBRANCH 101 105
ENDBRANCH  75  98
ENDBRANCH  49  50
ENDBRANCH  42  44
ENDBRANCH  41  42
ENDBRANCH  40  41
ENDBRANCH  39  40
ENDBRANCH  38  39
ENDBRANCH  37  38
ENDBRANCH   1  37
TORSDOF 26
ENDMDL
MODEL 3
REMARK VINA RESULT:      -9.4      3.887      5.927
REMARK SMILES Cc1ccc(-c2cc(C(=O)OCCOCCOCCOCCOC(=O)c3ccc(-c4c5nc(c(-c6cc(S(=O)(=O)[O-])ccc6F)c6ccc([nH]6)c(-c6cc(S(=O)(=O)[O-])ccc6F)c6nc(c(-c7cc(S(=O)(=O)[O-])ccc7F)c7ccc4[nH]7)C=C6)C=C5)cc3)c3c(-c4cccc([N+](=O)[O-])c4)[nH]nc3n2)cc1
REMARK SMILES IDX 18 1 17 2 16 3 15 4 14 5 13 6 12 7 11 8 9 9 10 10 8 11 6 12
REMARK SMILES IDX 7 13 103 14 102 15 89 16 101 17 90 18 100 19 5 21 1 22 2 23
REMARK SMILES IDX 3 24 105 25 4 26 104 27 91 28 92 29 99 30 93 31 95 32 94 33
REMARK SMILES IDX 96 34 97 35 98 36 19 37 20 38 21 39 22 40 23 41 24 42 25 43
REMARK SMILES IDX 26 44 27 45 88 46 28 47 87 48 29 49 30 50 31 51 81 52 32 53
REMARK SMILES IDX 86 54 80 55 82 56 33 57 85 58 79 59 78 60 34 62 66 63 46 64
REMARK SMILES IDX 65 65 47 66 50 67 64 68 83 69 48 70 49 71 63 73 84 74 51 75
REMARK SMILES IDX 35 76 36 77 44 78 37 79 43 80 45 81 42 82 38 83 39 84 40 85
REMARK SMILES IDX 41 86 67 87 68 88 76 89 69 90 75 91 77 92 74 93 70 94 71 95
REMARK SMILES IDX 72 96 73 97 52 98 53 99 61 100 54 101 60 102 62 103 59 104
REMARK SMILES IDX 55 105 56 106 57 107 58 108
REMARK H PARENT 100 20 82 61 50 72
REMARK Flexibility Score: inf
ROOT
ATOM      1  C   UNL A   1      43.758  40.638  34.171  1.00  0.00     0.188 C 
ENDROOT
BRANCH   1   2
ATOM      2  O   UNL A   1      43.938  41.899  34.784  1.00  0.00    -0.377 OA
BRANCH   2   3
ATOM      3  C   UNL A   1      43.442  43.157  34.349  1.00  0.00     0.188 C 
BRANCH   3   4
ATOM      4  C   UNL A   1      42.760  43.732  32.921  1.00  0.00     0.188 C 
BRANCH   4   5
ATOM      5  O   UNL A   1      42.183  43.085  31.300  1.00  0.00    -0.376 OA
BRANCH   5   6
ATOM      6  C   UNL A   1      42.088  41.493  30.545  1.00  0.00     0.202 C 
BRANCH   6   7
ATOM      7  C   UNL A   1      43.525  40.387  30.099  1.00  0.00     0.261 C 
BRANCH   7   8
ATOM      8  O   UNL A   1      43.501  38.561  30.223  1.00  0.00    -0.460 OA
BRANCH   8   9
ATOM      9  C   UNL A   1      43.738  37.231  29.566  1.00  0.00     0.339 C 
ATOM     10  O   UNL A   1      42.847  36.629  28.971  1.00  0.00    -0.246 OA
BRANCH   9  11
ATOM     11  C   UNL A   1      45.071  36.359  29.437  1.00  0.00     0.075 A 
ATOM     12  C   UNL A   1      47.364  35.647  28.468  1.00  0.00     0.074 A 
ATOM     13  C   UNL A   1      46.072  36.246  28.423  1.00  0.00     0.045 A 
ATOM     14  N   UNL A   1      47.777  34.884  29.489  1.00  0.00    -0.226 NA
ATOM     15  C   UNL A   1      46.782  34.677  30.389  1.00  0.00     0.182 A 
ATOM     16  C   UNL A   1      45.476  35.349  30.361  1.00  0.00     0.061 A 
ATOM     17  N   UNL A   1      46.873  33.790  31.378  1.00  0.00    -0.154 NA
ATOM     18  C   UNL A   1      44.745  34.629  31.308  1.00  0.00     0.076 A 
ATOM     19  N   UNL A   1      45.664  33.829  31.937  1.00  0.00    -0.275 N 
ATOM     20  H   UNL A   1      45.444  33.315  32.748  1.00  0.00     0.190 HD
BRANCH  12  21
ATOM     21  C   UNL A   1      48.313  35.874  27.339  1.00  0.00     0.000 A 
ATOM     22  C   UNL A   1      50.872  36.498  23.853  1.00  0.00     0.044 C 
ATOM     23  C   UNL A   1      49.989  36.289  25.053  1.00  0.00    -0.051 A 
ATOM     24  C   UNL A   1      50.098  35.130  25.828  1.00  0.00     0.004 A 
ATOM     25  C   UNL A   1      49.050  37.251  25.432  1.00  0.00     0.004 A 
ATOM     26  C   UNL A   1      49.273  34.926  26.953  1.00  0.00     0.010 A 
ATOM     27  C   UNL A   1      48.225  37.042  26.551  1.00  0.00     0.010 A 
ENDBRANCH  12  21
BRANCH  18  28
ATOM     28  C   UNL A   1      43.347  34.516  31.721  1.00  0.00     0.007 A 
ATOM     29  C   UNL A   1      42.993  34.860  33.030  1.00  0.00     0.011 A 
ATOM     30  C   UNL A   1      42.348  34.090  30.833  1.00  0.00     0.096 A 
ATOM     31  C   UNL A   1      41.656  34.865  33.426  1.00  0.00     0.008 A 
ATOM     32  C   UNL A   1      41.001  34.108  31.243  1.00  0.00     0.270 A 
ATOM     33  C   UNL A   1      40.650  34.513  32.532  1.00  0.00     0.085 A 
BRANCH  32  34
ATOM     34  N   UNL A   1      39.935  33.805  30.277  1.00  0.00     0.062 N 
ATOM     35  O   UNL A   1      39.903  32.669  29.777  1.00  0.00    -0.258 OA
ATOM     36  O   UNL A   1      39.106  34.693  30.035  1.00  0.00    -0.258 OA
ENDBRANCH  32  34
ENDBRANCH  18  28
ENDBRANCH   9  11
ENDBRANCH   8   9
ENDBRANCH   7   8
ENDBRANCH   6   7
ENDBRANCH   5   6
ENDBRANCH   4   5
ENDBRANCH   3   4
ENDBRANCH   2   3
ENDBRANCH   1   2
BRANCH   1  37
ATOM     37  C   UNL A   1      44.754  39.529  34.340  1.00  0.00     0.188 C 
BRANCH  37  38
ATOM     38  O   UNL A   1      45.331  39.542  35.631  1.00  0.00    -0.376 OA
BRANCH  38  39
ATOM     39  C   UNL A   1      44.555  38.839  36.581  1.00  0.00     0.202 C 
BRANCH  39  40
ATOM     40  C   UNL A   1      43.902  37.577  35.990  1.00  0.00     0.261 C 
BRANCH  40  41
ATOM     41  O   UNL A   1      44.480  36.382  36.567  1.00  0.00    -0.460 OA
BRANCH  41  42
ATOM     42  C   UNL A   1      45.231  35.560  35.730  1.00  0.00     0.338 C 
ATOM     43  O   UNL A   1      45.921  35.930  34.843  1.00  0.00    -0.246 OA
BRANCH  42  44
ATOM     44  C   UNL A   1      44.857  34.130  36.048  1.00  0.00     0.060 A 
ATOM     45  C   UNL A   1      45.187  33.000  35.279  1.00  0.00     0.016 A 
ATOM     46  C   UNL A   1      43.830  33.981  36.899  1.00  0.00     0.016 A 
ATOM     47  C   UNL A   1      44.232  31.922  35.017  1.00  0.00     0.010 A 
ATOM     48  C   UNL A   1      42.923  33.006  36.535  1.00  0.00     0.010 A 
ATOM     49  C   UNL A   1      42.906  31.996  35.428  1.00  0.00    -0.014 A 
BRANCH  49  50
ATOM     50  C   UNL A   1      41.460  30.982  34.771  1.00  0.00     0.031 A 
ATOM     51  C   UNL A   1      41.636  29.861  33.092  1.00  0.00     0.074 A 
ATOM     52  C   UNL A   1      40.265  31.302  35.546  1.00  0.00     0.049 A 
ATOM     53  N   UNL A   1      40.862  29.940  31.972  1.00  0.00    -0.248 NA
ATOM     54  C   UNL A   1      42.931  29.234  32.234  1.00  0.00     0.031 C 
ATOM     55  C   UNL A   1      38.824  30.850  35.539  1.00  0.00     0.029 A 
ATOM     56  N   UNL A   1      40.054  32.315  36.518  1.00  0.00    -0.354 N 
ATOM     57  C   UNL A   1      41.203  29.259  30.841  1.00  0.00     0.074 A 
ATOM     58  C   UNL A   1      42.589  29.074  30.961  1.00  0.00     0.031 C 
ATOM     59  C   UNL A   1      37.969  31.455  36.351  1.00  0.00     0.029 A 
ATOM     60  C   UNL A   1      38.664  32.620  36.633  1.00  0.00     0.049 A 
ATOM     61  H   UNL A   1      40.767  32.749  37.042  1.00  0.00     0.167 HD
ATOM     62  C   UNL A   1      40.254  28.824  29.964  1.00  0.00     0.034 A 
ATOM     63  C   UNL A   1      38.093  33.777  36.238  1.00  0.00     0.034 A 
ATOM     64  C   UNL A   1      38.891  29.119  30.463  1.00  0.00     0.049 A 
ATOM     65  C   UNL A   1      37.353  33.567  34.838  1.00  0.00     0.074 A 
ATOM     66  C   UNL A   1      37.947  28.341  31.117  1.00  0.00     0.029 A 
ATOM     67  N   UNL A   1      38.459  30.439  30.644  1.00  0.00    -0.354 N 
ATOM     68  N   UNL A   1      37.688  32.721  33.863  1.00  0.00    -0.248 NA
ATOM     69  C   UNL A   1      35.992  34.058  34.620  1.00  0.00     0.031 C 
ATOM     70  C   UNL A   1      37.056  29.214  31.826  1.00  0.00     0.029 A 
ATOM     71  C   UNL A   1      37.400  30.541  31.561  1.00  0.00     0.049 A 
ATOM     72  H   UNL A   1      38.854  31.211  30.178  1.00  0.00     0.167 HD
ATOM     73  C   UNL A   1      36.674  32.575  32.912  1.00  0.00     0.074 A 
ATOM     74  C   UNL A   1      35.628  33.425  33.487  1.00  0.00     0.031 C 
ATOM     75  C   UNL A   1      36.639  31.799  31.745  1.00  0.00     0.034 A 
BRANCH  62  76
ATOM     76  C   UNL A   1      40.630  27.758  28.933  1.00  0.00     0.023 A 
ATOM     77  C   UNL A   1      41.608  28.039  27.966  1.00  0.00     0.031 A 
ATOM     78  C   UNL A   1      39.973  26.512  28.766  1.00  0.00     0.131 A 
ATOM     79  C   UNL A   1      41.777  27.217  26.830  1.00  0.00     0.055 A 
ATOM     80  C   UNL A   1      40.092  25.725  27.609  1.00  0.00     0.041 A 
ATOM     81  F   UNL A   1      39.206  25.985  29.732  1.00  0.00    -0.206 F 
ATOM     82  C   UNL A   1      40.988  26.087  26.619  1.00  0.00     0.022 A 
BRANCH  79  83
ATOM     83  S   UNL A   1      43.011  27.680  25.588  1.00  0.00     0.124 S 
ATOM     84  O   UNL A   1      43.364  26.383  25.021  1.00  0.00    -0.237 OA
ATOM     85  O   UNL A   1      42.259  28.584  24.725  1.00  0.00    -0.237 OA
ATOM     86  O   UNL A   1      44.064  28.317  26.377  1.00  0.00    -0.744 OA
ENDBRANCH  79  83
ENDBRANCH  62  76
BRANCH  63  87
ATOM     87  C   UNL A   1      38.855  34.802  37.026  1.00  0.00     0.023 A 
ATOM     88  C   UNL A   1      39.183  34.391  38.380  1.00  0.00     0.031 A 
ATOM     89  C   UNL A   1      39.722  35.700  36.415  1.00  0.00     0.131 A 
ATOM     90  C   UNL A   1      40.464  34.619  38.911  1.00  0.00     0.055 A 
ATOM     91  C   UNL A   1      40.935  36.060  37.037  1.00  0.00     0.041 A 
ATOM     92  F   UNL A   1      39.526  36.069  35.142  1.00  0.00    -0.206 F 
ATOM     93  C   UNL A   1      41.337  35.470  38.246  1.00  0.00     0.022 A 
BRANCH  90  94
ATOM     94  S   UNL A   1      41.142  33.471  40.185  1.00  0.00     0.124 S 
ATOM     95  O   UNL A   1      42.400  34.114  40.542  1.00  0.00    -0.237 OA
ATOM     96  O   UNL A   1      40.106  33.472  41.214  1.00  0.00    -0.237 OA
ATOM     97  O   UNL A   1      41.255  32.201  39.470  1.00  0.00    -0.744 OA
ENDBRANCH  90  94
ENDBRANCH  63  87
BRANCH  75  98
ATOM     98  C   UNL A   1      35.746  32.132  30.530  1.00  0.00     0.023 A 
ATOM     99  C   UNL A   1      35.248  33.412  30.296  1.00  0.00     0.031 A 
ATOM    100  C   UNL A   1      35.492  31.200  29.476  1.00  0.00     0.131 A 
ATOM    101  C   UNL A   1      34.492  33.707  29.148  1.00  0.00     0.055 A 
ATOM    102  C   UNL A   1      34.856  31.532  28.277  1.00  0.00     0.041 A 
ATOM    103  F   UNL A   1      35.857  29.912  29.532  1.00  0.00    -0.206 F 
ATOM    104  C   UNL A   1      34.333  32.796  28.112  1.00  0.00     0.022 A 
BRANCH 101 105
ATOM    105  S   UNL A   1      33.637  35.295  29.115  1.00  0.00     0.124 S 
ATOM    106  O   UNL A   1      34.566  36.108  28.333  1.00  0.00    -0.237 OA
ATOM    107  O   UNL A   1      32.381  34.958  28.453  1.00  0.00    -0.237 OA
ATOM    108  O   UNL A   1      33.526  35.655  30.526  1.00  0.00    -0.744 OA
ENDBRANCH 101 105
ENDBRANCH  75  98
ENDBRANCH  49  50
ENDBRANCH  42  44
ENDBRANCH  41  42
ENDBRANCH  40  41
ENDBRANCH  39  40
ENDBRANCH  38  39
ENDBRANCH  37  38
ENDBRANCH   1  37
TORSDOF 26
ENDMDL
