MODEL 1
REMARK VINA RESULT:      -9.4      0.000      0.000
REMARK SMILES C[N@H+]1[C@H](C(=O)OCCOCCOCCOCCOC(=O)c2ccc(-c3c4nc(c(-c5cc(S(=O)(=O)[O-])ccc5F)c5ccc([nH]5)c(-c5cc(S(=O)(=O)[O-])ccc5F)c5nc(c(-c6cc(S(=O)(=O)[O-])ccc6F)c6ccc3[nH]6)C=C5)C=C4)cc2)C[C@H](C(=O)NCC2(CO)CCCC2)[C@@H]1c1ccccc1F
REMARK SMILES IDX 11 1 10 2 9 3 8 4 7 5 6 6 4 7 5 8 3 9 1 10 2 11 97 12 84 14
REMARK SMILES IDX 85 15 98 16 99 17 103 18 100 19 102 20 104 21 101 22 86 23
REMARK SMILES IDX 87 24 88 25 89 27 90 28 93 29 96 30 94 31 95 32 91 33 92 34
REMARK SMILES IDX 12 36 13 37 14 38 15 39 16 40 17 41 18 42 19 43 20 44 21 45
REMARK SMILES IDX 22 46 83 47 23 48 82 49 24 50 25 51 26 52 76 53 27 54 81 55
REMARK SMILES IDX 75 56 77 57 28 58 80 59 74 60 73 61 29 63 61 64 41 65 60 66
REMARK SMILES IDX 42 67 45 68 59 69 78 70 43 71 44 72 58 74 79 75 46 76 30 77
REMARK SMILES IDX 31 78 39 79 32 80 38 81 40 82 37 83 33 84 34 85 35 86 36 87
REMARK SMILES IDX 62 88 63 89 71 90 64 91 70 92 72 93 69 94 65 95 66 96 67 97
REMARK SMILES IDX 68 98 47 99 48 100 56 101 49 102 55 103 57 104 54 105 50 106
REMARK SMILES IDX 51 107 52 108 53 109
REMARK H PARENT 2 13 88 26 92 35 77 62 45 73
REMARK Flexibility Score: inf
ROOT
ATOM      1  C   UNL A   1      40.719  20.714  26.860  1.00  0.00     0.188 C 
ENDROOT
BRANCH   1   2
ATOM      2  C   UNL A   1      40.225  22.110  26.409  1.00  0.00     0.188 C 
BRANCH   2   3
ATOM      3  O   UNL A   1      39.995  23.170  27.341  1.00  0.00    -0.376 OA
BRANCH   3   4
ATOM      4  C   UNL A   1      39.038  24.168  27.035  1.00  0.00     0.202 C 
BRANCH   4   5
ATOM      5  C   UNL A   1      37.962  23.757  26.017  1.00  0.00     0.261 C 
BRANCH   5   6
ATOM      6  O   UNL A   1      36.605  23.708  26.501  1.00  0.00    -0.459 OA
BRANCH   6   7
ATOM      7  C   UNL A   1      35.632  24.135  25.652  1.00  0.00     0.365 C 
ATOM      8  O   UNL A   1      35.003  25.183  25.791  1.00  0.00    -0.245 OA
BRANCH   7   9
ATOM      9  C   UNL A   1      35.192  23.089  24.619  1.00  0.00     0.296 C 
ATOM     10  C   UNL A   1      36.096  20.833  24.876  1.00  0.00     0.333 C 
ATOM     11  N   UNL A   1      34.907  21.681  25.026  1.00  0.00    -0.319 N 
ATOM     12  C   UNL A   1      33.835  21.239  24.088  1.00  0.00     0.231 C 
ATOM     13  H   UNL A   1      34.633  21.613  26.007  1.00  0.00     0.349 HD
ATOM     14  C   UNL A   1      33.874  23.623  24.101  1.00  0.00     0.097 C 
ATOM     15  C   UNL A   1      32.899  22.457  23.993  1.00  0.00     0.148 C 
BRANCH  12  16
ATOM     16  C   UNL A   1      33.122  19.911  24.252  1.00  0.00     0.046 A 
ATOM     17  C   UNL A   1      33.287  19.237  25.485  1.00  0.00     0.013 A 
ATOM     18  C   UNL A   1      32.418  19.245  23.246  1.00  0.00     0.132 A 
ATOM     19  C   UNL A   1      32.815  17.937  25.677  1.00  0.00     0.001 A 
ATOM     20  C   UNL A   1      31.942  17.943  23.434  1.00  0.00     0.040 A 
ATOM     21  F   UNL A   1      32.193  19.823  22.058  1.00  0.00    -0.206 F 
ATOM     22  C   UNL A   1      32.154  17.282  24.644  1.00  0.00     0.003 A 
ENDBRANCH  12  16
BRANCH  15  23
ATOM     23  C   UNL A   1      31.736  22.537  24.999  1.00  0.00     0.229 C 
ATOM     24  O   UNL A   1      31.643  21.836  26.003  1.00  0.00    -0.275 OA
ATOM     25  N   UNL A   1      30.658  23.329  24.709  1.00  0.00    -0.355 N 
ATOM     26  H   UNL A   1      29.907  23.256  25.342  1.00  0.00     0.163 HD
BRANCH  25  27
ATOM     27  C   UNL A   1      30.449  24.256  23.618  1.00  0.00     0.125 C 
BRANCH  27  28
ATOM     28  C   UNL A   1      30.460  25.735  24.003  1.00  0.00     0.011 C 
ATOM     29  C   UNL A   1      31.415  26.488  23.053  1.00  0.00     0.011 C 
ATOM     30  C   UNL A   1      29.129  26.441  23.704  1.00  0.00     0.011 C 
ATOM     31  C   UNL A   1      30.970  27.940  23.107  1.00  0.00     0.001 C 
ATOM     32  C   UNL A   1      29.491  27.909  23.491  1.00  0.00     0.001 C 
BRANCH  28  33
ATOM     33  C   UNL A   1      30.904  25.887  25.468  1.00  0.00     0.164 C 
BRANCH  33  34
ATOM     34  O   UNL A   1      29.851  25.563  26.364  1.00  0.00    -0.396 OA
ATOM     35  H   UNL A   1      29.438  26.378  26.686  1.00  0.00     0.210 HD
ENDBRANCH  33  34
ENDBRANCH  28  33
ENDBRANCH  27  28
ENDBRANCH  25  27
ENDBRANCH  15  23
ENDBRANCH   7   9
ENDBRANCH   6   7
ENDBRANCH   5   6
ENDBRANCH   4   5
ENDBRANCH   3   4
ENDBRANCH   2   3
ENDBRANCH   1   2
BRANCH   1  36
ATOM     36  O   UNL A   1      41.468  20.038  25.866  1.00  0.00    -0.377 OA
BRANCH  36  37
ATOM     37  C   UNL A   1      42.106  18.856  26.306  1.00  0.00     0.188 C 
BRANCH  37  38
ATOM     38  C   UNL A   1      43.519  18.661  25.739  1.00  0.00     0.188 C 
BRANCH  38  39
ATOM     39  O   UNL A   1      43.916  19.728  24.882  1.00  0.00    -0.376 OA
BRANCH  39  40
ATOM     40  C   UNL A   1      45.288  20.055  24.753  1.00  0.00     0.202 C 
BRANCH  40  41
ATOM     41  C   UNL A   1      45.698  21.535  24.825  1.00  0.00     0.261 C 
BRANCH  41  42
ATOM     42  O   UNL A   1      45.814  22.128  26.123  1.00  0.00    -0.460 OA
BRANCH  42  43
ATOM     43  C   UNL A   1      44.798  22.910  26.565  1.00  0.00     0.338 C 
ATOM     44  O   UNL A   1      43.761  22.541  27.055  1.00  0.00    -0.246 OA
BRANCH  43  45
ATOM     45  C   UNL A   1      45.296  24.310  26.537  1.00  0.00     0.060 A 
ATOM     46  C   UNL A   1      45.104  25.075  25.379  1.00  0.00     0.016 A 
ATOM     47  C   UNL A   1      45.889  24.880  27.667  1.00  0.00     0.016 A 
ATOM     48  C   UNL A   1      45.516  26.408  25.343  1.00  0.00     0.010 A 
ATOM     49  C   UNL A   1      46.337  26.203  27.617  1.00  0.00     0.010 A 
ATOM     50  C   UNL A   1      46.177  26.964  26.446  1.00  0.00    -0.014 A 
BRANCH  50  51
ATOM     51  C   UNL A   1      46.913  28.243  26.291  1.00  0.00     0.031 A 
ATOM     52  C   UNL A   1      48.392  28.165  26.027  1.00  0.00     0.074 A 
ATOM     53  C   UNL A   1      46.295  29.435  26.369  1.00  0.00     0.049 A 
ATOM     54  N   UNL A   1      49.274  29.123  25.928  1.00  0.00    -0.248 NA
ATOM     55  C   UNL A   1      48.947  26.812  25.857  1.00  0.00     0.031 C 
ATOM     56  C   UNL A   1      44.860  29.633  26.564  1.00  0.00     0.029 A 
ATOM     57  N   UNL A   1      46.804  30.708  26.302  1.00  0.00    -0.354 N 
ATOM     58  C   UNL A   1      50.489  28.489  25.689  1.00  0.00     0.074 A 
ATOM     59  C   UNL A   1      50.235  27.066  25.694  1.00  0.00     0.031 C 
ATOM     60  C   UNL A   1      44.607  30.954  26.616  1.00  0.00     0.029 A 
ATOM     61  C   UNL A   1      45.865  31.692  26.503  1.00  0.00     0.049 A 
ATOM     62  H   UNL A   1      47.754  30.899  26.125  1.00  0.00     0.167 HD
ATOM     63  C   UNL A   1      51.707  29.047  25.479  1.00  0.00     0.034 A 
ATOM     64  C   UNL A   1      46.013  33.029  26.617  1.00  0.00     0.034 A 
ATOM     65  C   UNL A   1      51.946  30.469  25.503  1.00  0.00     0.049 A 
ATOM     66  C   UNL A   1      47.399  33.623  26.492  1.00  0.00     0.074 A 
ATOM     67  C   UNL A   1      53.134  31.146  25.301  1.00  0.00     0.029 A 
ATOM     68  N   UNL A   1      50.979  31.432  25.764  1.00  0.00    -0.354 N 
ATOM     69  N   UNL A   1      48.542  33.019  26.259  1.00  0.00    -0.248 NA
ATOM     70  C   UNL A   1      47.513  35.081  26.640  1.00  0.00     0.031 C 
ATOM     71  C   UNL A   1      52.904  32.508  25.521  1.00  0.00     0.029 A 
ATOM     72  C   UNL A   1      51.553  32.694  25.768  1.00  0.00     0.049 A 
ATOM     73  H   UNL A   1      50.025  31.246  25.923  1.00  0.00     0.167 HD
ATOM     74  C   UNL A   1      49.503  34.027  26.199  1.00  0.00     0.074 A 
ATOM     75  C   UNL A   1      48.803  35.278  26.408  1.00  0.00     0.031 C 
ATOM     76  C   UNL A   1      50.840  33.932  25.984  1.00  0.00     0.034 A 
BRANCH  63  77
ATOM     77  C   UNL A   1      52.870  28.109  25.273  1.00  0.00     0.023 A 
ATOM     78  C   UNL A   1      53.613  27.600  26.353  1.00  0.00     0.031 A 
ATOM     79  C   UNL A   1      53.268  27.750  23.973  1.00  0.00     0.131 A 
ATOM     80  C   UNL A   1      54.756  26.822  26.110  1.00  0.00     0.055 A 
ATOM     81  C   UNL A   1      54.354  26.906  23.742  1.00  0.00     0.041 A 
ATOM     82  F   UNL A   1      52.614  28.228  22.902  1.00  0.00    -0.206 F 
ATOM     83  C   UNL A   1      55.115  26.448  24.813  1.00  0.00     0.022 A 
BRANCH  80  84
ATOM     84  S   UNL A   1      55.850  26.429  27.503  1.00  0.00     0.124 S 
ATOM     85  O   UNL A   1      55.226  25.222  28.038  1.00  0.00    -0.237 OA
ATOM     86  O   UNL A   1      57.141  26.246  26.849  1.00  0.00    -0.237 OA
ATOM     87  O   UNL A   1      55.748  27.608  28.362  1.00  0.00    -0.744 OA
ENDBRANCH  80  84
ENDBRANCH  63  77
BRANCH  64  88
ATOM     88  C   UNL A   1      44.840  33.903  26.915  1.00  0.00     0.023 A 
ATOM     89  C   UNL A   1      44.378  34.083  28.230  1.00  0.00     0.031 A 
ATOM     90  C   UNL A   1      44.117  34.519  25.877  1.00  0.00     0.131 A 
ATOM     91  C   UNL A   1      43.203  34.816  28.467  1.00  0.00     0.055 A 
ATOM     92  C   UNL A   1      42.984  35.298  26.124  1.00  0.00     0.041 A 
ATOM     93  F   UNL A   1      44.502  34.370  24.600  1.00  0.00    -0.206 F 
ATOM     94  C   UNL A   1      42.513  35.438  27.425  1.00  0.00     0.022 A 
BRANCH  91  95
ATOM     95  S   UNL A   1      42.531  34.861  30.152  1.00  0.00     0.124 S 
ATOM     96  O   UNL A   1      43.121  33.662  30.739  1.00  0.00    -0.237 OA
ATOM     97  O   UNL A   1      43.040  36.135  30.649  1.00  0.00    -0.237 OA
ATOM     98  O   UNL A   1      41.086  34.807  29.945  1.00  0.00    -0.744 OA
ENDBRANCH  91  95
ENDBRANCH  64  88
BRANCH  76  99
ATOM     99  C   UNL A   1      51.626  35.220  25.906  1.00  0.00     0.023 A 
ATOM    100  C   UNL A   1      52.249  35.783  27.035  1.00  0.00     0.031 A 
ATOM    101  C   UNL A   1      51.760  35.890  24.676  1.00  0.00     0.131 A 
ATOM    102  C   UNL A   1      52.933  37.003  26.919  1.00  0.00     0.055 A 
ATOM    103  C   UNL A   1      52.498  37.068  24.554  1.00  0.00     0.041 A 
ATOM    104  F   UNL A   1      51.186  35.400  23.566  1.00  0.00    -0.206 F 
ATOM    105  C   UNL A   1      53.079  37.638  25.682  1.00  0.00     0.022 A 
BRANCH 102 106
ATOM    106  S   UNL A   1      53.559  37.800  28.424  1.00  0.00     0.124 S 
ATOM    107  O   UNL A   1      54.660  36.918  28.798  1.00  0.00    -0.237 OA
ATOM    108  O   UNL A   1      53.938  39.124  27.943  1.00  0.00    -0.237 OA
ATOM    109  O   UNL A   1      52.411  37.775  29.328  1.00  0.00    -0.744 OA
ENDBRANCH 102 106
ENDBRANCH  76  99
ENDBRANCH  50  51
ENDBRANCH  43  45
ENDBRANCH  42  43
ENDBRANCH  41  42
ENDBRANCH  40  41
ENDBRANCH  39  40
ENDBRANCH  38  39
ENDBRANCH  37  38
ENDBRANCH  36  37
ENDBRANCH   1  36
TORSDOF 29
ENDMDL
MODEL 2
REMARK VINA RESULT:      -8.8      2.334      7.975
REMARK SMILES C[N@H+]1[C@H](C(=O)OCCOCCOCCOCCOC(=O)c2ccc(-c3c4nc(c(-c5cc(S(=O)(=O)[O-])ccc5F)c5ccc([nH]5)c(-c5cc(S(=O)(=O)[O-])ccc5F)c5nc(c(-c6cc(S(=O)(=O)[O-])ccc6F)c6ccc3[nH]6)C=C5)C=C4)cc2)C[C@H](C(=O)NCC2(CO)CCCC2)[C@@H]1c1ccccc1F
REMARK SMILES IDX 11 1 10 2 9 3 8 4 7 5 6 6 4 7 5 8 3 9 1 10 2 11 97 12 84 14
REMARK SMILES IDX 85 15 98 16 99 17 103 18 100 19 102 20 104 21 101 22 86 23
REMARK SMILES IDX 87 24 88 25 89 27 90 28 93 29 96 30 94 31 95 32 91 33 92 34
REMARK SMILES IDX 12 36 13 37 14 38 15 39 16 40 17 41 18 42 19 43 20 44 21 45
REMARK SMILES IDX 22 46 83 47 23 48 82 49 24 50 25 51 26 52 76 53 27 54 81 55
REMARK SMILES IDX 75 56 77 57 28 58 80 59 74 60 73 61 29 63 61 64 41 65 60 66
REMARK SMILES IDX 42 67 45 68 59 69 78 70 43 71 44 72 58 74 79 75 46 76 30 77
REMARK SMILES IDX 31 78 39 79 32 80 38 81 40 82 37 83 33 84 34 85 35 86 36 87
REMARK SMILES IDX 62 88 63 89 71 90 64 91 70 92 72 93 69 94 65 95 66 96 67 97
REMARK SMILES IDX 68 98 47 99 48 100 56 101 49 102 55 103 57 104 54 105 50 106
REMARK SMILES IDX 51 107 52 108 53 109
REMARK H PARENT 2 13 88 26 92 35 77 62 45 73
REMARK Flexibility Score: inf
ROOT
ATOM      1  C   UNL A   1      39.089  21.981  26.132  1.00  0.00     0.188 C 
ENDROOT
BRANCH   1   2
ATOM      2  C   UNL A   1      38.002  21.236  25.318  1.00  0.00     0.188 C 
BRANCH   2   3
ATOM      3  O   UNL A   1      36.695  21.784  25.121  1.00  0.00    -0.376 OA
BRANCH   3   4
ATOM      4  C   UNL A   1      35.741  21.690  26.163  1.00  0.00     0.202 C 
BRANCH   4   5
ATOM      5  C   UNL A   1      34.317  22.132  25.793  1.00  0.00     0.261 C 
BRANCH   5   6
ATOM      6  O   UNL A   1      33.525  22.705  26.853  1.00  0.00    -0.459 OA
BRANCH   6   7
ATOM      7  C   UNL A   1      32.404  23.384  26.488  1.00  0.00     0.365 C 
ATOM      8  O   UNL A   1      31.277  23.138  26.913  1.00  0.00    -0.245 OA
BRANCH   7   9
ATOM      9  C   UNL A   1      32.603  24.339  25.303  1.00  0.00     0.296 C 
ATOM     10  C   UNL A   1      30.870  24.340  23.580  1.00  0.00     0.333 C 
ATOM     11  N   UNL A   1      31.449  25.077  24.710  1.00  0.00    -0.319 N 
ATOM     12  C   UNL A   1      32.040  26.364  24.240  1.00  0.00     0.231 C 
ATOM     13  H   UNL A   1      30.691  25.208  25.380  1.00  0.00     0.349 HD
ATOM     14  C   UNL A   1      33.517  25.413  25.853  1.00  0.00     0.097 C 
ATOM     15  C   UNL A   1      33.005  26.765  25.371  1.00  0.00     0.148 C 
BRANCH  12  16
ATOM     16  C   UNL A   1      31.182  27.498  23.715  1.00  0.00     0.046 A 
ATOM     17  C   UNL A   1      29.783  27.381  23.887  1.00  0.00     0.013 A 
ATOM     18  C   UNL A   1      31.649  28.585  22.972  1.00  0.00     0.132 A 
ATOM     19  C   UNL A   1      28.895  28.283  23.295  1.00  0.00     0.001 A 
ATOM     20  C   UNL A   1      30.764  29.491  22.378  1.00  0.00     0.040 A 
ATOM     21  F   UNL A   1      32.961  28.784  22.785  1.00  0.00    -0.206 F 
ATOM     22  C   UNL A   1      29.387  29.332  22.526  1.00  0.00     0.003 A 
ENDBRANCH  12  16
BRANCH  15  23
ATOM     23  C   UNL A   1      32.442  27.645  26.502  1.00  0.00     0.229 C 
ATOM     24  O   UNL A   1      31.350  27.467  27.036  1.00  0.00    -0.275 OA
ATOM     25  N   UNL A   1      33.114  28.783  26.857  1.00  0.00    -0.355 N 
ATOM     26  H   UNL A   1      32.650  29.353  27.513  1.00  0.00     0.163 HD
BRANCH  25  27
ATOM     27  C   UNL A   1      34.400  29.281  26.418  1.00  0.00     0.125 C 
BRANCH  27  28
ATOM     28  C   UNL A   1      35.188  30.071  27.464  1.00  0.00     0.011 C 
ATOM     29  C   UNL A   1      35.106  29.327  28.813  1.00  0.00     0.011 C 
ATOM     30  C   UNL A   1      36.703  30.055  27.209  1.00  0.00     0.011 C 
ATOM     31  C   UNL A   1      36.302  29.816  29.612  1.00  0.00     0.001 C 
ATOM     32  C   UNL A   1      37.343  30.251  28.582  1.00  0.00     0.001 C 
BRANCH  28  33
ATOM     33  C   UNL A   1      34.613  31.493  27.581  1.00  0.00     0.164 C 
BRANCH  33  34
ATOM     34  O   UNL A   1      33.194  31.475  27.627  1.00  0.00    -0.396 OA
ATOM     35  H   UNL A   1      32.893  30.647  28.031  1.00  0.00     0.210 HD
ENDBRANCH  33  34
ENDBRANCH  28  33
ENDBRANCH  27  28
ENDBRANCH  25  27
ENDBRANCH  15  23
ENDBRANCH   7   9
ENDBRANCH   6   7
ENDBRANCH   5   6
ENDBRANCH   4   5
ENDBRANCH   3   4
ENDBRANCH   2   3
ENDBRANCH   1   2
BRANCH   1  36
ATOM     36  O   UNL A   1      40.394  21.477  25.913  1.00  0.00    -0.377 OA
BRANCH  36  37
ATOM     37  C   UNL A   1      40.779  20.431  26.782  1.00  0.00     0.188 C 
BRANCH  37  38
ATOM     38  C   UNL A   1      41.630  19.344  26.112  1.00  0.00     0.188 C 
BRANCH  38  39
ATOM     39  O   UNL A   1      43.028  19.592  26.232  1.00  0.00    -0.376 OA
BRANCH  39  40
ATOM     40  C   UNL A   1      43.722  20.237  25.180  1.00  0.00     0.202 C 
BRANCH  40  41
ATOM     41  C   UNL A   1      44.566  21.479  25.511  1.00  0.00     0.261 C 
BRANCH  41  42
ATOM     42  O   UNL A   1      43.907  22.750  25.502  1.00  0.00    -0.460 OA
BRANCH  42  43
ATOM     43  C   UNL A   1      43.675  23.361  26.690  1.00  0.00     0.338 C 
ATOM     44  O   UNL A   1      43.109  22.894  27.646  1.00  0.00    -0.246 OA
BRANCH  43  45
ATOM     45  C   UNL A   1      44.445  24.633  26.672  1.00  0.00     0.060 A 
ATOM     46  C   UNL A   1      44.710  25.246  25.440  1.00  0.00     0.016 A 
ATOM     47  C   UNL A   1      44.843  25.244  27.863  1.00  0.00     0.016 A 
ATOM     48  C   UNL A   1      45.386  26.467  25.397  1.00  0.00     0.010 A 
ATOM     49  C   UNL A   1      45.555  26.446  27.817  1.00  0.00     0.010 A 
ATOM     50  C   UNL A   1      45.853  27.048  26.581  1.00  0.00    -0.014 A 
BRANCH  50  51
ATOM     51  C   UNL A   1      46.854  28.141  26.517  1.00  0.00     0.031 A 
ATOM     52  C   UNL A   1      46.338  29.555  26.527  1.00  0.00     0.074 A 
ATOM     53  C   UNL A   1      48.175  27.896  26.465  1.00  0.00     0.049 A 
ATOM     54  N   UNL A   1      46.988  30.682  26.405  1.00  0.00    -0.248 NA
ATOM     55  C   UNL A   1      44.884  29.711  26.692  1.00  0.00     0.031 C 
ATOM     56  C   UNL A   1      48.792  26.573  26.508  1.00  0.00     0.029 A 
ATOM     57  N   UNL A   1      49.237  28.760  26.354  1.00  0.00    -0.354 N 
ATOM     58  C   UNL A   1      46.022  31.681  26.474  1.00  0.00     0.074 A 
ATOM     59  C   UNL A   1      44.742  31.024  26.611  1.00  0.00     0.031 C 
ATOM     60  C   UNL A   1      50.127  26.712  26.409  1.00  0.00     0.029 A 
ATOM     61  C   UNL A   1      50.455  28.129  26.251  1.00  0.00     0.049 A 
ATOM     62  H   UNL A   1      49.136  29.740  26.351  1.00  0.00     0.167 HD
ATOM     63  C   UNL A   1      46.192  33.024  26.431  1.00  0.00     0.034 A 
ATOM     64  C   UNL A   1      51.684  28.638  26.021  1.00  0.00     0.034 A 
ATOM     65  C   UNL A   1      47.475  33.660  26.268  1.00  0.00     0.049 A 
ATOM     66  C   UNL A   1      51.835  30.135  25.864  1.00  0.00     0.074 A 
ATOM     67  C   UNL A   1      47.767  35.011  26.214  1.00  0.00     0.029 A 
ATOM     68  N   UNL A   1      48.680  32.987  26.112  1.00  0.00    -0.354 N 
ATOM     69  N   UNL A   1      50.919  31.074  25.936  1.00  0.00    -0.248 NA
ATOM     70  C   UNL A   1      53.189  30.642  25.597  1.00  0.00     0.031 C 
ATOM     71  C   UNL A   1      49.131  35.153  25.944  1.00  0.00     0.029 A 
ATOM     72  C   UNL A   1      49.712  33.895  25.922  1.00  0.00     0.049 A 
ATOM     73  H   UNL A   1      48.788  32.009  26.134  1.00  0.00     0.167 HD
ATOM     74  C   UNL A   1      51.593  32.282  25.760  1.00  0.00     0.074 A 
ATOM     75  C   UNL A   1      52.993  31.953  25.589  1.00  0.00     0.031 C 
ATOM     76  C   UNL A   1      51.103  33.549  25.747  1.00  0.00     0.034 A 
BRANCH  63  77
ATOM     77  C   UNL A   1      44.950  33.880  26.498  1.00  0.00     0.023 A 
ATOM     78  C   UNL A   1      44.494  34.432  27.708  1.00  0.00     0.031 A 
ATOM     79  C   UNL A   1      44.189  34.114  25.339  1.00  0.00     0.131 A 
ATOM     80  C   UNL A   1      43.275  35.127  27.743  1.00  0.00     0.055 A 
ATOM     81  C   UNL A   1      43.023  34.879  25.366  1.00  0.00     0.041 A 
ATOM     82  F   UNL A   1      44.560  33.589  24.160  1.00  0.00    -0.206 F 
ATOM     83  C   UNL A   1      42.550  35.378  26.576  1.00  0.00     0.022 A 
BRANCH  80  84
ATOM     84  S   UNL A   1      42.575  35.569  29.358  1.00  0.00     0.124 S 
ATOM     85  O   UNL A   1      41.772  34.388  29.665  1.00  0.00    -0.237 OA
ATOM     86  O   UNL A   1      43.767  35.762  30.176  1.00  0.00    -0.237 OA
ATOM     87  O   UNL A   1      41.807  36.781  29.079  1.00  0.00    -0.744 OA
ENDBRANCH  80  84
ENDBRANCH  63  77
BRANCH  64  88
ATOM     88  C   UNL A   1      52.866  27.739  25.870  1.00  0.00     0.023 A 
ATOM     89  C   UNL A   1      53.653  27.377  26.976  1.00  0.00     0.031 A 
ATOM     90  C   UNL A   1      53.268  27.282  24.601  1.00  0.00     0.131 A 
ATOM     91  C   UNL A   1      54.826  26.626  26.786  1.00  0.00     0.055 A 
ATOM     92  C   UNL A   1      54.400  26.483  24.426  1.00  0.00     0.041 A 
ATOM     93  F   UNL A   1      52.562  27.608  23.507  1.00  0.00    -0.206 F 
ATOM     94  C   UNL A   1      55.195  26.163  25.522  1.00  0.00     0.022 A 
BRANCH  91  95
ATOM     95  S   UNL A   1      55.918  26.345  28.208  1.00  0.00     0.124 S 
ATOM     96  O   UNL A   1      56.508  27.667  28.393  1.00  0.00    -0.237 OA
ATOM     97  O   UNL A   1      54.978  25.913  29.235  1.00  0.00    -0.237 OA
ATOM     98  O   UNL A   1      56.838  25.314  27.732  1.00  0.00    -0.744 OA
ENDBRANCH  91  95
ENDBRANCH  64  88
BRANCH  76  99
ATOM     99  C   UNL A   1      52.097  34.677  25.598  1.00  0.00     0.023 A 
ATOM    100  C   UNL A   1      52.656  35.330  26.711  1.00  0.00     0.031 A 
ATOM    101  C   UNL A   1      52.497  35.097  24.317  1.00  0.00     0.131 A 
ATOM    102  C   UNL A   1      53.544  36.400  26.520  1.00  0.00     0.055 A 
ATOM    103  C   UNL A   1      53.431  36.118  24.134  1.00  0.00     0.041 A 
ATOM    104  F   UNL A   1      51.995  34.512  23.218  1.00  0.00    -0.206 F 
ATOM    105  C   UNL A   1      53.950  36.784  25.238  1.00  0.00     0.022 A 
BRANCH 102 106
ATOM    106  S   UNL A   1      54.097  37.346  27.966  1.00  0.00     0.124 S 
ATOM    107  O   UNL A   1      52.836  37.617  28.651  1.00  0.00    -0.237 OA
ATOM    108  O   UNL A   1      54.993  36.406  28.631  1.00  0.00    -0.237 OA
ATOM    109  O   UNL A   1      54.750  38.516  27.382  1.00  0.00    -0.744 OA
ENDBRANCH 102 106
ENDBRANCH  76  99
ENDBRANCH  50  51
ENDBRANCH  43  45
ENDBRANCH  42  43
ENDBRANCH  41  42
ENDBRANCH  40  41
ENDBRANCH  39  40
ENDBRANCH  38  39
ENDBRANCH  37  38
ENDBRANCH  36  37
ENDBRANCH   1  36
TORSDOF 29
ENDMDL
MODEL 3
REMARK VINA RESULT:      -8.3      6.031     11.459
REMARK SMILES C[N@H+]1[C@H](C(=O)OCCOCCOCCOCCOC(=O)c2ccc(-c3c4nc(c(-c5cc(S(=O)(=O)[O-])ccc5F)c5ccc([nH]5)c(-c5cc(S(=O)(=O)[O-])ccc5F)c5nc(c(-c6cc(S(=O)(=O)[O-])ccc6F)c6ccc3[nH]6)C=C5)C=C4)cc2)C[C@H](C(=O)NCC2(CO)CCCC2)[C@@H]1c1ccccc1F
REMARK SMILES IDX 11 1 10 2 9 3 8 4 7 5 6 6 4 7 5 8 3 9 1 10 2 11 97 12 84 14
REMARK SMILES IDX 85 15 98 16 99 17 103 18 100 19 102 20 104 21 101 22 86 23
REMARK SMILES IDX 87 24 88 25 89 27 90 28 93 29 96 30 94 31 95 32 91 33 92 34
REMARK SMILES IDX 12 36 13 37 14 38 15 39 16 40 17 41 18 42 19 43 20 44 21 45
REMARK SMILES IDX 22 46 83 47 23 48 82 49 24 50 25 51 26 52 76 53 27 54 81 55
REMARK SMILES IDX 75 56 77 57 28 58 80 59 74 60 73 61 29 63 61 64 41 65 60 66
REMARK SMILES IDX 42 67 45 68 59 69 78 70 43 71 44 72 58 74 79 75 46 76 30 77
REMARK SMILES IDX 31 78 39 79 32 80 38 81 40 82 37 83 33 84 34 85 35 86 36 87
REMARK SMILES IDX 62 88 63 89 71 90 64 91 70 92 72 93 69 94 65 95 66 96 67 97
REMARK SMILES IDX 68 98 47 99 48 100 56 101 49 102 55 103 57 104 54 105 50 106
REMARK SMILES IDX 51 107 52 108 53 109
REMARK H PARENT 2 13 88 26 92 35 77 62 45 73
REMARK Flexibility Score: inf
ROOT
ATOM      1  C   UNL A   1      34.398  34.619  27.831  1.00  0.00     0.188 C 
ENDROOT
BRANCH   1   2
ATOM      2  C   UNL A   1      33.489  33.373  27.967  1.00  0.00     0.188 C 
BRANCH   2   3
ATOM      3  O   UNL A   1      34.023  32.046  28.006  1.00  0.00    -0.376 OA
BRANCH   3   4
ATOM      4  C   UNL A   1      35.428  31.864  27.984  1.00  0.00     0.202 C 
BRANCH   4   5
ATOM      5  C   UNL A   1      35.932  30.556  28.613  1.00  0.00     0.261 C 
BRANCH   5   6
ATOM      6  O   UNL A   1      37.233  30.601  29.232  1.00  0.00    -0.459 OA
BRANCH   6   7
ATOM      7  C   UNL A   1      37.877  29.414  29.399  1.00  0.00     0.365 C 
ATOM      8  O   UNL A   1      37.594  28.590  30.267  1.00  0.00    -0.245 OA
BRANCH   7   9
ATOM      9  C   UNL A   1      39.162  29.270  28.572  1.00  0.00     0.296 C 
ATOM     10  C   UNL A   1      41.231  30.071  29.597  1.00  0.00     0.333 C 
ATOM     11  N   UNL A   1      40.452  28.886  29.219  1.00  0.00    -0.319 N 
ATOM     12  C   UNL A   1      41.170  28.109  28.167  1.00  0.00     0.231 C 
ATOM     13  H   UNL A   1      40.307  28.356  30.078  1.00  0.00     0.349 HD
ATOM     14  C   UNL A   1      38.851  28.144  27.612  1.00  0.00     0.097 C 
ATOM     15  C   UNL A   1      40.072  27.234  27.536  1.00  0.00     0.148 C 
BRANCH  12  16
ATOM     16  C   UNL A   1      42.467  27.379  28.453  1.00  0.00     0.046 A 
ATOM     17  C   UNL A   1      42.658  26.893  29.768  1.00  0.00     0.013 A 
ATOM     18  C   UNL A   1      43.535  27.252  27.561  1.00  0.00     0.132 A 
ATOM     19  C   UNL A   1      43.880  26.358  30.180  1.00  0.00     0.001 A 
ATOM     20  C   UNL A   1      44.760  26.715  27.969  1.00  0.00     0.040 A 
ATOM     21  F   UNL A   1      43.427  27.660  26.289  1.00  0.00    -0.206 F 
ATOM     22  C   UNL A   1      44.940  26.283  29.282  1.00  0.00     0.003 A 
ENDBRANCH  12  16
BRANCH  15  23
ATOM     23  C   UNL A   1      39.836  25.842  28.150  1.00  0.00     0.229 C 
ATOM     24  O   UNL A   1      39.230  25.644  29.199  1.00  0.00    -0.275 OA
ATOM     25  N   UNL A   1      40.447  24.754  27.587  1.00  0.00    -0.355 N 
ATOM     26  H   UNL A   1      40.339  23.912  28.086  1.00  0.00     0.163 HD
BRANCH  25  27
ATOM     27  C   UNL A   1      41.229  24.648  26.374  1.00  0.00     0.125 C 
BRANCH  27  28
ATOM     28  C   UNL A   1      42.294  23.552  26.375  1.00  0.00     0.011 C 
ATOM     29  C   UNL A   1      43.336  23.872  25.282  1.00  0.00     0.011 C 
ATOM     30  C   UNL A   1      43.173  23.573  27.635  1.00  0.00     0.011 C 
ATOM     31  C   UNL A   1      44.589  23.116  25.691  1.00  0.00     0.001 C 
ATOM     32  C   UNL A   1      44.502  22.956  27.208  1.00  0.00     0.001 C 
BRANCH  28  33
ATOM     33  C   UNL A   1      41.634  22.185  26.126  1.00  0.00     0.164 C 
BRANCH  33  34
ATOM     34  O   UNL A   1      41.089  21.648  27.323  1.00  0.00    -0.396 OA
ATOM     35  H   UNL A   1      40.472  20.933  27.105  1.00  0.00     0.210 HD
ENDBRANCH  33  34
ENDBRANCH  28  33
ENDBRANCH  27  28
ENDBRANCH  25  27
ENDBRANCH  15  23
ENDBRANCH   7   9
ENDBRANCH   6   7
ENDBRANCH   5   6
ENDBRANCH   4   5
ENDBRANCH   3   4
ENDBRANCH   2   3
ENDBRANCH   1   2
BRANCH   1  36
ATOM     36  O   UNL A   1      34.794  35.161  29.078  1.00  0.00    -0.377 OA
BRANCH  36  37
ATOM     37  C   UNL A   1      33.943  34.843  30.160  1.00  0.00     0.188 C 
BRANCH  37  38
ATOM     38  C   UNL A   1      34.584  33.924  31.210  1.00  0.00     0.188 C 
BRANCH  38  39
ATOM     39  O   UNL A   1      33.806  33.827  32.399  1.00  0.00    -0.376 OA
BRANCH  39  40
ATOM     40  C   UNL A   1      34.423  33.451  33.617  1.00  0.00     0.202 C 
BRANCH  40  41
ATOM     41  C   UNL A   1      35.221  34.512  34.392  1.00  0.00     0.261 C 
BRANCH  41  42
ATOM     42  O   UNL A   1      36.646  34.501  34.256  1.00  0.00    -0.460 OA
BRANCH  42  43
ATOM     43  C   UNL A   1      37.369  33.758  35.131  1.00  0.00     0.338 C 
ATOM     44  O   UNL A   1      37.006  33.349  36.205  1.00  0.00    -0.246 OA
BRANCH  43  45
ATOM     45  C   UNL A   1      38.610  33.353  34.421  1.00  0.00     0.060 A 
ATOM     46  C   UNL A   1      38.503  32.612  33.237  1.00  0.00     0.016 A 
ATOM     47  C   UNL A   1      39.864  33.758  34.887  1.00  0.00     0.016 A 
ATOM     48  C   UNL A   1      39.650  32.262  32.522  1.00  0.00     0.010 A 
ATOM     49  C   UNL A   1      41.015  33.374  34.193  1.00  0.00     0.010 A 
ATOM     50  C   UNL A   1      40.913  32.601  33.022  1.00  0.00    -0.014 A 
BRANCH  50  51
ATOM     51  C   UNL A   1      42.122  31.946  32.465  1.00  0.00     0.031 A 
ATOM     52  C   UNL A   1      42.593  30.679  33.129  1.00  0.00     0.074 A 
ATOM     53  C   UNL A   1      42.777  32.444  31.402  1.00  0.00     0.049 A 
ATOM     54  N   UNL A   1      43.654  29.956  32.889  1.00  0.00    -0.248 NA
ATOM     55  C   UNL A   1      41.744  30.166  34.216  1.00  0.00     0.031 C 
ATOM     56  C   UNL A   1      42.382  33.629  30.644  1.00  0.00     0.029 A 
ATOM     57  N   UNL A   1      43.924  32.014  30.781  1.00  0.00    -0.354 N 
ATOM     58  C   UNL A   1      43.604  28.905  33.799  1.00  0.00     0.074 A 
ATOM     59  C   UNL A   1      42.428  29.107  34.616  1.00  0.00     0.031 C 
ATOM     60  C   UNL A   1      43.284  33.841  29.667  1.00  0.00     0.029 A 
ATOM     61  C   UNL A   1      44.341  32.834  29.758  1.00  0.00     0.049 A 
ATOM     62  H   UNL A   1      44.403  31.194  31.043  1.00  0.00     0.167 HD
ATOM     63  C   UNL A   1      44.460  27.864  33.936  1.00  0.00     0.034 A 
ATOM     64  C   UNL A   1      45.464  32.793  29.010  1.00  0.00     0.034 A 
ATOM     65  C   UNL A   1      45.642  27.694  33.128  1.00  0.00     0.049 A 
ATOM     66  C   UNL A   1      46.463  31.684  29.255  1.00  0.00     0.074 A 
ATOM     67  C   UNL A   1      46.579  26.678  33.175  1.00  0.00     0.029 A 
ATOM     68  N   UNL A   1      46.060  28.575  32.139  1.00  0.00    -0.354 N 
ATOM     69  N   UNL A   1      46.406  30.690  30.113  1.00  0.00    -0.248 NA
ATOM     70  C   UNL A   1      47.678  31.690  28.427  1.00  0.00     0.031 C 
ATOM     71  C   UNL A   1      47.604  26.986  32.275  1.00  0.00     0.029 A 
ATOM     72  C   UNL A   1      47.262  28.145  31.597  1.00  0.00     0.049 A 
ATOM     73  H   UNL A   1      45.575  29.385  31.861  1.00  0.00     0.167 HD
ATOM     74  C   UNL A   1      47.559  29.936  29.901  1.00  0.00     0.074 A 
ATOM     75  C   UNL A   1      48.286  30.582  28.828  1.00  0.00     0.031 C 
ATOM     76  C   UNL A   1      47.978  28.806  30.530  1.00  0.00     0.034 A 
BRANCH  63  77
ATOM     77  C   UNL A   1      44.175  26.875  35.040  1.00  0.00     0.023 A 
ATOM     78  C   UNL A   1      44.645  27.071  36.351  1.00  0.00     0.031 A 
ATOM     79  C   UNL A   1      43.456  25.698  34.767  1.00  0.00     0.131 A 
ATOM     80  C   UNL A   1      44.453  26.072  37.319  1.00  0.00     0.055 A 
ATOM     81  C   UNL A   1      43.194  24.749  35.756  1.00  0.00     0.041 A 
ATOM     82  F   UNL A   1      43.006  25.444  33.528  1.00  0.00    -0.206 F 
ATOM     83  C   UNL A   1      43.707  24.926  37.037  1.00  0.00     0.022 A 
BRANCH  80  84
ATOM     84  S   UNL A   1      45.319  26.225  38.906  1.00  0.00     0.124 S 
ATOM     85  O   UNL A   1      45.223  24.863  39.426  1.00  0.00    -0.237 OA
ATOM     86  O   UNL A   1      46.650  26.662  38.498  1.00  0.00    -0.237 OA
ATOM     87  O   UNL A   1      44.532  27.219  39.632  1.00  0.00    -0.744 OA
ENDBRANCH  80  84
ENDBRANCH  63  77
BRANCH  64  88
ATOM     88  C   UNL A   1      45.742  33.851  27.994  1.00  0.00     0.023 A 
ATOM     89  C   UNL A   1      46.431  35.026  28.334  1.00  0.00     0.031 A 
ATOM     90  C   UNL A   1      45.258  33.732  26.678  1.00  0.00     0.131 A 
ATOM     91  C   UNL A   1      46.575  36.054  27.387  1.00  0.00     0.055 A 
ATOM     92  C   UNL A   1      45.457  34.731  25.722  1.00  0.00     0.041 A 
ATOM     93  F   UNL A   1      44.579  32.637  26.300  1.00  0.00    -0.206 F 
ATOM     94  C   UNL A   1      46.108  35.908  26.079  1.00  0.00     0.022 A 
BRANCH  91  95
ATOM     95  S   UNL A   1      47.297  37.632  27.919  1.00  0.00     0.124 S 
ATOM     96  O   UNL A   1      46.779  38.550  26.909  1.00  0.00    -0.237 OA
ATOM     97  O   UNL A   1      46.748  37.782  29.262  1.00  0.00    -0.237 OA
ATOM     98  O   UNL A   1      48.736  37.386  27.858  1.00  0.00    -0.744 OA
ENDBRANCH  91  95
ENDBRANCH  64  88
BRANCH  76  99
ATOM     99  C   UNL A   1      49.253  28.167  30.034  1.00  0.00     0.023 A 
ATOM    100  C   UNL A   1      50.508  28.477  30.589  1.00  0.00     0.031 A 
ATOM    101  C   UNL A   1      49.208  27.222  28.993  1.00  0.00     0.131 A 
ATOM    102  C   UNL A   1      51.669  27.886  30.066  1.00  0.00     0.055 A 
ATOM    103  C   UNL A   1      50.358  26.588  28.522  1.00  0.00     0.041 A 
ATOM    104  F   UNL A   1      48.039  26.887  28.423  1.00  0.00    -0.206 F 
ATOM    105  C   UNL A   1      51.599  26.928  29.050  1.00  0.00     0.022 A 
BRANCH 102 106
ATOM    106  S   UNL A   1      53.284  28.448  30.670  1.00  0.00     0.124 S 
ATOM    107  O   UNL A   1      53.971  28.788  29.427  1.00  0.00    -0.237 OA
ATOM    108  O   UNL A   1      52.924  29.573  31.526  1.00  0.00    -0.237 OA
ATOM    109  O   UNL A   1      53.814  27.281  31.372  1.00  0.00    -0.744 OA
ENDBRANCH 102 106
ENDBRANCH  76  99
ENDBRANCH  50  51
ENDBRANCH  43  45
ENDBRANCH  42  43
ENDBRANCH  41  42
ENDBRANCH  40  41
ENDBRANCH  39  40
ENDBRANCH  38  39
ENDBRANCH  37  38
ENDBRANCH  36  37
ENDBRANCH   1  36
TORSDOF 29
ENDMDL
