MODEL 1
REMARK VINA RESULT:      -7.3      0.000      0.000
REMARK SMILES O=C(OCCOCCOCCOCCOC(=O)[C@@H]1[C@H](C(=O)Nc2ccc(Cn3cncn3)cc2)[C@@H]2C=C[C@H]1CC2)c1ccc(-c2c3nc(c(-c4cc(S(=O)(=O)[O-])ccc4F)c4ccc([nH]4)c(-c4cc(S(=O)(=O)[O-])ccc4F)c4nc(c(-c5cc(S(=O)(=O)[O-])ccc5F)c5ccc2[nH]5)C=C4)C=C3)cc1
REMARK SMILES IDX 10 1 9 2 8 3 7 4 6 5 5 6 4 7 3 8 2 9 1 10 41 11 42 12 103 13
REMARK SMILES IDX 43 14 102 15 44 16 45 17 46 18 96 19 47 20 101 21 95 22
REMARK SMILES IDX 97 23 48 24 100 25 94 26 93 27 49 29 81 30 61 31 80 32 62 33
REMARK SMILES IDX 65 34 79 35 98 36 63 37 64 38 78 40 99 41 66 42 50 43 51 44
REMARK SMILES IDX 59 45 52 46 58 47 60 48 57 49 53 50 54 51 55 52 56 53 82 54
REMARK SMILES IDX 83 55 91 56 84 57 90 58 92 59 89 60 85 61 86 62 87 63 88 64
REMARK SMILES IDX 67 65 68 66 76 67 69 68 75 69 77 70 74 71 70 72 71 73 72 74
REMARK SMILES IDX 73 75 11 76 12 77 13 78 14 79 15 80 16 81 17 82 18 83 19 84
REMARK SMILES IDX 38 85 35 86 37 87 39 88 36 89 40 90 20 91 21 92 22 93 23 95
REMARK SMILES IDX 24 96 34 97 25 98 33 99 26 100 27 101 28 102 29 103 32 104
REMARK SMILES IDX 30 105 31 106
REMARK H PARENT 97 28 65 39 22 94
REMARK Flexibility Score: inf
ROOT
ATOM      1  C   UNL A   1      46.495  40.914  32.944  1.00  0.00     0.188 C 
ENDROOT
BRANCH   1   2
ATOM      2  O   UNL A   1      45.503  41.804  33.453  1.00  0.00    -0.377 OA
BRANCH   2   3
ATOM      3  C   UNL A   1      44.284  42.001  32.730  1.00  0.00     0.188 C 
BRANCH   3   4
ATOM      4  C   UNL A   1      43.456  40.757  32.630  1.00  0.00     0.188 C 
BRANCH   4   5
ATOM      5  O   UNL A   1      42.322  40.894  31.787  1.00  0.00    -0.376 OA
BRANCH   5   6
ATOM      6  C   UNL A   1      42.612  41.516  30.533  1.00  0.00     0.202 C 
BRANCH   6   7
ATOM      7  C   UNL A   1      43.325  40.651  29.470  1.00  0.00     0.261 C 
BRANCH   7   8
ATOM      8  O   UNL A   1      43.385  39.206  29.650  1.00  0.00    -0.460 OA
BRANCH   8   9
ATOM      9  C   UNL A   1      43.714  38.215  28.791  1.00  0.00     0.338 C 
ATOM     10  O   UNL A   1      44.373  38.429  27.773  1.00  0.00    -0.246 OA
BRANCH   9  11
ATOM     11  C   UNL A   1      43.426  36.838  29.160  1.00  0.00     0.060 A 
ATOM     12  C   UNL A   1      42.585  36.067  28.376  1.00  0.00     0.016 A 
ATOM     13  C   UNL A   1      43.837  36.424  30.443  1.00  0.00     0.016 A 
ATOM     14  C   UNL A   1      42.009  34.972  28.933  1.00  0.00     0.010 A 
ATOM     15  C   UNL A   1      43.285  35.289  30.995  1.00  0.00     0.010 A 
ATOM     16  C   UNL A   1      42.334  34.615  30.243  1.00  0.00    -0.014 A 
BRANCH  16  17
ATOM     17  C   UNL A   1      41.732  33.372  30.646  1.00  0.00     0.031 A 
ATOM     18  C   UNL A   1      40.445  33.594  31.343  1.00  0.00     0.074 A 
ATOM     19  C   UNL A   1      42.310  32.182  30.459  1.00  0.00     0.049 A 
ATOM     20  N   UNL A   1      40.176  33.375  32.587  1.00  0.00    -0.248 NA
ATOM     21  C   UNL A   1      39.456  34.435  30.645  1.00  0.00     0.031 C 
ATOM     22  C   UNL A   1      43.446  31.853  29.605  1.00  0.00     0.029 A 
ATOM     23  N   UNL A   1      41.878  30.981  30.909  1.00  0.00    -0.354 N 
ATOM     24  C   UNL A   1      38.891  33.861  32.770  1.00  0.00     0.074 A 
ATOM     25  C   UNL A   1      38.615  34.699  31.640  1.00  0.00     0.031 C 
ATOM     26  C   UNL A   1      43.425  30.523  29.374  1.00  0.00     0.029 A 
ATOM     27  C   UNL A   1      42.343  29.927  30.148  1.00  0.00     0.049 A 
ATOM     28  H   UNL A   1      41.293  30.871  31.693  1.00  0.00     0.167 HD
ATOM     29  C   UNL A   1      38.059  33.304  33.686  1.00  0.00     0.034 A 
ATOM     30  C   UNL A   1      41.751  28.712  30.052  1.00  0.00     0.034 A 
ATOM     31  C   UNL A   1      38.817  32.651  34.738  1.00  0.00     0.049 A 
ATOM     32  C   UNL A   1      40.893  28.536  31.259  1.00  0.00     0.074 A 
ATOM     33  C   UNL A   1      39.782  33.091  35.628  1.00  0.00     0.029 A 
ATOM     34  N   UNL A   1      38.918  31.273  34.742  1.00  0.00    -0.354 N 
ATOM     35  N   UNL A   1      41.365  28.441  32.474  1.00  0.00    -0.248 NA
ATOM     36  C   UNL A   1      39.490  28.934  31.185  1.00  0.00     0.031 C 
ATOM     37  C   UNL A   1      40.711  32.015  35.741  1.00  0.00     0.029 A 
ATOM     38  C   UNL A   1      40.236  30.953  34.970  1.00  0.00     0.049 A 
ATOM     39  H   UNL A   1      38.181  30.635  34.606  1.00  0.00     0.167 HD
ATOM     40  C   UNL A   1      40.483  29.157  33.271  1.00  0.00     0.074 A 
ATOM     41  C   UNL A   1      39.293  29.337  32.444  1.00  0.00     0.031 C 
ATOM     42  C   UNL A   1      40.899  29.786  34.413  1.00  0.00     0.034 A 
BRANCH  29  43
ATOM     43  C   UNL A   1      36.625  32.947  33.332  1.00  0.00     0.023 A 
ATOM     44  C   UNL A   1      36.429  32.407  32.054  1.00  0.00     0.031 A 
ATOM     45  C   UNL A   1      35.452  33.403  33.984  1.00  0.00     0.131 A 
ATOM     46  C   UNL A   1      35.197  32.550  31.399  1.00  0.00     0.055 A 
ATOM     47  C   UNL A   1      34.213  33.493  33.347  1.00  0.00     0.041 A 
ATOM     48  F   UNL A   1      35.425  33.835  35.248  1.00  0.00    -0.206 F 
ATOM     49  C   UNL A   1      34.092  33.115  32.026  1.00  0.00     0.022 A 
BRANCH  46  50
ATOM     50  S   UNL A   1      35.153  32.186  29.631  1.00  0.00     0.124 S 
ATOM     51  O   UNL A   1      35.627  30.806  29.618  1.00  0.00    -0.237 OA
ATOM     52  O   UNL A   1      33.741  32.387  29.326  1.00  0.00    -0.237 OA
ATOM     53  O   UNL A   1      36.065  33.173  29.063  1.00  0.00    -0.744 OA
ENDBRANCH  46  50
ENDBRANCH  29  43
BRANCH  30  54
ATOM     54  C   UNL A   1      41.657  27.904  28.811  1.00  0.00     0.023 A 
ATOM     55  C   UNL A   1      42.292  26.657  28.689  1.00  0.00     0.031 A 
ATOM     56  C   UNL A   1      40.774  28.272  27.765  1.00  0.00     0.131 A 
ATOM     57  C   UNL A   1      42.061  25.855  27.551  1.00  0.00     0.055 A 
ATOM     58  C   UNL A   1      40.578  27.492  26.625  1.00  0.00     0.041 A 
ATOM     59  F   UNL A   1      40.003  29.367  27.845  1.00  0.00    -0.206 F 
ATOM     60  C   UNL A   1      41.221  26.272  26.516  1.00  0.00     0.022 A 
BRANCH  57  61
ATOM     61  S   UNL A   1      42.774  24.186  27.459  1.00  0.00     0.124 S 
ATOM     62  O   UNL A   1      42.934  23.997  26.023  1.00  0.00    -0.237 OA
ATOM     63  O   UNL A   1      43.999  24.325  28.238  1.00  0.00    -0.237 OA
ATOM     64  O   UNL A   1      41.750  23.346  28.081  1.00  0.00    -0.744 OA
ENDBRANCH  57  61
ENDBRANCH  30  54
BRANCH  42  65
ATOM     65  C   UNL A   1      42.245  29.412  35.001  1.00  0.00     0.023 A 
ATOM     66  C   UNL A   1      42.471  28.312  35.859  1.00  0.00     0.031 A 
ATOM     67  C   UNL A   1      43.369  30.149  34.583  1.00  0.00     0.131 A 
ATOM     68  C   UNL A   1      43.778  28.003  36.283  1.00  0.00     0.055 A 
ATOM     69  C   UNL A   1      44.664  29.829  34.990  1.00  0.00     0.041 A 
ATOM     70  F   UNL A   1      43.232  31.185  33.738  1.00  0.00    -0.206 F 
ATOM     71  C   UNL A   1      44.872  28.759  35.852  1.00  0.00     0.022 A 
BRANCH  68  72
ATOM     72  S   UNL A   1      44.084  26.624  37.433  1.00  0.00     0.124 S 
ATOM     73  O   UNL A   1      44.527  25.539  36.566  1.00  0.00    -0.237 OA
ATOM     74  O   UNL A   1      45.094  27.184  38.326  1.00  0.00    -0.237 OA
ATOM     75  O   UNL A   1      42.776  26.410  38.057  1.00  0.00    -0.744 OA
ENDBRANCH  68  72
ENDBRANCH  42  65
ENDBRANCH  16  17
ENDBRANCH   9  11
ENDBRANCH   8   9
ENDBRANCH   7   8
ENDBRANCH   6   7
ENDBRANCH   5   6
ENDBRANCH   4   5
ENDBRANCH   3   4
ENDBRANCH   2   3
ENDBRANCH   1   2
BRANCH   1  76
ATOM     76  C   UNL A   1      46.929  39.734  33.817  1.00  0.00     0.188 C 
BRANCH  76  77
ATOM     77  O   UNL A   1      46.901  38.411  33.289  1.00  0.00    -0.376 OA
BRANCH  77  78
ATOM     78  C   UNL A   1      48.026  37.961  32.557  1.00  0.00     0.202 C 
BRANCH  78  79
ATOM     79  C   UNL A   1      47.849  36.550  31.973  1.00  0.00     0.261 C 
BRANCH  79  80
ATOM     80  O   UNL A   1      48.449  36.258  30.691  1.00  0.00    -0.463 OA
BRANCH  80  81
ATOM     81  C   UNL A   1      47.690  36.499  29.602  1.00  0.00     0.310 C 
ATOM     82  O   UNL A   1      46.993  37.501  29.449  1.00  0.00    -0.252 OA
BRANCH  81  83
ATOM     83  C   UNL A   1      47.617  35.366  28.599  1.00  0.00     0.119 C 
ATOM     84  C   UNL A   1      48.732  34.908  27.630  1.00  0.00     0.100 C 
ATOM     85  C   UNL A   1      46.206  35.153  27.935  1.00  0.00     0.026 C 
ATOM     86  C   UNL A   1      48.087  33.959  26.566  1.00  0.00     0.025 C 
ATOM     87  C   UNL A   1      46.179  35.394  26.436  1.00  0.00    -0.027 C 
ATOM     88  C   UNL A   1      45.960  33.625  27.994  1.00  0.00     0.009 C 
ATOM     89  C   UNL A   1      47.112  34.733  25.729  1.00  0.00    -0.027 C 
ATOM     90  C   UNL A   1      47.174  32.912  27.309  1.00  0.00     0.009 C 
BRANCH  84  91
ATOM     91  C   UNL A   1      49.950  35.798  27.264  1.00  0.00     0.228 C 
ATOM     92  O   UNL A   1      51.077  35.310  27.477  1.00  0.00    -0.274 OA
ATOM     93  N   UNL A   1      49.974  36.979  26.584  1.00  0.00    -0.326 N 
ATOM     94  H   UNL A   1      50.852  37.150  26.174  1.00  0.00     0.169 HD
BRANCH  93  95
ATOM     95  C   UNL A   1      49.061  38.011  26.325  1.00  0.00     0.041 A 
ATOM     96  C   UNL A   1      48.272  37.966  25.172  1.00  0.00     0.026 A 
ATOM     97  C   UNL A   1      48.949  39.124  27.129  1.00  0.00     0.026 A 
ATOM     98  C   UNL A   1      47.249  38.912  24.962  1.00  0.00     0.008 A 
ATOM     99  C   UNL A   1      47.917  40.054  26.952  1.00  0.00     0.008 A 
ATOM    100  C   UNL A   1      47.014  39.931  25.896  1.00  0.00    -0.026 A 
BRANCH 100 101
ATOM    101  C   UNL A   1      45.806  40.835  25.822  1.00  0.00     0.181 C 
BRANCH 101 102
ATOM    102  N   UNL A   1      45.852  41.880  24.816  1.00  0.00    -0.249 N 
ATOM    103  C   UNL A   1      45.981  43.216  25.030  1.00  0.00     0.220 A 
ATOM    104  N   UNL A   1      46.045  41.580  23.508  1.00  0.00    -0.160 NA
ATOM    105  N   UNL A   1      46.240  43.818  23.895  1.00  0.00    -0.224 NA
ATOM    106  C   UNL A   1      46.297  42.791  22.998  1.00  0.00     0.246 A 
ENDBRANCH 101 102
ENDBRANCH 100 101
ENDBRANCH  93  95
ENDBRANCH  84  91
ENDBRANCH  81  83
ENDBRANCH  80  81
ENDBRANCH  79  80
ENDBRANCH  78  79
ENDBRANCH  77  78
ENDBRANCH  76  77
ENDBRANCH   1  76
TORSDOF 27
ENDMDL
MODEL 2
REMARK VINA RESULT:      -7.2      3.777      7.758
REMARK SMILES O=C(OCCOCCOCCOCCOC(=O)[C@@H]1[C@H](C(=O)Nc2ccc(Cn3cncn3)cc2)[C@@H]2C=C[C@H]1CC2)c1ccc(-c2c3nc(c(-c4cc(S(=O)(=O)[O-])ccc4F)c4ccc([nH]4)c(-c4cc(S(=O)(=O)[O-])ccc4F)c4nc(c(-c5cc(S(=O)(=O)[O-])ccc5F)c5ccc2[nH]5)C=C4)C=C3)cc1
REMARK SMILES IDX 10 1 9 2 8 3 7 4 6 5 5 6 4 7 3 8 2 9 1 10 41 11 42 12 103 13
REMARK SMILES IDX 43 14 102 15 44 16 45 17 46 18 96 19 47 20 101 21 95 22
REMARK SMILES IDX 97 23 48 24 100 25 94 26 93 27 49 29 81 30 61 31 80 32 62 33
REMARK SMILES IDX 65 34 79 35 98 36 63 37 64 38 78 40 99 41 66 42 50 43 51 44
REMARK SMILES IDX 59 45 52 46 58 47 60 48 57 49 53 50 54 51 55 52 56 53 82 54
REMARK SMILES IDX 83 55 91 56 84 57 90 58 92 59 89 60 85 61 86 62 87 63 88 64
REMARK SMILES IDX 67 65 68 66 76 67 69 68 75 69 77 70 74 71 70 72 71 73 72 74
REMARK SMILES IDX 73 75 11 76 12 77 13 78 14 79 15 80 16 81 17 82 18 83 19 84
REMARK SMILES IDX 38 85 35 86 37 87 39 88 36 89 40 90 20 91 21 92 22 93 23 95
REMARK SMILES IDX 24 96 34 97 25 98 33 99 26 100 27 101 28 102 29 103 32 104
REMARK SMILES IDX 30 105 31 106
REMARK H PARENT 97 28 65 39 22 94
REMARK Flexibility Score: inf
ROOT
ATOM      1  C   UNL A   1      44.051  38.909  34.180  1.00  0.00     0.188 C 
ENDROOT
BRANCH   1   2
ATOM      2  O   UNL A   1      45.065  39.896  34.362  1.00  0.00    -0.377 OA
BRANCH   2   3
ATOM      3  C   UNL A   1      45.672  40.512  33.222  1.00  0.00     0.188 C 
BRANCH   3   4
ATOM      4  C   UNL A   1      47.168  40.518  33.288  1.00  0.00     0.188 C 
BRANCH   4   5
ATOM      5  O   UNL A   1      47.794  40.592  32.015  1.00  0.00    -0.376 OA
BRANCH   5   6
ATOM      6  C   UNL A   1      46.930  40.242  30.930  1.00  0.00     0.202 C 
BRANCH   6   7
ATOM      7  C   UNL A   1      47.115  38.838  30.313  1.00  0.00     0.261 C 
BRANCH   7   8
ATOM      8  O   UNL A   1      45.974  37.934  30.243  1.00  0.00    -0.460 OA
BRANCH   8   9
ATOM      9  C   UNL A   1      45.327  37.397  29.184  1.00  0.00     0.338 C 
ATOM     10  O   UNL A   1      45.710  37.579  28.028  1.00  0.00    -0.246 OA
BRANCH   9  11
ATOM     11  C   UNL A   1      44.252  36.447  29.421  1.00  0.00     0.060 A 
ATOM     12  C   UNL A   1      44.013  35.969  30.698  1.00  0.00     0.016 A 
ATOM     13  C   UNL A   1      43.648  35.872  28.285  1.00  0.00     0.016 A 
ATOM     14  C   UNL A   1      43.318  34.812  30.834  1.00  0.00     0.010 A 
ATOM     15  C   UNL A   1      42.906  34.721  28.425  1.00  0.00     0.010 A 
ATOM     16  C   UNL A   1      42.804  34.181  29.699  1.00  0.00    -0.014 A 
BRANCH  16  17
ATOM     17  C   UNL A   1      41.997  33.034  30.018  1.00  0.00     0.031 A 
ATOM     18  C   UNL A   1      40.642  33.431  30.463  1.00  0.00     0.074 A 
ATOM     19  C   UNL A   1      42.454  31.779  29.971  1.00  0.00     0.049 A 
ATOM     20  N   UNL A   1      40.132  33.301  31.642  1.00  0.00    -0.248 NA
ATOM     21  C   UNL A   1      39.900  34.343  29.574  1.00  0.00     0.031 C 
ATOM     22  C   UNL A   1      43.677  31.286  29.347  1.00  0.00     0.029 A 
ATOM     23  N   UNL A   1      41.810  30.656  30.365  1.00  0.00    -0.354 N 
ATOM     24  C   UNL A   1      38.902  33.937  31.575  1.00  0.00     0.074 A 
ATOM     25  C   UNL A   1      38.932  34.747  30.392  1.00  0.00     0.031 C 
ATOM     26  C   UNL A   1      43.540  29.956  29.150  1.00  0.00     0.029 A 
ATOM     27  C   UNL A   1      42.275  29.522  29.729  1.00  0.00     0.049 A 
ATOM     28  H   UNL A   1      41.086  30.650  31.032  1.00  0.00     0.167 HD
ATOM     29  C   UNL A   1      37.860  33.520  32.338  1.00  0.00     0.034 A 
ATOM     30  C   UNL A   1      41.569  28.378  29.559  1.00  0.00     0.034 A 
ATOM     31  C   UNL A   1      38.335  32.836  33.527  1.00  0.00     0.049 A 
ATOM     32  C   UNL A   1      40.495  28.356  30.592  1.00  0.00     0.074 A 
ATOM     33  C   UNL A   1      39.172  33.207  34.566  1.00  0.00     0.029 A 
ATOM     34  N   UNL A   1      38.271  31.457  33.585  1.00  0.00    -0.354 N 
ATOM     35  N   UNL A   1      40.728  28.266  31.876  1.00  0.00    -0.248 NA
ATOM     36  C   UNL A   1      39.185  28.904  30.254  1.00  0.00     0.031 C 
ATOM     37  C   UNL A   1      39.931  32.040  34.875  1.00  0.00     0.029 A 
ATOM     38  C   UNL A   1      39.479  31.003  34.058  1.00  0.00     0.049 A 
ATOM     39  H   UNL A   1      37.499  30.900  33.334  1.00  0.00     0.167 HD
ATOM     40  C   UNL A   1      39.810  29.113  32.480  1.00  0.00     0.074 A 
ATOM     41  C   UNL A   1      38.816  29.386  31.445  1.00  0.00     0.031 C 
ATOM     42  C   UNL A   1      40.087  29.744  33.661  1.00  0.00     0.034 A 
BRANCH  29  43
ATOM     43  C   UNL A   1      36.480  33.310  31.738  1.00  0.00     0.023 A 
ATOM     44  C   UNL A   1      36.398  32.352  30.718  1.00  0.00     0.031 A 
ATOM     45  C   UNL A   1      35.369  34.183  31.841  1.00  0.00     0.131 A 
ATOM     46  C   UNL A   1      35.401  32.439  29.735  1.00  0.00     0.055 A 
ATOM     47  C   UNL A   1      34.347  34.230  30.890  1.00  0.00     0.041 A 
ATOM     48  F   UNL A   1      35.213  35.076  32.822  1.00  0.00    -0.206 F 
ATOM     49  C   UNL A   1      34.388  33.390  29.796  1.00  0.00     0.022 A 
BRANCH  46  50
ATOM     50  S   UNL A   1      35.606  31.422  28.257  1.00  0.00     0.124 S 
ATOM     51  O   UNL A   1      34.885  32.219  27.269  1.00  0.00    -0.237 OA
ATOM     52  O   UNL A   1      37.058  31.387  28.125  1.00  0.00    -0.237 OA
ATOM     53  O   UNL A   1      34.977  30.159  28.630  1.00  0.00    -0.744 OA
ENDBRANCH  46  50
ENDBRANCH  29  43
BRANCH  30  54
ATOM     54  C   UNL A   1      41.602  27.528  28.343  1.00  0.00     0.023 A 
ATOM     55  C   UNL A   1      41.964  26.172  28.396  1.00  0.00     0.031 A 
ATOM     56  C   UNL A   1      41.095  28.002  27.106  1.00  0.00     0.131 A 
ATOM     57  C   UNL A   1      41.845  25.363  27.246  1.00  0.00     0.055 A 
ATOM     58  C   UNL A   1      41.014  27.207  25.963  1.00  0.00     0.041 A 
ATOM     59  F   UNL A   1      40.582  29.236  26.980  1.00  0.00    -0.206 F 
ATOM     60  C   UNL A   1      41.386  25.877  26.030  1.00  0.00     0.022 A 
BRANCH  57  61
ATOM     61  S   UNL A   1      42.182  23.580  27.353  1.00  0.00     0.124 S 
ATOM     62  O   UNL A   1      42.381  23.389  28.784  1.00  0.00    -0.237 OA
ATOM     63  O   UNL A   1      40.972  22.999  26.781  1.00  0.00    -0.237 OA
ATOM     64  O   UNL A   1      43.383  23.413  26.535  1.00  0.00    -0.744 OA
ENDBRANCH  57  61
ENDBRANCH  30  54
BRANCH  42  65
ATOM     65  C   UNL A   1      41.254  29.250  34.495  1.00  0.00     0.023 A 
ATOM     66  C   UNL A   1      41.203  28.146  35.376  1.00  0.00     0.031 A 
ATOM     67  C   UNL A   1      42.504  29.868  34.302  1.00  0.00     0.131 A 
ATOM     68  C   UNL A   1      42.368  27.718  36.041  1.00  0.00     0.055 A 
ATOM     69  C   UNL A   1      43.659  29.429  34.947  1.00  0.00     0.041 A 
ATOM     70  F   UNL A   1      42.632  30.899  33.451  1.00  0.00    -0.206 F 
ATOM     71  C   UNL A   1      43.593  28.357  35.829  1.00  0.00     0.022 A 
BRANCH  68  72
ATOM     72  S   UNL A   1      42.312  26.333  37.222  1.00  0.00     0.124 S 
ATOM     73  O   UNL A   1      43.320  26.682  38.216  1.00  0.00    -0.237 OA
ATOM     74  O   UNL A   1      40.924  26.370  37.677  1.00  0.00    -0.237 OA
ATOM     75  O   UNL A   1      42.648  25.172  36.396  1.00  0.00    -0.744 OA
ENDBRANCH  68  72
ENDBRANCH  42  65
ENDBRANCH  16  17
ENDBRANCH   9  11
ENDBRANCH   8   9
ENDBRANCH   7   8
ENDBRANCH   6   7
ENDBRANCH   5   6
ENDBRANCH   4   5
ENDBRANCH   3   4
ENDBRANCH   2   3
ENDBRANCH   1   2
BRANCH   1  76
ATOM     76  C   UNL A   1      44.388  37.452  34.504  1.00  0.00     0.188 C 
BRANCH  76  77
ATOM     77  O   UNL A   1      43.407  36.613  35.106  1.00  0.00    -0.376 OA
BRANCH  77  78
ATOM     78  C   UNL A   1      42.223  36.342  34.378  1.00  0.00     0.202 C 
BRANCH  78  79
ATOM     79  C   UNL A   1      40.954  36.381  35.244  1.00  0.00     0.261 C 
BRANCH  79  80
ATOM     80  O   UNL A   1      41.092  36.209  36.673  1.00  0.00    -0.463 OA
BRANCH  80  81
ATOM     81  C   UNL A   1      40.409  35.185  37.225  1.00  0.00     0.310 C 
ATOM     82  O   UNL A   1      39.206  35.209  37.478  1.00  0.00    -0.252 OA
BRANCH  81  83
ATOM     83  C   UNL A   1      41.254  34.010  37.672  1.00  0.00     0.119 C 
ATOM     84  C   UNL A   1      41.055  33.150  38.943  1.00  0.00     0.100 C 
ATOM     85  C   UNL A   1      42.788  34.126  37.337  1.00  0.00     0.026 C 
ATOM     86  C   UNL A   1      42.352  32.305  39.162  1.00  0.00     0.025 C 
ATOM     87  C   UNL A   1      43.690  34.192  38.556  1.00  0.00    -0.027 C 
ATOM     88  C   UNL A   1      43.178  32.745  36.754  1.00  0.00     0.009 C 
ATOM     89  C   UNL A   1      43.502  33.219  39.465  1.00  0.00    -0.027 C 
ATOM     90  C   UNL A   1      42.766  31.647  37.792  1.00  0.00     0.009 C 
BRANCH  84  91
ATOM     91  C   UNL A   1      40.198  33.616  40.151  1.00  0.00     0.228 C 
ATOM     92  O   UNL A   1      39.466  32.754  40.676  1.00  0.00    -0.274 OA
ATOM     93  N   UNL A   1      40.249  34.794  40.833  1.00  0.00    -0.326 N 
ATOM     94  H   UNL A   1      39.884  34.709  41.744  1.00  0.00     0.169 HD
BRANCH  93  95
ATOM     95  C   UNL A   1      40.690  36.097  40.562  1.00  0.00     0.041 A 
ATOM     96  C   UNL A   1      39.770  37.075  40.174  1.00  0.00     0.026 A 
ATOM     97  C   UNL A   1      42.021  36.453  40.590  1.00  0.00     0.026 A 
ATOM     98  C   UNL A   1      40.164  38.420  40.036  1.00  0.00     0.008 A 
ATOM     99  C   UNL A   1      42.424  37.789  40.488  1.00  0.00     0.008 A 
ATOM    100  C   UNL A   1      41.493  38.803  40.265  1.00  0.00    -0.026 A 
BRANCH 100 101
ATOM    101  C   UNL A   1      41.919  40.251  40.334  1.00  0.00     0.181 C 
BRANCH 101 102
ATOM    102  N   UNL A   1      40.857  41.219  40.536  1.00  0.00    -0.249 N 
ATOM    103  C   UNL A   1      39.967  41.255  41.563  1.00  0.00     0.220 A 
ATOM    104  N   UNL A   1      40.825  42.377  39.830  1.00  0.00    -0.160 NA
ATOM    105  N   UNL A   1      39.330  42.400  41.551  1.00  0.00    -0.224 NA
ATOM    106  C   UNL A   1      39.895  43.065  40.502  1.00  0.00     0.246 A 
ENDBRANCH 101 102
ENDBRANCH 100 101
ENDBRANCH  93  95
ENDBRANCH  84  91
ENDBRANCH  81  83
ENDBRANCH  80  81
ENDBRANCH  79  80
ENDBRANCH  78  79
ENDBRANCH  77  78
ENDBRANCH  76  77
ENDBRANCH   1  76
TORSDOF 27
ENDMDL
MODEL 3
REMARK VINA RESULT:      -7.1      4.725     11.369
REMARK SMILES O=C(OCCOCCOCCOCCOC(=O)[C@@H]1[C@H](C(=O)Nc2ccc(Cn3cncn3)cc2)[C@@H]2C=C[C@H]1CC2)c1ccc(-c2c3nc(c(-c4cc(S(=O)(=O)[O-])ccc4F)c4ccc([nH]4)c(-c4cc(S(=O)(=O)[O-])ccc4F)c4nc(c(-c5cc(S(=O)(=O)[O-])ccc5F)c5ccc2[nH]5)C=C4)C=C3)cc1
REMARK SMILES IDX 10 1 9 2 8 3 7 4 6 5 5 6 4 7 3 8 2 9 1 10 41 11 42 12 103 13
REMARK SMILES IDX 43 14 102 15 44 16 45 17 46 18 96 19 47 20 101 21 95 22
REMARK SMILES IDX 97 23 48 24 100 25 94 26 93 27 49 29 81 30 61 31 80 32 62 33
REMARK SMILES IDX 65 34 79 35 98 36 63 37 64 38 78 40 99 41 66 42 50 43 51 44
REMARK SMILES IDX 59 45 52 46 58 47 60 48 57 49 53 50 54 51 55 52 56 53 82 54
REMARK SMILES IDX 83 55 91 56 84 57 90 58 92 59 89 60 85 61 86 62 87 63 88 64
REMARK SMILES IDX 67 65 68 66 76 67 69 68 75 69 77 70 74 71 70 72 71 73 72 74
REMARK SMILES IDX 73 75 11 76 12 77 13 78 14 79 15 80 16 81 17 82 18 83 19 84
REMARK SMILES IDX 38 85 35 86 37 87 39 88 36 89 40 90 20 91 21 92 22 93 23 95
REMARK SMILES IDX 24 96 34 97 25 98 33 99 26 100 27 101 28 102 29 103 32 104
REMARK SMILES IDX 30 105 31 106
REMARK H PARENT 97 28 65 39 22 94
REMARK Flexibility Score: inf
ROOT
ATOM      1  C   UNL A   1      44.333  24.869  31.216  1.00  0.00     0.188 C 
ENDROOT
BRANCH   1   2
ATOM      2  O   UNL A   1      43.800  24.271  30.036  1.00  0.00    -0.377 OA
BRANCH   2   3
ATOM      3  C   UNL A   1      44.436  24.495  28.774  1.00  0.00     0.188 C 
BRANCH   3   4
ATOM      4  C   UNL A   1      44.764  23.225  28.050  1.00  0.00     0.188 C 
BRANCH   4   5
ATOM      5  O   UNL A   1      45.034  23.410  26.668  1.00  0.00    -0.376 OA
BRANCH   5   6
ATOM      6  C   UNL A   1      44.541  24.648  26.149  1.00  0.00     0.202 C 
BRANCH   6   7
ATOM      7  C   UNL A   1      43.379  24.568  25.134  1.00  0.00     0.261 C 
BRANCH   7   8
ATOM      8  O   UNL A   1      42.355  25.606  25.140  1.00  0.00    -0.460 OA
BRANCH   8   9
ATOM      9  C   UNL A   1      42.453  26.953  25.223  1.00  0.00     0.338 C 
ATOM     10  O   UNL A   1      42.755  27.644  24.249  1.00  0.00    -0.246 OA
BRANCH   9  11
ATOM     11  C   UNL A   1      42.032  27.616  26.446  1.00  0.00     0.060 A 
ATOM     12  C   UNL A   1      42.135  28.991  26.566  1.00  0.00     0.016 A 
ATOM     13  C   UNL A   1      41.754  26.790  27.554  1.00  0.00     0.016 A 
ATOM     14  C   UNL A   1      42.141  29.531  27.811  1.00  0.00     0.010 A 
ATOM     15  C   UNL A   1      41.717  27.342  28.815  1.00  0.00     0.010 A 
ATOM     16  C   UNL A   1      41.970  28.703  28.921  1.00  0.00    -0.014 A 
BRANCH  16  17
ATOM     17  C   UNL A   1      41.884  29.437  30.155  1.00  0.00     0.031 A 
ATOM     18  C   UNL A   1      40.608  30.180  30.256  1.00  0.00     0.074 A 
ATOM     19  C   UNL A   1      42.870  29.478  31.055  1.00  0.00     0.049 A 
ATOM     20  N   UNL A   1      40.440  31.461  30.241  1.00  0.00    -0.248 NA
ATOM     21  C   UNL A   1      39.374  29.401  30.041  1.00  0.00     0.031 C 
ATOM     22  C   UNL A   1      44.048  28.621  31.144  1.00  0.00     0.029 A 
ATOM     23  N   UNL A   1      42.926  30.231  32.177  1.00  0.00    -0.354 N 
ATOM     24  C   UNL A   1      39.065  31.644  30.232  1.00  0.00     0.074 A 
ATOM     25  C   UNL A   1      38.494  30.382  29.865  1.00  0.00     0.031 C 
ATOM     26  C   UNL A   1      44.534  28.708  32.402  1.00  0.00     0.029 A 
ATOM     27  C   UNL A   1      43.758  29.695  33.141  1.00  0.00     0.049 A 
ATOM     28  H   UNL A   1      42.424  31.071  32.295  1.00  0.00     0.167 HD
ATOM     29  C   UNL A   1      38.505  32.738  30.808  1.00  0.00     0.034 A 
ATOM     30  C   UNL A   1      43.671  29.940  34.471  1.00  0.00     0.034 A 
ATOM     31  C   UNL A   1      39.452  33.838  30.852  1.00  0.00     0.049 A 
ATOM     32  C   UNL A   1      42.941  31.229  34.643  1.00  0.00     0.074 A 
ATOM     33  C   UNL A   1      40.177  34.507  29.881  1.00  0.00     0.029 A 
ATOM     34  N   UNL A   1      40.069  34.151  32.048  1.00  0.00    -0.354 N 
ATOM     35  N   UNL A   1      43.412  32.383  34.251  1.00  0.00    -0.248 NA
ATOM     36  C   UNL A   1      41.493  31.195  34.821  1.00  0.00     0.031 C 
ATOM     37  C   UNL A   1      41.444  34.780  30.474  1.00  0.00     0.029 A 
ATOM     38  C   UNL A   1      41.409  34.323  31.793  1.00  0.00     0.049 A 
ATOM     39  H   UNL A   1      39.629  34.236  32.924  1.00  0.00     0.167 HD
ATOM     40  C   UNL A   1      42.322  33.072  33.734  1.00  0.00     0.074 A 
ATOM     41  C   UNL A   1      41.155  32.340  34.218  1.00  0.00     0.031 C 
ATOM     42  C   UNL A   1      42.466  33.993  32.733  1.00  0.00     0.034 A 
BRANCH  29  43
ATOM     43  C   UNL A   1      37.315  32.611  31.744  1.00  0.00     0.023 A 
ATOM     44  C   UNL A   1      36.213  33.424  31.443  1.00  0.00     0.031 A 
ATOM     45  C   UNL A   1      37.315  32.046  33.043  1.00  0.00     0.131 A 
ATOM     46  C   UNL A   1      35.328  33.829  32.453  1.00  0.00     0.055 A 
ATOM     47  C   UNL A   1      36.398  32.409  34.031  1.00  0.00     0.041 A 
ATOM     48  F   UNL A   1      38.214  31.153  33.466  1.00  0.00    -0.206 F 
ATOM     49  C   UNL A   1      35.427  33.350  33.755  1.00  0.00     0.022 A 
BRANCH  46  50
ATOM     50  S   UNL A   1      34.191  35.177  32.065  1.00  0.00     0.124 S 
ATOM     51  O   UNL A   1      32.939  34.647  32.596  1.00  0.00    -0.237 OA
ATOM     52  O   UNL A   1      34.788  36.285  32.801  1.00  0.00    -0.237 OA
ATOM     53  O   UNL A   1      34.269  35.273  30.610  1.00  0.00    -0.744 OA
ENDBRANCH  46  50
ENDBRANCH  29  43
BRANCH  30  54
ATOM     54  C   UNL A   1      43.893  28.934  35.539  1.00  0.00     0.023 A 
ATOM     55  C   UNL A   1      44.857  29.120  36.542  1.00  0.00     0.031 A 
ATOM     56  C   UNL A   1      43.018  27.830  35.696  1.00  0.00     0.131 A 
ATOM     57  C   UNL A   1      44.940  28.213  37.621  1.00  0.00     0.055 A 
ATOM     58  C   UNL A   1      43.127  26.915  36.743  1.00  0.00     0.041 A 
ATOM     59  F   UNL A   1      41.968  27.639  34.881  1.00  0.00    -0.206 F 
ATOM     60  C   UNL A   1      44.090  27.107  37.717  1.00  0.00     0.022 A 
BRANCH  57  61
ATOM     61  S   UNL A   1      46.093  28.532  38.988  1.00  0.00     0.124 S 
ATOM     62  O   UNL A   1      46.726  29.778  38.574  1.00  0.00    -0.237 OA
ATOM     63  O   UNL A   1      45.200  28.606  40.139  1.00  0.00    -0.237 OA
ATOM     64  O   UNL A   1      46.969  27.360  38.972  1.00  0.00    -0.744 OA
ENDBRANCH  57  61
ENDBRANCH  30  54
BRANCH  42  65
ATOM     65  C   UNL A   1      43.853  34.524  32.426  1.00  0.00     0.023 A 
ATOM     66  C   UNL A   1      44.730  33.975  31.464  1.00  0.00     0.031 A 
ATOM     67  C   UNL A   1      44.257  35.709  33.070  1.00  0.00     0.131 A 
ATOM     68  C   UNL A   1      45.965  34.597  31.197  1.00  0.00     0.055 A 
ATOM     69  C   UNL A   1      45.472  36.333  32.789  1.00  0.00     0.041 A 
ATOM     70  F   UNL A   1      43.456  36.305  33.969  1.00  0.00    -0.206 F 
ATOM     71  C   UNL A   1      46.337  35.771  31.858  1.00  0.00     0.022 A 
BRANCH  68  72
ATOM     72  S   UNL A   1      47.134  33.875  30.002  1.00  0.00     0.124 S 
ATOM     73  O   UNL A   1      47.968  35.002  29.605  1.00  0.00    -0.237 OA
ATOM     74  O   UNL A   1      47.791  32.841  30.797  1.00  0.00    -0.237 OA
ATOM     75  O   UNL A   1      46.260  33.361  28.945  1.00  0.00    -0.744 OA
ENDBRANCH  68  72
ENDBRANCH  42  65
ENDBRANCH  16  17
ENDBRANCH   9  11
ENDBRANCH   8   9
ENDBRANCH   7   8
ENDBRANCH   6   7
ENDBRANCH   5   6
ENDBRANCH   4   5
ENDBRANCH   3   4
ENDBRANCH   2   3
ENDBRANCH   1   2
BRANCH   1  76
ATOM     76  C   UNL A   1      44.533  23.988  32.451  1.00  0.00     0.188 C 
BRANCH  76  77
ATOM     77  O   UNL A   1      43.518  23.066  32.837  1.00  0.00    -0.376 OA
BRANCH  77  78
ATOM     78  C   UNL A   1      43.142  23.019  34.201  1.00  0.00     0.202 C 
BRANCH  78  79
ATOM     79  C   UNL A   1      44.297  23.339  35.163  1.00  0.00     0.261 C 
BRANCH  79  80
ATOM     80  O   UNL A   1      45.009  22.237  35.770  1.00  0.00    -0.463 OA
BRANCH  80  81
ATOM     81  C   UNL A   1      46.134  21.830  35.145  1.00  0.00     0.310 C 
ATOM     82  O   UNL A   1      46.159  21.297  34.037  1.00  0.00    -0.252 OA
BRANCH  81  83
ATOM     83  C   UNL A   1      47.403  21.929  35.967  1.00  0.00     0.119 C 
ATOM     84  C   UNL A   1      47.682  22.906  37.133  1.00  0.00     0.100 C 
ATOM     85  C   UNL A   1      48.734  21.642  35.176  1.00  0.00     0.026 C 
ATOM     86  C   UNL A   1      49.218  22.880  37.428  1.00  0.00     0.025 C 
ATOM     87  C   UNL A   1      49.672  22.831  35.081  1.00  0.00    -0.027 C 
ATOM     88  C   UNL A   1      49.548  20.694  36.090  1.00  0.00     0.009 C 
ATOM     89  C   UNL A   1      49.964  23.429  36.249  1.00  0.00    -0.027 C 
ATOM     90  C   UNL A   1      49.697  21.380  37.490  1.00  0.00     0.009 C 
BRANCH  84  91
ATOM     91  C   UNL A   1      46.851  24.195  37.372  1.00  0.00     0.228 C 
ATOM     92  O   UNL A   1      46.072  24.180  38.345  1.00  0.00    -0.274 OA
ATOM     93  N   UNL A   1      46.965  25.412  36.770  1.00  0.00    -0.326 N 
ATOM     94  H   UNL A   1      46.595  26.135  37.326  1.00  0.00     0.169 HD
BRANCH  93  95
ATOM     95  C   UNL A   1      47.479  25.891  35.556  1.00  0.00     0.041 A 
ATOM     96  C   UNL A   1      48.262  27.049  35.542  1.00  0.00     0.026 A 
ATOM     97  C   UNL A   1      47.188  25.307  34.343  1.00  0.00     0.026 A 
ATOM     98  C   UNL A   1      48.906  27.468  34.362  1.00  0.00     0.008 A 
ATOM     99  C   UNL A   1      47.845  25.691  33.168  1.00  0.00     0.008 A 
ATOM    100  C   UNL A   1      48.759  26.744  33.171  1.00  0.00    -0.026 A 
BRANCH 100 101
ATOM    101  C   UNL A   1      49.589  27.030  31.941  1.00  0.00     0.181 C 
BRANCH 101 102
ATOM    102  N   UNL A   1      48.993  26.660  30.670  1.00  0.00    -0.249 N 
ATOM    103  C   UNL A   1      48.373  27.486  29.786  1.00  0.00     0.220 A 
ATOM    104  N   UNL A   1      49.247  25.453  30.105  1.00  0.00    -0.160 NA
ATOM    105  N   UNL A   1      48.192  26.856  28.651  1.00  0.00    -0.224 NA
ATOM    106  C   UNL A   1      48.758  25.635  28.873  1.00  0.00     0.246 A 
ENDBRANCH 101 102
ENDBRANCH 100 101
ENDBRANCH  93  95
ENDBRANCH  84  91
ENDBRANCH  81  83
ENDBRANCH  80  81
ENDBRANCH  79  80
ENDBRANCH  78  79
ENDBRANCH  77  78
ENDBRANCH  76  77
ENDBRANCH   1  76
TORSDOF 27
ENDMDL
