MODEL 1
REMARK VINA RESULT:     -10.0      0.000      0.000
REMARK SMILES CC(C)SCC(=O)N1Cc2ccccc2C[C@H]1C(=O)OCCOCCOCCOCCOC(=O)c1ccc(-c2c3nc(c(-c4cc(S(=O)(=O)[O-])ccc4F)c4ccc([nH]4)c(-c4cc(S(=O)(=O)[O-])ccc4F)c4nc(c(-c5cc(S(=O)(=O)[O-])ccc5F)c5ccc2[nH]5)C=C4)C=C3)cc1
REMARK SMILES IDX 25 1 24 2 23 3 22 4 21 5 20 6 18 7 19 8 17 9 8 10 9 11 10 12
REMARK SMILES IDX 16 13 11 14 15 15 12 16 14 17 13 18 6 19 7 20 5 21 4 22 2 23
REMARK SMILES IDX 1 24 3 25 26 26 27 27 28 28 29 29 30 30 31 31 32 32 33 33
REMARK SMILES IDX 34 34 35 35 36 36 97 37 37 38 96 39 38 40 39 41 40 42 90 43
REMARK SMILES IDX 41 44 95 45 89 46 91 47 42 48 94 49 88 50 87 51 43 53 75 54
REMARK SMILES IDX 55 55 74 56 56 57 59 58 73 59 92 60 57 61 58 62 72 64 93 65
REMARK SMILES IDX 60 66 44 67 45 68 53 69 46 70 52 71 54 72 51 73 47 74 48 75
REMARK SMILES IDX 49 76 50 77 76 78 77 79 85 80 78 81 84 82 86 83 83 84 79 85
REMARK SMILES IDX 80 86 81 87 82 88 61 89 62 90 70 91 63 92 69 93 71 94 68 95
REMARK SMILES IDX 64 96 65 97 66 98 67 99
REMARK H PARENT 91 52 59 63
REMARK Flexibility Score: inf
ROOT
ATOM      1  C   UNL A   1      33.129  16.604  25.022  1.00  0.00     0.188 C 
ENDROOT
BRANCH   1   2
ATOM      2  C   UNL A   1      32.642  17.773  25.884  1.00  0.00     0.188 C 
BRANCH   2   3
ATOM      3  O   UNL A   1      31.985  18.852  25.248  1.00  0.00    -0.376 OA
BRANCH   3   4
ATOM      4  C   UNL A   1      32.774  19.962  24.825  1.00  0.00     0.202 C 
BRANCH   4   5
ATOM      5  C   UNL A   1      32.620  21.330  25.535  1.00  0.00     0.261 C 
BRANCH   5   6
ATOM      6  O   UNL A   1      31.338  22.019  25.434  1.00  0.00    -0.462 OA
BRANCH   6   7
ATOM      7  C   UNL A   1      31.221  23.138  26.185  1.00  0.00     0.329 C 
ATOM      8  O   UNL A   1      30.858  23.115  27.364  1.00  0.00    -0.250 OA
BRANCH   7   9
ATOM      9  C   UNL A   1      31.450  24.503  25.488  1.00  0.00     0.199 C 
ATOM     10  N   UNL A   1      32.694  24.957  24.768  1.00  0.00    -0.323 N 
ATOM     11  C   UNL A   1      32.496  25.371  23.365  1.00  0.00     0.156 C 
ATOM     12  C   UNL A   1      31.310  26.310  23.238  1.00  0.00    -0.025 A 
ATOM     13  C   UNL A   1      30.165  24.623  24.625  1.00  0.00     0.073 C 
ATOM     14  C   UNL A   1      31.342  27.534  22.567  1.00  0.00     0.006 A 
ATOM     15  C   UNL A   1      30.127  25.920  23.882  1.00  0.00    -0.040 A 
ATOM     16  C   UNL A   1      30.199  28.343  22.538  1.00  0.00     0.000 A 
ATOM     17  C   UNL A   1      28.982  26.715  23.836  1.00  0.00     0.004 A 
ATOM     18  C   UNL A   1      29.021  27.932  23.165  1.00  0.00     0.000 A 
BRANCH  10  19
ATOM     19  C   UNL A   1      33.488  25.912  25.445  1.00  0.00     0.233 C 
ATOM     20  O   UNL A   1      34.715  25.827  25.455  1.00  0.00    -0.274 OA
BRANCH  19  21
ATOM     21  C   UNL A   1      32.724  26.911  26.289  1.00  0.00     0.169 C 
BRANCH  21  22
ATOM     22  S   UNL A   1      33.715  28.383  26.791  1.00  0.00    -0.149 SA
BRANCH  22  23
ATOM     23  C   UNL A   1      32.465  29.731  26.927  1.00  0.00     0.041 C 
ATOM     24  C   UNL A   1      33.165  31.048  27.279  1.00  0.00     0.019 C 
ATOM     25  C   UNL A   1      31.627  29.862  25.661  1.00  0.00     0.019 C 
ENDBRANCH  22  23
ENDBRANCH  21  22
ENDBRANCH  19  21
ENDBRANCH  10  19
ENDBRANCH   7   9
ENDBRANCH   6   7
ENDBRANCH   5   6
ENDBRANCH   4   5
ENDBRANCH   3   4
ENDBRANCH   2   3
ENDBRANCH   1   2
BRANCH   1  26
ATOM     26  O   UNL A   1      34.259  15.923  25.520  1.00  0.00    -0.377 OA
BRANCH  26  27
ATOM     27  C   UNL A   1      35.563  16.450  25.321  1.00  0.00     0.188 C 
BRANCH  27  28
ATOM     28  C   UNL A   1      35.671  17.797  24.599  1.00  0.00     0.188 C 
BRANCH  28  29
ATOM     29  O   UNL A   1      36.703  18.714  24.985  1.00  0.00    -0.376 OA
BRANCH  29  30
ATOM     30  C   UNL A   1      36.616  20.076  24.583  1.00  0.00     0.202 C 
BRANCH  30  31
ATOM     31  C   UNL A   1      36.997  21.140  25.611  1.00  0.00     0.261 C 
BRANCH  31  32
ATOM     32  O   UNL A   1      38.229  21.782  25.269  1.00  0.00    -0.460 OA
BRANCH  32  33
ATOM     33  C   UNL A   1      39.258  21.456  26.087  1.00  0.00     0.338 C 
ATOM     34  O   UNL A   1      39.852  20.399  26.140  1.00  0.00    -0.246 OA
BRANCH  33  35
ATOM     35  C   UNL A   1      39.701  22.672  26.789  1.00  0.00     0.060 A 
ATOM     36  C   UNL A   1      39.077  23.873  26.431  1.00  0.00     0.016 A 
ATOM     37  C   UNL A   1      40.739  22.645  27.723  1.00  0.00     0.016 A 
ATOM     38  C   UNL A   1      39.523  25.067  26.971  1.00  0.00     0.010 A 
ATOM     39  C   UNL A   1      41.205  23.850  28.247  1.00  0.00     0.010 A 
ATOM     40  C   UNL A   1      40.625  25.060  27.831  1.00  0.00    -0.014 A 
BRANCH  40  41
ATOM     41  C   UNL A   1      41.309  26.343  28.078  1.00  0.00     0.031 A 
ATOM     42  C   UNL A   1      42.709  26.501  27.561  1.00  0.00     0.074 A 
ATOM     43  C   UNL A   1      40.656  27.352  28.674  1.00  0.00     0.049 A 
ATOM     44  N   UNL A   1      43.522  27.516  27.661  1.00  0.00    -0.248 NA
ATOM     45  C   UNL A   1      43.263  25.348  26.833  1.00  0.00     0.031 C 
ATOM     46  C   UNL A   1      39.272  27.295  29.143  1.00  0.00     0.029 A 
ATOM     47  N   UNL A   1      41.073  28.615  28.988  1.00  0.00    -0.354 N 
ATOM     48  C   UNL A   1      44.690  27.123  27.014  1.00  0.00     0.074 A 
ATOM     49  C   UNL A   1      44.491  25.762  26.570  1.00  0.00     0.031 C 
ATOM     50  C   UNL A   1      38.960  28.472  29.708  1.00  0.00     0.029 A 
ATOM     51  C   UNL A   1      40.134  29.341  29.678  1.00  0.00     0.049 A 
ATOM     52  H   UNL A   1      41.959  28.970  28.744  1.00  0.00     0.167 HD
ATOM     53  C   UNL A   1      45.819  27.844  26.808  1.00  0.00     0.034 A 
ATOM     54  C   UNL A   1      40.236  30.554  30.254  1.00  0.00     0.034 A 
ATOM     55  C   UNL A   1      45.983  29.192  27.298  1.00  0.00     0.049 A 
ATOM     56  C   UNL A   1      41.532  31.307  30.104  1.00  0.00     0.074 A 
ATOM     57  C   UNL A   1      47.071  30.034  27.167  1.00  0.00     0.029 A 
ATOM     58  N   UNL A   1      45.028  29.886  28.038  1.00  0.00    -0.354 N 
ATOM     59  N   UNL A   1      42.636  30.937  29.491  1.00  0.00    -0.248 NA
ATOM     60  C   UNL A   1      41.595  32.641  30.707  1.00  0.00     0.031 C 
ATOM     61  C   UNL A   1      46.810  31.196  27.903  1.00  0.00     0.029 A 
ATOM     62  C   UNL A   1      45.520  31.127  28.409  1.00  0.00     0.049 A 
ATOM     63  H   UNL A   1      44.134  29.543  28.266  1.00  0.00     0.167 HD
ATOM     64  C   UNL A   1      43.520  32.004  29.616  1.00  0.00     0.074 A 
ATOM     65  C   UNL A   1      42.809  33.036  30.350  1.00  0.00     0.031 C 
ATOM     66  C   UNL A   1      44.795  32.128  29.163  1.00  0.00     0.034 A 
BRANCH  53  67
ATOM     67  C   UNL A   1      46.962  27.149  26.104  1.00  0.00     0.023 A 
ATOM     68  C   UNL A   1      47.929  26.407  26.809  1.00  0.00     0.031 A 
ATOM     69  C   UNL A   1      47.144  27.308  24.720  1.00  0.00     0.131 A 
ATOM     70  C   UNL A   1      49.082  25.951  26.150  1.00  0.00     0.055 A 
ATOM     71  C   UNL A   1      48.244  26.764  24.051  1.00  0.00     0.041 A 
ATOM     72  F   UNL A   1      46.275  28.029  23.994  1.00  0.00    -0.206 F 
ATOM     73  C   UNL A   1      49.233  26.100  24.769  1.00  0.00     0.022 A 
BRANCH  70  74
ATOM     74  S   UNL A   1      50.471  25.349  27.152  1.00  0.00     0.124 S 
ATOM     75  O   UNL A   1      51.448  25.004  26.122  1.00  0.00    -0.237 OA
ATOM     76  O   UNL A   1      50.791  26.509  27.975  1.00  0.00    -0.237 OA
ATOM     77  O   UNL A   1      49.906  24.208  27.871  1.00  0.00    -0.744 OA
ENDBRANCH  70  74
ENDBRANCH  53  67
BRANCH  54  78
ATOM     78  C   UNL A   1      39.103  31.081  31.063  1.00  0.00     0.023 A 
ATOM     79  C   UNL A   1      38.065  31.825  30.483  1.00  0.00     0.031 A 
ATOM     80  C   UNL A   1      39.039  30.829  32.447  1.00  0.00     0.131 A 
ATOM     81  C   UNL A   1      37.018  32.305  31.287  1.00  0.00     0.055 A 
ATOM     82  C   UNL A   1      37.973  31.266  33.232  1.00  0.00     0.041 A 
ATOM     83  F   UNL A   1      40.006  30.119  33.052  1.00  0.00    -0.206 F 
ATOM     84  C   UNL A   1      36.957  32.016  32.653  1.00  0.00     0.022 A 
BRANCH  81  85
ATOM     85  S   UNL A   1      35.754  33.363  30.531  1.00  0.00     0.124 S 
ATOM     86  O   UNL A   1      34.707  32.398  30.218  1.00  0.00    -0.237 OA
ATOM     87  O   UNL A   1      35.461  34.302  31.609  1.00  0.00    -0.237 OA
ATOM     88  O   UNL A   1      36.440  33.939  29.376  1.00  0.00    -0.744 OA
ENDBRANCH  81  85
ENDBRANCH  54  78
BRANCH  66  89
ATOM     89  C   UNL A   1      45.486  33.445  29.422  1.00  0.00     0.023 A 
ATOM     90  C   UNL A   1      45.336  34.543  28.557  1.00  0.00     0.031 A 
ATOM     91  C   UNL A   1      46.309  33.602  30.552  1.00  0.00     0.131 A 
ATOM     92  C   UNL A   1      46.049  35.725  28.801  1.00  0.00     0.055 A 
ATOM     93  C   UNL A   1      46.956  34.805  30.830  1.00  0.00     0.041 A 
ATOM     94  F   UNL A   1      46.493  32.584  31.410  1.00  0.00    -0.206 F 
ATOM     95  C   UNL A   1      46.839  35.871  29.944  1.00  0.00     0.022 A 
BRANCH  92  96
ATOM     96  S   UNL A   1      46.024  37.030  27.542  1.00  0.00     0.124 S 
ATOM     97  O   UNL A   1      47.281  37.725  27.804  1.00  0.00    -0.237 OA
ATOM     98  O   UNL A   1      45.965  36.265  26.301  1.00  0.00    -0.237 OA
ATOM     99  O   UNL A   1      44.816  37.790  27.861  1.00  0.00    -0.744 OA
ENDBRANCH  92  96
ENDBRANCH  66  89
ENDBRANCH  40  41
ENDBRANCH  33  35
ENDBRANCH  32  33
ENDBRANCH  31  32
ENDBRANCH  30  31
ENDBRANCH  29  30
ENDBRANCH  28  29
ENDBRANCH  27  28
ENDBRANCH  26  27
ENDBRANCH   1  26
TORSDOF 27
ENDMDL
MODEL 2
REMARK VINA RESULT:      -9.7      1.886      7.469
REMARK SMILES CC(C)SCC(=O)N1Cc2ccccc2C[C@H]1C(=O)OCCOCCOCCOCCOC(=O)c1ccc(-c2c3nc(c(-c4cc(S(=O)(=O)[O-])ccc4F)c4ccc([nH]4)c(-c4cc(S(=O)(=O)[O-])ccc4F)c4nc(c(-c5cc(S(=O)(=O)[O-])ccc5F)c5ccc2[nH]5)C=C4)C=C3)cc1
REMARK SMILES IDX 25 1 24 2 23 3 22 4 21 5 20 6 18 7 19 8 17 9 8 10 9 11 10 12
REMARK SMILES IDX 16 13 11 14 15 15 12 16 14 17 13 18 6 19 7 20 5 21 4 22 2 23
REMARK SMILES IDX 1 24 3 25 26 26 27 27 28 28 29 29 30 30 31 31 32 32 33 33
REMARK SMILES IDX 34 34 35 35 36 36 97 37 37 38 96 39 38 40 39 41 40 42 90 43
REMARK SMILES IDX 41 44 95 45 89 46 91 47 42 48 94 49 88 50 87 51 43 53 75 54
REMARK SMILES IDX 55 55 74 56 56 57 59 58 73 59 92 60 57 61 58 62 72 64 93 65
REMARK SMILES IDX 60 66 44 67 45 68 53 69 46 70 52 71 54 72 51 73 47 74 48 75
REMARK SMILES IDX 49 76 50 77 76 78 77 79 85 80 78 81 84 82 86 83 83 84 79 85
REMARK SMILES IDX 80 86 81 87 82 88 61 89 62 90 70 91 63 92 69 93 71 94 68 95
REMARK SMILES IDX 64 96 65 97 66 98 67 99
REMARK H PARENT 91 52 59 63
REMARK Flexibility Score: inf
ROOT
ATOM      1  C   UNL A   1      33.195  15.972  24.773  1.00  0.00     0.188 C 
ENDROOT
BRANCH   1   2
ATOM      2  C   UNL A   1      32.334  17.090  25.367  1.00  0.00     0.188 C 
BRANCH   2   3
ATOM      3  O   UNL A   1      31.905  18.136  24.517  1.00  0.00    -0.376 OA
BRANCH   3   4
ATOM      4  C   UNL A   1      32.710  19.311  24.441  1.00  0.00     0.202 C 
BRANCH   4   5
ATOM      5  C   UNL A   1      32.319  20.566  25.259  1.00  0.00     0.261 C 
BRANCH   5   6
ATOM      6  O   UNL A   1      31.877  21.753  24.534  1.00  0.00    -0.462 OA
BRANCH   6   7
ATOM      7  C   UNL A   1      31.302  22.714  25.293  1.00  0.00     0.329 C 
ATOM      8  O   UNL A   1      30.614  22.458  26.285  1.00  0.00    -0.250 OA
BRANCH   7   9
ATOM      9  C   UNL A   1      31.433  24.183  24.817  1.00  0.00     0.199 C 
ATOM     10  N   UNL A   1      32.595  24.800  24.082  1.00  0.00    -0.323 N 
ATOM     11  C   UNL A   1      32.262  25.431  22.790  1.00  0.00     0.156 C 
ATOM     12  C   UNL A   1      31.045  26.329  22.921  1.00  0.00    -0.025 A 
ATOM     13  C   UNL A   1      30.073  24.392  24.097  1.00  0.00     0.073 C 
ATOM     14  C   UNL A   1      30.986  27.647  22.465  1.00  0.00     0.006 A 
ATOM     15  C   UNL A   1      29.935  25.791  23.587  1.00  0.00    -0.040 A 
ATOM     16  C   UNL A   1      29.824  28.403  22.667  1.00  0.00     0.000 A 
ATOM     17  C   UNL A   1      28.771  26.536  23.771  1.00  0.00     0.004 A 
ATOM     18  C   UNL A   1      28.718  27.847  23.312  1.00  0.00     0.000 A 
BRANCH  10  19
ATOM     19  C   UNL A   1      33.421  25.661  24.841  1.00  0.00     0.233 C 
ATOM     20  O   UNL A   1      34.643  25.530  24.845  1.00  0.00    -0.274 OA
BRANCH  19  21
ATOM     21  C   UNL A   1      32.691  26.611  25.768  1.00  0.00     0.169 C 
BRANCH  21  22
ATOM     22  S   UNL A   1      33.743  27.975  26.426  1.00  0.00    -0.149 SA
BRANCH  22  23
ATOM     23  C   UNL A   1      33.244  29.441  25.425  1.00  0.00     0.041 C 
ATOM     24  C   UNL A   1      33.502  29.163  23.941  1.00  0.00     0.019 C 
ATOM     25  C   UNL A   1      31.795  29.838  25.678  1.00  0.00     0.019 C 
ENDBRANCH  22  23
ENDBRANCH  21  22
ENDBRANCH  19  21
ENDBRANCH  10  19
ENDBRANCH   7   9
ENDBRANCH   6   7
ENDBRANCH   5   6
ENDBRANCH   4   5
ENDBRANCH   3   4
ENDBRANCH   2   3
ENDBRANCH   1   2
BRANCH   1  26
ATOM     26  O   UNL A   1      34.299  15.584  25.560  1.00  0.00    -0.377 OA
BRANCH  26  27
ATOM     27  C   UNL A   1      35.576  16.167  25.346  1.00  0.00     0.188 C 
BRANCH  27  28
ATOM     28  C   UNL A   1      35.613  17.552  24.691  1.00  0.00     0.188 C 
BRANCH  28  29
ATOM     29  O   UNL A   1      36.678  18.452  25.022  1.00  0.00    -0.376 OA
BRANCH  29  30
ATOM     30  C   UNL A   1      36.601  19.810  24.609  1.00  0.00     0.202 C 
BRANCH  30  31
ATOM     31  C   UNL A   1      36.986  20.881  25.628  1.00  0.00     0.261 C 
BRANCH  31  32
ATOM     32  O   UNL A   1      38.212  21.526  25.274  1.00  0.00    -0.460 OA
BRANCH  32  33
ATOM     33  C   UNL A   1      39.258  21.178  26.062  1.00  0.00     0.338 C 
ATOM     34  O   UNL A   1      39.832  20.110  26.096  1.00  0.00    -0.246 OA
BRANCH  33  35
ATOM     35  C   UNL A   1      39.745  22.384  26.753  1.00  0.00     0.060 A 
ATOM     36  C   UNL A   1      39.127  23.596  26.423  1.00  0.00     0.016 A 
ATOM     37  C   UNL A   1      40.814  22.337  27.650  1.00  0.00     0.016 A 
ATOM     38  C   UNL A   1      39.610  24.780  26.952  1.00  0.00     0.010 A 
ATOM     39  C   UNL A   1      41.317  23.531  28.162  1.00  0.00     0.010 A 
ATOM     40  C   UNL A   1      40.742  24.753  27.772  1.00  0.00    -0.014 A 
BRANCH  40  41
ATOM     41  C   UNL A   1      41.454  26.023  28.000  1.00  0.00     0.031 A 
ATOM     42  C   UNL A   1      40.730  27.107  28.744  1.00  0.00     0.074 A 
ATOM     43  C   UNL A   1      42.733  26.158  27.622  1.00  0.00     0.049 A 
ATOM     44  N   UNL A   1      41.128  28.311  29.055  1.00  0.00    -0.248 NA
ATOM     45  C   UNL A   1      39.366  26.783  29.192  1.00  0.00     0.031 C 
ATOM     46  C   UNL A   1      43.524  25.124  26.955  1.00  0.00     0.029 A 
ATOM     47  N   UNL A   1      43.587  27.219  27.741  1.00  0.00    -0.354 N 
ATOM     48  C   UNL A   1      40.060  28.892  29.732  1.00  0.00     0.074 A 
ATOM     49  C   UNL A   1      38.985  27.925  29.740  1.00  0.00     0.031 C 
ATOM     50  C   UNL A   1      44.749  25.613  26.704  1.00  0.00     0.029 A 
ATOM     51  C   UNL A   1      44.807  27.003  27.151  1.00  0.00     0.049 A 
ATOM     52  H   UNL A   1      43.351  28.055  28.204  1.00  0.00     0.167 HD
ATOM     53  C   UNL A   1      39.995  30.122  30.298  1.00  0.00     0.034 A 
ATOM     54  C   UNL A   1      45.835  27.853  26.962  1.00  0.00     0.034 A 
ATOM     55  C   UNL A   1      41.084  31.066  30.236  1.00  0.00     0.049 A 
ATOM     56  C   UNL A   1      45.712  29.251  27.509  1.00  0.00     0.074 A 
ATOM     57  C   UNL A   1      41.153  32.344  30.759  1.00  0.00     0.029 A 
ATOM     58  N   UNL A   1      42.295  30.836  29.588  1.00  0.00    -0.354 N 
ATOM     59  N   UNL A   1      44.704  29.801  28.150  1.00  0.00    -0.248 NA
ATOM     60  C   UNL A   1      46.865  30.137  27.321  1.00  0.00     0.031 C 
ATOM     61  C   UNL A   1      42.363  32.915  30.350  1.00  0.00     0.029 A 
ATOM     62  C   UNL A   1      43.098  31.963  29.658  1.00  0.00     0.049 A 
ATOM     63  H   UNL A   1      42.544  29.994  29.143  1.00  0.00     0.167 HD
ATOM     64  C   UNL A   1      45.110  31.095  28.463  1.00  0.00     0.074 A 
ATOM     65  C   UNL A   1      46.462  31.232  27.951  1.00  0.00     0.031 C 
ATOM     66  C   UNL A   1      44.436  32.078  29.117  1.00  0.00     0.034 A 
BRANCH  53  67
ATOM     67  C   UNL A   1      38.684  30.517  30.940  1.00  0.00     0.023 A 
ATOM     68  C   UNL A   1      37.624  31.066  30.192  1.00  0.00     0.031 A 
ATOM     69  C   UNL A   1      38.524  30.434  32.334  1.00  0.00     0.131 A 
ATOM     70  C   UNL A   1      36.508  31.607  30.850  1.00  0.00     0.055 A 
ATOM     71  C   UNL A   1      37.366  30.883  32.973  1.00  0.00     0.041 A 
ATOM     72  F   UNL A   1      39.507  29.949  33.108  1.00  0.00    -0.206 F 
ATOM     73  C   UNL A   1      36.358  31.494  32.233  1.00  0.00     0.022 A 
BRANCH  70  74
ATOM     74  S   UNL A   1      35.361  32.641  29.896  1.00  0.00     0.124 S 
ATOM     75  O   UNL A   1      36.218  33.765  29.524  1.00  0.00    -0.237 OA
ATOM     76  O   UNL A   1      34.963  31.753  28.811  1.00  0.00    -0.237 OA
ATOM     77  O   UNL A   1      34.309  32.963  30.859  1.00  0.00    -0.744 OA
ENDBRANCH  70  74
ENDBRANCH  53  67
BRANCH  54  78
ATOM     78  C   UNL A   1      47.019  27.411  26.174  1.00  0.00     0.023 A 
ATOM     79  C   UNL A   1      47.158  27.722  24.813  1.00  0.00     0.031 A 
ATOM     80  C   UNL A   1      48.048  26.674  26.790  1.00  0.00     0.131 A 
ATOM     81  C   UNL A   1      48.291  27.281  24.110  1.00  0.00     0.055 A 
ATOM     82  C   UNL A   1      49.194  26.280  26.100  1.00  0.00     0.041 A 
ATOM     83  F   UNL A   1      47.965  26.352  28.092  1.00  0.00    -0.206 F 
ATOM     84  C   UNL A   1      49.316  26.578  24.748  1.00  0.00     0.022 A 
BRANCH  81  85
ATOM     85  S   UNL A   1      48.386  27.595  22.326  1.00  0.00     0.124 S 
ATOM     86  O   UNL A   1      48.592  26.252  21.798  1.00  0.00    -0.237 OA
ATOM     87  O   UNL A   1      47.085  28.199  22.056  1.00  0.00    -0.237 OA
ATOM     88  O   UNL A   1      49.527  28.499  22.202  1.00  0.00    -0.744 OA
ENDBRANCH  81  85
ENDBRANCH  54  78
BRANCH  66  89
ATOM     89  C   UNL A   1      45.174  33.375  29.344  1.00  0.00     0.023 A 
ATOM     90  C   UNL A   1      46.000  33.571  30.465  1.00  0.00     0.031 A 
ATOM     91  C   UNL A   1      45.045  34.432  28.426  1.00  0.00     0.131 A 
ATOM     92  C   UNL A   1      46.612  34.816  30.671  1.00  0.00     0.055 A 
ATOM     93  C   UNL A   1      45.718  35.641  28.596  1.00  0.00     0.041 A 
ATOM     94  F   UNL A   1      44.265  34.303  27.340  1.00  0.00    -0.206 F 
ATOM     95  C   UNL A   1      46.496  35.844  29.732  1.00  0.00     0.022 A 
BRANCH  92  96
ATOM     96  S   UNL A   1      47.469  35.113  32.240  1.00  0.00     0.124 S 
ATOM     97  O   UNL A   1      47.883  33.764  32.617  1.00  0.00    -0.237 OA
ATOM     98  O   UNL A   1      48.539  36.021  31.845  1.00  0.00    -0.237 OA
ATOM     99  O   UNL A   1      46.435  35.703  33.089  1.00  0.00    -0.744 OA
ENDBRANCH  92  96
ENDBRANCH  66  89
ENDBRANCH  40  41
ENDBRANCH  33  35
ENDBRANCH  32  33
ENDBRANCH  31  32
ENDBRANCH  30  31
ENDBRANCH  29  30
ENDBRANCH  28  29
ENDBRANCH  27  28
ENDBRANCH  26  27
ENDBRANCH   1  26
TORSDOF 27
ENDMDL
MODEL 3
REMARK VINA RESULT:      -8.8      2.263      3.642
REMARK SMILES CC(C)SCC(=O)N1Cc2ccccc2C[C@H]1C(=O)OCCOCCOCCOCCOC(=O)c1ccc(-c2c3nc(c(-c4cc(S(=O)(=O)[O-])ccc4F)c4ccc([nH]4)c(-c4cc(S(=O)(=O)[O-])ccc4F)c4nc(c(-c5cc(S(=O)(=O)[O-])ccc5F)c5ccc2[nH]5)C=C4)C=C3)cc1
REMARK SMILES IDX 25 1 24 2 23 3 22 4 21 5 20 6 18 7 19 8 17 9 8 10 9 11 10 12
REMARK SMILES IDX 16 13 11 14 15 15 12 16 14 17 13 18 6 19 7 20 5 21 4 22 2 23
REMARK SMILES IDX 1 24 3 25 26 26 27 27 28 28 29 29 30 30 31 31 32 32 33 33
REMARK SMILES IDX 34 34 35 35 36 36 97 37 37 38 96 39 38 40 39 41 40 42 90 43
REMARK SMILES IDX 41 44 95 45 89 46 91 47 42 48 94 49 88 50 87 51 43 53 75 54
REMARK SMILES IDX 55 55 74 56 56 57 59 58 73 59 92 60 57 61 58 62 72 64 93 65
REMARK SMILES IDX 60 66 44 67 45 68 53 69 46 70 52 71 54 72 51 73 47 74 48 75
REMARK SMILES IDX 49 76 50 77 76 78 77 79 85 80 78 81 84 82 86 83 83 84 79 85
REMARK SMILES IDX 80 86 81 87 82 88 61 89 62 90 70 91 63 92 69 93 71 94 68 95
REMARK SMILES IDX 64 96 65 97 66 98 67 99
REMARK H PARENT 91 52 59 63
REMARK Flexibility Score: inf
ROOT
ATOM      1  C   UNL A   1      33.688  21.091  25.451  1.00  0.00     0.188 C 
ENDROOT
BRANCH   1   2
ATOM      2  C   UNL A   1      32.257  21.373  25.916  1.00  0.00     0.188 C 
BRANCH   2   3
ATOM      3  O   UNL A   1      31.681  22.628  25.608  1.00  0.00    -0.376 OA
BRANCH   3   4
ATOM      4  C   UNL A   1      31.227  22.847  24.274  1.00  0.00     0.202 C 
BRANCH   4   5
ATOM      5  C   UNL A   1      31.708  24.094  23.493  1.00  0.00     0.261 C 
BRANCH   5   6
ATOM      6  O   UNL A   1      31.645  25.391  24.158  1.00  0.00    -0.462 OA
BRANCH   6   7
ATOM      7  C   UNL A   1      32.768  26.142  24.071  1.00  0.00     0.329 C 
ATOM      8  O   UNL A   1      33.816  25.718  23.578  1.00  0.00    -0.250 OA
BRANCH   7   9
ATOM      9  C   UNL A   1      32.748  27.548  24.722  1.00  0.00     0.199 C 
ATOM     10  N   UNL A   1      31.541  28.305  25.213  1.00  0.00    -0.323 N 
ATOM     11  C   UNL A   1      31.586  28.714  26.631  1.00  0.00     0.156 C 
ATOM     12  C   UNL A   1      32.918  29.357  26.968  1.00  0.00    -0.025 A 
ATOM     13  C   UNL A   1      33.857  27.401  25.798  1.00  0.00     0.073 C 
ATOM     14  C   UNL A   1      33.059  30.580  27.627  1.00  0.00     0.006 A 
ATOM     15  C   UNL A   1      34.069  28.681  26.541  1.00  0.00    -0.040 A 
ATOM     16  C   UNL A   1      34.337  31.104  27.860  1.00  0.00     0.000 A 
ATOM     17  C   UNL A   1      35.343  29.191  26.791  1.00  0.00     0.004 A 
ATOM     18  C   UNL A   1      35.476  30.408  27.449  1.00  0.00     0.000 A 
BRANCH  10  19
ATOM     19  C   UNL A   1      31.121  29.391  24.410  1.00  0.00     0.233 C 
ATOM     20  O   UNL A   1      30.844  30.480  24.907  1.00  0.00    -0.274 OA
BRANCH  19  21
ATOM     21  C   UNL A   1      30.867  29.061  22.954  1.00  0.00     0.169 C 
BRANCH  21  22
ATOM     22  S   UNL A   1      29.091  29.135  22.465  1.00  0.00    -0.149 SA
BRANCH  22  23
ATOM     23  C   UNL A   1      28.702  30.937  22.485  1.00  0.00     0.041 C 
ATOM     24  C   UNL A   1      28.186  31.367  21.107  1.00  0.00     0.019 C 
ATOM     25  C   UNL A   1      27.717  31.297  23.590  1.00  0.00     0.019 C 
ENDBRANCH  22  23
ENDBRANCH  21  22
ENDBRANCH  19  21
ENDBRANCH  10  19
ENDBRANCH   7   9
ENDBRANCH   6   7
ENDBRANCH   5   6
ENDBRANCH   4   5
ENDBRANCH   3   4
ENDBRANCH   2   3
ENDBRANCH   1   2
BRANCH   1  26
ATOM     26  O   UNL A   1      34.701  21.650  26.257  1.00  0.00    -0.377 OA
BRANCH  26  27
ATOM     27  C   UNL A   1      35.459  22.760  25.796  1.00  0.00     0.188 C 
BRANCH  27  28
ATOM     28  C   UNL A   1      36.374  22.529  24.589  1.00  0.00     0.188 C 
BRANCH  28  29
ATOM     29  O   UNL A   1      37.794  22.584  24.771  1.00  0.00    -0.376 OA
BRANCH  29  30
ATOM     30  C   UNL A   1      38.377  21.974  25.916  1.00  0.00     0.202 C 
BRANCH  30  31
ATOM     31  C   UNL A   1      38.952  20.569  25.750  1.00  0.00     0.261 C 
BRANCH  31  32
ATOM     32  O   UNL A   1      40.381  20.575  25.812  1.00  0.00    -0.460 OA
BRANCH  32  33
ATOM     33  C   UNL A   1      40.871  20.699  27.069  1.00  0.00     0.338 C 
ATOM     34  O   UNL A   1      40.787  19.897  27.975  1.00  0.00    -0.246 OA
BRANCH  33  35
ATOM     35  C   UNL A   1      41.723  21.899  27.123  1.00  0.00     0.060 A 
ATOM     36  C   UNL A   1      42.198  22.282  28.382  1.00  0.00     0.016 A 
ATOM     37  C   UNL A   1      41.996  22.659  25.983  1.00  0.00     0.016 A 
ATOM     38  C   UNL A   1      42.910  23.461  28.519  1.00  0.00     0.010 A 
ATOM     39  C   UNL A   1      42.691  23.859  26.124  1.00  0.00     0.010 A 
ATOM     40  C   UNL A   1      43.103  24.278  27.401  1.00  0.00    -0.014 A 
BRANCH  40  41
ATOM     41  C   UNL A   1      43.511  25.675  27.636  1.00  0.00     0.031 A 
ATOM     42  C   UNL A   1      44.922  26.059  27.295  1.00  0.00     0.074 A 
ATOM     43  C   UNL A   1      42.615  26.577  28.062  1.00  0.00     0.049 A 
ATOM     44  N   UNL A   1      45.524  27.210  27.423  1.00  0.00    -0.248 NA
ATOM     45  C   UNL A   1      45.766  24.990  26.738  1.00  0.00     0.031 C 
ATOM     46  C   UNL A   1      41.210  26.293  28.348  1.00  0.00     0.029 A 
ATOM     47  N   UNL A   1      42.757  27.911  28.329  1.00  0.00    -0.354 N 
ATOM     48  C   UNL A   1      46.822  27.003  26.966  1.00  0.00     0.074 A 
ATOM     49  C   UNL A   1      46.929  25.607  26.606  1.00  0.00     0.031 C 
ATOM     50  C   UNL A   1      40.621  27.422  28.775  1.00  0.00     0.029 A 
ATOM     51  C   UNL A   1      41.618  28.488  28.832  1.00  0.00     0.049 A 
ATOM     52  H   UNL A   1      43.593  28.408  28.176  1.00  0.00     0.167 HD
ATOM     53  C   UNL A   1      47.827  27.906  26.855  1.00  0.00     0.034 A 
ATOM     54  C   UNL A   1      41.424  29.727  29.321  1.00  0.00     0.034 A 
ATOM     55  C   UNL A   1      47.682  29.285  27.258  1.00  0.00     0.049 A 
ATOM     56  C   UNL A   1      42.578  30.696  29.285  1.00  0.00     0.074 A 
ATOM     57  C   UNL A   1      48.615  30.304  27.205  1.00  0.00     0.029 A 
ATOM     58  N   UNL A   1      46.526  29.830  27.810  1.00  0.00    -0.354 N 
ATOM     59  N   UNL A   1      43.805  30.501  28.852  1.00  0.00    -0.248 NA
ATOM     60  C   UNL A   1      42.321  32.048  29.786  1.00  0.00     0.031 C 
ATOM     61  C   UNL A   1      48.054  31.435  27.809  1.00  0.00     0.029 A 
ATOM     62  C   UNL A   1      46.737  31.159  28.146  1.00  0.00     0.049 A 
ATOM     63  H   UNL A   1      45.682  29.343  27.945  1.00  0.00     0.167 HD
ATOM     64  C   UNL A   1      44.463  31.718  29.009  1.00  0.00     0.074 A 
ATOM     65  C   UNL A   1      43.487  32.639  29.562  1.00  0.00     0.031 C 
ATOM     66  C   UNL A   1      45.749  32.048  28.719  1.00  0.00     0.034 A 
BRANCH  53  67
ATOM     67  C   UNL A   1      49.162  27.395  26.363  1.00  0.00     0.023 A 
ATOM     68  C   UNL A   1      50.216  27.094  27.247  1.00  0.00     0.031 A 
ATOM     69  C   UNL A   1      49.419  27.298  24.985  1.00  0.00     0.131 A 
ATOM     70  C   UNL A   1      51.498  26.821  26.743  1.00  0.00     0.055 A 
ATOM     71  C   UNL A   1      50.672  26.927  24.490  1.00  0.00     0.041 A 
ATOM     72  F   UNL A   1      48.467  27.600  24.088  1.00  0.00    -0.206 F 
ATOM     73  C   UNL A   1      51.727  26.708  25.371  1.00  0.00     0.022 A 
BRANCH  70  74
ATOM     74  S   UNL A   1      52.899  26.824  27.898  1.00  0.00     0.124 S 
ATOM     75  O   UNL A   1      53.856  25.969  27.200  1.00  0.00    -0.237 OA
ATOM     76  O   UNL A   1      53.242  28.239  27.973  1.00  0.00    -0.237 OA
ATOM     77  O   UNL A   1      52.338  26.251  29.120  1.00  0.00    -0.744 OA
ENDBRANCH  70  74
ENDBRANCH  53  67
BRANCH  54  78
ATOM     78  C   UNL A   1      40.113  30.081  29.932  1.00  0.00     0.023 A 
ATOM     79  C   UNL A   1      39.967  30.257  31.316  1.00  0.00     0.031 A 
ATOM     80  C   UNL A   1      38.977  30.263  29.121  1.00  0.00     0.131 A 
ATOM     81  C   UNL A   1      38.709  30.586  31.847  1.00  0.00     0.055 A 
ATOM     82  C   UNL A   1      37.741  30.637  29.648  1.00  0.00     0.041 A 
ATOM     83  F   UNL A   1      39.063  30.109  27.789  1.00  0.00    -0.206 F 
ATOM     84  C   UNL A   1      37.601  30.794  31.021  1.00  0.00     0.022 A 
BRANCH  81  85
ATOM     85  S   UNL A   1      38.525  30.690  33.649  1.00  0.00     0.124 S 
ATOM     86  O   UNL A   1      39.867  31.086  34.062  1.00  0.00    -0.237 OA
ATOM     87  O   UNL A   1      37.484  31.703  33.788  1.00  0.00    -0.237 OA
ATOM     88  O   UNL A   1      38.128  29.336  34.028  1.00  0.00    -0.744 OA
ENDBRANCH  81  85
ENDBRANCH  54  78
BRANCH  66  89
ATOM     89  C   UNL A   1      46.156  33.481  28.964  1.00  0.00     0.023 A 
ATOM     90  C   UNL A   1      46.044  34.464  27.966  1.00  0.00     0.031 A 
ATOM     91  C   UNL A   1      46.668  33.866  30.216  1.00  0.00     0.131 A 
ATOM     92  C   UNL A   1      46.497  35.768  28.216  1.00  0.00     0.055 A 
ATOM     93  C   UNL A   1      47.046  35.181  30.484  1.00  0.00     0.041 A 
ATOM     94  F   UNL A   1      46.803  32.967  31.206  1.00  0.00    -0.206 F 
ATOM     95  C   UNL A   1      46.975  36.138  29.476  1.00  0.00     0.022 A 
BRANCH  92  96
ATOM     96  S   UNL A   1      46.562  36.944  26.838  1.00  0.00     0.124 S 
ATOM     97  O   UNL A   1      46.718  36.054  25.691  1.00  0.00    -0.237 OA
ATOM     98  O   UNL A   1      45.277  37.624  26.948  1.00  0.00    -0.237 OA
ATOM     99  O   UNL A   1      47.729  37.768  27.147  1.00  0.00    -0.744 OA
ENDBRANCH  92  96
ENDBRANCH  66  89
ENDBRANCH  40  41
ENDBRANCH  33  35
ENDBRANCH  32  33
ENDBRANCH  31  32
ENDBRANCH  30  31
ENDBRANCH  29  30
ENDBRANCH  28  29
ENDBRANCH  27  28
ENDBRANCH  26  27
ENDBRANCH   1  26
TORSDOF 27
ENDMDL
