MODEL 1
REMARK VINA RESULT:      -9.5      0.000      0.000
REMARK SMILES C[C@H](NC(=O)N(CC(=O)OCCOCCOCCOCCOC(=O)c1ccc(-c2c3nc(c(-c4cc(S(=O)(=O)[O-])ccc4F)c4ccc([nH]4)c(-c4cc(S(=O)(=O)[O-])ccc4F)c4nc(c(-c5cc(S(=O)(=O)[O-])ccc5F)c5ccc2[nH]5)C=C4)C=C3)cc1)C(C)(C)C)c1nncn1C
REMARK SMILES IDX 15 1 14 2 13 3 12 4 11 5 10 6 8 7 9 8 7 9 6 10 4 11 3 12
REMARK SMILES IDX 5 14 2 15 1 16 92 17 93 18 96 19 94 20 95 21 97 22 88 23
REMARK SMILES IDX 89 24 90 25 91 26 16 27 17 28 18 29 19 30 20 31 21 32 22 33
REMARK SMILES IDX 23 34 24 35 25 36 26 37 87 38 27 39 86 40 28 41 29 42 30 43
REMARK SMILES IDX 80 44 31 45 85 46 79 47 81 48 32 49 84 50 78 51 77 52 33 54
REMARK SMILES IDX 65 55 45 56 64 57 46 58 49 59 63 60 82 61 47 62 48 63 62 65
REMARK SMILES IDX 83 66 50 67 34 68 35 69 43 70 36 71 42 72 44 73 41 74 37 75
REMARK SMILES IDX 38 76 39 77 40 78 66 79 67 80 75 81 68 82 74 83 76 84 73 85
REMARK SMILES IDX 69 86 70 87 71 88 72 89 51 90 52 91 60 92 53 93 59 94 61 95
REMARK SMILES IDX 58 96 54 97 55 98 56 99 57 100
REMARK H PARENT 3 13 81 53 49 64
REMARK Flexibility Score: inf
ROOT
ATOM      1  C   UNL A   1      30.893  27.898  22.069  1.00  0.00     0.188 C 
ENDROOT
BRANCH   1   2
ATOM      2  C   UNL A   1      32.326  27.625  22.566  1.00  0.00     0.188 C 
BRANCH   2   3
ATOM      3  O   UNL A   1      33.294  26.982  21.736  1.00  0.00    -0.376 OA
BRANCH   3   4
ATOM      4  C   UNL A   1      33.227  25.575  21.560  1.00  0.00     0.202 C 
BRANCH   4   5
ATOM      5  C   UNL A   1      32.160  24.868  22.423  1.00  0.00     0.261 C 
BRANCH   5   6
ATOM      6  O   UNL A   1      32.653  23.847  23.332  1.00  0.00    -0.462 OA
BRANCH   6   7
ATOM      7  C   UNL A   1      32.043  22.636  23.300  1.00  0.00     0.325 C 
ATOM      8  O   UNL A   1      31.911  21.964  22.278  1.00  0.00    -0.250 OA
BRANCH   7   9
ATOM      9  C   UNL A   1      31.689  22.016  24.694  1.00  0.00     0.244 C 
BRANCH   9  10
ATOM     10  N   UNL A   1      31.957  22.595  26.039  1.00  0.00    -0.309 N 
BRANCH  10  11
ATOM     11  C   UNL A   1      30.966  23.160  26.830  1.00  0.00     0.318 C 
ATOM     12  N   UNL A   1      30.712  24.489  26.819  1.00  0.00    -0.328 N 
ATOM     13  H   UNL A   1      30.186  24.803  27.590  1.00  0.00     0.166 HD
ATOM     14  O   UNL A   1      30.209  22.483  27.527  1.00  0.00    -0.249 OA
BRANCH  12  15
ATOM     15  C   UNL A   1      31.070  25.531  25.885  1.00  0.00     0.149 C 
ATOM     16  C   UNL A   1      29.891  25.948  25.006  1.00  0.00     0.040 C 
BRANCH  15  17
ATOM     17  C   UNL A   1      31.647  26.721  26.572  1.00  0.00     0.154 A 
ATOM     18  N   UNL A   1      31.063  27.539  27.424  1.00  0.00    -0.133 NA
ATOM     19  N   UNL A   1      32.913  27.187  26.315  1.00  0.00    -0.319 N 
ATOM     20  N   UNL A   1      31.948  28.556  27.709  1.00  0.00    -0.139 NA
ATOM     21  C   UNL A   1      33.048  28.334  27.029  1.00  0.00     0.225 A 
ATOM     22  C   UNL A   1      33.888  26.612  25.426  1.00  0.00     0.152 C 
ENDBRANCH  15  17
ENDBRANCH  12  15
ENDBRANCH  10  11
BRANCH  10  23
ATOM     23  C   UNL A   1      33.333  22.422  26.694  1.00  0.00     0.037 C 
ATOM     24  C   UNL A   1      33.216  22.325  28.236  1.00  0.00     0.034 C 
ATOM     25  C   UNL A   1      34.026  21.123  26.193  1.00  0.00     0.034 C 
ATOM     26  C   UNL A   1      34.366  23.528  26.342  1.00  0.00     0.034 C 
ENDBRANCH  10  23
ENDBRANCH   9  10
ENDBRANCH   7   9
ENDBRANCH   6   7
ENDBRANCH   5   6
ENDBRANCH   4   5
ENDBRANCH   3   4
ENDBRANCH   2   3
ENDBRANCH   1   2
BRANCH   1  27
ATOM     27  O   UNL A   1      30.104  28.615  22.994  1.00  0.00    -0.377 OA
BRANCH  27  28
ATOM     28  C   UNL A   1      29.443  29.743  22.459  1.00  0.00     0.188 C 
BRANCH  28  29
ATOM     29  C   UNL A   1      29.171  30.852  23.490  1.00  0.00     0.188 C 
BRANCH  29  30
ATOM     30  O   UNL A   1      30.115  30.847  24.553  1.00  0.00    -0.376 OA
BRANCH  30  31
ATOM     31  C   UNL A   1      30.429  32.026  25.267  1.00  0.00     0.202 C 
BRANCH  31  32
ATOM     32  C   UNL A   1      31.136  32.014  26.636  1.00  0.00     0.261 C 
BRANCH  32  33
ATOM     33  O   UNL A   1      32.564  32.005  26.656  1.00  0.00    -0.460 OA
BRANCH  33  34
ATOM     34  C   UNL A   1      33.147  32.933  27.452  1.00  0.00     0.338 C 
ATOM     35  O   UNL A   1      32.620  33.932  27.889  1.00  0.00    -0.246 OA
BRANCH  34  36
ATOM     36  C   UNL A   1      34.465  32.413  27.892  1.00  0.00     0.060 A 
ATOM     37  C   UNL A   1      34.554  31.050  28.200  1.00  0.00     0.016 A 
ATOM     38  C   UNL A   1      35.586  33.239  28.007  1.00  0.00     0.016 A 
ATOM     39  C   UNL A   1      35.751  30.512  28.662  1.00  0.00     0.010 A 
ATOM     40  C   UNL A   1      36.777  32.708  28.521  1.00  0.00     0.010 A 
ATOM     41  C   UNL A   1      36.844  31.352  28.895  1.00  0.00    -0.014 A 
BRANCH  41  42
ATOM     42  C   UNL A   1      37.899  30.869  29.820  1.00  0.00     0.031 A 
ATOM     43  C   UNL A   1      38.883  29.867  29.273  1.00  0.00     0.074 A 
ATOM     44  C   UNL A   1      38.058  31.380  31.053  1.00  0.00     0.049 A 
ATOM     45  N   UNL A   1      39.903  29.293  29.853  1.00  0.00    -0.248 NA
ATOM     46  C   UNL A   1      38.691  29.467  27.867  1.00  0.00     0.031 C 
ATOM     47  C   UNL A   1      37.225  32.421  31.654  1.00  0.00     0.029 A 
ATOM     48  N   UNL A   1      38.991  31.098  32.020  1.00  0.00    -0.354 N 
ATOM     49  C   UNL A   1      40.480  28.479  28.884  1.00  0.00     0.074 A 
ATOM     50  C   UNL A   1      39.667  28.592  27.695  1.00  0.00     0.031 C 
ATOM     51  C   UNL A   1      37.683  32.684  32.892  1.00  0.00     0.029 A 
ATOM     52  C   UNL A   1      38.817  31.809  33.184  1.00  0.00     0.049 A 
ATOM     53  H   UNL A   1      39.718  30.447  31.890  1.00  0.00     0.167 HD
ATOM     54  C   UNL A   1      41.599  27.720  28.969  1.00  0.00     0.034 A 
ATOM     55  C   UNL A   1      39.488  31.737  34.353  1.00  0.00     0.034 A 
ATOM     56  C   UNL A   1      42.385  27.595  30.167  1.00  0.00     0.049 A 
ATOM     57  C   UNL A   1      40.652  30.774  34.466  1.00  0.00     0.074 A 
ATOM     58  C   UNL A   1      43.503  26.810  30.389  1.00  0.00     0.029 A 
ATOM     59  N   UNL A   1      42.135  28.275  31.353  1.00  0.00    -0.354 N 
ATOM     60  N   UNL A   1      41.167  29.981  33.553  1.00  0.00    -0.248 NA
ATOM     61  C   UNL A   1      41.335  30.710  35.764  1.00  0.00     0.031 C 
ATOM     62  C   UNL A   1      43.888  26.966  31.725  1.00  0.00     0.029 A 
ATOM     63  C   UNL A   1      43.069  27.918  32.311  1.00  0.00     0.049 A 
ATOM     64  H   UNL A   1      41.401  28.918  31.491  1.00  0.00     0.167 HD
ATOM     65  C   UNL A   1      42.271  29.376  34.153  1.00  0.00     0.074 A 
ATOM     66  C   UNL A   1      42.350  29.903  35.498  1.00  0.00     0.031 C 
ATOM     67  C   UNL A   1      43.147  28.472  33.641  1.00  0.00     0.034 A 
BRANCH  54  68
ATOM     68  C   UNL A   1      41.998  26.938  27.743  1.00  0.00     0.023 A 
ATOM     69  C   UNL A   1      41.805  25.547  27.660  1.00  0.00     0.031 A 
ATOM     70  C   UNL A   1      42.604  27.585  26.652  1.00  0.00     0.131 A 
ATOM     71  C   UNL A   1      42.267  24.842  26.539  1.00  0.00     0.055 A 
ATOM     72  C   UNL A   1      42.987  26.890  25.504  1.00  0.00     0.041 A 
ATOM     73  F   UNL A   1      42.843  28.906  26.687  1.00  0.00    -0.206 F 
ATOM     74  C   UNL A   1      42.829  25.508  25.448  1.00  0.00     0.022 A 
BRANCH  71  75
ATOM     75  S   UNL A   1      42.240  23.029  26.582  1.00  0.00     0.124 S 
ATOM     76  O   UNL A   1      42.534  22.764  27.989  1.00  0.00    -0.237 OA
ATOM     77  O   UNL A   1      40.885  22.722  26.144  1.00  0.00    -0.237 OA
ATOM     78  O   UNL A   1      43.300  22.649  25.650  1.00  0.00    -0.744 OA
ENDBRANCH  71  75
ENDBRANCH  54  68
BRANCH  55  79
ATOM     79  C   UNL A   1      39.077  32.554  35.536  1.00  0.00     0.023 A 
ATOM     80  C   UNL A   1      39.502  33.886  35.682  1.00  0.00     0.031 A 
ATOM     81  C   UNL A   1      38.359  31.979  36.600  1.00  0.00     0.131 A 
ATOM     82  C   UNL A   1      39.289  34.563  36.892  1.00  0.00     0.055 A 
ATOM     83  C   UNL A   1      38.081  32.683  37.773  1.00  0.00     0.041 A 
ATOM     84  F   UNL A   1      37.933  30.708  36.524  1.00  0.00    -0.206 F 
ATOM     85  C   UNL A   1      38.568  33.976  37.934  1.00  0.00     0.022 A 
BRANCH  82  86
ATOM     86  S   UNL A   1      40.106  36.164  37.144  1.00  0.00     0.124 S 
ATOM     87  O   UNL A   1      39.978  36.770  35.824  1.00  0.00    -0.237 OA
ATOM     88  O   UNL A   1      39.294  36.754  38.203  1.00  0.00    -0.237 OA
ATOM     89  O   UNL A   1      41.466  35.795  37.534  1.00  0.00    -0.744 OA
ENDBRANCH  82  86
ENDBRANCH  55  79
BRANCH  67  90
ATOM     90  C   UNL A   1      44.321  28.076  34.507  1.00  0.00     0.023 A 
ATOM     91  C   UNL A   1      44.231  27.064  35.478  1.00  0.00     0.031 A 
ATOM     92  C   UNL A   1      45.549  28.748  34.368  1.00  0.00     0.131 A 
ATOM     93  C   UNL A   1      45.320  26.809  36.325  1.00  0.00     0.055 A 
ATOM     94  C   UNL A   1      46.655  28.435  35.160  1.00  0.00     0.041 A 
ATOM     95  F   UNL A   1      45.698  29.723  33.457  1.00  0.00    -0.206 F 
ATOM     96  C   UNL A   1      46.537  27.476  36.160  1.00  0.00     0.022 A 
BRANCH  93  97
ATOM     97  S   UNL A   1      45.085  25.689  37.733  1.00  0.00     0.124 S 
ATOM     98  O   UNL A   1      43.982  24.852  37.273  1.00  0.00    -0.237 OA
ATOM     99  O   UNL A   1      46.386  25.033  37.827  1.00  0.00    -0.237 OA
ATOM    100  O   UNL A   1      44.763  26.589  38.838  1.00  0.00    -0.744 OA
ENDBRANCH  93  97
ENDBRANCH  67  90
ENDBRANCH  41  42
ENDBRANCH  34  36
ENDBRANCH  33  34
ENDBRANCH  32  33
ENDBRANCH  31  32
ENDBRANCH  30  31
ENDBRANCH  29  30
ENDBRANCH  28  29
ENDBRANCH  27  28
ENDBRANCH   1  27
TORSDOF 28
ENDMDL
MODEL 2
REMARK VINA RESULT:      -8.5      5.772      9.851
REMARK SMILES C[C@H](NC(=O)N(CC(=O)OCCOCCOCCOCCOC(=O)c1ccc(-c2c3nc(c(-c4cc(S(=O)(=O)[O-])ccc4F)c4ccc([nH]4)c(-c4cc(S(=O)(=O)[O-])ccc4F)c4nc(c(-c5cc(S(=O)(=O)[O-])ccc5F)c5ccc2[nH]5)C=C4)C=C3)cc1)C(C)(C)C)c1nncn1C
REMARK SMILES IDX 15 1 14 2 13 3 12 4 11 5 10 6 8 7 9 8 7 9 6 10 4 11 3 12
REMARK SMILES IDX 5 14 2 15 1 16 92 17 93 18 96 19 94 20 95 21 97 22 88 23
REMARK SMILES IDX 89 24 90 25 91 26 16 27 17 28 18 29 19 30 20 31 21 32 22 33
REMARK SMILES IDX 23 34 24 35 25 36 26 37 87 38 27 39 86 40 28 41 29 42 30 43
REMARK SMILES IDX 80 44 31 45 85 46 79 47 81 48 32 49 84 50 78 51 77 52 33 54
REMARK SMILES IDX 65 55 45 56 64 57 46 58 49 59 63 60 82 61 47 62 48 63 62 65
REMARK SMILES IDX 83 66 50 67 34 68 35 69 43 70 36 71 42 72 44 73 41 74 37 75
REMARK SMILES IDX 38 76 39 77 40 78 66 79 67 80 75 81 68 82 74 83 76 84 73 85
REMARK SMILES IDX 69 86 70 87 71 88 72 89 51 90 52 91 60 92 53 93 59 94 61 95
REMARK SMILES IDX 58 96 54 97 55 98 56 99 57 100
REMARK H PARENT 3 13 81 53 49 64
REMARK Flexibility Score: inf
ROOT
ATOM      1  C   UNL A   1      36.365  21.610  25.148  1.00  0.00     0.188 C 
ENDROOT
BRANCH   1   2
ATOM      2  C   UNL A   1      34.966  21.491  25.782  1.00  0.00     0.188 C 
BRANCH   2   3
ATOM      3  O   UNL A   1      34.644  22.148  27.009  1.00  0.00    -0.376 OA
BRANCH   3   4
ATOM      4  C   UNL A   1      33.325  22.042  27.522  1.00  0.00     0.202 C 
BRANCH   4   5
ATOM      5  C   UNL A   1      32.362  23.157  27.059  1.00  0.00     0.261 C 
BRANCH   5   6
ATOM      6  O   UNL A   1      31.443  22.799  25.992  1.00  0.00    -0.462 OA
BRANCH   6   7
ATOM      7  C   UNL A   1      31.610  23.408  24.792  1.00  0.00     0.325 C 
ATOM      8  O   UNL A   1      31.619  22.808  23.717  1.00  0.00    -0.250 OA
BRANCH   7   9
ATOM      9  C   UNL A   1      31.584  24.973  24.814  1.00  0.00     0.244 C 
BRANCH   9  10
ATOM     10  N   UNL A   1      32.657  25.904  24.369  1.00  0.00    -0.309 N 
BRANCH  10  11
ATOM     11  C   UNL A   1      33.811  26.135  25.105  1.00  0.00     0.318 C 
ATOM     12  N   UNL A   1      33.986  27.266  25.827  1.00  0.00    -0.328 N 
ATOM     13  H   UNL A   1      34.921  27.436  26.086  1.00  0.00     0.166 HD
ATOM     14  O   UNL A   1      34.708  25.296  25.211  1.00  0.00    -0.249 OA
BRANCH  12  15
ATOM     15  C   UNL A   1      33.056  28.269  26.286  1.00  0.00     0.149 C 
ATOM     16  C   UNL A   1      32.025  27.699  27.261  1.00  0.00     0.040 C 
BRANCH  15  17
ATOM     17  C   UNL A   1      33.751  29.437  26.897  1.00  0.00     0.154 A 
ATOM     18  N   UNL A   1      34.944  29.480  27.457  1.00  0.00    -0.133 NA
ATOM     19  N   UNL A   1      33.158  30.668  27.036  1.00  0.00    -0.319 N 
ATOM     20  N   UNL A   1      35.120  30.742  27.981  1.00  0.00    -0.139 NA
ATOM     21  C   UNL A   1      34.037  31.438  27.727  1.00  0.00     0.225 A 
ATOM     22  C   UNL A   1      31.846  31.056  26.589  1.00  0.00     0.152 C 
ENDBRANCH  15  17
ENDBRANCH  12  15
ENDBRANCH  10  11
BRANCH  10  23
ATOM     23  C   UNL A   1      32.614  26.518  22.964  1.00  0.00     0.037 C 
ATOM     24  C   UNL A   1      32.930  25.461  21.876  1.00  0.00     0.034 C 
ATOM     25  C   UNL A   1      31.206  27.103  22.657  1.00  0.00     0.034 C 
ATOM     26  C   UNL A   1      33.554  27.738  22.758  1.00  0.00     0.034 C 
ENDBRANCH  10  23
ENDBRANCH   9  10
ENDBRANCH   7   9
ENDBRANCH   6   7
ENDBRANCH   5   6
ENDBRANCH   4   5
ENDBRANCH   3   4
ENDBRANCH   2   3
ENDBRANCH   1   2
BRANCH   1  27
ATOM     27  O   UNL A   1      36.977  20.363  24.896  1.00  0.00    -0.377 OA
BRANCH  27  28
ATOM     28  C   UNL A   1      38.336  20.284  25.272  1.00  0.00     0.188 C 
BRANCH  28  29
ATOM     29  C   UNL A   1      38.910  21.607  25.809  1.00  0.00     0.188 C 
BRANCH  29  30
ATOM     30  O   UNL A   1      40.299  21.518  26.097  1.00  0.00    -0.376 OA
BRANCH  30  31
ATOM     31  C   UNL A   1      40.850  20.387  26.743  1.00  0.00     0.202 C 
BRANCH  31  32
ATOM     32  C   UNL A   1      42.182  19.743  26.314  1.00  0.00     0.261 C 
BRANCH  32  33
ATOM     33  O   UNL A   1      42.713  20.084  25.033  1.00  0.00    -0.460 OA
BRANCH  33  34
ATOM     34  C   UNL A   1      44.061  19.998  24.913  1.00  0.00     0.338 C 
ATOM     35  O   UNL A   1      44.682  19.041  24.509  1.00  0.00    -0.246 OA
BRANCH  34  36
ATOM     36  C   UNL A   1      44.638  21.345  25.138  1.00  0.00     0.060 A 
ATOM     37  C   UNL A   1      45.171  21.621  26.404  1.00  0.00     0.016 A 
ATOM     38  C   UNL A   1      44.653  22.321  24.137  1.00  0.00     0.016 A 
ATOM     39  C   UNL A   1      45.686  22.881  26.690  1.00  0.00     0.010 A 
ATOM     40  C   UNL A   1      45.124  23.606  24.441  1.00  0.00     0.010 A 
ATOM     41  C   UNL A   1      45.596  23.899  25.735  1.00  0.00    -0.014 A 
BRANCH  41  42
ATOM     42  C   UNL A   1      45.685  25.301  26.213  1.00  0.00     0.031 A 
ATOM     43  C   UNL A   1      47.044  25.953  26.172  1.00  0.00     0.074 A 
ATOM     44  C   UNL A   1      44.596  26.010  26.556  1.00  0.00     0.049 A 
ATOM     45  N   UNL A   1      47.402  27.162  26.515  1.00  0.00    -0.248 NA
ATOM     46  C   UNL A   1      48.149  25.123  25.662  1.00  0.00     0.031 C 
ATOM     47  C   UNL A   1      43.221  25.513  26.542  1.00  0.00     0.029 A 
ATOM     48  N   UNL A   1      44.477  27.314  26.970  1.00  0.00    -0.354 N 
ATOM     49  C   UNL A   1      48.765  27.240  26.249  1.00  0.00     0.074 A 
ATOM     50  C   UNL A   1      49.180  25.944  25.767  1.00  0.00     0.031 C 
ATOM     51  C   UNL A   1      42.397  26.501  26.938  1.00  0.00     0.029 A 
ATOM     52  C   UNL A   1      43.187  27.687  27.266  1.00  0.00     0.049 A 
ATOM     53  H   UNL A   1      45.245  27.925  27.047  1.00  0.00     0.167 HD
ATOM     54  C   UNL A   1      49.595  28.304  26.376  1.00  0.00     0.034 A 
ATOM     55  C   UNL A   1      42.712  28.848  27.765  1.00  0.00     0.034 A 
ATOM     56  C   UNL A   1      49.174  29.583  26.883  1.00  0.00     0.049 A 
ATOM     57  C   UNL A   1      43.686  29.978  28.030  1.00  0.00     0.074 A 
ATOM     58  C   UNL A   1      49.937  30.715  27.113  1.00  0.00     0.029 A 
ATOM     59  N   UNL A   1      47.871  29.903  27.244  1.00  0.00    -0.354 N 
ATOM     60  N   UNL A   1      44.981  30.030  27.808  1.00  0.00    -0.248 NA
ATOM     61  C   UNL A   1      43.130  31.213  28.598  1.00  0.00     0.031 C 
ATOM     62  C   UNL A   1      49.110  31.694  27.671  1.00  0.00     0.029 A 
ATOM     63  C   UNL A   1      47.813  31.208  27.704  1.00  0.00     0.049 A 
ATOM     64  H   UNL A   1      47.102  29.291  27.181  1.00  0.00     0.167 HD
ATOM     65  C   UNL A   1      45.375  31.323  28.151  1.00  0.00     0.074 A 
ATOM     66  C   UNL A   1      44.181  32.017  28.584  1.00  0.00     0.031 C 
ATOM     67  C   UNL A   1      46.608  31.892  28.109  1.00  0.00     0.034 A 
BRANCH  54  68
ATOM     68  C   UNL A   1      51.041  28.101  26.002  1.00  0.00     0.023 A 
ATOM     69  C   UNL A   1      52.022  27.828  26.972  1.00  0.00     0.031 A 
ATOM     70  C   UNL A   1      51.451  28.208  24.661  1.00  0.00     0.131 A 
ATOM     71  C   UNL A   1      53.370  27.729  26.595  1.00  0.00     0.055 A 
ATOM     72  C   UNL A   1      52.782  28.027  24.283  1.00  0.00     0.041 A 
ATOM     73  F   UNL A   1      50.564  28.499  23.697  1.00  0.00    -0.206 F 
ATOM     74  C   UNL A   1      53.752  27.797  25.254  1.00  0.00     0.022 A 
BRANCH  71  75
ATOM     75  S   UNL A   1      54.630  27.641  27.897  1.00  0.00     0.124 S 
ATOM     76  O   UNL A   1      53.916  26.923  28.950  1.00  0.00    -0.237 OA
ATOM     77  O   UNL A   1      55.709  26.909  27.244  1.00  0.00    -0.237 OA
ATOM     78  O   UNL A   1      54.916  29.043  28.192  1.00  0.00    -0.744 OA
ENDBRANCH  71  75
ENDBRANCH  54  68
BRANCH  55  79
ATOM     79  C   UNL A   1      41.264  29.017  28.093  1.00  0.00     0.023 A 
ATOM     80  C   UNL A   1      40.800  28.895  29.414  1.00  0.00     0.031 A 
ATOM     81  C   UNL A   1      40.304  29.177  27.077  1.00  0.00     0.131 A 
ATOM     82  C   UNL A   1      39.421  28.842  29.672  1.00  0.00     0.055 A 
ATOM     83  C   UNL A   1      38.935  29.202  27.348  1.00  0.00     0.041 A 
ATOM     84  F   UNL A   1      40.684  29.291  25.794  1.00  0.00    -0.206 F 
ATOM     85  C   UNL A   1      38.486  29.009  28.650  1.00  0.00     0.022 A 
BRANCH  82  86
ATOM     86  S   UNL A   1      38.870  28.391  31.342  1.00  0.00     0.124 S 
ATOM     87  O   UNL A   1      37.719  29.269  31.518  1.00  0.00    -0.237 OA
ATOM     88  O   UNL A   1      38.577  26.970  31.189  1.00  0.00    -0.237 OA
ATOM     89  O   UNL A   1      40.027  28.702  32.178  1.00  0.00    -0.744 OA
ENDBRANCH  82  86
ENDBRANCH  55  79
BRANCH  67  90
ATOM     90  C   UNL A   1      46.706  33.362  28.444  1.00  0.00     0.023 A 
ATOM     91  C   UNL A   1      46.934  33.821  29.752  1.00  0.00     0.031 A 
ATOM     92  C   UNL A   1      46.541  34.323  27.428  1.00  0.00     0.131 A 
ATOM     93  C   UNL A   1      46.911  35.198  30.024  1.00  0.00     0.055 A 
ATOM     94  C   UNL A   1      46.598  35.692  27.692  1.00  0.00     0.041 A 
ATOM     95  F   UNL A   1      46.320  33.946  26.159  1.00  0.00    -0.206 F 
ATOM     96  C   UNL A   1      46.763  36.136  28.999  1.00  0.00     0.022 A 
BRANCH  93  97
ATOM     97  S   UNL A   1      46.945  35.745  31.754  1.00  0.00     0.124 S 
ATOM     98  O   UNL A   1      46.175  34.699  32.418  1.00  0.00    -0.237 OA
ATOM     99  O   UNL A   1      48.375  35.764  32.045  1.00  0.00    -0.237 OA
ATOM    100  O   UNL A   1      46.303  37.057  31.711  1.00  0.00    -0.744 OA
ENDBRANCH  93  97
ENDBRANCH  67  90
ENDBRANCH  41  42
ENDBRANCH  34  36
ENDBRANCH  33  34
ENDBRANCH  32  33
ENDBRANCH  31  32
ENDBRANCH  30  31
ENDBRANCH  29  30
ENDBRANCH  28  29
ENDBRANCH  27  28
ENDBRANCH   1  27
TORSDOF 28
ENDMDL
MODEL 3
REMARK VINA RESULT:      -8.4      2.639      3.476
REMARK SMILES C[C@H](NC(=O)N(CC(=O)OCCOCCOCCOCCOC(=O)c1ccc(-c2c3nc(c(-c4cc(S(=O)(=O)[O-])ccc4F)c4ccc([nH]4)c(-c4cc(S(=O)(=O)[O-])ccc4F)c4nc(c(-c5cc(S(=O)(=O)[O-])ccc5F)c5ccc2[nH]5)C=C4)C=C3)cc1)C(C)(C)C)c1nncn1C
REMARK SMILES IDX 15 1 14 2 13 3 12 4 11 5 10 6 8 7 9 8 7 9 6 10 4 11 3 12
REMARK SMILES IDX 5 14 2 15 1 16 92 17 93 18 96 19 94 20 95 21 97 22 88 23
REMARK SMILES IDX 89 24 90 25 91 26 16 27 17 28 18 29 19 30 20 31 21 32 22 33
REMARK SMILES IDX 23 34 24 35 25 36 26 37 87 38 27 39 86 40 28 41 29 42 30 43
REMARK SMILES IDX 80 44 31 45 85 46 79 47 81 48 32 49 84 50 78 51 77 52 33 54
REMARK SMILES IDX 65 55 45 56 64 57 46 58 49 59 63 60 82 61 47 62 48 63 62 65
REMARK SMILES IDX 83 66 50 67 34 68 35 69 43 70 36 71 42 72 44 73 41 74 37 75
REMARK SMILES IDX 38 76 39 77 40 78 66 79 67 80 75 81 68 82 74 83 76 84 73 85
REMARK SMILES IDX 69 86 70 87 71 88 72 89 51 90 52 91 60 92 53 93 59 94 61 95
REMARK SMILES IDX 58 96 54 97 55 98 56 99 57 100
REMARK H PARENT 3 13 81 53 49 64
REMARK Flexibility Score: inf
ROOT
ATOM      1  C   UNL A   1      31.151  26.930  21.876  1.00  0.00     0.188 C 
ENDROOT
BRANCH   1   2
ATOM      2  C   UNL A   1      32.649  26.870  22.229  1.00  0.00     0.188 C 
BRANCH   2   3
ATOM      3  O   UNL A   1      33.581  26.162  21.411  1.00  0.00    -0.376 OA
BRANCH   3   4
ATOM      4  C   UNL A   1      33.627  24.745  21.487  1.00  0.00     0.202 C 
BRANCH   4   5
ATOM      5  C   UNL A   1      32.573  24.115  22.422  1.00  0.00     0.261 C 
BRANCH   5   6
ATOM      6  O   UNL A   1      33.006  22.946  23.168  1.00  0.00    -0.462 OA
BRANCH   6   7
ATOM      7  C   UNL A   1      32.236  21.832  23.085  1.00  0.00     0.325 C 
ATOM      8  O   UNL A   1      31.822  21.366  22.024  1.00  0.00    -0.250 OA
BRANCH   7   9
ATOM      9  C   UNL A   1      32.065  21.022  24.414  1.00  0.00     0.244 C 
BRANCH   9  10
ATOM     10  N   UNL A   1      33.103  20.241  25.140  1.00  0.00    -0.309 N 
BRANCH  10  11
ATOM     11  C   UNL A   1      33.737  20.707  26.284  1.00  0.00     0.318 C 
ATOM     12  N   UNL A   1      35.002  21.184  26.257  1.00  0.00    -0.328 N 
ATOM     13  H   UNL A   1      35.430  21.237  27.143  1.00  0.00     0.166 HD
ATOM     14  O   UNL A   1      33.164  20.787  27.373  1.00  0.00    -0.249 OA
BRANCH  12  15
ATOM     15  C   UNL A   1      35.841  21.630  25.170  1.00  0.00     0.149 C 
ATOM     16  C   UNL A   1      35.290  22.884  24.492  1.00  0.00     0.040 C 
BRANCH  15  17
ATOM     17  C   UNL A   1      37.247  21.857  25.608  1.00  0.00     0.154 A 
ATOM     18  N   UNL A   1      37.787  22.957  26.094  1.00  0.00    -0.133 NA
ATOM     19  N   UNL A   1      38.233  20.911  25.466  1.00  0.00    -0.319 N 
ATOM     20  N   UNL A   1      39.138  22.732  26.251  1.00  0.00    -0.139 NA
ATOM     21  C   UNL A   1      39.388  21.504  25.863  1.00  0.00     0.225 A 
ATOM     22  C   UNL A   1      38.088  19.575  24.951  1.00  0.00     0.152 C 
ENDBRANCH  15  17
ENDBRANCH  12  15
ENDBRANCH  10  11
BRANCH  10  23
ATOM     23  C   UNL A   1      33.387  18.785  24.752  1.00  0.00     0.037 C 
ATOM     24  C   UNL A   1      34.909  18.519  24.633  1.00  0.00     0.034 C 
ATOM     25  C   UNL A   1      32.820  17.805  25.818  1.00  0.00     0.034 C 
ATOM     26  C   UNL A   1      32.697  18.314  23.442  1.00  0.00     0.034 C 
ENDBRANCH  10  23
ENDBRANCH   9  10
ENDBRANCH   7   9
ENDBRANCH   6   7
ENDBRANCH   5   6
ENDBRANCH   4   5
ENDBRANCH   3   4
ENDBRANCH   2   3
ENDBRANCH   1   2
BRANCH   1  27
ATOM     27  O   UNL A   1      30.369  27.590  22.848  1.00  0.00    -0.377 OA
BRANCH  27  28
ATOM     28  C   UNL A   1      29.965  28.897  22.495  1.00  0.00     0.188 C 
BRANCH  28  29
ATOM     29  C   UNL A   1      29.779  29.837  23.699  1.00  0.00     0.188 C 
BRANCH  29  30
ATOM     30  O   UNL A   1      30.789  29.664  24.684  1.00  0.00    -0.376 OA
BRANCH  30  31
ATOM     31  C   UNL A   1      31.278  30.754  25.441  1.00  0.00     0.202 C 
BRANCH  31  32
ATOM     32  C   UNL A   1      32.053  30.578  26.760  1.00  0.00     0.261 C 
BRANCH  32  33
ATOM     33  O   UNL A   1      33.468  30.768  26.740  1.00  0.00    -0.460 OA
BRANCH  33  34
ATOM     34  C   UNL A   1      33.941  31.754  27.540  1.00  0.00     0.338 C 
ATOM     35  O   UNL A   1      33.323  32.724  27.919  1.00  0.00    -0.246 OA
BRANCH  34  36
ATOM     36  C   UNL A   1      35.264  31.338  28.065  1.00  0.00     0.060 A 
ATOM     37  C   UNL A   1      35.418  30.001  28.453  1.00  0.00     0.016 A 
ATOM     38  C   UNL A   1      36.330  32.235  28.181  1.00  0.00     0.016 A 
ATOM     39  C   UNL A   1      36.621  29.562  28.995  1.00  0.00     0.010 A 
ATOM     40  C   UNL A   1      37.525  31.805  28.775  1.00  0.00     0.010 A 
ATOM     41  C   UNL A   1      37.653  30.478  29.227  1.00  0.00    -0.014 A 
BRANCH  41  42
ATOM     42  C   UNL A   1      38.690  30.109  30.222  1.00  0.00     0.031 A 
ATOM     43  C   UNL A   1      39.757  29.144  29.774  1.00  0.00     0.074 A 
ATOM     44  C   UNL A   1      38.759  30.691  31.432  1.00  0.00     0.049 A 
ATOM     45  N   UNL A   1      40.781  28.665  30.429  1.00  0.00    -0.248 NA
ATOM     46  C   UNL A   1      39.656  28.661  28.385  1.00  0.00     0.031 C 
ATOM     47  C   UNL A   1      37.837  31.707  31.939  1.00  0.00     0.029 A 
ATOM     48  N   UNL A   1      39.661  30.518  32.453  1.00  0.00    -0.354 N 
ATOM     49  C   UNL A   1      41.451  27.841  29.530  1.00  0.00     0.074 A 
ATOM     50  C   UNL A   1      40.690  27.842  28.303  1.00  0.00     0.031 C 
ATOM     51  C   UNL A   1      38.219  32.061  33.180  1.00  0.00     0.029 A 
ATOM     52  C   UNL A   1      39.389  31.274  33.569  1.00  0.00     0.049 A 
ATOM     53  H   UNL A   1      40.431  29.908  32.391  1.00  0.00     0.167 HD
ATOM     54  C   UNL A   1      42.608  27.158  29.705  1.00  0.00     0.034 A 
ATOM     55  C   UNL A   1      40.007  31.305  34.768  1.00  0.00     0.034 A 
ATOM     56  C   UNL A   1      43.343  27.145  30.942  1.00  0.00     0.049 A 
ATOM     57  C   UNL A   1      41.220  30.423  34.984  1.00  0.00     0.074 A 
ATOM     58  C   UNL A   1      44.494  26.443  31.255  1.00  0.00     0.029 A 
ATOM     59  N   UNL A   1      42.996  27.867  32.077  1.00  0.00    -0.354 N 
ATOM     60  N   UNL A   1      41.825  29.619  34.138  1.00  0.00    -0.248 NA
ATOM     61  C   UNL A   1      41.844  30.468  36.312  1.00  0.00     0.031 C 
ATOM     62  C   UNL A   1      44.806  26.690  32.596  1.00  0.00     0.029 A 
ATOM     63  C   UNL A   1      43.904  27.618  33.093  1.00  0.00     0.049 A 
ATOM     64  H   UNL A   1      42.220  28.468  32.149  1.00  0.00     0.167 HD
ATOM     65  C   UNL A   1      42.934  29.116  34.818  1.00  0.00     0.074 A 
ATOM     66  C   UNL A   1      42.917  29.714  36.135  1.00  0.00     0.031 C 
ATOM     67  C   UNL A   1      43.886  28.243  34.394  1.00  0.00     0.034 A 
BRANCH  54  68
ATOM     68  C   UNL A   1      43.111  26.342  28.542  1.00  0.00     0.023 A 
ATOM     69  C   UNL A   1      44.189  26.776  27.748  1.00  0.00     0.031 A 
ATOM     70  C   UNL A   1      42.490  25.128  28.203  1.00  0.00     0.131 A 
ATOM     71  C   UNL A   1      44.574  26.031  26.624  1.00  0.00     0.055 A 
ATOM     72  C   UNL A   1      42.931  24.350  27.130  1.00  0.00     0.041 A 
ATOM     73  F   UNL A   1      41.437  24.680  28.904  1.00  0.00    -0.206 F 
ATOM     74  C   UNL A   1      43.972  24.807  26.327  1.00  0.00     0.022 A 
BRANCH  71  75
ATOM     75  S   UNL A   1      45.785  26.750  25.480  1.00  0.00     0.124 S 
ATOM     76  O   UNL A   1      46.820  27.214  26.401  1.00  0.00    -0.237 OA
ATOM     77  O   UNL A   1      46.141  25.613  24.641  1.00  0.00    -0.237 OA
ATOM     78  O   UNL A   1      45.035  27.811  24.810  1.00  0.00    -0.744 OA
ENDBRANCH  71  75
ENDBRANCH  54  68
BRANCH  55  79
ATOM     79  C   UNL A   1      39.492  32.154  35.886  1.00  0.00     0.023 A 
ATOM     80  C   UNL A   1      40.043  33.418  36.150  1.00  0.00     0.031 A 
ATOM     81  C   UNL A   1      38.529  31.661  36.786  1.00  0.00     0.131 A 
ATOM     82  C   UNL A   1      39.699  34.103  37.326  1.00  0.00     0.055 A 
ATOM     83  C   UNL A   1      38.132  32.381  37.913  1.00  0.00     0.041 A 
ATOM     84  F   UNL A   1      37.971  30.455  36.592  1.00  0.00    -0.206 F 
ATOM     85  C   UNL A   1      38.736  33.600  38.202  1.00  0.00     0.022 A 
BRANCH  82  86
ATOM     86  S   UNL A   1      40.647  35.585  37.774  1.00  0.00     0.124 S 
ATOM     87  O   UNL A   1      40.738  35.449  39.223  1.00  0.00    -0.237 OA
ATOM     88  O   UNL A   1      41.887  35.387  37.031  1.00  0.00    -0.237 OA
ATOM     89  O   UNL A   1      39.806  36.683  37.301  1.00  0.00    -0.744 OA
ENDBRANCH  82  86
ENDBRANCH  55  79
BRANCH  67  90
ATOM     90  C   UNL A   1      45.039  27.966  35.331  1.00  0.00     0.023 A 
ATOM     91  C   UNL A   1      46.179  28.786  35.382  1.00  0.00     0.031 A 
ATOM     92  C   UNL A   1      45.000  26.839  36.173  1.00  0.00     0.131 A 
ATOM     93  C   UNL A   1      47.264  28.423  36.195  1.00  0.00     0.055 A 
ATOM     94  C   UNL A   1      46.050  26.527  37.038  1.00  0.00     0.041 A 
ATOM     95  F   UNL A   1      43.937  26.018  36.169  1.00  0.00    -0.206 F 
ATOM     96  C   UNL A   1      47.199  27.310  37.036  1.00  0.00     0.022 A 
BRANCH  93  97
ATOM     97  S   UNL A   1      48.816  29.352  36.040  1.00  0.00     0.124 S 
ATOM     98  O   UNL A   1      49.810  28.285  36.053  1.00  0.00    -0.237 OA
ATOM     99  O   UNL A   1      48.638  30.042  34.767  1.00  0.00    -0.237 OA
ATOM    100  O   UNL A   1      48.817  30.216  37.219  1.00  0.00    -0.744 OA
ENDBRANCH  93  97
ENDBRANCH  67  90
ENDBRANCH  41  42
ENDBRANCH  34  36
ENDBRANCH  33  34
ENDBRANCH  32  33
ENDBRANCH  31  32
ENDBRANCH  30  31
ENDBRANCH  29  30
ENDBRANCH  28  29
ENDBRANCH  27  28
ENDBRANCH   1  27
TORSDOF 28
ENDMDL
