MODEL 1
REMARK VINA RESULT:      -8.8      0.000      0.000
REMARK SMILES CCc1cc([C@H]([NH3+])C(=O)OCCOCCOCCOCCOC(=O)c2ccc(-c3c4nc(c(-c5cc(S(=O)(=O)[O-])ccc5F)c5ccc([nH]5)c(-c5cc(S(=O)(=O)[O-])ccc5F)c5nc(c(-c6cc(S(=O)(=O)[O-])ccc6F)c6ccc3[nH]6)C=C5)C=C4)cc2)cc(CC)c1N
REMARK SMILES IDX 17 1 16 2 15 3 14 4 13 5 12 6 11 7 10 8 8 9 9 10 6 11 5 12
REMARK SMILES IDX 3 13 4 14 92 15 89 16 88 17 2 18 1 19 93 20 90 23 91 24 7 25
REMARK SMILES IDX 18 29 19 30 20 31 21 32 22 33 23 34 24 35 25 36 26 37 87 38
REMARK SMILES IDX 27 39 86 40 28 41 29 42 30 43 80 44 31 45 85 46 79 47 81 48
REMARK SMILES IDX 32 49 84 50 78 51 77 52 33 54 65 55 45 56 64 57 46 58 49 59
REMARK SMILES IDX 63 60 82 61 47 62 48 63 62 65 83 66 50 67 34 68 35 69 43 70
REMARK SMILES IDX 36 71 42 72 44 73 41 74 37 75 38 76 39 77 40 78 66 79 67 80
REMARK SMILES IDX 75 81 68 82 74 83 76 84 73 85 69 86 70 87 71 88 72 89 51 90
REMARK SMILES IDX 52 91 60 92 53 93 59 94 61 95 58 96 54 97 55 98 56 99 57 100
REMARK H PARENT 93 21 93 22 7 26 7 27 7 28 81 53 49 64
REMARK Flexibility Score: inf
ROOT
ATOM      1  C   UNL A   1      35.620  31.609  28.172  1.00  0.00     0.188 C 
ENDROOT
BRANCH   1   2
ATOM      2  O   UNL A   1      34.636  30.589  28.103  1.00  0.00    -0.377 OA
BRANCH   2   3
ATOM      3  C   UNL A   1      34.912  29.500  27.251  1.00  0.00     0.188 C 
BRANCH   3   4
ATOM      4  C   UNL A   1      33.888  29.287  26.125  1.00  0.00     0.188 C 
BRANCH   4   5
ATOM      5  O   UNL A   1      32.705  28.516  26.295  1.00  0.00    -0.376 OA
BRANCH   5   6
ATOM      6  C   UNL A   1      32.542  27.222  25.730  1.00  0.00     0.202 C 
BRANCH   6   7
ATOM      7  C   UNL A   1      31.991  26.038  26.537  1.00  0.00     0.261 C 
BRANCH   7   8
ATOM      8  O   UNL A   1      30.884  25.347  25.954  1.00  0.00    -0.459 OA
BRANCH   8   9
ATOM      9  C   UNL A   1      30.864  24.009  26.164  1.00  0.00     0.369 C 
ATOM     10  O   UNL A   1      30.757  23.485  27.273  1.00  0.00    -0.245 OA
BRANCH   9  11
ATOM     11  C   UNL A   1      31.067  23.174  24.884  1.00  0.00     0.323 C 
BRANCH  11  12
ATOM     12  C   UNL A   1      32.273  22.314  25.100  1.00  0.00     0.021 A 
ATOM     13  C   UNL A   1      34.674  22.071  25.057  1.00  0.00    -0.024 A 
ATOM     14  C   UNL A   1      33.535  22.879  25.072  1.00  0.00     0.016 A 
ATOM     15  C   UNL A   1      34.527  20.654  25.147  1.00  0.00     0.038 A 
ATOM     16  C   UNL A   1      33.234  20.081  25.205  1.00  0.00    -0.024 A 
ATOM     17  C   UNL A   1      32.128  20.930  25.170  1.00  0.00     0.016 A 
BRANCH  13  18
ATOM     18  C   UNL A   1      36.037  22.726  24.911  1.00  0.00     0.034 C 
ATOM     19  C   UNL A   1      36.420  23.219  23.511  1.00  0.00     0.009 C 
ENDBRANCH  13  18
BRANCH  15  20
ATOM     20  N   UNL A   1      35.654  19.844  25.046  1.00  0.00    -0.398 N 
ATOM     21  H   UNL A   1      36.472  20.189  24.622  1.00  0.00     0.156 HD
ATOM     22  H   UNL A   1      35.632  18.925  25.398  1.00  0.00     0.156 HD
ENDBRANCH  15  20
BRANCH  16  23
ATOM     23  C   UNL A   1      32.927  18.595  25.210  1.00  0.00     0.034 C 
ATOM     24  C   UNL A   1      32.370  18.084  23.880  1.00  0.00     0.009 C 
ENDBRANCH  16  23
ENDBRANCH  11  12
BRANCH  11  25
ATOM     25  N   UNL A   1      31.176  23.900  23.603  1.00  0.00    -0.342 N 
ATOM     26  H   UNL A   1      32.159  24.066  23.389  1.00  0.00     0.345 HD
ATOM     27  H   UNL A   1      30.688  24.793  23.675  1.00  0.00     0.345 HD
ATOM     28  H   UNL A   1      30.756  23.342  22.859  1.00  0.00     0.345 HD
ENDBRANCH  11  25
ENDBRANCH   9  11
ENDBRANCH   8   9
ENDBRANCH   7   8
ENDBRANCH   6   7
ENDBRANCH   5   6
ENDBRANCH   4   5
ENDBRANCH   3   4
ENDBRANCH   2   3
ENDBRANCH   1   2
BRANCH   1  29
ATOM     29  C   UNL A   1      35.218  32.936  28.850  1.00  0.00     0.188 C 
BRANCH  29  30
ATOM     30  O   UNL A   1      34.359  33.759  28.069  1.00  0.00    -0.376 OA
BRANCH  30  31
ATOM     31  C   UNL A   1      34.204  35.124  28.432  1.00  0.00     0.202 C 
BRANCH  31  32
ATOM     32  C   UNL A   1      33.063  35.501  29.394  1.00  0.00     0.261 C 
BRANCH  32  33
ATOM     33  O   UNL A   1      33.435  36.123  30.633  1.00  0.00    -0.460 OA
BRANCH  33  34
ATOM     34  C   UNL A   1      33.013  35.556  31.783  1.00  0.00     0.338 C 
ATOM     35  O   UNL A   1      31.860  35.465  32.170  1.00  0.00    -0.246 OA
BRANCH  34  36
ATOM     36  C   UNL A   1      34.170  34.866  32.395  1.00  0.00     0.060 A 
ATOM     37  C   UNL A   1      35.461  35.357  32.151  1.00  0.00     0.016 A 
ATOM     38  C   UNL A   1      33.986  33.754  33.221  1.00  0.00     0.016 A 
ATOM     39  C   UNL A   1      36.570  34.723  32.709  1.00  0.00     0.010 A 
ATOM     40  C   UNL A   1      35.101  33.100  33.753  1.00  0.00     0.010 A 
ATOM     41  C   UNL A   1      36.400  33.564  33.476  1.00  0.00    -0.014 A 
BRANCH  41  42
ATOM     42  C   UNL A   1      37.577  32.724  33.812  1.00  0.00     0.031 A 
ATOM     43  C   UNL A   1      38.360  33.064  35.050  1.00  0.00     0.074 A 
ATOM     44  C   UNL A   1      37.932  31.673  33.052  1.00  0.00     0.049 A 
ATOM     45  N   UNL A   1      39.466  32.540  35.507  1.00  0.00    -0.248 NA
ATOM     46  C   UNL A   1      37.817  34.150  35.882  1.00  0.00     0.031 C 
ATOM     47  C   UNL A   1      37.214  31.205  31.867  1.00  0.00     0.029 A 
ATOM     48  N   UNL A   1      38.998  30.814  33.161  1.00  0.00    -0.354 N 
ATOM     49  C   UNL A   1      39.757  33.234  36.677  1.00  0.00     0.074 A 
ATOM     50  C   UNL A   1      38.729  34.241  36.837  1.00  0.00     0.031 C 
ATOM     51  C   UNL A   1      37.869  30.152  31.350  1.00  0.00     0.029 A 
ATOM     52  C   UNL A   1      39.078  29.900  32.135  1.00  0.00     0.049 A 
ATOM     53  H   UNL A   1      39.643  30.849  33.903  1.00  0.00     0.167 HD
ATOM     54  C   UNL A   1      40.786  33.047  37.539  1.00  0.00     0.034 A 
ATOM     55  C   UNL A   1      40.035  28.993  31.847  1.00  0.00     0.034 A 
ATOM     56  C   UNL A   1      41.812  32.052  37.354  1.00  0.00     0.049 A 
ATOM     57  C   UNL A   1      41.236  28.881  32.759  1.00  0.00     0.074 A 
ATOM     58  C   UNL A   1      42.895  31.770  38.168  1.00  0.00     0.029 A 
ATOM     59  N   UNL A   1      41.896  31.185  36.271  1.00  0.00    -0.354 N 
ATOM     60  N   UNL A   1      41.504  29.543  33.862  1.00  0.00    -0.248 NA
ATOM     61  C   UNL A   1      42.261  27.897  32.388  1.00  0.00     0.031 C 
ATOM     62  C   UNL A   1      43.678  30.797  37.536  1.00  0.00     0.029 A 
ATOM     63  C   UNL A   1      43.035  30.400  36.374  1.00  0.00     0.049 A 
ATOM     64  H   UNL A   1      41.241  31.135  35.537  1.00  0.00     0.167 HD
ATOM     65  C   UNL A   1      42.714  29.030  34.330  1.00  0.00     0.074 A 
ATOM     66  C   UNL A   1      43.111  27.994  33.400  1.00  0.00     0.031 C 
ATOM     67  C   UNL A   1      43.428  29.379  35.431  1.00  0.00     0.034 A 
BRANCH  54  68
ATOM     68  C   UNL A   1      40.881  33.983  38.720  1.00  0.00     0.023 A 
ATOM     69  C   UNL A   1      40.169  33.753  39.910  1.00  0.00     0.031 A 
ATOM     70  C   UNL A   1      41.674  35.142  38.642  1.00  0.00     0.131 A 
ATOM     71  C   UNL A   1      40.208  34.700  40.944  1.00  0.00     0.055 A 
ATOM     72  C   UNL A   1      41.775  36.038  39.707  1.00  0.00     0.041 A 
ATOM     73  F   UNL A   1      42.354  35.431  37.522  1.00  0.00    -0.206 F 
ATOM     74  C   UNL A   1      41.028  35.828  40.862  1.00  0.00     0.022 A 
BRANCH  71  75
ATOM     75  S   UNL A   1      39.057  34.517  42.334  1.00  0.00     0.124 S 
ATOM     76  O   UNL A   1      38.822  35.910  42.707  1.00  0.00    -0.237 OA
ATOM     77  O   UNL A   1      37.932  33.821  41.722  1.00  0.00    -0.237 OA
ATOM     78  O   UNL A   1      39.817  33.740  43.309  1.00  0.00    -0.744 OA
ENDBRANCH  71  75
ENDBRANCH  54  68
BRANCH  55  79
ATOM     79  C   UNL A   1      39.942  28.156  30.614  1.00  0.00     0.023 A 
ATOM     80  C   UNL A   1      40.639  28.499  29.445  1.00  0.00     0.031 A 
ATOM     81  C   UNL A   1      39.093  27.034  30.566  1.00  0.00     0.131 A 
ATOM     82  C   UNL A   1      40.438  27.761  28.267  1.00  0.00     0.055 A 
ATOM     83  C   UNL A   1      38.944  26.266  29.410  1.00  0.00     0.041 A 
ATOM     84  F   UNL A   1      38.392  26.664  31.651  1.00  0.00    -0.206 F 
ATOM     85  C   UNL A   1      39.610  26.638  28.247  1.00  0.00     0.022 A 
BRANCH  82  86
ATOM     86  S   UNL A   1      41.199  28.353  26.731  1.00  0.00     0.124 S 
ATOM     87  O   UNL A   1      41.366  27.112  25.985  1.00  0.00    -0.237 OA
ATOM     88  O   UNL A   1      40.187  29.275  26.226  1.00  0.00    -0.237 OA
ATOM     89  O   UNL A   1      42.439  28.981  27.185  1.00  0.00    -0.744 OA
ENDBRANCH  82  86
ENDBRANCH  55  79
BRANCH  67  90
ATOM     90  C   UNL A   1      44.693  28.600  35.711  1.00  0.00     0.023 A 
ATOM     91  C   UNL A   1      44.690  27.433  36.495  1.00  0.00     0.031 A 
ATOM     92  C   UNL A   1      45.924  29.038  35.186  1.00  0.00     0.131 A 
ATOM     93  C   UNL A   1      45.898  26.779  36.782  1.00  0.00     0.055 A 
ATOM     94  C   UNL A   1      47.113  28.342  35.417  1.00  0.00     0.041 A 
ATOM     95  F   UNL A   1      45.991  30.147  34.435  1.00  0.00    -0.206 F 
ATOM     96  C   UNL A   1      47.107  27.214  36.231  1.00  0.00     0.022 A 
BRANCH  93  97
ATOM     97  S   UNL A   1      45.887  25.409  37.971  1.00  0.00     0.124 S 
ATOM     98  O   UNL A   1      45.013  25.925  39.019  1.00  0.00    -0.237 OA
ATOM     99  O   UNL A   1      45.348  24.310  37.176  1.00  0.00    -0.237 OA
ATOM    100  O   UNL A   1      47.292  25.270  38.347  1.00  0.00    -0.744 OA
ENDBRANCH  93  97
ENDBRANCH  67  90
ENDBRANCH  41  42
ENDBRANCH  34  36
ENDBRANCH  33  34
ENDBRANCH  32  33
ENDBRANCH  31  32
ENDBRANCH  30  31
ENDBRANCH  29  30
ENDBRANCH   1  29
TORSDOF 28
ENDMDL
MODEL 2
REMARK VINA RESULT:      -8.4      8.410     11.120
REMARK SMILES CCc1cc([C@H]([NH3+])C(=O)OCCOCCOCCOCCOC(=O)c2ccc(-c3c4nc(c(-c5cc(S(=O)(=O)[O-])ccc5F)c5ccc([nH]5)c(-c5cc(S(=O)(=O)[O-])ccc5F)c5nc(c(-c6cc(S(=O)(=O)[O-])ccc6F)c6ccc3[nH]6)C=C5)C=C4)cc2)cc(CC)c1N
REMARK SMILES IDX 17 1 16 2 15 3 14 4 13 5 12 6 11 7 10 8 8 9 9 10 6 11 5 12
REMARK SMILES IDX 3 13 4 14 92 15 89 16 88 17 2 18 1 19 93 20 90 23 91 24 7 25
REMARK SMILES IDX 18 29 19 30 20 31 21 32 22 33 23 34 24 35 25 36 26 37 87 38
REMARK SMILES IDX 27 39 86 40 28 41 29 42 30 43 80 44 31 45 85 46 79 47 81 48
REMARK SMILES IDX 32 49 84 50 78 51 77 52 33 54 65 55 45 56 64 57 46 58 49 59
REMARK SMILES IDX 63 60 82 61 47 62 48 63 62 65 83 66 50 67 34 68 35 69 43 70
REMARK SMILES IDX 36 71 42 72 44 73 41 74 37 75 38 76 39 77 40 78 66 79 67 80
REMARK SMILES IDX 75 81 68 82 74 83 76 84 73 85 69 86 70 87 71 88 72 89 51 90
REMARK SMILES IDX 52 91 60 92 53 93 59 94 61 95 58 96 54 97 55 98 56 99 57 100
REMARK H PARENT 93 21 93 22 7 26 7 27 7 28 81 53 49 64
REMARK Flexibility Score: inf
ROOT
ATOM      1  C   UNL A   1      34.618  31.336  27.649  1.00  0.00     0.188 C 
ENDROOT
BRANCH   1   2
ATOM      2  O   UNL A   1      33.893  30.117  27.614  1.00  0.00    -0.377 OA
BRANCH   2   3
ATOM      3  C   UNL A   1      32.679  30.123  26.899  1.00  0.00     0.188 C 
BRANCH   3   4
ATOM      4  C   UNL A   1      31.756  28.927  27.185  1.00  0.00     0.188 C 
BRANCH   4   5
ATOM      5  O   UNL A   1      32.100  27.589  26.846  1.00  0.00    -0.376 OA
BRANCH   5   6
ATOM      6  C   UNL A   1      31.766  27.003  25.596  1.00  0.00     0.202 C 
BRANCH   6   7
ATOM      7  C   UNL A   1      32.231  25.594  25.201  1.00  0.00     0.261 C 
BRANCH   7   8
ATOM      8  O   UNL A   1      31.324  24.841  24.394  1.00  0.00    -0.459 OA
BRANCH   8   9
ATOM      9  C   UNL A   1      31.292  23.511  24.649  1.00  0.00     0.369 C 
ATOM     10  O   UNL A   1      30.906  23.020  25.710  1.00  0.00    -0.245 OA
BRANCH   9  11
ATOM     11  C   UNL A   1      31.859  22.643  23.508  1.00  0.00     0.323 C 
BRANCH  11  12
ATOM     12  C   UNL A   1      32.963  21.815  24.087  1.00  0.00     0.021 A 
ATOM     13  C   UNL A   1      35.284  21.612  24.720  1.00  0.00    -0.024 A 
ATOM     14  C   UNL A   1      34.181  22.399  24.385  1.00  0.00     0.016 A 
ATOM     15  C   UNL A   1      35.125  20.198  24.829  1.00  0.00     0.038 A 
ATOM     16  C   UNL A   1      33.870  19.604  24.552  1.00  0.00    -0.024 A 
ATOM     17  C   UNL A   1      32.813  20.431  24.175  1.00  0.00     0.016 A 
BRANCH  13  18
ATOM     18  C   UNL A   1      36.630  22.285  24.928  1.00  0.00     0.034 C 
ATOM     19  C   UNL A   1      36.612  23.706  25.500  1.00  0.00     0.009 C 
ENDBRANCH  13  18
BRANCH  15  20
ATOM     20  N   UNL A   1      36.241  19.404  25.079  1.00  0.00    -0.398 N 
ATOM     21  H   UNL A   1      36.127  18.469  25.363  1.00  0.00     0.156 HD
ATOM     22  H   UNL A   1      37.146  19.780  24.973  1.00  0.00     0.156 HD
ENDBRANCH  15  20
BRANCH  16  23
ATOM     23  C   UNL A   1      33.583  18.115  24.538  1.00  0.00     0.034 C 
ATOM     24  C   UNL A   1      33.333  17.557  23.135  1.00  0.00     0.009 C 
ENDBRANCH  16  23
ENDBRANCH  11  12
BRANCH  11  25
ATOM     25  N   UNL A   1      32.321  23.334  22.287  1.00  0.00    -0.342 N 
ATOM     26  H   UNL A   1      32.736  22.654  21.649  1.00  0.00     0.345 HD
ATOM     27  H   UNL A   1      33.017  24.036  22.535  1.00  0.00     0.345 HD
ATOM     28  H   UNL A   1      31.528  23.786  21.832  1.00  0.00     0.345 HD
ENDBRANCH  11  25
ENDBRANCH   9  11
ENDBRANCH   8   9
ENDBRANCH   7   8
ENDBRANCH   6   7
ENDBRANCH   5   6
ENDBRANCH   4   5
ENDBRANCH   3   4
ENDBRANCH   2   3
ENDBRANCH   1   2
BRANCH   1  29
ATOM     29  C   UNL A   1      34.751  32.042  29.015  1.00  0.00     0.188 C 
BRANCH  29  30
ATOM     30  O   UNL A   1      34.126  33.318  29.081  1.00  0.00    -0.376 OA
BRANCH  30  31
ATOM     31  C   UNL A   1      34.682  34.309  29.933  1.00  0.00     0.202 C 
BRANCH  31  32
ATOM     32  C   UNL A   1      35.416  33.852  31.207  1.00  0.00     0.261 C 
BRANCH  32  33
ATOM     33  O   UNL A   1      36.831  33.629  31.098  1.00  0.00    -0.460 OA
BRANCH  33  34
ATOM     34  C   UNL A   1      37.662  34.495  31.715  1.00  0.00     0.338 C 
ATOM     35  O   UNL A   1      37.470  35.054  32.781  1.00  0.00    -0.246 OA
BRANCH  34  36
ATOM     36  C   UNL A   1      38.947  34.483  30.982  1.00  0.00     0.060 A 
ATOM     37  C   UNL A   1      40.138  34.308  31.703  1.00  0.00     0.016 A 
ATOM     38  C   UNL A   1      38.981  34.624  29.593  1.00  0.00     0.016 A 
ATOM     39  C   UNL A   1      41.365  34.300  31.039  1.00  0.00     0.010 A 
ATOM     40  C   UNL A   1      40.214  34.648  28.933  1.00  0.00     0.010 A 
ATOM     41  C   UNL A   1      41.413  34.515  29.656  1.00  0.00    -0.014 A 
BRANCH  41  42
ATOM     42  C   UNL A   1      42.712  34.808  29.002  1.00  0.00     0.031 A 
ATOM     43  C   UNL A   1      43.665  33.666  28.776  1.00  0.00     0.074 A 
ATOM     44  C   UNL A   1      43.034  36.050  28.599  1.00  0.00     0.049 A 
ATOM     45  N   UNL A   1      44.884  33.678  28.306  1.00  0.00    -0.248 NA
ATOM     46  C   UNL A   1      43.170  32.328  29.136  1.00  0.00     0.031 C 
ATOM     47  C   UNL A   1      42.168  37.223  28.703  1.00  0.00     0.029 A 
ATOM     48  N   UNL A   1      44.186  36.531  28.027  1.00  0.00    -0.354 N 
ATOM     49  C   UNL A   1      45.306  32.352  28.318  1.00  0.00     0.074 A 
ATOM     50  C   UNL A   1      44.224  31.571  28.877  1.00  0.00     0.031 C 
ATOM     51  C   UNL A   1      42.826  38.292  28.224  1.00  0.00     0.029 A 
ATOM     52  C   UNL A   1      44.176  37.892  27.826  1.00  0.00     0.049 A 
ATOM     53  H   UNL A   1      44.947  35.956  27.784  1.00  0.00     0.167 HD
ATOM     54  C   UNL A   1      46.487  31.836  27.900  1.00  0.00     0.034 A 
ATOM     55  C   UNL A   1      45.156  38.719  27.405  1.00  0.00     0.034 A 
ATOM     56  C   UNL A   1      47.562  32.632  27.363  1.00  0.00     0.049 A 
ATOM     57  C   UNL A   1      46.506  38.136  27.053  1.00  0.00     0.074 A 
ATOM     58  C   UNL A   1      48.797  32.212  26.901  1.00  0.00     0.029 A 
ATOM     59  N   UNL A   1      47.540  34.016  27.232  1.00  0.00    -0.354 N 
ATOM     60  N   UNL A   1      46.897  36.881  27.070  1.00  0.00    -0.248 NA
ATOM     61  C   UNL A   1      47.545  39.081  26.625  1.00  0.00     0.031 C 
ATOM     62  C   UNL A   1      49.551  33.345  26.574  1.00  0.00     0.029 A 
ATOM     63  C   UNL A   1      48.756  34.468  26.739  1.00  0.00     0.049 A 
ATOM     64  H   UNL A   1      46.774  34.591  27.456  1.00  0.00     0.167 HD
ATOM     65  C   UNL A   1      48.218  36.888  26.623  1.00  0.00     0.074 A 
ATOM     66  C   UNL A   1      48.548  38.266  26.329  1.00  0.00     0.031 C 
ATOM     67  C   UNL A   1      49.078  35.849  26.464  1.00  0.00     0.034 A 
BRANCH  54  68
ATOM     68  C   UNL A   1      46.694  30.349  28.069  1.00  0.00     0.023 A 
ATOM     69  C   UNL A   1      46.353  29.431  27.061  1.00  0.00     0.031 A 
ATOM     70  C   UNL A   1      47.212  29.841  29.274  1.00  0.00     0.131 A 
ATOM     71  C   UNL A   1      46.468  28.054  27.300  1.00  0.00     0.055 A 
ATOM     72  C   UNL A   1      47.404  28.473  29.474  1.00  0.00     0.041 A 
ATOM     73  F   UNL A   1      47.528  30.666  30.284  1.00  0.00    -0.206 F 
ATOM     74  C   UNL A   1      47.017  27.569  28.490  1.00  0.00     0.022 A 
BRANCH  71  75
ATOM     75  S   UNL A   1      45.750  26.901  26.098  1.00  0.00     0.124 S 
ATOM     76  O   UNL A   1      46.910  26.086  25.743  1.00  0.00    -0.237 OA
ATOM     77  O   UNL A   1      44.716  26.234  26.879  1.00  0.00    -0.237 OA
ATOM     78  O   UNL A   1      45.264  27.775  25.033  1.00  0.00    -0.744 OA
ENDBRANCH  71  75
ENDBRANCH  54  68
BRANCH  55  79
ATOM     79  C   UNL A   1      44.931  40.194  27.344  1.00  0.00     0.023 A 
ATOM     80  C   UNL A   1      44.538  40.823  26.151  1.00  0.00     0.031 A 
ATOM     81  C   UNL A   1      45.176  41.009  28.465  1.00  0.00     0.131 A 
ATOM     82  C   UNL A   1      44.450  42.223  26.094  1.00  0.00     0.055 A 
ATOM     83  C   UNL A   1      45.028  42.396  28.419  1.00  0.00     0.041 A 
ATOM     84  F   UNL A   1      45.566  40.464  29.629  1.00  0.00    -0.206 F 
ATOM     85  C   UNL A   1      44.675  43.012  27.223  1.00  0.00     0.022 A 
BRANCH  82  86
ATOM     86  S   UNL A   1      44.136  43.008  24.489  1.00  0.00     0.124 S 
ATOM     87  O   UNL A   1      44.541  44.384  24.747  1.00  0.00    -0.237 OA
ATOM     88  O   UNL A   1      45.001  42.240  23.600  1.00  0.00    -0.237 OA
ATOM     89  O   UNL A   1      42.702  42.806  24.287  1.00  0.00    -0.744 OA
ENDBRANCH  82  86
ENDBRANCH  55  79
BRANCH  67  90
ATOM     90  C   UNL A   1      50.448  36.163  25.906  1.00  0.00     0.023 A 
ATOM     91  C   UNL A   1      51.585  36.241  26.728  1.00  0.00     0.031 A 
ATOM     92  C   UNL A   1      50.614  36.391  24.527  1.00  0.00     0.131 A 
ATOM     93  C   UNL A   1      52.825  36.598  26.175  1.00  0.00     0.055 A 
ATOM     94  C   UNL A   1      51.863  36.677  23.972  1.00  0.00     0.041 A 
ATOM     95  F   UNL A   1      49.564  36.335  23.693  1.00  0.00    -0.206 F 
ATOM     96  C   UNL A   1      52.975  36.797  24.800  1.00  0.00     0.022 A 
BRANCH  93  97
ATOM     97  S   UNL A   1      54.222  36.904  27.292  1.00  0.00     0.124 S 
ATOM     98  O   UNL A   1      55.082  37.754  26.475  1.00  0.00    -0.237 OA
ATOM     99  O   UNL A   1      53.577  37.553  28.428  1.00  0.00    -0.237 OA
ATOM    100  O   UNL A   1      54.746  35.565  27.559  1.00  0.00    -0.744 OA
ENDBRANCH  93  97
ENDBRANCH  67  90
ENDBRANCH  41  42
ENDBRANCH  34  36
ENDBRANCH  33  34
ENDBRANCH  32  33
ENDBRANCH  31  32
ENDBRANCH  30  31
ENDBRANCH  29  30
ENDBRANCH   1  29
TORSDOF 28
ENDMDL
MODEL 3
REMARK VINA RESULT:      -8.2      2.103      2.801
REMARK SMILES CCc1cc([C@H]([NH3+])C(=O)OCCOCCOCCOCCOC(=O)c2ccc(-c3c4nc(c(-c5cc(S(=O)(=O)[O-])ccc5F)c5ccc([nH]5)c(-c5cc(S(=O)(=O)[O-])ccc5F)c5nc(c(-c6cc(S(=O)(=O)[O-])ccc6F)c6ccc3[nH]6)C=C5)C=C4)cc2)cc(CC)c1N
REMARK SMILES IDX 17 1 16 2 15 3 14 4 13 5 12 6 11 7 10 8 8 9 9 10 6 11 5 12
REMARK SMILES IDX 3 13 4 14 92 15 89 16 88 17 2 18 1 19 93 20 90 23 91 24 7 25
REMARK SMILES IDX 18 29 19 30 20 31 21 32 22 33 23 34 24 35 25 36 26 37 87 38
REMARK SMILES IDX 27 39 86 40 28 41 29 42 30 43 80 44 31 45 85 46 79 47 81 48
REMARK SMILES IDX 32 49 84 50 78 51 77 52 33 54 65 55 45 56 64 57 46 58 49 59
REMARK SMILES IDX 63 60 82 61 47 62 48 63 62 65 83 66 50 67 34 68 35 69 43 70
REMARK SMILES IDX 36 71 42 72 44 73 41 74 37 75 38 76 39 77 40 78 66 79 67 80
REMARK SMILES IDX 75 81 68 82 74 83 76 84 73 85 69 86 70 87 71 88 72 89 51 90
REMARK SMILES IDX 52 91 60 92 53 93 59 94 61 95 58 96 54 97 55 98 56 99 57 100
REMARK H PARENT 93 21 93 22 7 26 7 27 7 28 81 53 49 64
REMARK Flexibility Score: inf
ROOT
ATOM      1  C   UNL A   1      35.643  33.401  28.065  1.00  0.00     0.188 C 
ENDROOT
BRANCH   1   2
ATOM      2  O   UNL A   1      35.477  32.007  27.859  1.00  0.00    -0.377 OA
BRANCH   2   3
ATOM      3  C   UNL A   1      34.169  31.499  27.990  1.00  0.00     0.188 C 
BRANCH   3   4
ATOM      4  C   UNL A   1      33.777  30.446  26.940  1.00  0.00     0.188 C 
BRANCH   4   5
ATOM      5  O   UNL A   1      32.425  30.160  26.603  1.00  0.00    -0.376 OA
BRANCH   5   6
ATOM      6  C   UNL A   1      32.055  29.071  25.769  1.00  0.00     0.202 C 
BRANCH   6   7
ATOM      7  C   UNL A   1      31.054  29.225  24.615  1.00  0.00     0.261 C 
BRANCH   7   8
ATOM      8  O   UNL A   1      31.499  28.766  23.338  1.00  0.00    -0.459 OA
BRANCH   8   9
ATOM      9  C   UNL A   1      30.964  27.591  22.928  1.00  0.00     0.369 C 
ATOM     10  O   UNL A   1      29.792  27.262  23.114  1.00  0.00    -0.245 OA
BRANCH   9  11
ATOM     11  C   UNL A   1      31.980  26.642  22.260  1.00  0.00     0.323 C 
BRANCH  11  12
ATOM     12  C   UNL A   1      32.403  25.646  23.294  1.00  0.00     0.021 A 
ATOM     13  C   UNL A   1      31.975  24.533  25.392  1.00  0.00    -0.024 A 
ATOM     14  C   UNL A   1      31.531  25.290  24.306  1.00  0.00     0.016 A 
ATOM     15  C   UNL A   1      33.322  24.062  25.412  1.00  0.00     0.038 A 
ATOM     16  C   UNL A   1      34.205  24.404  24.360  1.00  0.00    -0.024 A 
ATOM     17  C   UNL A   1      33.724  25.202  23.321  1.00  0.00     0.016 A 
BRANCH  13  18
ATOM     18  C   UNL A   1      31.015  24.261  26.538  1.00  0.00     0.034 C 
ATOM     19  C   UNL A   1      30.276  22.918  26.518  1.00  0.00     0.009 C 
ENDBRANCH  13  18
BRANCH  15  20
ATOM     20  N   UNL A   1      33.789  23.381  26.533  1.00  0.00    -0.398 N 
ATOM     21  H   UNL A   1      33.729  23.797  27.422  1.00  0.00     0.156 HD
ATOM     22  H   UNL A   1      34.183  22.484  26.434  1.00  0.00     0.156 HD
ENDBRANCH  15  20
BRANCH  16  23
ATOM     23  C   UNL A   1      35.680  24.053  24.297  1.00  0.00     0.034 C 
ATOM     24  C   UNL A   1      35.942  22.609  23.864  1.00  0.00     0.009 C 
ENDBRANCH  16  23
ENDBRANCH  11  12
BRANCH  11  25
ATOM     25  N   UNL A   1      33.163  27.250  21.617  1.00  0.00    -0.342 N 
ATOM     26  H   UNL A   1      33.677  26.533  21.105  1.00  0.00     0.345 HD
ATOM     27  H   UNL A   1      33.768  27.656  22.331  1.00  0.00     0.345 HD
ATOM     28  H   UNL A   1      32.862  27.979  20.971  1.00  0.00     0.345 HD
ENDBRANCH  11  25
ENDBRANCH   9  11
ENDBRANCH   8   9
ENDBRANCH   7   8
ENDBRANCH   6   7
ENDBRANCH   5   6
ENDBRANCH   4   5
ENDBRANCH   3   4
ENDBRANCH   2   3
ENDBRANCH   1   2
BRANCH   1  29
ATOM     29  C   UNL A   1      34.401  34.298  27.883  1.00  0.00     0.188 C 
BRANCH  29  30
ATOM     30  O   UNL A   1      34.685  35.690  27.811  1.00  0.00    -0.376 OA
BRANCH  30  31
ATOM     31  C   UNL A   1      33.923  36.586  28.608  1.00  0.00     0.202 C 
BRANCH  31  32
ATOM     32  C   UNL A   1      32.541  36.127  29.108  1.00  0.00     0.261 C 
BRANCH  32  33
ATOM     33  O   UNL A   1      32.521  35.130  30.141  1.00  0.00    -0.460 OA
BRANCH  33  34
ATOM     34  C   UNL A   1      33.085  35.432  31.330  1.00  0.00     0.338 C 
ATOM     35  O   UNL A   1      32.612  36.145  32.200  1.00  0.00    -0.246 OA
BRANCH  34  36
ATOM     36  C   UNL A   1      34.280  34.575  31.492  1.00  0.00     0.060 A 
ATOM     37  C   UNL A   1      34.106  33.227  31.837  1.00  0.00     0.016 A 
ATOM     38  C   UNL A   1      35.563  35.089  31.287  1.00  0.00     0.016 A 
ATOM     39  C   UNL A   1      35.215  32.397  32.003  1.00  0.00     0.010 A 
ATOM     40  C   UNL A   1      36.674  34.264  31.486  1.00  0.00     0.010 A 
ATOM     41  C   UNL A   1      36.507  32.922  31.873  1.00  0.00    -0.014 A 
BRANCH  41  42
ATOM     42  C   UNL A   1      37.673  32.133  32.341  1.00  0.00     0.031 A 
ATOM     43  C   UNL A   1      38.240  32.445  33.699  1.00  0.00     0.074 A 
ATOM     44  C   UNL A   1      38.206  31.150  31.593  1.00  0.00     0.049 A 
ATOM     45  N   UNL A   1      39.298  31.958  34.292  1.00  0.00    -0.248 NA
ATOM     46  C   UNL A   1      37.511  33.447  34.491  1.00  0.00     0.031 C 
ATOM     47  C   UNL A   1      37.703  30.712  30.291  1.00  0.00     0.029 A 
ATOM     48  N   UNL A   1      39.297  30.349  31.819  1.00  0.00    -0.354 N 
ATOM     49  C   UNL A   1      39.367  32.599  35.525  1.00  0.00     0.074 A 
ATOM     50  C   UNL A   1      38.263  33.534  35.576  1.00  0.00     0.031 C 
ATOM     51  C   UNL A   1      38.495  29.730  29.828  1.00  0.00     0.029 A 
ATOM     52  C   UNL A   1      39.587  29.502  30.774  1.00  0.00     0.049 A 
ATOM     53  H   UNL A   1      39.822  30.377  32.652  1.00  0.00     0.167 HD
ATOM     54  C   UNL A   1      40.267  32.421  36.522  1.00  0.00     0.034 A 
ATOM     55  C   UNL A   1      40.634  28.670  30.590  1.00  0.00     0.034 A 
ATOM     56  C   UNL A   1      41.372  31.499  36.447  1.00  0.00     0.049 A 
ATOM     57  C   UNL A   1      41.691  28.574  31.667  1.00  0.00     0.074 A 
ATOM     58  C   UNL A   1      42.339  31.232  37.401  1.00  0.00     0.029 A 
ATOM     59  N   UNL A   1      41.672  30.702  35.348  1.00  0.00    -0.354 N 
ATOM     60  N   UNL A   1      41.750  29.185  32.829  1.00  0.00    -0.248 NA
ATOM     61  C   UNL A   1      42.823  27.673  31.407  1.00  0.00     0.031 C 
ATOM     62  C   UNL A   1      43.268  30.344  36.847  1.00  0.00     0.029 A 
ATOM     63  C   UNL A   1      42.832  29.980  35.583  1.00  0.00     0.049 A 
ATOM     64  H   UNL A   1      41.138  30.659  34.522  1.00  0.00     0.167 HD
ATOM     65  C   UNL A   1      42.907  28.715  33.449  1.00  0.00     0.074 A 
ATOM     66  C   UNL A   1      43.505  27.760  32.540  1.00  0.00     0.031 C 
ATOM     67  C   UNL A   1      43.426  29.040  34.662  1.00  0.00     0.034 A 
BRANCH  54  68
ATOM     68  C   UNL A   1      40.124  33.290  37.749  1.00  0.00     0.023 A 
ATOM     69  C   UNL A   1      40.984  34.374  37.997  1.00  0.00     0.031 A 
ATOM     70  C   UNL A   1      39.128  33.010  38.702  1.00  0.00     0.131 A 
ATOM     71  C   UNL A   1      40.879  35.091  39.198  1.00  0.00     0.055 A 
ATOM     72  C   UNL A   1      38.974  33.780  39.855  1.00  0.00     0.041 A 
ATOM     73  F   UNL A   1      38.296  31.970  38.535  1.00  0.00    -0.206 F 
ATOM     74  C   UNL A   1      39.862  34.819  40.117  1.00  0.00     0.022 A 
BRANCH  71  75
ATOM     75  S   UNL A   1      42.181  36.284  39.615  1.00  0.00     0.124 S 
ATOM     76  O   UNL A   1      43.066  36.168  38.459  1.00  0.00    -0.237 OA
ATOM     77  O   UNL A   1      41.439  37.533  39.730  1.00  0.00    -0.237 OA
ATOM     78  O   UNL A   1      42.732  35.767  40.865  1.00  0.00    -0.744 OA
ENDBRANCH  71  75
ENDBRANCH  54  68
BRANCH  55  79
ATOM     79  C   UNL A   1      40.779  27.902  29.318  1.00  0.00     0.023 A 
ATOM     80  C   UNL A   1      41.753  28.246  28.366  1.00  0.00     0.031 A 
ATOM     81  C   UNL A   1      39.895  26.854  29.003  1.00  0.00     0.131 A 
ATOM     82  C   UNL A   1      41.788  27.583  27.129  1.00  0.00     0.055 A 
ATOM     83  C   UNL A   1      39.973  26.156  27.796  1.00  0.00     0.041 A 
ATOM     84  F   UNL A   1      38.936  26.489  29.870  1.00  0.00    -0.206 F 
ATOM     85  C   UNL A   1      40.917  26.529  26.845  1.00  0.00     0.022 A 
BRANCH  82  86
ATOM     86  S   UNL A   1      42.926  28.186  25.852  1.00  0.00     0.124 S 
ATOM     87  O   UNL A   1      42.242  27.781  24.630  1.00  0.00    -0.237 OA
ATOM     88  O   UNL A   1      42.957  29.619  26.126  1.00  0.00    -0.237 OA
ATOM     89  O   UNL A   1      44.169  27.472  26.139  1.00  0.00    -0.744 OA
ENDBRANCH  82  86
ENDBRANCH  55  79
BRANCH  67  90
ATOM     90  C   UNL A   1      44.684  28.319  35.091  1.00  0.00     0.023 A 
ATOM     91  C   UNL A   1      44.641  27.101  35.791  1.00  0.00     0.031 A 
ATOM     92  C   UNL A   1      45.947  28.866  34.798  1.00  0.00     0.131 A 
ATOM     93  C   UNL A   1      45.833  26.501  36.226  1.00  0.00     0.055 A 
ATOM     94  C   UNL A   1      47.132  28.228  35.172  1.00  0.00     0.041 A 
ATOM     95  F   UNL A   1      46.052  30.030  34.137  1.00  0.00    -0.206 F 
ATOM     96  C   UNL A   1      47.079  27.046  35.903  1.00  0.00     0.022 A 
BRANCH  93  97
ATOM     97  S   UNL A   1      45.733  25.050  37.311  1.00  0.00     0.124 S 
ATOM     98  O   UNL A   1      46.576  25.453  38.432  1.00  0.00    -0.237 OA
ATOM     99  O   UNL A   1      44.303  24.964  37.587  1.00  0.00    -0.237 OA
ATOM    100  O   UNL A   1      46.271  23.969  36.487  1.00  0.00    -0.744 OA
ENDBRANCH  93  97
ENDBRANCH  67  90
ENDBRANCH  41  42
ENDBRANCH  34  36
ENDBRANCH  33  34
ENDBRANCH  32  33
ENDBRANCH  31  32
ENDBRANCH  30  31
ENDBRANCH  29  30
ENDBRANCH   1  29
TORSDOF 28
ENDMDL
