MODEL 1
REMARK VINA RESULT:      -8.9      0.000      0.000
REMARK SMILES COCCC(=O)N[C@H](C)CC(=O)OCCOCCOCCOCCOC(=O)c1ccc(-c2c3nc(c(-c4cc(S(=O)(=O)[O-])ccc4F)c4ccc([nH]4)c(-c4cc(S(=O)(=O)[O-])ccc4F)c4nc(c(-c5cc(S(=O)(=O)[O-])ccc5F)c5ccc2[nH]5)C=C4)C=C3)cc1
REMARK SMILES IDX 18 1 17 2 16 3 15 4 14 5 13 6 11 7 12 8 10 9 8 10 9 11 7 12
REMARK SMILES IDX 5 13 6 14 4 16 3 17 2 18 1 19 19 20 20 21 21 22 22 23 23 24
REMARK SMILES IDX 24 25 25 26 26 27 27 28 28 29 29 30 90 31 30 32 89 33 31 34
REMARK SMILES IDX 32 35 33 36 83 37 34 38 88 39 82 40 84 41 35 42 87 43 81 44
REMARK SMILES IDX 80 45 36 47 68 48 48 49 67 50 49 51 52 52 66 53 85 54 50 55
REMARK SMILES IDX 51 56 65 58 86 59 53 60 37 61 38 62 46 63 39 64 45 65 47 66
REMARK SMILES IDX 44 67 40 68 41 69 42 70 43 71 69 72 70 73 78 74 71 75 77 76
REMARK SMILES IDX 79 77 76 78 72 79 73 80 74 81 75 82 54 83 55 84 63 85 56 86
REMARK SMILES IDX 62 87 64 88 61 89 57 90 58 91 59 92 60 93
REMARK H PARENT 7 15 84 46 52 57
REMARK Flexibility Score: inf
ROOT
ATOM      1  C   UNL A   1      40.590  21.615  27.349  1.00  0.00     0.188 C 
ENDROOT
BRANCH   1   2
ATOM      2  C   UNL A   1      39.362  22.078  26.564  1.00  0.00     0.188 C 
BRANCH   2   3
ATOM      3  O   UNL A   1      38.567  21.110  25.914  1.00  0.00    -0.376 OA
BRANCH   3   4
ATOM      4  C   UNL A   1      37.688  21.496  24.863  1.00  0.00     0.202 C 
BRANCH   4   5
ATOM      5  C   UNL A   1      36.152  21.456  24.985  1.00  0.00     0.261 C 
BRANCH   5   6
ATOM      6  O   UNL A   1      35.425  22.435  24.212  1.00  0.00    -0.463 OA
BRANCH   6   7
ATOM      7  C   UNL A   1      35.253  23.641  24.799  1.00  0.00     0.307 C 
ATOM      8  O   UNL A   1      35.775  23.960  25.866  1.00  0.00    -0.252 OA
BRANCH   7   9
ATOM      9  C   UNL A   1      34.476  24.672  24.006  1.00  0.00     0.147 C 
BRANCH   9  10
ATOM     10  C   UNL A   1      32.948  24.723  23.926  1.00  0.00     0.090 C 
ATOM     11  C   UNL A   1      32.384  23.913  22.764  1.00  0.00     0.031 C 
BRANCH  10  12
ATOM     12  N   UNL A   1      32.376  24.209  25.197  1.00  0.00    -0.353 N 
ATOM     13  C   UNL A   1      31.819  24.848  26.266  1.00  0.00     0.222 C 
ATOM     14  O   UNL A   1      31.555  24.185  27.273  1.00  0.00    -0.275 OA
ATOM     15  H   UNL A   1      32.404  23.229  25.283  1.00  0.00     0.163 HD
BRANCH  13  16
ATOM     16  C   UNL A   1      31.536  26.329  26.235  1.00  0.00     0.128 C 
BRANCH  16  17
ATOM     17  C   UNL A   1      31.741  26.959  24.861  1.00  0.00     0.169 C 
BRANCH  17  18
ATOM     18  O   UNL A   1      30.944  28.121  24.649  1.00  0.00    -0.384 OA
ATOM     19  C   UNL A   1      29.907  27.927  23.688  1.00  0.00     0.194 C 
ENDBRANCH  17  18
ENDBRANCH  16  17
ENDBRANCH  13  16
ENDBRANCH  10  12
ENDBRANCH   9  10
ENDBRANCH   7   9
ENDBRANCH   6   7
ENDBRANCH   5   6
ENDBRANCH   4   5
ENDBRANCH   3   4
ENDBRANCH   2   3
ENDBRANCH   1   2
BRANCH   1  20
ATOM     20  O   UNL A   1      40.683  20.252  27.715  1.00  0.00    -0.377 OA
BRANCH  20  21
ATOM     21  C   UNL A   1      41.363  19.313  26.895  1.00  0.00     0.188 C 
BRANCH  21  22
ATOM     22  C   UNL A   1      42.878  19.430  26.659  1.00  0.00     0.188 C 
BRANCH  22  23
ATOM     23  O   UNL A   1      43.263  19.399  25.296  1.00  0.00    -0.376 OA
BRANCH  23  24
ATOM     24  C   UNL A   1      44.041  20.474  24.791  1.00  0.00     0.202 C 
BRANCH  24  25
ATOM     25  C   UNL A   1      44.083  21.777  25.607  1.00  0.00     0.261 C 
BRANCH  25  26
ATOM     26  O   UNL A   1      43.321  22.886  25.101  1.00  0.00    -0.460 OA
BRANCH  26  27
ATOM     27  C   UNL A   1      43.946  24.079  24.963  1.00  0.00     0.338 C 
ATOM     28  O   UNL A   1      44.801  24.364  24.152  1.00  0.00    -0.246 OA
BRANCH  27  29
ATOM     29  C   UNL A   1      43.264  25.047  25.851  1.00  0.00     0.060 A 
ATOM     30  C   UNL A   1      43.932  26.226  26.210  1.00  0.00     0.016 A 
ATOM     31  C   UNL A   1      41.982  24.787  26.339  1.00  0.00     0.016 A 
ATOM     32  C   UNL A   1      43.334  27.128  27.093  1.00  0.00     0.010 A 
ATOM     33  C   UNL A   1      41.393  25.682  27.238  1.00  0.00     0.010 A 
ATOM     34  C   UNL A   1      42.080  26.839  27.648  1.00  0.00    -0.014 A 
BRANCH  34  35
ATOM     35  C   UNL A   1      41.584  27.631  28.802  1.00  0.00     0.031 A 
ATOM     36  C   UNL A   1      42.325  27.525  30.110  1.00  0.00     0.074 A 
ATOM     37  C   UNL A   1      40.520  28.447  28.696  1.00  0.00     0.049 A 
ATOM     38  N   UNL A   1      42.051  28.061  31.270  1.00  0.00    -0.248 NA
ATOM     39  C   UNL A   1      43.538  26.693  30.100  1.00  0.00     0.031 C 
ATOM     40  C   UNL A   1      39.758  28.685  27.472  1.00  0.00     0.029 A 
ATOM     41  N   UNL A   1      39.894  29.227  29.638  1.00  0.00    -0.354 N 
ATOM     42  C   UNL A   1      43.053  27.625  32.133  1.00  0.00     0.074 A 
ATOM     43  C   UNL A   1      43.915  26.750  31.367  1.00  0.00     0.031 C 
ATOM     44  C   UNL A   1      38.759  29.546  27.741  1.00  0.00     0.029 A 
ATOM     45  C   UNL A   1      38.783  29.884  29.163  1.00  0.00     0.049 A 
ATOM     46  H   UNL A   1      40.211  29.307  30.567  1.00  0.00     0.167 HD
ATOM     47  C   UNL A   1      43.243  27.936  33.439  1.00  0.00     0.034 A 
ATOM     48  C   UNL A   1      37.875  30.646  29.810  1.00  0.00     0.034 A 
ATOM     49  C   UNL A   1      42.367  28.799  34.192  1.00  0.00     0.049 A 
ATOM     50  C   UNL A   1      38.042  30.888  31.294  1.00  0.00     0.074 A 
ATOM     51  C   UNL A   1      42.468  29.186  35.517  1.00  0.00     0.029 A 
ATOM     52  N   UNL A   1      41.217  29.398  33.692  1.00  0.00    -0.354 N 
ATOM     53  N   UNL A   1      38.993  30.472  32.100  1.00  0.00    -0.248 NA
ATOM     54  C   UNL A   1      37.015  31.706  31.953  1.00  0.00     0.031 C 
ATOM     55  C   UNL A   1      41.338  29.943  35.841  1.00  0.00     0.029 A 
ATOM     56  C   UNL A   1      40.580  30.116  34.694  1.00  0.00     0.049 A 
ATOM     57  H   UNL A   1      40.900  29.324  32.763  1.00  0.00     0.167 HD
ATOM     58  C   UNL A   1      38.697  31.014  33.349  1.00  0.00     0.074 A 
ATOM     59  C   UNL A   1      37.488  31.793  33.187  1.00  0.00     0.031 C 
ATOM     60  C   UNL A   1      39.368  30.885  34.524  1.00  0.00     0.034 A 
BRANCH  47  61
ATOM     61  C   UNL A   1      44.409  27.285  34.144  1.00  0.00     0.023 A 
ATOM     62  C   UNL A   1      44.292  26.036  34.778  1.00  0.00     0.031 A 
ATOM     63  C   UNL A   1      45.652  27.942  34.212  1.00  0.00     0.131 A 
ATOM     64  C   UNL A   1      45.369  25.520  35.515  1.00  0.00     0.055 A 
ATOM     65  C   UNL A   1      46.747  27.380  34.871  1.00  0.00     0.041 A 
ATOM     66  F   UNL A   1      45.818  29.149  33.650  1.00  0.00    -0.206 F 
ATOM     67  C   UNL A   1      46.605  26.170  35.541  1.00  0.00     0.022 A 
BRANCH  64  68
ATOM     68  S   UNL A   1      45.083  24.070  36.568  1.00  0.00     0.124 S 
ATOM     69  O   UNL A   1      46.442  23.567  36.751  1.00  0.00    -0.237 OA
ATOM     70  O   UNL A   1      44.456  24.657  37.747  1.00  0.00    -0.237 OA
ATOM     71  O   UNL A   1      44.217  23.221  35.755  1.00  0.00    -0.744 OA
ENDBRANCH  64  68
ENDBRANCH  47  61
BRANCH  48  72
ATOM     72  C   UNL A   1      36.696  31.204  29.083  1.00  0.00     0.023 A 
ATOM     73  C   UNL A   1      35.683  30.367  28.588  1.00  0.00     0.031 A 
ATOM     74  C   UNL A   1      36.600  32.582  28.811  1.00  0.00     0.131 A 
ATOM     75  C   UNL A   1      34.650  30.905  27.804  1.00  0.00     0.055 A 
ATOM     76  C   UNL A   1      35.536  33.120  28.084  1.00  0.00     0.041 A 
ATOM     77  F   UNL A   1      37.543  33.429  29.252  1.00  0.00    -0.206 F 
ATOM     78  C   UNL A   1      34.560  32.278  27.563  1.00  0.00     0.022 A 
BRANCH  75  79
ATOM     79  S   UNL A   1      33.476  29.768  27.014  1.00  0.00     0.124 S 
ATOM     80  O   UNL A   1      33.361  28.719  28.020  1.00  0.00    -0.237 OA
ATOM     81  O   UNL A   1      32.304  30.620  26.837  1.00  0.00    -0.237 OA
ATOM     82  O   UNL A   1      34.156  29.381  25.781  1.00  0.00    -0.744 OA
ENDBRANCH  75  79
ENDBRANCH  48  72
BRANCH  60  83
ATOM     83  C   UNL A   1      38.841  31.654  35.715  1.00  0.00     0.023 A 
ATOM     84  C   UNL A   1      38.168  31.020  36.775  1.00  0.00     0.031 A 
ATOM     85  C   UNL A   1      39.016  33.048  35.787  1.00  0.00     0.131 A 
ATOM     86  C   UNL A   1      37.643  31.785  37.827  1.00  0.00     0.055 A 
ATOM     87  C   UNL A   1      38.554  33.794  36.873  1.00  0.00     0.041 A 
ATOM     88  F   UNL A   1      39.645  33.710  34.804  1.00  0.00    -0.206 F 
ATOM     89  C   UNL A   1      37.851  33.165  37.894  1.00  0.00     0.022 A 
BRANCH  86  90
ATOM     90  S   UNL A   1      36.593  30.968  39.060  1.00  0.00     0.124 S 
ATOM     91  O   UNL A   1      36.373  29.660  38.452  1.00  0.00    -0.237 OA
ATOM     92  O   UNL A   1      37.438  30.982  40.250  1.00  0.00    -0.237 OA
ATOM     93  O   UNL A   1      35.411  31.826  39.129  1.00  0.00    -0.744 OA
ENDBRANCH  86  90
ENDBRANCH  60  83
ENDBRANCH  34  35
ENDBRANCH  27  29
ENDBRANCH  26  27
ENDBRANCH  25  26
ENDBRANCH  24  25
ENDBRANCH  23  24
ENDBRANCH  22  23
ENDBRANCH  21  22
ENDBRANCH  20  21
ENDBRANCH   1  20
TORSDOF 28
ENDMDL
MODEL 2
REMARK VINA RESULT:      -8.0      5.929      6.931
REMARK SMILES COCCC(=O)N[C@H](C)CC(=O)OCCOCCOCCOCCOC(=O)c1ccc(-c2c3nc(c(-c4cc(S(=O)(=O)[O-])ccc4F)c4ccc([nH]4)c(-c4cc(S(=O)(=O)[O-])ccc4F)c4nc(c(-c5cc(S(=O)(=O)[O-])ccc5F)c5ccc2[nH]5)C=C4)C=C3)cc1
REMARK SMILES IDX 18 1 17 2 16 3 15 4 14 5 13 6 11 7 12 8 10 9 8 10 9 11 7 12
REMARK SMILES IDX 5 13 6 14 4 16 3 17 2 18 1 19 19 20 20 21 21 22 22 23 23 24
REMARK SMILES IDX 24 25 25 26 26 27 27 28 28 29 29 30 90 31 30 32 89 33 31 34
REMARK SMILES IDX 32 35 33 36 83 37 34 38 88 39 82 40 84 41 35 42 87 43 81 44
REMARK SMILES IDX 80 45 36 47 68 48 48 49 67 50 49 51 52 52 66 53 85 54 50 55
REMARK SMILES IDX 51 56 65 58 86 59 53 60 37 61 38 62 46 63 39 64 45 65 47 66
REMARK SMILES IDX 44 67 40 68 41 69 42 70 43 71 69 72 70 73 78 74 71 75 77 76
REMARK SMILES IDX 79 77 76 78 72 79 73 80 74 81 75 82 54 83 55 84 63 85 56 86
REMARK SMILES IDX 62 87 64 88 61 89 57 90 58 91 59 92 60 93
REMARK H PARENT 7 15 84 46 52 57
REMARK Flexibility Score: inf
ROOT
ATOM      1  C   UNL A   1      38.498  21.008  25.760  1.00  0.00     0.188 C 
ENDROOT
BRANCH   1   2
ATOM      2  C   UNL A   1      37.477  21.807  24.950  1.00  0.00     0.188 C 
BRANCH   2   3
ATOM      3  O   UNL A   1      36.187  21.267  24.763  1.00  0.00    -0.376 OA
BRANCH   3   4
ATOM      4  C   UNL A   1      35.117  21.658  25.617  1.00  0.00     0.202 C 
BRANCH   4   5
ATOM      5  C   UNL A   1      33.707  22.006  25.102  1.00  0.00     0.261 C 
BRANCH   5   6
ATOM      6  O   UNL A   1      33.503  21.896  23.677  1.00  0.00    -0.463 OA
BRANCH   6   7
ATOM      7  C   UNL A   1      33.693  23.030  22.965  1.00  0.00     0.307 C 
ATOM      8  O   UNL A   1      34.785  23.383  22.524  1.00  0.00    -0.252 OA
BRANCH   7   9
ATOM      9  C   UNL A   1      32.448  23.813  22.599  1.00  0.00     0.147 C 
BRANCH   9  10
ATOM     10  C   UNL A   1      32.432  25.318  22.315  1.00  0.00     0.090 C 
ATOM     11  C   UNL A   1      32.579  25.647  20.834  1.00  0.00     0.031 C 
BRANCH  10  12
ATOM     12  N   UNL A   1      31.157  25.894  22.816  1.00  0.00    -0.353 N 
ATOM     13  C   UNL A   1      30.901  26.882  23.721  1.00  0.00     0.222 C 
ATOM     14  O   UNL A   1      29.732  27.067  24.071  1.00  0.00    -0.275 OA
ATOM     15  H   UNL A   1      30.351  25.489  22.422  1.00  0.00     0.163 HD
BRANCH  13  16
ATOM     16  C   UNL A   1      32.010  27.730  24.292  1.00  0.00     0.128 C 
BRANCH  16  17
ATOM     17  C   UNL A   1      32.087  27.685  25.815  1.00  0.00     0.169 C 
BRANCH  17  18
ATOM     18  O   UNL A   1      31.587  28.864  26.440  1.00  0.00    -0.384 OA
ATOM     19  C   UNL A   1      31.790  30.044  25.662  1.00  0.00     0.194 C 
ENDBRANCH  17  18
ENDBRANCH  16  17
ENDBRANCH  13  16
ENDBRANCH  10  12
ENDBRANCH   9  10
ENDBRANCH   7   9
ENDBRANCH   6   7
ENDBRANCH   5   6
ENDBRANCH   4   5
ENDBRANCH   3   4
ENDBRANCH   2   3
ENDBRANCH   1   2
BRANCH   1  20
ATOM     20  O   UNL A   1      39.831  21.477  25.819  1.00  0.00    -0.377 OA
BRANCH  20  21
ATOM     21  C   UNL A   1      40.793  20.860  26.662  1.00  0.00     0.188 C 
BRANCH  21  22
ATOM     22  C   UNL A   1      41.847  19.902  26.080  1.00  0.00     0.188 C 
BRANCH  22  23
ATOM     23  O   UNL A   1      42.830  20.530  25.277  1.00  0.00    -0.376 OA
BRANCH  23  24
ATOM     24  C   UNL A   1      43.441  21.715  25.764  1.00  0.00     0.202 C 
BRANCH  24  25
ATOM     25  C   UNL A   1      43.280  23.001  24.937  1.00  0.00     0.261 C 
BRANCH  25  26
ATOM     26  O   UNL A   1      43.182  24.236  25.666  1.00  0.00    -0.460 OA
BRANCH  26  27
ATOM     27  C   UNL A   1      44.156  25.160  25.489  1.00  0.00     0.338 C 
ATOM     28  O   UNL A   1      45.051  25.128  24.671  1.00  0.00    -0.246 OA
BRANCH  27  29
ATOM     29  C   UNL A   1      43.831  26.324  26.343  1.00  0.00     0.060 A 
ATOM     30  C   UNL A   1      43.427  27.520  25.736  1.00  0.00     0.016 A 
ATOM     31  C   UNL A   1      43.938  26.240  27.733  1.00  0.00     0.016 A 
ATOM     32  C   UNL A   1      43.169  28.650  26.517  1.00  0.00     0.010 A 
ATOM     33  C   UNL A   1      43.698  27.377  28.512  1.00  0.00     0.010 A 
ATOM     34  C   UNL A   1      43.348  28.597  27.906  1.00  0.00    -0.014 A 
BRANCH  34  35
ATOM     35  C   UNL A   1      43.373  29.855  28.695  1.00  0.00     0.031 A 
ATOM     36  C   UNL A   1      44.648  30.658  28.714  1.00  0.00     0.074 A 
ATOM     37  C   UNL A   1      42.289  30.296  29.358  1.00  0.00     0.049 A 
ATOM     38  N   UNL A   1      44.938  31.747  29.377  1.00  0.00    -0.248 NA
ATOM     39  C   UNL A   1      45.744  30.153  27.873  1.00  0.00     0.031 C 
ATOM     40  C   UNL A   1      40.981  29.644  29.365  1.00  0.00     0.029 A 
ATOM     41  N   UNL A   1      42.119  31.400  30.159  1.00  0.00    -0.354 N 
ATOM     42  C   UNL A   1      46.253  32.055  29.039  1.00  0.00     0.074 A 
ATOM     43  C   UNL A   1      46.712  31.013  28.145  1.00  0.00     0.031 C 
ATOM     44  C   UNL A   1      40.144  30.357  30.142  1.00  0.00     0.029 A 
ATOM     45  C   UNL A   1      40.868  31.487  30.722  1.00  0.00     0.049 A 
ATOM     46  H   UNL A   1      42.828  32.065  30.315  1.00  0.00     0.167 HD
ATOM     47  C   UNL A   1      47.004  33.114  29.430  1.00  0.00     0.034 A 
ATOM     48  C   UNL A   1      40.375  32.362  31.626  1.00  0.00     0.034 A 
ATOM     49  C   UNL A   1      46.537  34.137  30.333  1.00  0.00     0.049 A 
ATOM     50  C   UNL A   1      41.267  33.472  32.136  1.00  0.00     0.074 A 
ATOM     51  C   UNL A   1      47.211  35.256  30.790  1.00  0.00     0.029 A 
ATOM     52  N   UNL A   1      45.283  34.159  30.931  1.00  0.00    -0.354 N 
ATOM     53  N   UNL A   1      42.508  33.755  31.810  1.00  0.00    -0.248 NA
ATOM     54  C   UNL A   1      40.688  34.384  33.132  1.00  0.00     0.031 C 
ATOM     55  C   UNL A   1      46.401  35.903  31.729  1.00  0.00     0.029 A 
ATOM     56  C   UNL A   1      45.181  35.248  31.784  1.00  0.00     0.049 A 
ATOM     57  H   UNL A   1      44.570  33.497  30.774  1.00  0.00     0.167 HD
ATOM     58  C   UNL A   1      42.840  34.899  32.532  1.00  0.00     0.074 A 
ATOM     59  C   UNL A   1      41.667  35.259  33.300  1.00  0.00     0.031 C 
ATOM     60  C   UNL A   1      44.008  35.595  32.553  1.00  0.00     0.034 A 
BRANCH  47  61
ATOM     61  C   UNL A   1      48.427  33.179  28.927  1.00  0.00     0.023 A 
ATOM     62  C   UNL A   1      48.755  33.783  27.701  1.00  0.00     0.031 A 
ATOM     63  C   UNL A   1      49.468  32.596  29.673  1.00  0.00     0.131 A 
ATOM     64  C   UNL A   1      50.073  33.723  27.222  1.00  0.00     0.055 A 
ATOM     65  C   UNL A   1      50.792  32.620  29.231  1.00  0.00     0.041 A 
ATOM     66  F   UNL A   1      49.214  31.981  30.837  1.00  0.00    -0.206 F 
ATOM     67  C   UNL A   1      51.099  33.171  27.992  1.00  0.00     0.022 A 
BRANCH  64  68
ATOM     68  S   UNL A   1      50.396  34.232  25.511  1.00  0.00     0.124 S 
ATOM     69  O   UNL A   1      50.890  32.990  24.922  1.00  0.00    -0.237 OA
ATOM     70  O   UNL A   1      49.081  34.674  25.060  1.00  0.00    -0.237 OA
ATOM     71  O   UNL A   1      51.396  35.288  25.650  1.00  0.00    -0.744 OA
ENDBRANCH  64  68
ENDBRANCH  47  61
BRANCH  48  72
ATOM     72  C   UNL A   1      38.985  32.211  32.150  1.00  0.00     0.023 A 
ATOM     73  C   UNL A   1      37.894  32.818  31.506  1.00  0.00     0.031 A 
ATOM     74  C   UNL A   1      38.735  31.513  33.346  1.00  0.00     0.131 A 
ATOM     75  C   UNL A   1      36.617  32.762  32.087  1.00  0.00     0.055 A 
ATOM     76  C   UNL A   1      37.452  31.407  33.886  1.00  0.00     0.041 A 
ATOM     77  F   UNL A   1      39.740  30.920  34.010  1.00  0.00    -0.206 F 
ATOM     78  C   UNL A   1      36.385  32.046  33.263  1.00  0.00     0.022 A 
BRANCH  75  79
ATOM     79  S   UNL A   1      35.277  33.726  31.334  1.00  0.00     0.124 S 
ATOM     80  O   UNL A   1      35.799  33.958  29.992  1.00  0.00    -0.237 OA
ATOM     81  O   UNL A   1      34.149  32.806  31.435  1.00  0.00    -0.237 OA
ATOM     82  O   UNL A   1      35.192  34.910  32.185  1.00  0.00    -0.744 OA
ENDBRANCH  75  79
ENDBRANCH  48  72
BRANCH  60  83
ATOM     83  C   UNL A   1      44.053  36.853  33.391  1.00  0.00     0.023 A 
ATOM     84  C   UNL A   1      43.630  38.098  32.892  1.00  0.00     0.031 A 
ATOM     85  C   UNL A   1      44.531  36.803  34.714  1.00  0.00     0.131 A 
ATOM     86  C   UNL A   1      43.749  39.248  33.687  1.00  0.00     0.055 A 
ATOM     87  C   UNL A   1      44.579  37.938  35.524  1.00  0.00     0.041 A 
ATOM     88  F   UNL A   1      44.953  35.644  35.244  1.00  0.00    -0.206 F 
ATOM     89  C   UNL A   1      44.201  39.172  35.008  1.00  0.00     0.022 A 
BRANCH  86  90
ATOM     90  S   UNL A   1      43.405  40.865  32.941  1.00  0.00     0.124 S 
ATOM     91  O   UNL A   1      42.869  41.613  34.073  1.00  0.00    -0.237 OA
ATOM     92  O   UNL A   1      44.723  41.279  32.470  1.00  0.00    -0.237 OA
ATOM     93  O   UNL A   1      42.439  40.559  31.886  1.00  0.00    -0.744 OA
ENDBRANCH  86  90
ENDBRANCH  60  83
ENDBRANCH  34  35
ENDBRANCH  27  29
ENDBRANCH  26  27
ENDBRANCH  25  26
ENDBRANCH  24  25
ENDBRANCH  23  24
ENDBRANCH  22  23
ENDBRANCH  21  22
ENDBRANCH  20  21
ENDBRANCH   1  20
TORSDOF 28
ENDMDL
MODEL 3
REMARK VINA RESULT:      -7.5      5.164      7.169
REMARK SMILES COCCC(=O)N[C@H](C)CC(=O)OCCOCCOCCOCCOC(=O)c1ccc(-c2c3nc(c(-c4cc(S(=O)(=O)[O-])ccc4F)c4ccc([nH]4)c(-c4cc(S(=O)(=O)[O-])ccc4F)c4nc(c(-c5cc(S(=O)(=O)[O-])ccc5F)c5ccc2[nH]5)C=C4)C=C3)cc1
REMARK SMILES IDX 18 1 17 2 16 3 15 4 14 5 13 6 11 7 12 8 10 9 8 10 9 11 7 12
REMARK SMILES IDX 5 13 6 14 4 16 3 17 2 18 1 19 19 20 20 21 21 22 22 23 23 24
REMARK SMILES IDX 24 25 25 26 26 27 27 28 28 29 29 30 90 31 30 32 89 33 31 34
REMARK SMILES IDX 32 35 33 36 83 37 34 38 88 39 82 40 84 41 35 42 87 43 81 44
REMARK SMILES IDX 80 45 36 47 68 48 48 49 67 50 49 51 52 52 66 53 85 54 50 55
REMARK SMILES IDX 51 56 65 58 86 59 53 60 37 61 38 62 46 63 39 64 45 65 47 66
REMARK SMILES IDX 44 67 40 68 41 69 42 70 43 71 69 72 70 73 78 74 71 75 77 76
REMARK SMILES IDX 79 77 76 78 72 79 73 80 74 81 75 82 54 83 55 84 63 85 56 86
REMARK SMILES IDX 62 87 64 88 61 89 57 90 58 91 59 92 60 93
REMARK H PARENT 7 15 84 46 52 57
REMARK Flexibility Score: inf
ROOT
ATOM      1  C   UNL A   1      39.167  27.613  30.262  1.00  0.00     0.188 C 
ENDROOT
BRANCH   1   2
ATOM      2  C   UNL A   1      38.431  28.951  30.348  1.00  0.00     0.188 C 
BRANCH   2   3
ATOM      3  O   UNL A   1      37.247  29.122  29.600  1.00  0.00    -0.376 OA
BRANCH   3   4
ATOM      4  C   UNL A   1      37.311  29.590  28.257  1.00  0.00     0.202 C 
BRANCH   4   5
ATOM      5  C   UNL A   1      36.069  29.760  27.360  1.00  0.00     0.261 C 
BRANCH   5   6
ATOM      6  O   UNL A   1      34.803  29.888  28.041  1.00  0.00    -0.463 OA
BRANCH   6   7
ATOM      7  C   UNL A   1      34.002  30.890  27.613  1.00  0.00     0.307 C 
ATOM      8  O   UNL A   1      33.157  30.757  26.730  1.00  0.00    -0.252 OA
BRANCH   7   9
ATOM      9  C   UNL A   1      34.089  32.196  28.376  1.00  0.00     0.147 C 
BRANCH   9  10
ATOM     10  C   UNL A   1      35.114  32.483  29.478  1.00  0.00     0.090 C 
ATOM     11  C   UNL A   1      36.147  33.529  29.074  1.00  0.00     0.031 C 
BRANCH  10  12
ATOM     12  N   UNL A   1      34.403  32.947  30.696  1.00  0.00    -0.353 N 
ATOM     13  C   UNL A   1      34.613  32.697  32.020  1.00  0.00     0.222 C 
ATOM     14  O   UNL A   1      33.773  33.096  32.832  1.00  0.00    -0.275 OA
ATOM     15  H   UNL A   1      33.643  33.546  30.514  1.00  0.00     0.163 HD
BRANCH  13  16
ATOM     16  C   UNL A   1      35.832  31.947  32.494  1.00  0.00     0.128 C 
BRANCH  16  17
ATOM     17  C   UNL A   1      36.668  32.721  33.508  1.00  0.00     0.169 C 
BRANCH  17  18
ATOM     18  O   UNL A   1      37.809  33.353  32.933  1.00  0.00    -0.384 OA
ATOM     19  C   UNL A   1      38.563  32.489  32.084  1.00  0.00     0.194 C 
ENDBRANCH  17  18
ENDBRANCH  16  17
ENDBRANCH  13  16
ENDBRANCH  10  12
ENDBRANCH   9  10
ENDBRANCH   7   9
ENDBRANCH   6   7
ENDBRANCH   5   6
ENDBRANCH   4   5
ENDBRANCH   3   4
ENDBRANCH   2   3
ENDBRANCH   1   2
BRANCH   1  20
ATOM     20  O   UNL A   1      40.127  27.433  29.239  1.00  0.00    -0.377 OA
BRANCH  20  21
ATOM     21  C   UNL A   1      39.881  26.565  28.143  1.00  0.00     0.188 C 
BRANCH  21  22
ATOM     22  C   UNL A   1      39.996  25.040  28.308  1.00  0.00     0.188 C 
BRANCH  22  23
ATOM     23  O   UNL A   1      41.227  24.494  27.867  1.00  0.00    -0.376 OA
BRANCH  23  24
ATOM     24  C   UNL A   1      41.260  23.839  26.608  1.00  0.00     0.202 C 
BRANCH  24  25
ATOM     25  C   UNL A   1      42.635  23.500  26.009  1.00  0.00     0.261 C 
BRANCH  25  26
ATOM     26  O   UNL A   1      43.146  24.393  25.005  1.00  0.00    -0.460 OA
BRANCH  26  27
ATOM     27  C   UNL A   1      44.395  24.888  25.167  1.00  0.00     0.338 C 
ATOM     28  O   UNL A   1      45.406  24.513  24.613  1.00  0.00    -0.246 OA
BRANCH  27  29
ATOM     29  C   UNL A   1      44.288  26.108  26.000  1.00  0.00     0.060 A 
ATOM     30  C   UNL A   1      45.374  26.477  26.805  1.00  0.00     0.016 A 
ATOM     31  C   UNL A   1      43.120  26.872  25.998  1.00  0.00     0.016 A 
ATOM     32  C   UNL A   1      45.277  27.591  27.643  1.00  0.00     0.010 A 
ATOM     33  C   UNL A   1      43.018  27.975  26.852  1.00  0.00     0.010 A 
ATOM     34  C   UNL A   1      44.082  28.319  27.705  1.00  0.00    -0.014 A 
BRANCH  34  35
ATOM     35  C   UNL A   1      43.872  29.301  28.800  1.00  0.00     0.031 A 
ATOM     36  C   UNL A   1      43.635  28.774  30.192  1.00  0.00     0.074 A 
ATOM     37  C   UNL A   1      43.916  30.627  28.580  1.00  0.00     0.049 A 
ATOM     38  N   UNL A   1      43.362  29.422  31.294  1.00  0.00    -0.248 NA
ATOM     39  C   UNL A   1      43.712  27.314  30.353  1.00  0.00     0.031 C 
ATOM     40  C   UNL A   1      44.198  31.260  27.293  1.00  0.00     0.029 A 
ATOM     41  N   UNL A   1      43.718  31.682  29.437  1.00  0.00    -0.354 N 
ATOM     42  C   UNL A   1      43.227  28.449  32.280  1.00  0.00     0.074 A 
ATOM     43  C   UNL A   1      43.409  27.168  31.633  1.00  0.00     0.031 C 
ATOM     44  C   UNL A   1      44.147  32.596  27.445  1.00  0.00     0.029 A 
ATOM     45  C   UNL A   1      43.783  32.912  28.826  1.00  0.00     0.049 A 
ATOM     46  H   UNL A   1      43.545  31.568  30.400  1.00  0.00     0.167 HD
ATOM     47  C   UNL A   1      42.985  28.611  33.605  1.00  0.00     0.034 A 
ATOM     48  C   UNL A   1      43.545  34.147  29.318  1.00  0.00     0.034 A 
ATOM     49  C   UNL A   1      42.791  29.896  34.232  1.00  0.00     0.049 A 
ATOM     50  C   UNL A   1      43.164  34.297  30.774  1.00  0.00     0.074 A 
ATOM     51  C   UNL A   1      42.547  30.175  35.565  1.00  0.00     0.029 A 
ATOM     52  N   UNL A   1      42.804  31.116  33.568  1.00  0.00    -0.354 N 
ATOM     53  N   UNL A   1      43.040  33.371  31.699  1.00  0.00    -0.248 NA
ATOM     54  C   UNL A   1      42.897  35.660  31.254  1.00  0.00     0.031 C 
ATOM     55  C   UNL A   1      42.324  31.550  35.692  1.00  0.00     0.029 A 
ATOM     56  C   UNL A   1      42.530  32.145  34.458  1.00  0.00     0.049 A 
ATOM     57  H   UNL A   1      42.981  31.234  32.607  1.00  0.00     0.167 HD
ATOM     58  C   UNL A   1      42.721  34.047  32.874  1.00  0.00     0.074 A 
ATOM     59  C   UNL A   1      42.682  35.456  32.545  1.00  0.00     0.031 C 
ATOM     60  C   UNL A   1      42.487  33.549  34.117  1.00  0.00     0.034 A 
BRANCH  47  61
ATOM     61  C   UNL A   1      42.855  27.362  34.444  1.00  0.00     0.023 A 
ATOM     62  C   UNL A   1      43.967  26.763  35.061  1.00  0.00     0.031 A 
ATOM     63  C   UNL A   1      41.602  26.742  34.601  1.00  0.00     0.131 A 
ATOM     64  C   UNL A   1      43.818  25.544  35.740  1.00  0.00     0.055 A 
ATOM     65  C   UNL A   1      41.447  25.576  35.353  1.00  0.00     0.041 A 
ATOM     66  F   UNL A   1      40.509  27.251  34.014  1.00  0.00    -0.206 F 
ATOM     67  C   UNL A   1      42.561  24.961  35.914  1.00  0.00     0.022 A 
BRANCH  64  68
ATOM     68  S   UNL A   1      45.312  24.649  36.250  1.00  0.00     0.124 S 
ATOM     69  O   UNL A   1      44.976  24.276  37.623  1.00  0.00    -0.237 OA
ATOM     70  O   UNL A   1      45.368  23.555  35.287  1.00  0.00    -0.237 OA
ATOM     71  O   UNL A   1      46.369  25.648  36.126  1.00  0.00    -0.744 OA
ENDBRANCH  64  68
ENDBRANCH  47  61
BRANCH  48  72
ATOM     72  C   UNL A   1      43.612  35.345  28.429  1.00  0.00     0.023 A 
ATOM     73  C   UNL A   1      44.830  35.996  28.175  1.00  0.00     0.031 A 
ATOM     74  C   UNL A   1      42.443  35.901  27.876  1.00  0.00     0.131 A 
ATOM     75  C   UNL A   1      44.847  37.190  27.436  1.00  0.00     0.055 A 
ATOM     76  C   UNL A   1      42.474  37.054  27.089  1.00  0.00     0.041 A 
ATOM     77  F   UNL A   1      41.249  35.327  28.092  1.00  0.00    -0.206 F 
ATOM     78  C   UNL A   1      43.679  37.714  26.877  1.00  0.00     0.022 A 
BRANCH  75  79
ATOM     79  S   UNL A   1      46.407  38.107  27.302  1.00  0.00     0.124 S 
ATOM     80  O   UNL A   1      47.292  37.306  28.139  1.00  0.00    -0.237 OA
ATOM     81  O   UNL A   1      46.662  38.058  25.866  1.00  0.00    -0.237 OA
ATOM     82  O   UNL A   1      46.071  39.427  27.829  1.00  0.00    -0.744 OA
ENDBRANCH  75  79
ENDBRANCH  48  72
BRANCH  60  83
ATOM     83  C   UNL A   1      42.228  34.542  35.228  1.00  0.00     0.023 A 
ATOM     84  C   UNL A   1      43.266  35.062  36.021  1.00  0.00     0.031 A 
ATOM     85  C   UNL A   1      40.915  34.973  35.496  1.00  0.00     0.131 A 
ATOM     86  C   UNL A   1      42.968  35.934  37.080  1.00  0.00     0.055 A 
ATOM     87  C   UNL A   1      40.634  35.896  36.504  1.00  0.00     0.041 A 
ATOM     88  F   UNL A   1      39.882  34.508  34.776  1.00  0.00    -0.206 F 
ATOM     89  C   UNL A   1      41.661  36.371  37.312  1.00  0.00     0.022 A 
BRANCH  86  90
ATOM     90  S   UNL A   1      44.297  36.411  38.218  1.00  0.00     0.124 S 
ATOM     91  O   UNL A   1      45.447  35.717  37.648  1.00  0.00    -0.237 OA
ATOM     92  O   UNL A   1      44.306  37.865  38.096  1.00  0.00    -0.237 OA
ATOM     93  O   UNL A   1      43.843  35.900  39.511  1.00  0.00    -0.744 OA
ENDBRANCH  86  90
ENDBRANCH  60  83
ENDBRANCH  34  35
ENDBRANCH  27  29
ENDBRANCH  26  27
ENDBRANCH  25  26
ENDBRANCH  24  25
ENDBRANCH  23  24
ENDBRANCH  22  23
ENDBRANCH  21  22
ENDBRANCH  20  21
ENDBRANCH   1  20
TORSDOF 28
ENDMDL
