MODEL 1
REMARK VINA RESULT:     -10.2      0.000      0.000
REMARK SMILES O=C(OCCOCCOCCOCCOC(=O)c1cnccc1C(=O)N1CCC(Cc2ccccc2)CC1)c1ccc(-c2c3nc(c(-c4cc(S(=O)(=O)[O-])ccc4F)c4ccc([nH]4)c(-c4cc(S(=O)(=O)[O-])ccc4F)c4nc(c(-c5cc(S(=O)(=O)[O-])ccc5F)c5ccc2[nH]5)C=C4)C=C3)cc1
REMARK SMILES IDX 9 1 8 2 7 3 6 4 5 5 4 6 3 7 2 8 1 9 39 10 40 11 101 12 41 13
REMARK SMILES IDX 100 14 42 15 43 16 44 17 94 18 45 19 99 20 93 21 95 22 46 23
REMARK SMILES IDX 98 24 92 25 91 26 47 28 79 29 59 30 78 31 60 32 63 33 77 34
REMARK SMILES IDX 96 35 61 36 62 37 76 39 97 40 64 41 48 42 49 43 57 44 50 45
REMARK SMILES IDX 56 46 58 47 55 48 51 49 52 50 53 51 54 52 80 53 81 54 89 55
REMARK SMILES IDX 82 56 88 57 90 58 87 59 83 60 84 61 85 62 86 63 65 64 66 65
REMARK SMILES IDX 74 66 67 67 73 68 75 69 72 70 68 71 69 72 70 73 71 74 10 75
REMARK SMILES IDX 11 76 12 77 13 78 14 79 15 80 16 81 17 82 18 83 19 84 23 85
REMARK SMILES IDX 20 86 22 87 21 88 24 89 25 90 26 91 27 92 38 93 28 94 37 95
REMARK SMILES IDX 29 96 30 97 31 98 32 99 36 100 33 101 35 102 34 103
REMARK H PARENT 95 27 63 38
REMARK Flexibility Score: inf
ROOT
ATOM      1  O   UNL A   1      35.381  31.780  27.446  1.00  0.00    -0.377 OA
ENDROOT
BRANCH   1   2
ATOM      2  C   UNL A   1      35.280  33.059  28.080  1.00  0.00     0.188 C 
BRANCH   2   3
ATOM      3  C   UNL A   1      34.201  33.192  29.160  1.00  0.00     0.188 C 
BRANCH   3   4
ATOM      4  O   UNL A   1      33.330  34.236  28.778  1.00  0.00    -0.376 OA
BRANCH   4   5
ATOM      5  C   UNL A   1      33.671  35.594  28.959  1.00  0.00     0.202 C 
BRANCH   5   6
ATOM      6  C   UNL A   1      32.743  36.387  29.859  1.00  0.00     0.261 C 
BRANCH   6   7
ATOM      7  O   UNL A   1      33.073  36.351  31.258  1.00  0.00    -0.460 OA
BRANCH   7   8
ATOM      8  C   UNL A   1      33.140  35.321  32.131  1.00  0.00     0.338 C 
ATOM      9  O   UNL A   1      32.085  34.887  32.596  1.00  0.00    -0.246 OA
BRANCH   8  10
ATOM     10  C   UNL A   1      34.397  34.645  32.550  1.00  0.00     0.060 A 
ATOM     11  C   UNL A   1      34.465  33.464  33.282  1.00  0.00     0.016 A 
ATOM     12  C   UNL A   1      35.596  35.149  32.023  1.00  0.00     0.016 A 
ATOM     13  C   UNL A   1      35.662  32.850  33.589  1.00  0.00     0.010 A 
ATOM     14  C   UNL A   1      36.811  34.497  32.261  1.00  0.00     0.010 A 
ATOM     15  C   UNL A   1      36.841  33.354  33.069  1.00  0.00    -0.014 A 
BRANCH  15  16
ATOM     16  C   UNL A   1      38.089  32.729  33.524  1.00  0.00     0.031 A 
ATOM     17  C   UNL A   1      38.669  31.658  32.658  1.00  0.00     0.074 A 
ATOM     18  C   UNL A   1      38.745  33.235  34.586  1.00  0.00     0.049 A 
ATOM     19  N   UNL A   1      39.680  30.872  32.884  1.00  0.00    -0.248 NA
ATOM     20  C   UNL A   1      38.021  31.451  31.349  1.00  0.00     0.031 C 
ATOM     21  C   UNL A   1      38.326  34.411  35.359  1.00  0.00     0.029 A 
ATOM     22  N   UNL A   1      39.913  32.849  35.185  1.00  0.00    -0.354 N 
ATOM     23  C   UNL A   1      39.759  30.041  31.774  1.00  0.00     0.074 A 
ATOM     24  C   UNL A   1      38.704  30.426  30.866  1.00  0.00     0.031 C 
ATOM     25  C   UNL A   1      39.230  34.650  36.323  1.00  0.00     0.029 A 
ATOM     26  C   UNL A   1      40.224  33.586  36.305  1.00  0.00     0.049 A 
ATOM     27  H   UNL A   1      40.477  32.116  34.847  1.00  0.00     0.167 HD
ATOM     28  C   UNL A   1      40.632  29.032  31.564  1.00  0.00     0.034 A 
ATOM     29  C   UNL A   1      41.165  33.365  37.242  1.00  0.00     0.034 A 
ATOM     30  C   UNL A   1      41.665  28.705  32.509  1.00  0.00     0.049 A 
ATOM     31  C   UNL A   1      42.041  32.148  37.048  1.00  0.00     0.074 A 
ATOM     32  C   UNL A   1      42.585  27.677  32.462  1.00  0.00     0.029 A 
ATOM     33  N   UNL A   1      41.904  29.409  33.685  1.00  0.00    -0.354 N 
ATOM     34  N   UNL A   1      42.064  31.302  36.040  1.00  0.00    -0.248 NA
ATOM     35  C   UNL A   1      42.998  31.842  38.115  1.00  0.00     0.031 C 
ATOM     36  C   UNL A   1      43.325  27.711  33.648  1.00  0.00     0.029 A 
ATOM     37  C   UNL A   1      42.929  28.813  34.394  1.00  0.00     0.049 A 
ATOM     38  H   UNL A   1      41.413  30.213  33.969  1.00  0.00     0.167 HD
ATOM     39  C   UNL A   1      43.053  30.375  36.344  1.00  0.00     0.074 A 
ATOM     40  C   UNL A   1      43.623  30.787  37.613  1.00  0.00     0.031 C 
ATOM     41  C   UNL A   1      43.456  29.274  35.657  1.00  0.00     0.034 A 
BRANCH  28  42
ATOM     42  C   UNL A   1      40.413  28.166  30.353  1.00  0.00     0.023 A 
ATOM     43  C   UNL A   1      41.174  28.298  29.179  1.00  0.00     0.031 A 
ATOM     44  C   UNL A   1      39.369  27.224  30.362  1.00  0.00     0.131 A 
ATOM     45  C   UNL A   1      40.846  27.534  28.048  1.00  0.00     0.055 A 
ATOM     46  C   UNL A   1      39.095  26.416  29.259  1.00  0.00     0.041 A 
ATOM     47  F   UNL A   1      38.581  27.089  31.441  1.00  0.00    -0.206 F 
ATOM     48  C   UNL A   1      39.831  26.576  28.089  1.00  0.00     0.022 A 
BRANCH  45  49
ATOM     49  S   UNL A   1      41.687  27.892  26.480  1.00  0.00     0.124 S 
ATOM     50  O   UNL A   1      43.090  27.867  26.886  1.00  0.00    -0.237 OA
ATOM     51  O   UNL A   1      41.251  26.792  25.627  1.00  0.00    -0.237 OA
ATOM     52  O   UNL A   1      41.176  29.210  26.109  1.00  0.00    -0.744 OA
ENDBRANCH  45  49
ENDBRANCH  28  42
BRANCH  29  53
ATOM     53  C   UNL A   1      41.254  34.201  38.479  1.00  0.00     0.023 A 
ATOM     54  C   UNL A   1      40.418  33.965  39.581  1.00  0.00     0.031 A 
ATOM     55  C   UNL A   1      42.107  35.321  38.540  1.00  0.00     0.131 A 
ATOM     56  C   UNL A   1      40.396  34.872  40.654  1.00  0.00     0.055 A 
ATOM     57  C   UNL A   1      42.139  36.176  39.644  1.00  0.00     0.041 A 
ATOM     58  F   UNL A   1      42.926  35.614  37.516  1.00  0.00    -0.206 F 
ATOM     59  C   UNL A   1      41.262  35.967  40.700  1.00  0.00     0.022 A 
BRANCH  56  60
ATOM     60  S   UNL A   1      39.109  34.685  41.920  1.00  0.00     0.124 S 
ATOM     61  O   UNL A   1      38.828  36.075  42.262  1.00  0.00    -0.237 OA
ATOM     62  O   UNL A   1      38.064  33.980  41.184  1.00  0.00    -0.237 OA
ATOM     63  O   UNL A   1      39.771  33.906  42.963  1.00  0.00    -0.744 OA
ENDBRANCH  56  60
ENDBRANCH  29  53
BRANCH  41  64
ATOM     64  C   UNL A   1      44.585  28.484  36.260  1.00  0.00     0.023 A 
ATOM     65  C   UNL A   1      44.356  27.530  37.263  1.00  0.00     0.031 A 
ATOM     66  C   UNL A   1      45.903  28.687  35.815  1.00  0.00     0.131 A 
ATOM     67  C   UNL A   1      45.440  26.853  37.834  1.00  0.00     0.055 A 
ATOM     68  C   UNL A   1      46.968  27.955  36.334  1.00  0.00     0.041 A 
ATOM     69  F   UNL A   1      46.171  29.590  34.858  1.00  0.00    -0.206 F 
ATOM     70  C   UNL A   1      46.741  27.041  37.360  1.00  0.00     0.022 A 
BRANCH  67  71
ATOM     71  S   UNL A   1      45.135  25.796  39.273  1.00  0.00     0.124 S 
ATOM     72  O   UNL A   1      44.159  26.580  40.022  1.00  0.00    -0.237 OA
ATOM     73  O   UNL A   1      44.634  24.570  38.660  1.00  0.00    -0.237 OA
ATOM     74  O   UNL A   1      46.452  25.682  39.898  1.00  0.00    -0.744 OA
ENDBRANCH  67  71
ENDBRANCH  41  64
ENDBRANCH  15  16
ENDBRANCH   8  10
ENDBRANCH   7   8
ENDBRANCH   6   7
ENDBRANCH   5   6
ENDBRANCH   4   5
ENDBRANCH   3   4
ENDBRANCH   2   3
ENDBRANCH   1   2
BRANCH   1  75
ATOM     75  C   UNL A   1      34.192  30.992  27.374  1.00  0.00     0.188 C 
BRANCH  75  76
ATOM     76  C   UNL A   1      34.281  29.438  27.382  1.00  0.00     0.188 C 
BRANCH  76  77
ATOM     77  O   UNL A   1      33.214  28.765  26.746  1.00  0.00    -0.376 OA
BRANCH  77  78
ATOM     78  C   UNL A   1      33.422  27.493  26.163  1.00  0.00     0.202 C 
BRANCH  78  79
ATOM     79  C   UNL A   1      32.573  26.261  26.505  1.00  0.00     0.261 C 
BRANCH  79  80
ATOM     80  O   UNL A   1      33.182  24.970  26.375  1.00  0.00    -0.460 OA
BRANCH  80  81
ATOM     81  C   UNL A   1      32.399  23.889  26.564  1.00  0.00     0.340 C 
ATOM     82  O   UNL A   1      31.465  23.789  27.348  1.00  0.00    -0.246 OA
BRANCH  81  83
ATOM     83  C   UNL A   1      32.722  22.840  25.599  1.00  0.00     0.091 A 
ATOM     84  C   UNL A   1      33.525  21.827  26.134  1.00  0.00     0.127 A 
ATOM     85  C   UNL A   1      32.265  22.703  24.287  1.00  0.00     0.057 A 
ATOM     86  N   UNL A   1      33.853  20.680  25.496  1.00  0.00    -0.264 NA
ATOM     87  C   UNL A   1      32.632  21.517  23.609  1.00  0.00     0.035 A 
ATOM     88  C   UNL A   1      33.392  20.548  24.243  1.00  0.00     0.112 A 
BRANCH  85  89
ATOM     89  C   UNL A   1      31.306  23.570  23.525  1.00  0.00     0.254 C 
ATOM     90  O   UNL A   1      30.286  23.023  23.091  1.00  0.00    -0.269 OA
ATOM     91  N   UNL A   1      31.445  24.947  23.384  1.00  0.00    -0.339 N 
ATOM     92  C   UNL A   1      30.279  25.726  23.796  1.00  0.00     0.120 C 
ATOM     93  C   UNL A   1      32.661  25.637  22.956  1.00  0.00     0.120 C 
ATOM     94  C   UNL A   1      30.065  26.998  22.994  1.00  0.00     0.025 C 
ATOM     95  C   UNL A   1      32.454  27.008  22.325  1.00  0.00     0.025 C 
ATOM     96  C   UNL A   1      31.342  27.837  22.988  1.00  0.00    -0.003 C 
BRANCH  96  97
ATOM     97  C   UNL A   1      31.223  29.176  22.239  1.00  0.00     0.039 C 
BRANCH  97  98
ATOM     98  C   UNL A   1      29.982  29.986  22.507  1.00  0.00    -0.048 A 
ATOM     99  C   UNL A   1      29.077  30.221  21.460  1.00  0.00     0.004 A 
ATOM    100  C   UNL A   1      29.722  30.538  23.766  1.00  0.00     0.004 A 
ATOM    101  C   UNL A   1      27.949  31.014  21.659  1.00  0.00     0.000 A 
ATOM    102  C   UNL A   1      28.589  31.333  23.965  1.00  0.00     0.000 A 
ATOM    103  C   UNL A   1      27.708  31.575  22.911  1.00  0.00     0.000 A 
ENDBRANCH  97  98
ENDBRANCH  96  97
ENDBRANCH  85  89
ENDBRANCH  81  83
ENDBRANCH  80  81
ENDBRANCH  79  80
ENDBRANCH  78  79
ENDBRANCH  77  78
ENDBRANCH  76  77
ENDBRANCH  75  76
ENDBRANCH   1  75
TORSDOF 26
ENDMDL
MODEL 2
REMARK VINA RESULT:      -8.6     10.508     16.351
REMARK SMILES O=C(OCCOCCOCCOCCOC(=O)c1cnccc1C(=O)N1CCC(Cc2ccccc2)CC1)c1ccc(-c2c3nc(c(-c4cc(S(=O)(=O)[O-])ccc4F)c4ccc([nH]4)c(-c4cc(S(=O)(=O)[O-])ccc4F)c4nc(c(-c5cc(S(=O)(=O)[O-])ccc5F)c5ccc2[nH]5)C=C4)C=C3)cc1
REMARK SMILES IDX 9 1 8 2 7 3 6 4 5 5 4 6 3 7 2 8 1 9 39 10 40 11 101 12 41 13
REMARK SMILES IDX 100 14 42 15 43 16 44 17 94 18 45 19 99 20 93 21 95 22 46 23
REMARK SMILES IDX 98 24 92 25 91 26 47 28 79 29 59 30 78 31 60 32 63 33 77 34
REMARK SMILES IDX 96 35 61 36 62 37 76 39 97 40 64 41 48 42 49 43 57 44 50 45
REMARK SMILES IDX 56 46 58 47 55 48 51 49 52 50 53 51 54 52 80 53 81 54 89 55
REMARK SMILES IDX 82 56 88 57 90 58 87 59 83 60 84 61 85 62 86 63 65 64 66 65
REMARK SMILES IDX 74 66 67 67 73 68 75 69 72 70 68 71 69 72 70 73 71 74 10 75
REMARK SMILES IDX 11 76 12 77 13 78 14 79 15 80 16 81 17 82 18 83 19 84 23 85
REMARK SMILES IDX 20 86 22 87 21 88 24 89 25 90 26 91 27 92 38 93 28 94 37 95
REMARK SMILES IDX 29 96 30 97 31 98 32 99 36 100 33 101 35 102 34 103
REMARK H PARENT 95 27 63 38
REMARK Flexibility Score: inf
ROOT
ATOM      1  O   UNL A   1      47.332  22.768  38.247  1.00  0.00    -0.377 OA
ENDROOT
BRANCH   1   2
ATOM      2  C   UNL A   1      46.692  22.420  39.478  1.00  0.00     0.188 C 
BRANCH   2   3
ATOM      3  C   UNL A   1      45.398  23.176  39.802  1.00  0.00     0.188 C 
BRANCH   3   4
ATOM      4  O   UNL A   1      44.908  23.734  38.601  1.00  0.00    -0.376 OA
BRANCH   4   5
ATOM      5  C   UNL A   1      45.113  25.091  38.272  1.00  0.00     0.202 C 
BRANCH   5   6
ATOM      6  C   UNL A   1      43.858  25.935  38.162  1.00  0.00     0.261 C 
BRANCH   6   7
ATOM      7  O   UNL A   1      43.194  25.875  36.888  1.00  0.00    -0.460 OA
BRANCH   7   8
ATOM      8  C   UNL A   1      43.337  25.024  35.847  1.00  0.00     0.338 C 
ATOM      9  O   UNL A   1      42.886  23.884  35.965  1.00  0.00    -0.246 OA
BRANCH   8  10
ATOM     10  C   UNL A   1      43.971  25.374  34.547  1.00  0.00     0.060 A 
ATOM     11  C   UNL A   1      43.488  26.321  33.650  1.00  0.00     0.016 A 
ATOM     12  C   UNL A   1      45.237  24.827  34.289  1.00  0.00     0.016 A 
ATOM     13  C   UNL A   1      44.153  26.646  32.486  1.00  0.00     0.010 A 
ATOM     14  C   UNL A   1      45.960  25.202  33.151  1.00  0.00     0.010 A 
ATOM     15  C   UNL A   1      45.399  26.100  32.235  1.00  0.00    -0.014 A 
BRANCH  15  16
ATOM     16  C   UNL A   1      46.004  26.393  30.930  1.00  0.00     0.031 A 
ATOM     17  C   UNL A   1      45.612  25.515  29.786  1.00  0.00     0.074 A 
ATOM     18  C   UNL A   1      46.741  27.508  30.767  1.00  0.00     0.049 A 
ATOM     19  N   UNL A   1      46.083  25.480  28.574  1.00  0.00    -0.248 NA
ATOM     20  C   UNL A   1      44.528  24.549  30.043  1.00  0.00     0.031 C 
ATOM     21  C   UNL A   1      46.999  28.512  31.807  1.00  0.00     0.029 A 
ATOM     22  N   UNL A   1      47.387  28.002  29.667  1.00  0.00    -0.354 N 
ATOM     23  C   UNL A   1      45.395  24.455  27.939  1.00  0.00     0.074 A 
ATOM     24  C   UNL A   1      44.462  23.900  28.892  1.00  0.00     0.031 C 
ATOM     25  C   UNL A   1      47.742  29.504  31.288  1.00  0.00     0.029 A 
ATOM     26  C   UNL A   1      48.102  29.151  29.921  1.00  0.00     0.049 A 
ATOM     27  H   UNL A   1      47.343  27.579  28.779  1.00  0.00     0.167 HD
ATOM     28  C   UNL A   1      45.563  24.014  26.673  1.00  0.00     0.034 A 
ATOM     29  C   UNL A   1      49.002  29.788  29.149  1.00  0.00     0.034 A 
ATOM     30  C   UNL A   1      46.508  24.616  25.772  1.00  0.00     0.049 A 
ATOM     31  C   UNL A   1      49.268  29.192  27.786  1.00  0.00     0.074 A 
ATOM     32  C   UNL A   1      46.831  24.244  24.483  1.00  0.00     0.029 A 
ATOM     33  N   UNL A   1      47.292  25.724  26.083  1.00  0.00    -0.354 N 
ATOM     34  N   UNL A   1      48.682  28.164  27.208  1.00  0.00    -0.248 NA
ATOM     35  C   UNL A   1      50.319  29.818  26.980  1.00  0.00     0.031 C 
ATOM     36  C   UNL A   1      47.867  25.076  24.045  1.00  0.00     0.029 A 
ATOM     37  C   UNL A   1      48.128  26.023  25.025  1.00  0.00     0.049 A 
ATOM     38  H   UNL A   1      47.254  26.220  26.932  1.00  0.00     0.167 HD
ATOM     39  C   UNL A   1      49.283  28.036  25.962  1.00  0.00     0.074 A 
ATOM     40  C   UNL A   1      50.252  29.111  25.862  1.00  0.00     0.031 C 
ATOM     41  C   UNL A   1      49.074  27.114  24.985  1.00  0.00     0.034 A 
BRANCH  28  42
ATOM     42  C   UNL A   1      44.812  22.776  26.265  1.00  0.00     0.023 A 
ATOM     43  C   UNL A   1      45.453  21.551  26.008  1.00  0.00     0.031 A 
ATOM     44  C   UNL A   1      43.421  22.848  26.071  1.00  0.00     0.131 A 
ATOM     45  C   UNL A   1      44.707  20.465  25.525  1.00  0.00     0.055 A 
ATOM     46  C   UNL A   1      42.675  21.744  25.659  1.00  0.00     0.041 A 
ATOM     47  F   UNL A   1      42.766  24.005  26.256  1.00  0.00    -0.206 F 
ATOM     48  C   UNL A   1      43.320  20.544  25.375  1.00  0.00     0.022 A 
BRANCH  45  49
ATOM     49  S   UNL A   1      45.589  18.976  24.978  1.00  0.00     0.124 S 
ATOM     50  O   UNL A   1      44.893  17.930  25.723  1.00  0.00    -0.237 OA
ATOM     51  O   UNL A   1      45.368  18.986  23.536  1.00  0.00    -0.237 OA
ATOM     52  O   UNL A   1      46.968  19.219  25.399  1.00  0.00    -0.744 OA
ENDBRANCH  45  49
ENDBRANCH  28  42
BRANCH  29  53
ATOM     53  C   UNL A   1      49.795  30.948  29.661  1.00  0.00     0.023 A 
ATOM     54  C   UNL A   1      51.000  30.758  30.356  1.00  0.00     0.031 A 
ATOM     55  C   UNL A   1      49.307  32.266  29.557  1.00  0.00     0.131 A 
ATOM     56  C   UNL A   1      51.630  31.848  30.981  1.00  0.00     0.055 A 
ATOM     57  C   UNL A   1      49.979  33.358  30.112  1.00  0.00     0.041 A 
ATOM     58  F   UNL A   1      48.155  32.520  28.916  1.00  0.00    -0.206 F 
ATOM     59  C   UNL A   1      51.137  33.148  30.850  1.00  0.00     0.022 A 
BRANCH  56  60
ATOM     60  S   UNL A   1      53.023  31.519  32.096  1.00  0.00     0.124 S 
ATOM     61  O   UNL A   1      52.691  30.191  32.600  1.00  0.00    -0.237 OA
ATOM     62  O   UNL A   1      54.162  31.595  31.186  1.00  0.00    -0.237 OA
ATOM     63  O   UNL A   1      52.935  32.599  33.076  1.00  0.00    -0.744 OA
ENDBRANCH  56  60
ENDBRANCH  29  53
BRANCH  41  64
ATOM     64  C   UNL A   1      49.886  27.273  23.729  1.00  0.00     0.023 A 
ATOM     65  C   UNL A   1      51.264  27.006  23.710  1.00  0.00     0.031 A 
ATOM     66  C   UNL A   1      49.267  27.689  22.538  1.00  0.00     0.131 A 
ATOM     67  C   UNL A   1      51.993  27.216  22.534  1.00  0.00     0.055 A 
ATOM     68  C   UNL A   1      49.985  27.823  21.352  1.00  0.00     0.041 A 
ATOM     69  F   UNL A   1      47.952  27.958  22.508  1.00  0.00    -0.206 F 
ATOM     70  C   UNL A   1      51.359  27.599  21.349  1.00  0.00     0.022 A 
BRANCH  67  71
ATOM     71  S   UNL A   1      53.798  27.076  22.602  1.00  0.00     0.124 S 
ATOM     72  O   UNL A   1      54.211  28.475  22.545  1.00  0.00    -0.237 OA
ATOM     73  O   UNL A   1      54.012  26.400  23.877  1.00  0.00    -0.237 OA
ATOM     74  O   UNL A   1      54.124  26.284  21.418  1.00  0.00    -0.744 OA
ENDBRANCH  67  71
ENDBRANCH  41  64
ENDBRANCH  15  16
ENDBRANCH   8  10
ENDBRANCH   7   8
ENDBRANCH   6   7
ENDBRANCH   5   6
ENDBRANCH   4   5
ENDBRANCH   3   4
ENDBRANCH   2   3
ENDBRANCH   1   2
BRANCH   1  75
ATOM     75  C   UNL A   1      46.988  22.001  37.093  1.00  0.00     0.188 C 
BRANCH  75  76
ATOM     76  C   UNL A   1      47.790  22.173  35.770  1.00  0.00     0.188 C 
BRANCH  76  77
ATOM     77  O   UNL A   1      47.830  21.038  34.931  1.00  0.00    -0.376 OA
BRANCH  77  78
ATOM     78  C   UNL A   1      48.944  20.815  34.087  1.00  0.00     0.202 C 
BRANCH  78  79
ATOM     79  C   UNL A   1      49.901  19.627  34.253  1.00  0.00     0.261 C 
BRANCH  79  80
ATOM     80  O   UNL A   1      51.306  19.903  34.316  1.00  0.00    -0.460 OA
BRANCH  80  81
ATOM     81  C   UNL A   1      51.924  19.726  35.502  1.00  0.00     0.340 C 
ATOM     82  O   UNL A   1      52.810  18.921  35.754  1.00  0.00    -0.246 OA
BRANCH  81  83
ATOM     83  C   UNL A   1      51.487  20.731  36.468  1.00  0.00     0.091 A 
ATOM     84  C   UNL A   1      50.960  20.176  37.641  1.00  0.00     0.127 A 
ATOM     85  C   UNL A   1      51.612  22.119  36.388  1.00  0.00     0.057 A 
ATOM     86  N   UNL A   1      50.611  20.881  38.742  1.00  0.00    -0.264 NA
ATOM     87  C   UNL A   1      51.220  22.858  37.528  1.00  0.00     0.035 A 
ATOM     88  C   UNL A   1      50.755  22.212  38.662  1.00  0.00     0.112 A 
BRANCH  85  89
ATOM     89  C   UNL A   1      52.247  22.949  35.311  1.00  0.00     0.254 C 
ATOM     90  O   UNL A   1      53.481  22.924  35.244  1.00  0.00    -0.269 OA
ATOM     91  N   UNL A   1      51.533  23.638  34.336  1.00  0.00    -0.339 N 
ATOM     92  C   UNL A   1      51.926  23.337  32.961  1.00  0.00     0.120 C 
ATOM     93  C   UNL A   1      50.405  24.534  34.585  1.00  0.00     0.120 C 
ATOM     94  C   UNL A   1      51.794  24.509  32.005  1.00  0.00     0.025 C 
ATOM     95  C   UNL A   1      50.154  25.592  33.519  1.00  0.00     0.025 C 
ATOM     96  C   UNL A   1      50.384  25.096  32.083  1.00  0.00    -0.003 C 
BRANCH  96  97
ATOM     97  C   UNL A   1      50.125  26.265  31.117  1.00  0.00     0.039 C 
BRANCH  97  98
ATOM     98  C   UNL A   1      50.675  26.118  29.722  1.00  0.00    -0.048 A 
ATOM     99  C   UNL A   1      50.086  25.194  28.846  1.00  0.00     0.004 A 
ATOM    100  C   UNL A   1      51.778  26.860  29.286  1.00  0.00     0.004 A 
ATOM    101  C   UNL A   1      50.605  24.993  27.570  1.00  0.00     0.000 A 
ATOM    102  C   UNL A   1      52.298  26.659  28.004  1.00  0.00     0.000 A 
ATOM    103  C   UNL A   1      51.716  25.722  27.150  1.00  0.00     0.000 A 
ENDBRANCH  97  98
ENDBRANCH  96  97
ENDBRANCH  85  89
ENDBRANCH  81  83
ENDBRANCH  80  81
ENDBRANCH  79  80
ENDBRANCH  78  79
ENDBRANCH  77  78
ENDBRANCH  76  77
ENDBRANCH  75  76
ENDBRANCH   1  75
TORSDOF 26
ENDMDL
MODEL 3
REMARK VINA RESULT:      -8.5      2.673      3.735
REMARK SMILES O=C(OCCOCCOCCOCCOC(=O)c1cnccc1C(=O)N1CCC(Cc2ccccc2)CC1)c1ccc(-c2c3nc(c(-c4cc(S(=O)(=O)[O-])ccc4F)c4ccc([nH]4)c(-c4cc(S(=O)(=O)[O-])ccc4F)c4nc(c(-c5cc(S(=O)(=O)[O-])ccc5F)c5ccc2[nH]5)C=C4)C=C3)cc1
REMARK SMILES IDX 9 1 8 2 7 3 6 4 5 5 4 6 3 7 2 8 1 9 39 10 40 11 101 12 41 13
REMARK SMILES IDX 100 14 42 15 43 16 44 17 94 18 45 19 99 20 93 21 95 22 46 23
REMARK SMILES IDX 98 24 92 25 91 26 47 28 79 29 59 30 78 31 60 32 63 33 77 34
REMARK SMILES IDX 96 35 61 36 62 37 76 39 97 40 64 41 48 42 49 43 57 44 50 45
REMARK SMILES IDX 56 46 58 47 55 48 51 49 52 50 53 51 54 52 80 53 81 54 89 55
REMARK SMILES IDX 82 56 88 57 90 58 87 59 83 60 84 61 85 62 86 63 65 64 66 65
REMARK SMILES IDX 74 66 67 67 73 68 75 69 72 70 68 71 69 72 70 73 71 74 10 75
REMARK SMILES IDX 11 76 12 77 13 78 14 79 15 80 16 81 17 82 18 83 19 84 23 85
REMARK SMILES IDX 20 86 22 87 21 88 24 89 25 90 26 91 27 92 38 93 28 94 37 95
REMARK SMILES IDX 29 96 30 97 31 98 32 99 36 100 33 101 35 102 34 103
REMARK H PARENT 95 27 63 38
REMARK Flexibility Score: inf
ROOT
ATOM      1  O   UNL A   1      34.735  32.847  27.700  1.00  0.00    -0.377 OA
ENDROOT
BRANCH   1   2
ATOM      2  C   UNL A   1      35.150  33.465  28.922  1.00  0.00     0.188 C 
BRANCH   2   3
ATOM      3  C   UNL A   1      34.801  32.711  30.210  1.00  0.00     0.188 C 
BRANCH   3   4
ATOM      4  O   UNL A   1      34.081  33.591  31.048  1.00  0.00    -0.376 OA
BRANCH   4   5
ATOM      5  C   UNL A   1      34.114  34.989  30.862  1.00  0.00     0.202 C 
BRANCH   5   6
ATOM      6  C   UNL A   1      34.258  35.814  32.127  1.00  0.00     0.261 C 
BRANCH   6   7
ATOM      7  O   UNL A   1      35.423  35.519  32.917  1.00  0.00    -0.460 OA
BRANCH   7   8
ATOM      8  C   UNL A   1      35.737  34.443  33.674  1.00  0.00     0.338 C 
ATOM      9  O   UNL A   1      34.877  34.000  34.436  1.00  0.00    -0.246 OA
BRANCH   8  10
ATOM     10  C   UNL A   1      37.041  33.728  33.630  1.00  0.00     0.060 A 
ATOM     11  C   UNL A   1      38.228  34.257  33.135  1.00  0.00     0.016 A 
ATOM     12  C   UNL A   1      37.110  32.491  34.289  1.00  0.00     0.016 A 
ATOM     13  C   UNL A   1      39.422  33.567  33.176  1.00  0.00     0.010 A 
ATOM     14  C   UNL A   1      38.328  31.811  34.407  1.00  0.00     0.010 A 
ATOM     15  C   UNL A   1      39.483  32.346  33.824  1.00  0.00    -0.014 A 
BRANCH  15  16
ATOM     16  C   UNL A   1      40.749  31.608  33.735  1.00  0.00     0.031 A 
ATOM     17  C   UNL A   1      40.993  30.824  32.485  1.00  0.00     0.074 A 
ATOM     18  C   UNL A   1      41.696  31.783  34.674  1.00  0.00     0.049 A 
ATOM     19  N   UNL A   1      41.958  29.999  32.204  1.00  0.00    -0.248 NA
ATOM     20  C   UNL A   1      40.015  31.006  31.396  1.00  0.00     0.031 C 
ATOM     21  C   UNL A   1      41.592  32.692  35.823  1.00  0.00     0.029 A 
ATOM     22  N   UNL A   1      42.942  31.233  34.805  1.00  0.00    -0.354 N 
ATOM     23  C   UNL A   1      41.677  29.521  30.931  1.00  0.00     0.074 A 
ATOM     24  C   UNL A   1      40.460  30.157  30.485  1.00  0.00     0.031 C 
ATOM     25  C   UNL A   1      42.730  32.638  36.534  1.00  0.00     0.029 A 
ATOM     26  C   UNL A   1      43.593  31.617  35.956  1.00  0.00     0.049 A 
ATOM     27  H   UNL A   1      43.336  30.623  34.140  1.00  0.00     0.167 HD
ATOM     28  C   UNL A   1      42.378  28.608  30.224  1.00  0.00     0.034 A 
ATOM     29  C   UNL A   1      44.721  31.129  36.505  1.00  0.00     0.034 A 
ATOM     30  C   UNL A   1      43.589  28.016  30.726  1.00  0.00     0.049 A 
ATOM     31  C   UNL A   1      45.411  30.012  35.756  1.00  0.00     0.074 A 
ATOM     32  C   UNL A   1      44.375  27.037  30.152  1.00  0.00     0.029 A 
ATOM     33  N   UNL A   1      44.181  28.352  31.940  1.00  0.00    -0.354 N 
ATOM     34  N   UNL A   1      45.103  29.490  34.587  1.00  0.00    -0.248 NA
ATOM     35  C   UNL A   1      46.582  29.407  36.396  1.00  0.00     0.031 C 
ATOM     36  C   UNL A   1      45.396  26.725  31.055  1.00  0.00     0.029 A 
ATOM     37  C   UNL A   1      45.300  27.570  32.152  1.00  0.00     0.049 A 
ATOM     38  H   UNL A   1      43.850  29.045  32.555  1.00  0.00     0.167 HD
ATOM     39  C   UNL A   1      46.054  28.507  34.346  1.00  0.00     0.074 A 
ATOM     40  C   UNL A   1      46.965  28.534  35.475  1.00  0.00     0.031 C 
ATOM     41  C   UNL A   1      46.171  27.647  33.302  1.00  0.00     0.034 A 
BRANCH  28  42
ATOM     42  C   UNL A   1      41.782  28.126  28.930  1.00  0.00     0.023 A 
ATOM     43  C   UNL A   1      41.057  26.926  28.829  1.00  0.00     0.031 A 
ATOM     44  C   UNL A   1      42.000  28.867  27.755  1.00  0.00     0.131 A 
ATOM     45  C   UNL A   1      40.621  26.480  27.572  1.00  0.00     0.055 A 
ATOM     46  C   UNL A   1      41.501  28.454  26.519  1.00  0.00     0.041 A 
ATOM     47  F   UNL A   1      42.724  29.997  27.785  1.00  0.00    -0.206 F 
ATOM     48  C   UNL A   1      40.815  27.248  26.421  1.00  0.00     0.022 A 
BRANCH  45  49
ATOM     49  S   UNL A   1      39.901  24.820  27.437  1.00  0.00     0.124 S 
ATOM     50  O   UNL A   1      41.081  23.973  27.590  1.00  0.00    -0.237 OA
ATOM     51  O   UNL A   1      38.951  24.793  28.543  1.00  0.00    -0.237 OA
ATOM     52  O   UNL A   1      39.305  24.811  26.102  1.00  0.00    -0.744 OA
ENDBRANCH  45  49
ENDBRANCH  28  42
BRANCH  29  53
ATOM     53  C   UNL A   1      45.197  31.576  37.851  1.00  0.00     0.023 A 
ATOM     54  C   UNL A   1      44.811  30.903  39.021  1.00  0.00     0.031 A 
ATOM     55  C   UNL A   1      45.962  32.750  38.000  1.00  0.00     0.131 A 
ATOM     56  C   UNL A   1      45.122  31.446  40.279  1.00  0.00     0.055 A 
ATOM     57  C   UNL A   1      46.336  33.243  39.252  1.00  0.00     0.041 A 
ATOM     58  F   UNL A   1      46.356  33.450  36.924  1.00  0.00    -0.206 F 
ATOM     59  C   UNL A   1      45.895  32.603  40.403  1.00  0.00     0.022 A 
BRANCH  56  60
ATOM     60  S   UNL A   1      44.370  30.702  41.753  1.00  0.00     0.124 S 
ATOM     61  O   UNL A   1      42.991  31.166  41.648  1.00  0.00    -0.237 OA
ATOM     62  O   UNL A   1      44.589  29.278  41.516  1.00  0.00    -0.237 OA
ATOM     63  O   UNL A   1      45.141  31.276  42.854  1.00  0.00    -0.744 OA
ENDBRANCH  56  60
ENDBRANCH  29  53
BRANCH  41  64
ATOM     64  C   UNL A   1      47.347  26.708  33.335  1.00  0.00     0.023 A 
ATOM     65  C   UNL A   1      47.239  25.420  33.882  1.00  0.00     0.031 A 
ATOM     66  C   UNL A   1      48.585  27.111  32.805  1.00  0.00     0.131 A 
ATOM     67  C   UNL A   1      48.370  24.597  33.941  1.00  0.00     0.055 A 
ATOM     68  C   UNL A   1      49.686  26.258  32.798  1.00  0.00     0.041 A 
ATOM     69  F   UNL A   1      48.737  28.334  32.273  1.00  0.00    -0.206 F 
ATOM     70  C   UNL A   1      49.586  24.998  33.381  1.00  0.00     0.022 A 
BRANCH  67  71
ATOM     71  S   UNL A   1      48.252  23.034  34.849  1.00  0.00     0.124 S 
ATOM     72  O   UNL A   1      46.858  22.662  34.631  1.00  0.00    -0.237 OA
ATOM     73  O   UNL A   1      49.247  22.206  34.175  1.00  0.00    -0.237 OA
ATOM     74  O   UNL A   1      48.588  23.411  36.221  1.00  0.00    -0.744 OA
ENDBRANCH  67  71
ENDBRANCH  41  64
ENDBRANCH  15  16
ENDBRANCH   8  10
ENDBRANCH   7   8
ENDBRANCH   6   7
ENDBRANCH   5   6
ENDBRANCH   4   5
ENDBRANCH   3   4
ENDBRANCH   2   3
ENDBRANCH   1   2
BRANCH   1  75
ATOM     75  C   UNL A   1      33.805  31.768  27.796  1.00  0.00     0.188 C 
BRANCH  75  76
ATOM     76  C   UNL A   1      34.201  30.346  27.305  1.00  0.00     0.188 C 
BRANCH  76  77
ATOM     77  O   UNL A   1      33.155  29.397  27.282  1.00  0.00    -0.376 OA
BRANCH  77  78
ATOM     78  C   UNL A   1      33.283  28.215  26.515  1.00  0.00     0.202 C 
BRANCH  78  79
ATOM     79  C   UNL A   1      32.588  26.896  26.879  1.00  0.00     0.261 C 
BRANCH  79  80
ATOM     80  O   UNL A   1      33.285  25.674  26.606  1.00  0.00    -0.460 OA
BRANCH  80  81
ATOM     81  C   UNL A   1      32.545  24.563  26.414  1.00  0.00     0.340 C 
ATOM     82  O   UNL A   1      31.679  24.122  27.156  1.00  0.00    -0.246 OA
BRANCH  81  83
ATOM     83  C   UNL A   1      32.815  23.981  25.101  1.00  0.00     0.091 A 
ATOM     84  C   UNL A   1      33.025  22.598  25.143  1.00  0.00     0.127 A 
ATOM     85  C   UNL A   1      32.802  24.613  23.856  1.00  0.00     0.057 A 
ATOM     86  N   UNL A   1      33.160  21.801  24.058  1.00  0.00    -0.264 NA
ATOM     87  C   UNL A   1      32.971  23.785  22.722  1.00  0.00     0.035 A 
ATOM     88  C   UNL A   1      33.124  22.415  22.866  1.00  0.00     0.112 A 
BRANCH  85  89
ATOM     89  C   UNL A   1      32.482  26.042  23.526  1.00  0.00     0.254 C 
ATOM     90  O   UNL A   1      33.440  26.786  23.290  1.00  0.00    -0.269 OA
ATOM     91  N   UNL A   1      31.190  26.532  23.362  1.00  0.00    -0.339 N 
ATOM     92  C   UNL A   1      30.953  27.222  22.096  1.00  0.00     0.120 C 
ATOM     93  C   UNL A   1      30.082  26.330  24.294  1.00  0.00     0.120 C 
ATOM     94  C   UNL A   1      29.955  28.363  22.186  1.00  0.00     0.025 C 
ATOM     95  C   UNL A   1      28.979  27.379  24.244  1.00  0.00     0.025 C 
ATOM     96  C   UNL A   1      28.654  27.875  22.826  1.00  0.00    -0.003 C 
BRANCH  96  97
ATOM     97  C   UNL A   1      27.551  28.943  22.924  1.00  0.00     0.039 C 
BRANCH  97  98
ATOM     98  C   UNL A   1      27.961  30.361  22.628  1.00  0.00    -0.048 A 
ATOM     99  C   UNL A   1      28.433  31.172  23.672  1.00  0.00     0.004 A 
ATOM    100  C   UNL A   1      27.856  30.903  21.342  1.00  0.00     0.004 A 
ATOM    101  C   UNL A   1      28.766  32.505  23.443  1.00  0.00     0.000 A 
ATOM    102  C   UNL A   1      28.192  32.241  21.113  1.00  0.00     0.000 A 
ATOM    103  C   UNL A   1      28.640  33.042  22.164  1.00  0.00     0.000 A 
ENDBRANCH  97  98
ENDBRANCH  96  97
ENDBRANCH  85  89
ENDBRANCH  81  83
ENDBRANCH  80  81
ENDBRANCH  79  80
ENDBRANCH  78  79
ENDBRANCH  77  78
ENDBRANCH  76  77
ENDBRANCH  75  76
ENDBRANCH   1  75
TORSDOF 26
ENDMDL
