MODEL 1
REMARK VINA RESULT:      -9.2      0.000      0.000
REMARK SMILES COc1ccc(C)cc1[C@@H](C)[C@@](O)(C(=O)OCCOCCOCCOCCOC(=O)c1ccc(-c2c3nc(c(-c4cc(S(=O)(=O)[O-])ccc4F)c4ccc([nH]4)c(-c4cc(S(=O)(=O)[O-])ccc4F)c4nc(c(-c5cc(S(=O)(=O)[O-])ccc5F)c5ccc2[nH]5)C=C4)C=C3)cc1)C(C)C
REMARK SMILES IDX 22 1 21 2 20 3 19 4 18 5 17 6 16 7 14 8 15 9 12 10 10 11
REMARK SMILES IDX 11 12 9 13 3 14 4 15 5 16 8 17 6 18 7 19 2 20 1 21 13 22
REMARK SMILES IDX 94 24 95 25 96 26 23 27 24 28 25 29 26 30 27 31 28 32 29 33
REMARK SMILES IDX 30 34 31 35 32 36 93 37 33 38 92 39 34 40 35 41 36 42 86 43
REMARK SMILES IDX 37 44 91 45 85 46 87 47 38 48 90 49 84 50 83 51 39 53 71 54
REMARK SMILES IDX 51 55 70 56 52 57 55 58 69 59 88 60 53 61 54 62 68 64 89 65
REMARK SMILES IDX 56 66 40 67 41 68 49 69 42 70 48 71 50 72 47 73 43 74 44 75
REMARK SMILES IDX 45 76 46 77 72 78 73 79 81 80 74 81 80 82 82 83 79 84 75 85
REMARK SMILES IDX 76 86 77 87 78 88 57 89 58 90 66 91 59 92 65 93 67 94 64 95
REMARK SMILES IDX 60 96 61 97 62 98 63 99
REMARK H PARENT 13 23 87 52 55 63
REMARK Flexibility Score: inf
ROOT
ATOM      1  O   UNL A   1      40.734  20.509  26.582  1.00  0.00    -0.377 OA
ENDROOT
BRANCH   1   2
ATOM      2  C   UNL A   1      40.448  21.737  25.903  1.00  0.00     0.188 C 
BRANCH   2   3
ATOM      3  C   UNL A   1      39.245  22.511  26.524  1.00  0.00     0.188 C 
BRANCH   3   4
ATOM      4  O   UNL A   1      38.007  22.076  26.002  1.00  0.00    -0.376 OA
BRANCH   4   5
ATOM      5  C   UNL A   1      36.901  22.984  26.006  1.00  0.00     0.202 C 
BRANCH   5   6
ATOM      6  C   UNL A   1      35.746  22.918  25.015  1.00  0.00     0.261 C 
BRANCH   6   7
ATOM      7  O   UNL A   1      35.013  24.094  24.967  1.00  0.00    -0.461 OA
BRANCH   7   8
ATOM      8  C   UNL A   1      33.781  23.751  24.565  1.00  0.00     0.339 C 
ATOM      9  O   UNL A   1      33.382  22.600  24.404  1.00  0.00    -0.249 OA
BRANCH   8  10
ATOM     10  C   UNL A   1      32.969  24.971  24.265  1.00  0.00     0.170 C 
BRANCH  10  11
ATOM     11  C   UNL A   1      32.348  25.668  25.554  1.00  0.00     0.063 C 
ATOM     12  C   UNL A   1      31.261  24.973  26.350  1.00  0.00     0.016 C 
BRANCH  11  13
ATOM     13  C   UNL A   1      31.821  27.039  25.226  1.00  0.00     0.001 A 
ATOM     14  C   UNL A   1      32.520  28.219  25.460  1.00  0.00     0.122 A 
ATOM     15  C   UNL A   1      32.048  29.406  24.906  1.00  0.00     0.047 A 
ATOM     16  C   UNL A   1      30.866  29.414  24.152  1.00  0.00     0.007 A 
ATOM     17  C   UNL A   1      30.569  27.102  24.623  1.00  0.00     0.011 A 
ATOM     18  C   UNL A   1      30.108  28.254  24.021  1.00  0.00    -0.051 A 
ATOM     19  C   UNL A   1      28.889  28.110  23.170  1.00  0.00     0.044 C 
BRANCH  14  20
ATOM     20  O   UNL A   1      33.691  28.200  26.171  1.00  0.00    -0.496 OA
ATOM     21  C   UNL A   1      33.959  29.495  26.728  1.00  0.00     0.278 C 
ENDBRANCH  14  20
ENDBRANCH  11  13
ENDBRANCH  10  11
BRANCH  10  22
ATOM     22  O   UNL A   1      34.095  25.832  23.859  1.00  0.00    -0.377 OA
ATOM     23  H   UNL A   1      34.602  25.393  23.159  1.00  0.00     0.212 HD
ENDBRANCH  10  22
BRANCH  10  24
ATOM     24  C   UNL A   1      32.160  24.520  22.987  1.00  0.00     0.027 C 
ATOM     25  C   UNL A   1      30.813  23.816  23.164  1.00  0.00     0.011 C 
ATOM     26  C   UNL A   1      32.236  25.546  21.862  1.00  0.00     0.011 C 
ENDBRANCH  10  24
ENDBRANCH   8  10
ENDBRANCH   7   8
ENDBRANCH   6   7
ENDBRANCH   5   6
ENDBRANCH   4   5
ENDBRANCH   3   4
ENDBRANCH   2   3
ENDBRANCH   1   2
BRANCH   1  27
ATOM     27  C   UNL A   1      41.888  19.738  26.208  1.00  0.00     0.188 C 
BRANCH  27  28
ATOM     28  C   UNL A   1      42.295  18.732  27.241  1.00  0.00     0.188 C 
BRANCH  28  29
ATOM     29  O   UNL A   1      43.356  17.997  26.638  1.00  0.00    -0.376 OA
BRANCH  29  30
ATOM     30  C   UNL A   1      43.788  18.549  25.414  1.00  0.00     0.202 C 
BRANCH  30  31
ATOM     31  C   UNL A   1      45.306  18.694  25.408  1.00  0.00     0.261 C 
BRANCH  31  32
ATOM     32  O   UNL A   1      45.613  20.108  25.438  1.00  0.00    -0.460 OA
BRANCH  32  33
ATOM     33  C   UNL A   1      44.913  20.860  24.551  1.00  0.00     0.338 C 
ATOM     34  O   UNL A   1      44.916  20.679  23.332  1.00  0.00    -0.246 OA
BRANCH  33  35
ATOM     35  C   UNL A   1      44.263  22.034  25.212  1.00  0.00     0.060 A 
ATOM     36  C   UNL A   1      43.554  22.957  24.435  1.00  0.00     0.016 A 
ATOM     37  C   UNL A   1      44.513  22.354  26.542  1.00  0.00     0.016 A 
ATOM     38  C   UNL A   1      43.223  24.230  24.948  1.00  0.00     0.010 A 
ATOM     39  C   UNL A   1      44.217  23.643  27.026  1.00  0.00     0.010 A 
ATOM     40  C   UNL A   1      43.627  24.642  26.232  1.00  0.00    -0.014 A 
BRANCH  40  41
ATOM     41  C   UNL A   1      43.613  26.119  26.597  1.00  0.00     0.031 A 
ATOM     42  C   UNL A   1      42.315  26.936  26.977  1.00  0.00     0.074 A 
ATOM     43  C   UNL A   1      44.749  26.573  27.209  1.00  0.00     0.049 A 
ATOM     44  N   UNL A   1      42.198  28.219  27.283  1.00  0.00    -0.248 NA
ATOM     45  C   UNL A   1      40.994  26.293  27.005  1.00  0.00     0.031 C 
ATOM     46  C   UNL A   1      45.080  26.188  28.575  1.00  0.00     0.029 A 
ATOM     47  N   UNL A   1      46.062  26.807  26.761  1.00  0.00    -0.354 N 
ATOM     48  C   UNL A   1      40.917  28.435  27.871  1.00  0.00     0.074 A 
ATOM     49  C   UNL A   1      40.214  27.202  27.595  1.00  0.00     0.031 C 
ATOM     50  C   UNL A   1      46.279  26.594  28.970  1.00  0.00     0.029 A 
ATOM     51  C   UNL A   1      46.775  27.318  27.852  1.00  0.00     0.049 A 
ATOM     52  H   UNL A   1      46.411  26.643  25.854  1.00  0.00     0.167 HD
ATOM     53  C   UNL A   1      40.545  29.476  28.722  1.00  0.00     0.034 A 
ATOM     54  C   UNL A   1      47.967  27.884  28.054  1.00  0.00     0.034 A 
ATOM     55  C   UNL A   1      41.680  30.296  29.258  1.00  0.00     0.049 A 
ATOM     56  C   UNL A   1      47.601  29.313  28.405  1.00  0.00     0.074 A 
ATOM     57  C   UNL A   1      42.005  30.679  30.560  1.00  0.00     0.029 A 
ATOM     58  N   UNL A   1      42.808  30.650  28.499  1.00  0.00    -0.354 N 
ATOM     59  N   UNL A   1      46.405  29.686  28.847  1.00  0.00    -0.248 NA
ATOM     60  C   UNL A   1      48.470  30.458  28.184  1.00  0.00     0.031 C 
ATOM     61  C   UNL A   1      43.300  31.254  30.578  1.00  0.00     0.029 A 
ATOM     62  C   UNL A   1      43.839  31.151  29.303  1.00  0.00     0.049 A 
ATOM     63  H   UNL A   1      42.867  30.557  27.521  1.00  0.00     0.167 HD
ATOM     64  C   UNL A   1      46.261  31.054  28.731  1.00  0.00     0.074 A 
ATOM     65  C   UNL A   1      47.630  31.481  28.433  1.00  0.00     0.031 C 
ATOM     66  C   UNL A   1      45.058  31.745  28.743  1.00  0.00     0.034 A 
BRANCH  53  67
ATOM     67  C   UNL A   1      39.099  29.644  29.395  1.00  0.00     0.023 A 
ATOM     68  C   UNL A   1      38.267  30.771  29.116  1.00  0.00     0.031 A 
ATOM     69  C   UNL A   1      38.461  28.717  30.254  1.00  0.00     0.131 A 
ATOM     70  C   UNL A   1      37.016  31.008  29.753  1.00  0.00     0.055 A 
ATOM     71  C   UNL A   1      37.229  28.958  30.912  1.00  0.00     0.041 A 
ATOM     72  F   UNL A   1      38.931  27.476  30.430  1.00  0.00    -0.206 F 
ATOM     73  C   UNL A   1      36.506  30.114  30.678  1.00  0.00     0.022 A 
BRANCH  70  74
ATOM     74  S   UNL A   1      36.016  32.472  29.310  1.00  0.00     0.124 S 
ATOM     75  O   UNL A   1      35.860  32.316  27.869  1.00  0.00    -0.237 OA
ATOM     76  O   UNL A   1      34.815  32.294  30.117  1.00  0.00    -0.237 OA
ATOM     77  O   UNL A   1      36.859  33.598  29.715  1.00  0.00    -0.744 OA
ENDBRANCH  70  74
ENDBRANCH  53  67
BRANCH  54  78
ATOM     78  C   UNL A   1      49.085  26.916  27.816  1.00  0.00     0.023 A 
ATOM     79  C   UNL A   1      49.679  26.851  26.513  1.00  0.00     0.031 A 
ATOM     80  C   UNL A   1      49.977  26.804  28.903  1.00  0.00     0.131 A 
ATOM     81  C   UNL A   1      51.091  26.900  26.355  1.00  0.00     0.055 A 
ATOM     82  C   UNL A   1      51.368  26.908  28.738  1.00  0.00     0.041 A 
ATOM     83  F   UNL A   1      49.505  26.883  30.157  1.00  0.00    -0.206 F 
ATOM     84  C   UNL A   1      51.926  26.997  27.469  1.00  0.00     0.022 A 
BRANCH  81  85
ATOM     85  S   UNL A   1      51.882  27.087  24.712  1.00  0.00     0.124 S 
ATOM     86  O   UNL A   1      52.646  28.318  24.881  1.00  0.00    -0.237 OA
ATOM     87  O   UNL A   1      52.664  25.866  24.576  1.00  0.00    -0.237 OA
ATOM     88  O   UNL A   1      50.744  27.177  23.797  1.00  0.00    -0.744 OA
ENDBRANCH  81  85
ENDBRANCH  54  78
BRANCH  66  89
ATOM     89  C   UNL A   1      44.877  33.166  28.213  1.00  0.00     0.023 A 
ATOM     90  C   UNL A   1      45.164  34.286  28.989  1.00  0.00     0.031 A 
ATOM     91  C   UNL A   1      44.548  33.444  26.856  1.00  0.00     0.131 A 
ATOM     92  C   UNL A   1      45.029  35.585  28.483  1.00  0.00     0.055 A 
ATOM     93  C   UNL A   1      44.537  34.735  26.319  1.00  0.00     0.041 A 
ATOM     94  F   UNL A   1      44.244  32.483  25.973  1.00  0.00    -0.206 F 
ATOM     95  C   UNL A   1      44.760  35.824  27.140  1.00  0.00     0.022 A 
BRANCH  92  96
ATOM     96  S   UNL A   1      45.121  36.938  29.674  1.00  0.00     0.124 S 
ATOM     97  O   UNL A   1      46.032  37.862  29.001  1.00  0.00    -0.237 OA
ATOM     98  O   UNL A   1      43.731  37.375  29.758  1.00  0.00    -0.237 OA
ATOM     99  O   UNL A   1      45.652  36.302  30.877  1.00  0.00    -0.744 OA
ENDBRANCH  92  96
ENDBRANCH  66  89
ENDBRANCH  40  41
ENDBRANCH  33  35
ENDBRANCH  32  33
ENDBRANCH  31  32
ENDBRANCH  30  31
ENDBRANCH  29  30
ENDBRANCH  28  29
ENDBRANCH  27  28
ENDBRANCH   1  27
TORSDOF 28
ENDMDL
MODEL 2
REMARK VINA RESULT:      -8.9      4.910      5.961
REMARK SMILES COc1ccc(C)cc1[C@@H](C)[C@@](O)(C(=O)OCCOCCOCCOCCOC(=O)c1ccc(-c2c3nc(c(-c4cc(S(=O)(=O)[O-])ccc4F)c4ccc([nH]4)c(-c4cc(S(=O)(=O)[O-])ccc4F)c4nc(c(-c5cc(S(=O)(=O)[O-])ccc5F)c5ccc2[nH]5)C=C4)C=C3)cc1)C(C)C
REMARK SMILES IDX 22 1 21 2 20 3 19 4 18 5 17 6 16 7 14 8 15 9 12 10 10 11
REMARK SMILES IDX 11 12 9 13 3 14 4 15 5 16 8 17 6 18 7 19 2 20 1 21 13 22
REMARK SMILES IDX 94 24 95 25 96 26 23 27 24 28 25 29 26 30 27 31 28 32 29 33
REMARK SMILES IDX 30 34 31 35 32 36 93 37 33 38 92 39 34 40 35 41 36 42 86 43
REMARK SMILES IDX 37 44 91 45 85 46 87 47 38 48 90 49 84 50 83 51 39 53 71 54
REMARK SMILES IDX 51 55 70 56 52 57 55 58 69 59 88 60 53 61 54 62 68 64 89 65
REMARK SMILES IDX 56 66 40 67 41 68 49 69 42 70 48 71 50 72 47 73 43 74 44 75
REMARK SMILES IDX 45 76 46 77 72 78 73 79 81 80 74 81 80 82 82 83 79 84 75 85
REMARK SMILES IDX 76 86 77 87 78 88 57 89 58 90 66 91 59 92 65 93 67 94 64 95
REMARK SMILES IDX 60 96 61 97 62 98 63 99
REMARK H PARENT 13 23 87 52 55 63
REMARK Flexibility Score: inf
ROOT
ATOM      1  O   UNL A   1      41.675  20.828  26.621  1.00  0.00    -0.377 OA
ENDROOT
BRANCH   1   2
ATOM      2  C   UNL A   1      40.591  21.530  27.239  1.00  0.00     0.188 C 
BRANCH   2   3
ATOM      3  C   UNL A   1      40.069  22.721  26.379  1.00  0.00     0.188 C 
BRANCH   3   4
ATOM      4  O   UNL A   1      38.658  22.793  26.368  1.00  0.00    -0.376 OA
BRANCH   4   5
ATOM      5  C   UNL A   1      37.921  21.758  25.709  1.00  0.00     0.202 C 
BRANCH   5   6
ATOM      6  C   UNL A   1      37.426  21.855  24.271  1.00  0.00     0.261 C 
BRANCH   6   7
ATOM      7  O   UNL A   1      36.049  21.721  24.169  1.00  0.00    -0.461 OA
BRANCH   7   8
ATOM      8  C   UNL A   1      35.599  22.868  23.642  1.00  0.00     0.339 C 
ATOM      9  O   UNL A   1      36.239  23.604  22.895  1.00  0.00    -0.249 OA
BRANCH   8  10
ATOM     10  C   UNL A   1      34.226  23.174  24.149  1.00  0.00     0.170 C 
BRANCH  10  11
ATOM     11  C   UNL A   1      34.206  23.898  25.566  1.00  0.00     0.063 C 
ATOM     12  C   UNL A   1      34.635  23.151  26.814  1.00  0.00     0.016 C 
BRANCH  11  13
ATOM     13  C   UNL A   1      32.845  24.470  25.863  1.00  0.00     0.001 A 
ATOM     14  C   UNL A   1      32.439  25.749  25.494  1.00  0.00     0.122 A 
ATOM     15  C   UNL A   1      31.094  26.089  25.603  1.00  0.00     0.047 A 
ATOM     16  C   UNL A   1      30.169  25.165  26.110  1.00  0.00     0.007 A 
ATOM     17  C   UNL A   1      31.944  23.636  26.518  1.00  0.00     0.011 A 
ATOM     18  C   UNL A   1      30.599  23.930  26.588  1.00  0.00    -0.051 A 
ATOM     19  C   UNL A   1      29.707  22.829  27.059  1.00  0.00     0.044 C 
BRANCH  14  20
ATOM     20  O   UNL A   1      33.342  26.636  24.971  1.00  0.00    -0.496 OA
ATOM     21  C   UNL A   1      32.795  27.963  24.968  1.00  0.00     0.278 C 
ENDBRANCH  14  20
ENDBRANCH  11  13
ENDBRANCH  10  11
BRANCH  10  22
ATOM     22  O   UNL A   1      33.909  24.226  23.168  1.00  0.00    -0.377 OA
ATOM     23  H   UNL A   1      34.729  24.644  22.865  1.00  0.00     0.212 HD
ENDBRANCH  10  22
BRANCH  10  24
ATOM     24  C   UNL A   1      33.441  21.855  23.783  1.00  0.00     0.027 C 
ATOM     25  C   UNL A   1      33.110  20.849  24.888  1.00  0.00     0.011 C 
ATOM     26  C   UNL A   1      32.344  22.101  22.753  1.00  0.00     0.011 C 
ENDBRANCH  10  24
ENDBRANCH   8  10
ENDBRANCH   7   8
ENDBRANCH   6   7
ENDBRANCH   5   6
ENDBRANCH   4   5
ENDBRANCH   3   4
ENDBRANCH   2   3
ENDBRANCH   1   2
BRANCH   1  27
ATOM     27  C   UNL A   1      41.533  19.432  26.306  1.00  0.00     0.188 C 
BRANCH  27  28
ATOM     28  C   UNL A   1      42.830  18.761  25.969  1.00  0.00     0.188 C 
BRANCH  28  29
ATOM     29  O   UNL A   1      43.445  19.612  25.008  1.00  0.00    -0.376 OA
BRANCH  29  30
ATOM     30  C   UNL A   1      44.841  19.431  24.920  1.00  0.00     0.202 C 
BRANCH  30  31
ATOM     31  C   UNL A   1      45.485  20.626  24.223  1.00  0.00     0.261 C 
BRANCH  31  32
ATOM     32  O   UNL A   1      45.946  21.537  25.249  1.00  0.00    -0.460 OA
BRANCH  32  33
ATOM     33  C   UNL A   1      45.126  22.593  25.481  1.00  0.00     0.338 C 
ATOM     34  O   UNL A   1      44.475  23.171  24.609  1.00  0.00    -0.246 OA
BRANCH  33  35
ATOM     35  C   UNL A   1      45.231  23.076  26.893  1.00  0.00     0.060 A 
ATOM     36  C   UNL A   1      44.132  22.944  27.750  1.00  0.00     0.016 A 
ATOM     37  C   UNL A   1      46.309  23.842  27.325  1.00  0.00     0.016 A 
ATOM     38  C   UNL A   1      44.064  23.673  28.956  1.00  0.00     0.010 A 
ATOM     39  C   UNL A   1      46.208  24.599  28.508  1.00  0.00     0.010 A 
ATOM     40  C   UNL A   1      45.063  24.594  29.325  1.00  0.00    -0.014 A 
BRANCH  40  41
ATOM     41  C   UNL A   1      44.779  25.638  30.395  1.00  0.00     0.031 A 
ATOM     42  C   UNL A   1      43.624  26.714  30.313  1.00  0.00     0.074 A 
ATOM     43  C   UNL A   1      45.087  25.255  31.671  1.00  0.00     0.049 A 
ATOM     44  N   UNL A   1      43.315  27.671  31.174  1.00  0.00    -0.248 NA
ATOM     45  C   UNL A   1      42.718  26.768  29.158  1.00  0.00     0.031 C 
ATOM     46  C   UNL A   1      44.298  24.251  32.373  1.00  0.00     0.029 A 
ATOM     47  N   UNL A   1      46.300  25.044  32.352  1.00  0.00    -0.354 N 
ATOM     48  C   UNL A   1      42.018  28.172  30.857  1.00  0.00     0.074 A 
ATOM     49  C   UNL A   1      41.755  27.605  29.554  1.00  0.00     0.031 C 
ATOM     50  C   UNL A   1      44.809  23.889  33.541  1.00  0.00     0.029 A 
ATOM     51  C   UNL A   1      45.969  24.701  33.668  1.00  0.00     0.049 A 
ATOM     52  H   UNL A   1      47.207  25.124  31.975  1.00  0.00     0.167 HD
ATOM     53  C   UNL A   1      41.135  28.829  31.714  1.00  0.00     0.034 A 
ATOM     54  C   UNL A   1      46.618  24.548  34.825  1.00  0.00     0.034 A 
ATOM     55  C   UNL A   1      41.499  28.771  33.168  1.00  0.00     0.049 A 
ATOM     56  C   UNL A   1      46.109  25.714  35.648  1.00  0.00     0.074 A 
ATOM     57  C   UNL A   1      40.750  28.411  34.289  1.00  0.00     0.029 A 
ATOM     58  N   UNL A   1      42.817  28.863  33.643  1.00  0.00    -0.354 N 
ATOM     59  N   UNL A   1      44.978  26.363  35.396  1.00  0.00    -0.248 NA
ATOM     60  C   UNL A   1      46.853  26.339  36.731  1.00  0.00     0.031 C 
ATOM     61  C   UNL A   1      41.606  28.293  35.413  1.00  0.00     0.029 A 
ATOM     62  C   UNL A   1      42.912  28.487  34.987  1.00  0.00     0.049 A 
ATOM     63  H   UNL A   1      43.582  29.156  33.096  1.00  0.00     0.167 HD
ATOM     64  C   UNL A   1      44.963  27.571  36.065  1.00  0.00     0.074 A 
ATOM     65  C   UNL A   1      46.102  27.429  36.974  1.00  0.00     0.031 C 
ATOM     66  C   UNL A   1      44.145  28.651  35.767  1.00  0.00     0.034 A 
BRANCH  53  67
ATOM     67  C   UNL A   1      39.665  29.331  31.315  1.00  0.00     0.023 A 
ATOM     68  C   UNL A   1      39.381  30.711  31.078  1.00  0.00     0.031 A 
ATOM     69  C   UNL A   1      38.533  28.512  31.088  1.00  0.00     0.131 A 
ATOM     70  C   UNL A   1      38.077  31.215  30.807  1.00  0.00     0.055 A 
ATOM     71  C   UNL A   1      37.227  29.008  30.845  1.00  0.00     0.041 A 
ATOM     72  F   UNL A   1      38.631  27.182  30.982  1.00  0.00    -0.206 F 
ATOM     73  C   UNL A   1      36.988  30.365  30.719  1.00  0.00     0.022 A 
BRANCH  70  74
ATOM     74  S   UNL A   1      37.821  32.998  30.499  1.00  0.00     0.124 S 
ATOM     75  O   UNL A   1      39.173  33.457  30.200  1.00  0.00    -0.237 OA
ATOM     76  O   UNL A   1      36.875  32.997  29.390  1.00  0.00    -0.237 OA
ATOM     77  O   UNL A   1      37.274  33.489  31.765  1.00  0.00    -0.744 OA
ENDBRANCH  70  74
ENDBRANCH  53  67
BRANCH  54  78
ATOM     78  C   UNL A   1      47.548  23.373  34.784  1.00  0.00     0.023 A 
ATOM     79  C   UNL A   1      48.922  23.590  34.436  1.00  0.00     0.031 A 
ATOM     80  C   UNL A   1      47.316  22.433  35.810  1.00  0.00     0.131 A 
ATOM     81  C   UNL A   1      49.967  23.054  35.237  1.00  0.00     0.055 A 
ATOM     82  C   UNL A   1      48.351  21.953  36.627  1.00  0.00     0.041 A 
ATOM     83  F   UNL A   1      46.059  22.194  36.215  1.00  0.00    -0.206 F 
ATOM     84  C   UNL A   1      49.673  22.294  36.369  1.00  0.00     0.022 A 
BRANCH  81  85
ATOM     85  S   UNL A   1      51.722  23.521  34.987  1.00  0.00     0.124 S 
ATOM     86  O   UNL A   1      51.639  24.409  33.832  1.00  0.00    -0.237 OA
ATOM     87  O   UNL A   1      52.083  24.151  36.249  1.00  0.00    -0.237 OA
ATOM     88  O   UNL A   1      52.383  22.238  34.745  1.00  0.00    -0.744 OA
ENDBRANCH  81  85
ENDBRANCH  54  78
BRANCH  66  89
ATOM     89  C   UNL A   1      44.412  30.084  36.222  1.00  0.00     0.023 A 
ATOM     90  C   UNL A   1      43.581  30.739  37.129  1.00  0.00     0.031 A 
ATOM     91  C   UNL A   1      45.596  30.793  35.874  1.00  0.00     0.131 A 
ATOM     92  C   UNL A   1      43.854  32.040  37.568  1.00  0.00     0.055 A 
ATOM     93  C   UNL A   1      45.929  32.040  36.411  1.00  0.00     0.041 A 
ATOM     94  F   UNL A   1      46.502  30.310  35.014  1.00  0.00    -0.206 F 
ATOM     95  C   UNL A   1      45.044  32.685  37.253  1.00  0.00     0.022 A 
BRANCH  92  96
ATOM     96  S   UNL A   1      42.545  32.883  38.481  1.00  0.00     0.124 S 
ATOM     97  O   UNL A   1      42.156  31.861  39.450  1.00  0.00    -0.237 OA
ATOM     98  O   UNL A   1      43.245  34.039  39.034  1.00  0.00    -0.237 OA
ATOM     99  O   UNL A   1      41.549  33.184  37.457  1.00  0.00    -0.744 OA
ENDBRANCH  92  96
ENDBRANCH  66  89
ENDBRANCH  40  41
ENDBRANCH  33  35
ENDBRANCH  32  33
ENDBRANCH  31  32
ENDBRANCH  30  31
ENDBRANCH  29  30
ENDBRANCH  28  29
ENDBRANCH  27  28
ENDBRANCH   1  27
TORSDOF 28
ENDMDL
MODEL 3
REMARK VINA RESULT:      -8.6      3.905     10.520
REMARK SMILES COc1ccc(C)cc1[C@@H](C)[C@@](O)(C(=O)OCCOCCOCCOCCOC(=O)c1ccc(-c2c3nc(c(-c4cc(S(=O)(=O)[O-])ccc4F)c4ccc([nH]4)c(-c4cc(S(=O)(=O)[O-])ccc4F)c4nc(c(-c5cc(S(=O)(=O)[O-])ccc5F)c5ccc2[nH]5)C=C4)C=C3)cc1)C(C)C
REMARK SMILES IDX 22 1 21 2 20 3 19 4 18 5 17 6 16 7 14 8 15 9 12 10 10 11
REMARK SMILES IDX 11 12 9 13 3 14 4 15 5 16 8 17 6 18 7 19 2 20 1 21 13 22
REMARK SMILES IDX 94 24 95 25 96 26 23 27 24 28 25 29 26 30 27 31 28 32 29 33
REMARK SMILES IDX 30 34 31 35 32 36 93 37 33 38 92 39 34 40 35 41 36 42 86 43
REMARK SMILES IDX 37 44 91 45 85 46 87 47 38 48 90 49 84 50 83 51 39 53 71 54
REMARK SMILES IDX 51 55 70 56 52 57 55 58 69 59 88 60 53 61 54 62 68 64 89 65
REMARK SMILES IDX 56 66 40 67 41 68 49 69 42 70 48 71 50 72 47 73 43 74 44 75
REMARK SMILES IDX 45 76 46 77 72 78 73 79 81 80 74 81 80 82 82 83 79 84 75 85
REMARK SMILES IDX 76 86 77 87 78 88 57 89 58 90 66 91 59 92 65 93 67 94 64 95
REMARK SMILES IDX 60 96 61 97 62 98 63 99
REMARK H PARENT 13 23 87 52 55 63
REMARK Flexibility Score: inf
ROOT
ATOM      1  O   UNL A   1      34.618  29.076  27.169  1.00  0.00    -0.377 OA
ENDROOT
BRANCH   1   2
ATOM      2  C   UNL A   1      33.654  28.146  26.663  1.00  0.00     0.188 C 
BRANCH   2   3
ATOM      3  C   UNL A   1      32.183  28.598  26.912  1.00  0.00     0.188 C 
BRANCH   3   4
ATOM      4  O   UNL A   1      31.411  28.574  25.729  1.00  0.00    -0.376 OA
BRANCH   4   5
ATOM      5  C   UNL A   1      31.257  27.334  25.032  1.00  0.00     0.202 C 
BRANCH   5   6
ATOM      6  C   UNL A   1      30.418  26.171  25.546  1.00  0.00     0.261 C 
BRANCH   6   7
ATOM      7  O   UNL A   1      30.837  24.947  25.048  1.00  0.00    -0.461 OA
BRANCH   7   8
ATOM      8  C   UNL A   1      31.475  24.332  26.055  1.00  0.00     0.339 C 
ATOM      9  O   UNL A   1      31.359  24.615  27.245  1.00  0.00    -0.249 OA
BRANCH   8  10
ATOM     10  C   UNL A   1      32.412  23.295  25.525  1.00  0.00     0.170 C 
BRANCH  10  11
ATOM     11  C   UNL A   1      32.860  22.215  26.605  1.00  0.00     0.063 C 
ATOM     12  C   UNL A   1      33.338  22.656  27.975  1.00  0.00     0.016 C 
BRANCH  11  13
ATOM     13  C   UNL A   1      33.932  21.312  26.056  1.00  0.00     0.001 A 
ATOM     14  C   UNL A   1      33.676  20.148  25.337  1.00  0.00     0.122 A 
ATOM     15  C   UNL A   1      34.726  19.519  24.674  1.00  0.00     0.047 A 
ATOM     16  C   UNL A   1      36.027  20.034  24.760  1.00  0.00     0.007 A 
ATOM     17  C   UNL A   1      35.250  21.703  26.265  1.00  0.00     0.011 A 
ATOM     18  C   UNL A   1      36.298  21.128  25.576  1.00  0.00    -0.051 A 
ATOM     19  C   UNL A   1      37.614  21.826  25.677  1.00  0.00     0.044 C 
BRANCH  14  20
ATOM     20  O   UNL A   1      32.398  19.668  25.230  1.00  0.00    -0.496 OA
ATOM     21  C   UNL A   1      32.287  18.785  24.105  1.00  0.00     0.278 C 
ENDBRANCH  14  20
ENDBRANCH  11  13
ENDBRANCH  10  11
BRANCH  10  22
ATOM     22  O   UNL A   1      31.437  22.604  24.663  1.00  0.00    -0.377 OA
ATOM     23  H   UNL A   1      31.679  21.668  24.586  1.00  0.00     0.212 HD
ENDBRANCH  10  22
BRANCH  10  24
ATOM     24  C   UNL A   1      33.387  24.159  24.634  1.00  0.00     0.027 C 
ATOM     25  C   UNL A   1      34.506  24.957  25.306  1.00  0.00     0.011 C 
ATOM     26  C   UNL A   1      33.756  23.456  23.332  1.00  0.00     0.011 C 
ENDBRANCH  10  24
ENDBRANCH   8  10
ENDBRANCH   7   8
ENDBRANCH   6   7
ENDBRANCH   5   6
ENDBRANCH   4   5
ENDBRANCH   3   4
ENDBRANCH   2   3
ENDBRANCH   1   2
BRANCH   1  27
ATOM     27  C   UNL A   1      34.278  30.469  27.275  1.00  0.00     0.188 C 
BRANCH  27  28
ATOM     28  C   UNL A   1      35.279  31.271  28.050  1.00  0.00     0.188 C 
BRANCH  28  29
ATOM     29  O   UNL A   1      35.169  32.593  27.533  1.00  0.00    -0.376 OA
BRANCH  29  30
ATOM     30  C   UNL A   1      34.370  33.437  28.333  1.00  0.00     0.202 C 
BRANCH  30  31
ATOM     31  C   UNL A   1      34.543  33.083  29.807  1.00  0.00     0.261 C 
BRANCH  31  32
ATOM     32  O   UNL A   1      35.325  34.134  30.423  1.00  0.00    -0.460 OA
BRANCH  32  33
ATOM     33  C   UNL A   1      36.163  33.715  31.405  1.00  0.00     0.338 C 
ATOM     34  O   UNL A   1      35.798  33.148  32.436  1.00  0.00    -0.246 OA
BRANCH  33  35
ATOM     35  C   UNL A   1      37.568  34.168  31.163  1.00  0.00     0.060 A 
ATOM     36  C   UNL A   1      38.041  34.276  29.851  1.00  0.00     0.016 A 
ATOM     37  C   UNL A   1      38.487  34.285  32.201  1.00  0.00     0.016 A 
ATOM     38  C   UNL A   1      39.425  34.365  29.586  1.00  0.00     0.010 A 
ATOM     39  C   UNL A   1      39.866  34.328  31.922  1.00  0.00     0.010 A 
ATOM     40  C   UNL A   1      40.384  34.301  30.615  1.00  0.00    -0.014 A 
BRANCH  40  41
ATOM     41  C   UNL A   1      41.838  33.997  30.283  1.00  0.00     0.031 A 
ATOM     42  C   UNL A   1      42.410  32.550  30.008  1.00  0.00     0.074 A 
ATOM     43  C   UNL A   1      42.495  34.988  29.608  1.00  0.00     0.049 A 
ATOM     44  N   UNL A   1      43.653  32.184  29.738  1.00  0.00    -0.248 NA
ATOM     45  C   UNL A   1      41.539  31.368  30.052  1.00  0.00     0.031 C 
ATOM     46  C   UNL A   1      42.190  35.288  28.215  1.00  0.00     0.029 A 
ATOM     47  N   UNL A   1      42.958  36.265  29.974  1.00  0.00    -0.354 N 
ATOM     48  C   UNL A   1      43.640  30.848  29.240  1.00  0.00     0.074 A 
ATOM     49  C   UNL A   1      42.298  30.398  29.535  1.00  0.00     0.031 C 
ATOM     50  C   UNL A   1      42.809  36.364  27.751  1.00  0.00     0.029 A 
ATOM     51  C   UNL A   1      43.600  36.798  28.850  1.00  0.00     0.049 A 
ATOM     52  H   UNL A   1      42.852  36.699  30.852  1.00  0.00     0.167 HD
ATOM     53  C   UNL A   1      44.605  30.237  28.438  1.00  0.00     0.034 A 
ATOM     54  C   UNL A   1      44.374  37.852  28.582  1.00  0.00     0.034 A 
ATOM     55  C   UNL A   1      45.622  31.167  27.847  1.00  0.00     0.049 A 
ATOM     56  C   UNL A   1      45.717  37.213  28.287  1.00  0.00     0.074 A 
ATOM     57  C   UNL A   1      46.069  31.327  26.535  1.00  0.00     0.029 A 
ATOM     58  N   UNL A   1      46.167  32.262  28.537  1.00  0.00    -0.354 N 
ATOM     59  N   UNL A   1      45.871  35.942  27.933  1.00  0.00    -0.248 NA
ATOM     60  C   UNL A   1      46.998  37.875  28.475  1.00  0.00     0.031 C 
ATOM     61  C   UNL A   1      46.869  32.494  26.445  1.00  0.00     0.029 A 
ATOM     62  C   UNL A   1      46.853  33.128  27.679  1.00  0.00     0.049 A 
ATOM     63  H   UNL A   1      46.076  32.404  29.507  1.00  0.00     0.167 HD
ATOM     64  C   UNL A   1      47.190  35.563  28.088  1.00  0.00     0.074 A 
ATOM     65  C   UNL A   1      47.854  36.850  28.305  1.00  0.00     0.031 C 
ATOM     66  C   UNL A   1      47.652  34.256  28.170  1.00  0.00     0.034 A 
BRANCH  53  67
ATOM     67  C   UNL A   1      44.515  28.741  27.866  1.00  0.00     0.023 A 
ATOM     68  C   UNL A   1      45.174  27.650  28.509  1.00  0.00     0.031 A 
ATOM     69  C   UNL A   1      43.757  28.315  26.749  1.00  0.00     0.131 A 
ATOM     70  C   UNL A   1      45.196  26.323  27.993  1.00  0.00     0.055 A 
ATOM     71  C   UNL A   1      43.795  27.004  26.213  1.00  0.00     0.041 A 
ATOM     72  F   UNL A   1      42.850  29.108  26.165  1.00  0.00    -0.206 F 
ATOM     73  C   UNL A   1      44.529  26.002  26.823  1.00  0.00     0.022 A 
BRANCH  70  74
ATOM     74  S   UNL A   1      46.053  24.991  28.904  1.00  0.00     0.124 S 
ATOM     75  O   UNL A   1      45.075  23.910  28.863  1.00  0.00    -0.237 OA
ATOM     76  O   UNL A   1      47.268  24.800  28.122  1.00  0.00    -0.237 OA
ATOM     77  O   UNL A   1      46.270  25.568  30.232  1.00  0.00    -0.744 OA
ENDBRANCH  70  74
ENDBRANCH  53  67
BRANCH  54  78
ATOM     78  C   UNL A   1      43.621  39.140  28.725  1.00  0.00     0.023 A 
ATOM     79  C   UNL A   1      43.280  39.600  30.039  1.00  0.00     0.031 A 
ATOM     80  C   UNL A   1      44.027  40.136  27.812  1.00  0.00     0.131 A 
ATOM     81  C   UNL A   1      43.557  40.936  30.435  1.00  0.00     0.055 A 
ATOM     82  C   UNL A   1      44.349  41.438  28.227  1.00  0.00     0.041 A 
ATOM     83  F   UNL A   1      44.391  39.785  26.569  1.00  0.00    -0.206 F 
ATOM     84  C   UNL A   1      44.154  41.830  29.546  1.00  0.00     0.022 A 
BRANCH  81  85
ATOM     85  S   UNL A   1      43.386  41.492  32.174  1.00  0.00     0.124 S 
ATOM     86  O   UNL A   1      43.988  42.821  32.128  1.00  0.00    -0.237 OA
ATOM     87  O   UNL A   1      41.947  41.454  32.396  1.00  0.00    -0.237 OA
ATOM     88  O   UNL A   1      44.138  40.489  32.927  1.00  0.00    -0.744 OA
ENDBRANCH  81  85
ENDBRANCH  54  78
BRANCH  66  89
ATOM     89  C   UNL A   1      49.012  33.860  28.742  1.00  0.00     0.023 A 
ATOM     90  C   UNL A   1      50.143  33.735  27.939  1.00  0.00     0.031 A 
ATOM     91  C   UNL A   1      49.252  33.737  30.139  1.00  0.00     0.131 A 
ATOM     92  C   UNL A   1      51.394  33.405  28.477  1.00  0.00     0.055 A 
ATOM     93  C   UNL A   1      50.523  33.533  30.684  1.00  0.00     0.041 A 
ATOM     94  F   UNL A   1      48.275  33.829  31.052  1.00  0.00    -0.206 F 
ATOM     95  C   UNL A   1      51.607  33.345  29.848  1.00  0.00     0.022 A 
BRANCH  92  96
ATOM     96  S   UNL A   1      52.694  32.964  27.306  1.00  0.00     0.124 S 
ATOM     97  O   UNL A   1      52.147  33.475  26.051  1.00  0.00    -0.237 OA
ATOM     98  O   UNL A   1      53.847  33.689  27.831  1.00  0.00    -0.237 OA
ATOM     99  O   UNL A   1      52.769  31.509  27.407  1.00  0.00    -0.744 OA
ENDBRANCH  92  96
ENDBRANCH  66  89
ENDBRANCH  40  41
ENDBRANCH  33  35
ENDBRANCH  32  33
ENDBRANCH  31  32
ENDBRANCH  30  31
ENDBRANCH  29  30
ENDBRANCH  28  29
ENDBRANCH  27  28
ENDBRANCH   1  27
TORSDOF 28
ENDMDL
