MODEL 1
REMARK VINA RESULT:     -10.3      0.000      0.000
REMARK SMILES Cc1cc(C)c2c(c1)C=C(C(=O)OCCOCCOCCOCCOC(=O)c1ccc(-c3c4nc(c(-c5cc(S(=O)(=O)[O-])ccc5F)c5ccc([nH]5)c(-c5cc(S(=O)(=O)[O-])ccc5F)c5nc(c(-c6cc(S(=O)(=O)[O-])ccc6F)c6ccc3[nH]6)C=C5)C=C4)cc1)[C@@H](C(F)(F)F)O2
REMARK SMILES IDX 20 1 19 2 18 3 17 4 16 5 15 6 14 7 13 8 11 9 12 10 10 11
REMARK SMILES IDX 1 12 2 13 3 14 8 15 4 16 7 17 5 18 6 19 9 20 96 21 91 22
REMARK SMILES IDX 92 23 93 24 94 25 95 26 21 27 22 28 23 29 24 30 25 31 26 32
REMARK SMILES IDX 27 33 28 34 29 35 90 36 30 37 89 38 31 39 32 40 33 41 83 42
REMARK SMILES IDX 34 43 88 44 82 45 84 46 35 47 87 48 81 49 80 50 36 52 68 53
REMARK SMILES IDX 48 54 67 55 49 56 52 57 66 58 85 59 50 60 51 61 65 63 86 64
REMARK SMILES IDX 53 65 37 66 38 67 46 68 39 69 45 70 47 71 44 72 40 73 41 74
REMARK SMILES IDX 42 75 43 76 69 77 70 78 78 79 71 80 77 81 79 82 76 83 72 84
REMARK SMILES IDX 73 85 74 86 75 87 54 88 55 89 63 90 56 91 62 92 64 93 61 94
REMARK SMILES IDX 57 95 58 96 59 97 60 98
REMARK H PARENT 84 51 52 62
REMARK Flexibility Score: inf
ROOT
ATOM      1  C   UNL A   1      36.155  23.605  25.627  1.00  0.00     0.188 C 
ENDROOT
BRANCH   1   2
ATOM      2  O   UNL A   1      35.356  22.840  26.532  1.00  0.00    -0.377 OA
BRANCH   2   3
ATOM      3  C   UNL A   1      35.146  21.471  26.229  1.00  0.00     0.188 C 
BRANCH   3   4
ATOM      4  C   UNL A   1      33.660  21.130  26.013  1.00  0.00     0.188 C 
BRANCH   4   5
ATOM      5  O   UNL A   1      33.346  20.851  24.658  1.00  0.00    -0.376 OA
BRANCH   5   6
ATOM      6  C   UNL A   1      33.205  21.909  23.722  1.00  0.00     0.202 C 
BRANCH   6   7
ATOM      7  C   UNL A   1      31.846  22.326  23.130  1.00  0.00     0.261 C 
BRANCH   7   8
ATOM      8  O   UNL A   1      31.427  23.677  23.347  1.00  0.00    -0.460 OA
BRANCH   8   9
ATOM      9  C   UNL A   1      30.916  24.000  24.547  1.00  0.00     0.338 C 
ATOM     10  O   UNL A   1      30.697  23.248  25.479  1.00  0.00    -0.246 OA
BRANCH   9  11
ATOM     11  C   UNL A   1      30.830  25.478  24.608  1.00  0.00     0.087 C 
ATOM     12  C   UNL A   1      28.417  30.302  21.633  1.00  0.00     0.044 C 
ATOM     13  C   UNL A   1      29.207  29.588  22.689  1.00  0.00    -0.050 A 
ATOM     14  C   UNL A   1      29.953  30.311  23.627  1.00  0.00     0.010 A 
ATOM     15  C   UNL A   1      29.200  28.191  22.757  1.00  0.00     0.015 A 
ATOM     16  C   UNL A   1      30.695  29.654  24.621  1.00  0.00    -0.008 A 
ATOM     17  C   UNL A   1      29.960  27.522  23.723  1.00  0.00     0.018 A 
ATOM     18  C   UNL A   1      31.519  30.449  25.595  1.00  0.00     0.048 C 
ATOM     19  C   UNL A   1      30.677  28.251  24.674  1.00  0.00     0.130 A 
ATOM     20  C   UNL A   1      30.060  26.073  23.689  1.00  0.00     0.027 C 
ATOM     21  O   UNL A   1      31.395  27.664  25.677  1.00  0.00    -0.475 OA
ATOM     22  C   UNL A   1      31.524  26.218  25.723  1.00  0.00     0.316 C 
BRANCH  22  23
ATOM     23  C   UNL A   1      33.020  25.884  25.796  1.00  0.00     0.430 C 
ATOM     24  F   UNL A   1      33.562  25.778  24.558  1.00  0.00    -0.167 F 
ATOM     25  F   UNL A   1      33.725  26.833  26.452  1.00  0.00    -0.167 F 
ATOM     26  F   UNL A   1      33.237  24.708  26.432  1.00  0.00    -0.167 F 
ENDBRANCH  22  23
ENDBRANCH   9  11
ENDBRANCH   8   9
ENDBRANCH   7   8
ENDBRANCH   6   7
ENDBRANCH   5   6
ENDBRANCH   4   5
ENDBRANCH   3   4
ENDBRANCH   2   3
ENDBRANCH   1   2
BRANCH   1  27
ATOM     27  C   UNL A   1      37.701  23.551  25.661  1.00  0.00     0.188 C 
BRANCH  27  28
ATOM     28  O   UNL A   1      38.251  22.306  25.235  1.00  0.00    -0.376 OA
BRANCH  28  29
ATOM     29  C   UNL A   1      39.121  21.641  26.140  1.00  0.00     0.202 C 
BRANCH  29  30
ATOM     30  C   UNL A   1      39.479  20.203  25.742  1.00  0.00     0.261 C 
BRANCH  30  31
ATOM     31  O   UNL A   1      40.470  19.564  26.562  1.00  0.00    -0.460 OA
BRANCH  31  32
ATOM     32  C   UNL A   1      41.753  19.620  26.142  1.00  0.00     0.338 C 
ATOM     33  O   UNL A   1      42.350  18.775  25.499  1.00  0.00    -0.246 OA
BRANCH  32  34
ATOM     34  C   UNL A   1      42.252  20.980  26.426  1.00  0.00     0.060 A 
ATOM     35  C   UNL A   1      42.373  21.398  27.757  1.00  0.00     0.016 A 
ATOM     36  C   UNL A   1      42.622  21.829  25.379  1.00  0.00     0.016 A 
ATOM     37  C   UNL A   1      42.841  22.681  28.043  1.00  0.00     0.010 A 
ATOM     38  C   UNL A   1      43.066  23.121  25.666  1.00  0.00     0.010 A 
ATOM     39  C   UNL A   1      43.149  23.562  26.998  1.00  0.00    -0.014 A 
BRANCH  39  40
ATOM     40  C   UNL A   1      43.343  25.003  27.290  1.00  0.00     0.031 A 
ATOM     41  C   UNL A   1      44.662  25.626  26.920  1.00  0.00     0.074 A 
ATOM     42  C   UNL A   1      42.364  25.753  27.827  1.00  0.00     0.049 A 
ATOM     43  N   UNL A   1      45.079  26.851  27.094  1.00  0.00    -0.248 NA
ATOM     44  C   UNL A   1      45.640  24.742  26.263  1.00  0.00     0.031 C 
ATOM     45  C   UNL A   1      41.024  25.277  28.168  1.00  0.00     0.029 A 
ATOM     46  N   UNL A   1      42.346  27.082  28.170  1.00  0.00    -0.354 N 
ATOM     47  C   UNL A   1      46.358  26.892  26.554  1.00  0.00     0.074 A 
ATOM     48  C   UNL A   1      46.668  25.559  26.088  1.00  0.00     0.031 C 
ATOM     49  C   UNL A   1      40.312  26.305  28.666  1.00  0.00     0.029 A 
ATOM     50  C   UNL A   1      41.154  27.501  28.712  1.00  0.00     0.049 A 
ATOM     51  H   UNL A   1      43.117  27.681  28.040  1.00  0.00     0.167 HD
ATOM     52  C   UNL A   1      47.196  27.950  26.442  1.00  0.00     0.034 A 
ATOM     53  C   UNL A   1      40.791  28.705  29.200  1.00  0.00     0.034 A 
ATOM     54  C   UNL A   1      46.889  29.270  26.922  1.00  0.00     0.049 A 
ATOM     55  C   UNL A   1      41.789  29.840  29.178  1.00  0.00     0.074 A 
ATOM     56  C   UNL A   1      47.675  30.408  26.869  1.00  0.00     0.029 A 
ATOM     57  N   UNL A   1      45.705  29.632  27.548  1.00  0.00    -0.354 N 
ATOM     58  N   UNL A   1      43.008  29.858  28.692  1.00  0.00    -0.248 NA
ATOM     59  C   UNL A   1      41.364  31.113  29.778  1.00  0.00     0.031 C 
ATOM     60  C   UNL A   1      46.993  31.440  27.519  1.00  0.00     0.029 A 
ATOM     61  C   UNL A   1      45.752  30.965  27.916  1.00  0.00     0.049 A 
ATOM     62  H   UNL A   1      44.944  29.028  27.708  1.00  0.00     0.167 HD
ATOM     63  C   UNL A   1      43.484  31.148  28.904  1.00  0.00     0.074 A 
ATOM     64  C   UNL A   1      42.423  31.883  29.559  1.00  0.00     0.031 C 
ATOM     65  C   UNL A   1      44.690  31.680  28.580  1.00  0.00     0.034 A 
BRANCH  52  66
ATOM     66  C   UNL A   1      48.536  27.710  25.803  1.00  0.00     0.023 A 
ATOM     67  C   UNL A   1      48.698  27.746  24.408  1.00  0.00     0.031 A 
ATOM     68  C   UNL A   1      49.666  27.454  26.598  1.00  0.00     0.131 A 
ATOM     69  C   UNL A   1      49.958  27.493  23.847  1.00  0.00     0.055 A 
ATOM     70  C   UNL A   1      50.929  27.264  26.036  1.00  0.00     0.041 A 
ATOM     71  F   UNL A   1      49.559  27.385  27.935  1.00  0.00    -0.206 F 
ATOM     72  C   UNL A   1      51.078  27.277  24.652  1.00  0.00     0.022 A 
BRANCH  69  73
ATOM     73  S   UNL A   1      50.097  27.373  22.043  1.00  0.00     0.124 S 
ATOM     74  O   UNL A   1      49.824  28.748  21.634  1.00  0.00    -0.237 OA
ATOM     75  O   UNL A   1      51.468  26.912  21.860  1.00  0.00    -0.237 OA
ATOM     76  O   UNL A   1      49.062  26.405  21.684  1.00  0.00    -0.744 OA
ENDBRANCH  69  73
ENDBRANCH  52  66
BRANCH  53  77
ATOM     77  C   UNL A   1      39.432  28.905  29.779  1.00  0.00     0.023 A 
ATOM     78  C   UNL A   1      38.392  29.455  29.014  1.00  0.00     0.031 A 
ATOM     79  C   UNL A   1      39.164  28.574  31.120  1.00  0.00     0.131 A 
ATOM     80  C   UNL A   1      37.137  29.681  29.601  1.00  0.00     0.055 A 
ATOM     81  C   UNL A   1      37.903  28.763  31.687  1.00  0.00     0.041 A 
ATOM     82  F   UNL A   1      40.127  28.050  31.895  1.00  0.00    -0.206 F 
ATOM     83  C   UNL A   1      36.881  29.326  30.928  1.00  0.00     0.022 A 
BRANCH  80  84
ATOM     84  S   UNL A   1      35.844  30.483  28.613  1.00  0.00     0.124 S 
ATOM     85  O   UNL A   1      35.119  29.332  28.086  1.00  0.00    -0.237 OA
ATOM     86  O   UNL A   1      35.144  31.280  29.616  1.00  0.00    -0.237 OA
ATOM     87  O   UNL A   1      36.598  31.253  27.626  1.00  0.00    -0.744 OA
ENDBRANCH  80  84
ENDBRANCH  53  77
BRANCH  65  88
ATOM     88  C   UNL A   1      44.929  33.132  28.903  1.00  0.00     0.023 A 
ATOM     89  C   UNL A   1      44.386  34.159  28.115  1.00  0.00     0.031 A 
ATOM     90  C   UNL A   1      45.650  33.489  30.057  1.00  0.00     0.131 A 
ATOM     91  C   UNL A   1      44.589  35.498  28.479  1.00  0.00     0.055 A 
ATOM     92  C   UNL A   1      45.810  34.821  30.440  1.00  0.00     0.041 A 
ATOM     93  F   UNL A   1      46.184  32.543  30.848  1.00  0.00    -0.206 F 
ATOM     94  C   UNL A   1      45.280  35.835  29.646  1.00  0.00     0.022 A 
BRANCH  91  95
ATOM     95  S   UNL A   1      43.954  36.804  27.392  1.00  0.00     0.124 S 
ATOM     96  O   UNL A   1      45.186  37.398  26.883  1.00  0.00    -0.237 OA
ATOM     97  O   UNL A   1      43.161  36.053  26.425  1.00  0.00    -0.237 OA
ATOM     98  O   UNL A   1      43.181  37.657  28.295  1.00  0.00    -0.744 OA
ENDBRANCH  91  95
ENDBRANCH  65  88
ENDBRANCH  39  40
ENDBRANCH  32  34
ENDBRANCH  31  32
ENDBRANCH  30  31
ENDBRANCH  29  30
ENDBRANCH  28  29
ENDBRANCH  27  28
ENDBRANCH   1  27
TORSDOF 24
ENDMDL
MODEL 2
REMARK VINA RESULT:      -9.9      1.262      7.349
REMARK SMILES Cc1cc(C)c2c(c1)C=C(C(=O)OCCOCCOCCOCCOC(=O)c1ccc(-c3c4nc(c(-c5cc(S(=O)(=O)[O-])ccc5F)c5ccc([nH]5)c(-c5cc(S(=O)(=O)[O-])ccc5F)c5nc(c(-c6cc(S(=O)(=O)[O-])ccc6F)c6ccc3[nH]6)C=C5)C=C4)cc1)[C@@H](C(F)(F)F)O2
REMARK SMILES IDX 20 1 19 2 18 3 17 4 16 5 15 6 14 7 13 8 11 9 12 10 10 11
REMARK SMILES IDX 1 12 2 13 3 14 8 15 4 16 7 17 5 18 6 19 9 20 96 21 91 22
REMARK SMILES IDX 92 23 93 24 94 25 95 26 21 27 22 28 23 29 24 30 25 31 26 32
REMARK SMILES IDX 27 33 28 34 29 35 90 36 30 37 89 38 31 39 32 40 33 41 83 42
REMARK SMILES IDX 34 43 88 44 82 45 84 46 35 47 87 48 81 49 80 50 36 52 68 53
REMARK SMILES IDX 48 54 67 55 49 56 52 57 66 58 85 59 50 60 51 61 65 63 86 64
REMARK SMILES IDX 53 65 37 66 38 67 46 68 39 69 45 70 47 71 44 72 40 73 41 74
REMARK SMILES IDX 42 75 43 76 69 77 70 78 78 79 71 80 77 81 79 82 76 83 72 84
REMARK SMILES IDX 73 85 74 86 75 87 54 88 55 89 63 90 56 91 62 92 64 93 61 94
REMARK SMILES IDX 57 95 58 96 59 97 60 98
REMARK H PARENT 84 51 52 62
REMARK Flexibility Score: inf
ROOT
ATOM      1  C   UNL A   1      36.581  23.116  24.620  1.00  0.00     0.188 C 
ENDROOT
BRANCH   1   2
ATOM      2  O   UNL A   1      35.257  22.735  24.999  1.00  0.00    -0.377 OA
BRANCH   2   3
ATOM      3  C   UNL A   1      34.850  21.405  24.725  1.00  0.00     0.188 C 
BRANCH   3   4
ATOM      4  C   UNL A   1      33.320  21.234  24.754  1.00  0.00     0.188 C 
BRANCH   4   5
ATOM      5  O   UNL A   1      32.713  21.446  23.489  1.00  0.00    -0.376 OA
BRANCH   5   6
ATOM      6  C   UNL A   1      32.381  22.760  23.066  1.00  0.00     0.202 C 
BRANCH   6   7
ATOM      7  C   UNL A   1      31.187  23.546  23.638  1.00  0.00     0.261 C 
BRANCH   7   8
ATOM      8  O   UNL A   1      30.688  24.635  22.856  1.00  0.00    -0.460 OA
BRANCH   8   9
ATOM      9  C   UNL A   1      31.567  25.531  22.377  1.00  0.00     0.338 C 
ATOM     10  O   UNL A   1      32.288  25.404  21.403  1.00  0.00    -0.246 OA
BRANCH   9  11
ATOM     11  C   UNL A   1      31.380  26.787  23.138  1.00  0.00     0.087 C 
ATOM     12  C   UNL A   1      28.085  31.992  23.134  1.00  0.00     0.044 C 
ATOM     13  C   UNL A   1      29.112  31.010  23.616  1.00  0.00    -0.050 A 
ATOM     14  C   UNL A   1      29.961  31.337  24.679  1.00  0.00     0.010 A 
ATOM     15  C   UNL A   1      29.226  29.752  23.016  1.00  0.00     0.015 A 
ATOM     16  C   UNL A   1      30.925  30.427  25.140  1.00  0.00    -0.008 A 
ATOM     17  C   UNL A   1      30.203  28.846  23.444  1.00  0.00     0.018 A 
ATOM     18  C   UNL A   1      31.852  30.813  26.257  1.00  0.00     0.048 C 
ATOM     19  C   UNL A   1      31.027  29.168  24.525  1.00  0.00     0.130 A 
ATOM     20  C   UNL A   1      30.407  27.605  22.717  1.00  0.00     0.027 C 
ATOM     21  O   UNL A   1      31.963  28.311  25.031  1.00  0.00    -0.475 OA
ATOM     22  C   UNL A   1      32.210  27.040  24.371  1.00  0.00     0.316 C 
BRANCH  22  23
ATOM     23  C   UNL A   1      33.715  26.948  24.084  1.00  0.00     0.430 C 
ATOM     24  F   UNL A   1      34.137  25.660  24.077  1.00  0.00    -0.167 F 
ATOM     25  F   UNL A   1      34.040  27.474  22.883  1.00  0.00    -0.167 F 
ATOM     26  F   UNL A   1      34.441  27.604  25.022  1.00  0.00    -0.167 F 
ENDBRANCH  22  23
ENDBRANCH   9  11
ENDBRANCH   8   9
ENDBRANCH   7   8
ENDBRANCH   6   7
ENDBRANCH   5   6
ENDBRANCH   4   5
ENDBRANCH   3   4
ENDBRANCH   2   3
ENDBRANCH   1   2
BRANCH   1  27
ATOM     27  C   UNL A   1      37.794  22.882  25.553  1.00  0.00     0.188 C 
BRANCH  27  28
ATOM     28  O   UNL A   1      38.283  21.543  25.551  1.00  0.00    -0.376 OA
BRANCH  28  29
ATOM     29  C   UNL A   1      39.494  21.296  26.251  1.00  0.00     0.202 C 
BRANCH  29  30
ATOM     30  C   UNL A   1      40.126  19.926  25.975  1.00  0.00     0.261 C 
BRANCH  30  31
ATOM     31  O   UNL A   1      41.397  19.694  26.599  1.00  0.00    -0.460 OA
BRANCH  31  32
ATOM     32  C   UNL A   1      42.489  20.218  25.998  1.00  0.00     0.338 C 
ATOM     33  O   UNL A   1      43.168  19.697  25.131  1.00  0.00    -0.246 OA
BRANCH  32  34
ATOM     34  C   UNL A   1      42.599  21.625  26.431  1.00  0.00     0.060 A 
ATOM     35  C   UNL A   1      42.627  22.637  25.464  1.00  0.00     0.016 A 
ATOM     36  C   UNL A   1      42.649  21.942  27.792  1.00  0.00     0.016 A 
ATOM     37  C   UNL A   1      42.733  23.971  25.856  1.00  0.00     0.010 A 
ATOM     38  C   UNL A   1      42.780  23.276  28.182  1.00  0.00     0.010 A 
ATOM     39  C   UNL A   1      42.852  24.293  27.215  1.00  0.00    -0.014 A 
BRANCH  39  40
ATOM     40  C   UNL A   1      43.274  25.660  27.609  1.00  0.00     0.031 A 
ATOM     41  C   UNL A   1      42.223  26.592  28.150  1.00  0.00     0.074 A 
ATOM     42  C   UNL A   1      44.558  26.053  27.531  1.00  0.00     0.049 A 
ATOM     43  N   UNL A   1      42.337  27.834  28.536  1.00  0.00    -0.248 NA
ATOM     44  C   UNL A   1      40.862  26.043  28.273  1.00  0.00     0.031 C 
ATOM     45  C   UNL A   1      45.672  25.220  27.083  1.00  0.00     0.029 A 
ATOM     46  N   UNL A   1      45.140  27.258  27.839  1.00  0.00    -0.354 N 
ATOM     47  C   UNL A   1      41.070  28.211  28.963  1.00  0.00     0.074 A 
ATOM     48  C   UNL A   1      40.193  27.082  28.747  1.00  0.00     0.031 C 
ATOM     49  C   UNL A   1      46.808  25.939  27.153  1.00  0.00     0.029 A 
ATOM     50  C   UNL A   1      46.496  27.292  27.616  1.00  0.00     0.049 A 
ATOM     51  H   UNL A   1      44.633  28.027  28.186  1.00  0.00     0.167 HD
ATOM     52  C   UNL A   1      40.674  29.388  29.503  1.00  0.00     0.034 A 
ATOM     53  C   UNL A   1      47.380  28.303  27.756  1.00  0.00     0.034 A 
ATOM     54  C   UNL A   1      41.547  30.513  29.702  1.00  0.00     0.049 A 
ATOM     55  C   UNL A   1      46.890  29.647  28.243  1.00  0.00     0.074 A 
ATOM     56  C   UNL A   1      41.241  31.755  30.228  1.00  0.00     0.029 A 
ATOM     57  N   UNL A   1      42.896  30.538  29.377  1.00  0.00    -0.354 N 
ATOM     58  N   UNL A   1      45.681  29.999  28.615  1.00  0.00    -0.248 NA
ATOM     59  C   UNL A   1      47.881  30.730  28.320  1.00  0.00     0.031 C 
ATOM     60  C   UNL A   1      42.387  32.551  30.163  1.00  0.00     0.029 A 
ATOM     61  C   UNL A   1      43.427  31.784  29.661  1.00  0.00     0.049 A 
ATOM     62  H   UNL A   1      43.399  29.781  28.999  1.00  0.00     0.167 HD
ATOM     63  C   UNL A   1      45.774  31.336  28.994  1.00  0.00     0.074 A 
ATOM     64  C   UNL A   1      47.155  31.728  28.809  1.00  0.00     0.031 C 
ATOM     65  C   UNL A   1      44.804  32.163  29.460  1.00  0.00     0.034 A 
BRANCH  52  66
ATOM     66  C   UNL A   1      39.225  29.524  29.886  1.00  0.00     0.023 A 
ATOM     67  C   UNL A   1      38.304  30.172  29.045  1.00  0.00     0.031 A 
ATOM     68  C   UNL A   1      38.759  28.990  31.099  1.00  0.00     0.131 A 
ATOM     69  C   UNL A   1      36.967  30.301  29.446  1.00  0.00     0.055 A 
ATOM     70  C   UNL A   1      37.415  29.068  31.464  1.00  0.00     0.041 A 
ATOM     71  F   UNL A   1      39.604  28.384  31.947  1.00  0.00    -0.206 F 
ATOM     72  C   UNL A   1      36.511  29.733  30.638  1.00  0.00     0.022 A 
BRANCH  69  73
ATOM     73  S   UNL A   1      35.845  31.293  28.425  1.00  0.00     0.124 S 
ATOM     74  O   UNL A   1      35.415  30.317  27.426  1.00  0.00    -0.237 OA
ATOM     75  O   UNL A   1      34.831  31.715  29.384  1.00  0.00    -0.237 OA
ATOM     76  O   UNL A   1      36.702  32.361  27.915  1.00  0.00    -0.744 OA
ENDBRANCH  69  73
ENDBRANCH  52  66
BRANCH  53  77
ATOM     77  C   UNL A   1      48.815  28.102  27.409  1.00  0.00     0.023 A 
ATOM     78  C   UNL A   1      49.262  28.214  26.083  1.00  0.00     0.031 A 
ATOM     79  C   UNL A   1      49.756  27.765  28.399  1.00  0.00     0.131 A 
ATOM     80  C   UNL A   1      50.610  27.967  25.778  1.00  0.00     0.055 A 
ATOM     81  C   UNL A   1      51.104  27.560  28.095  1.00  0.00     0.041 A 
ATOM     82  F   UNL A   1      49.378  27.640  29.681  1.00  0.00    -0.206 F 
ATOM     83  C   UNL A   1      51.536  27.655  26.776  1.00  0.00     0.022 A 
BRANCH  80  84
ATOM     84  S   UNL A   1      51.136  28.025  24.042  1.00  0.00     0.124 S 
ATOM     85  O   UNL A   1      49.858  28.153  23.351  1.00  0.00    -0.237 OA
ATOM     86  O   UNL A   1      51.998  29.202  24.023  1.00  0.00    -0.237 OA
ATOM     87  O   UNL A   1      51.824  26.749  23.853  1.00  0.00    -0.744 OA
ENDBRANCH  80  84
ENDBRANCH  53  77
BRANCH  65  88
ATOM     88  C   UNL A   1      45.196  33.570  29.827  1.00  0.00     0.023 A 
ATOM     89  C   UNL A   1      45.090  34.626  28.908  1.00  0.00     0.031 A 
ATOM     90  C   UNL A   1      45.615  33.868  31.138  1.00  0.00     0.131 A 
ATOM     91  C   UNL A   1      45.417  35.931  29.305  1.00  0.00     0.055 A 
ATOM     92  C   UNL A   1      45.895  35.174  31.540  1.00  0.00     0.041 A 
ATOM     93  F   UNL A   1      45.726  32.894  32.056  1.00  0.00    -0.206 F 
ATOM     94  C   UNL A   1      45.800  36.214  30.619  1.00  0.00     0.022 A 
BRANCH  91  95
ATOM     95  S   UNL A   1      45.359  37.259  28.071  1.00  0.00     0.124 S 
ATOM     96  O   UNL A   1      44.245  38.070  28.553  1.00  0.00    -0.237 OA
ATOM     97  O   UNL A   1      46.683  37.860  28.191  1.00  0.00    -0.237 OA
ATOM     98  O   UNL A   1      45.113  36.551  26.815  1.00  0.00    -0.744 OA
ENDBRANCH  91  95
ENDBRANCH  65  88
ENDBRANCH  39  40
ENDBRANCH  32  34
ENDBRANCH  31  32
ENDBRANCH  30  31
ENDBRANCH  29  30
ENDBRANCH  28  29
ENDBRANCH  27  28
ENDBRANCH   1  27
TORSDOF 24
ENDMDL
MODEL 3
REMARK VINA RESULT:      -9.9      1.663      7.492
REMARK SMILES Cc1cc(C)c2c(c1)C=C(C(=O)OCCOCCOCCOCCOC(=O)c1ccc(-c3c4nc(c(-c5cc(S(=O)(=O)[O-])ccc5F)c5ccc([nH]5)c(-c5cc(S(=O)(=O)[O-])ccc5F)c5nc(c(-c6cc(S(=O)(=O)[O-])ccc6F)c6ccc3[nH]6)C=C5)C=C4)cc1)[C@@H](C(F)(F)F)O2
REMARK SMILES IDX 20 1 19 2 18 3 17 4 16 5 15 6 14 7 13 8 11 9 12 10 10 11
REMARK SMILES IDX 1 12 2 13 3 14 8 15 4 16 7 17 5 18 6 19 9 20 96 21 91 22
REMARK SMILES IDX 92 23 93 24 94 25 95 26 21 27 22 28 23 29 24 30 25 31 26 32
REMARK SMILES IDX 27 33 28 34 29 35 90 36 30 37 89 38 31 39 32 40 33 41 83 42
REMARK SMILES IDX 34 43 88 44 82 45 84 46 35 47 87 48 81 49 80 50 36 52 68 53
REMARK SMILES IDX 48 54 67 55 49 56 52 57 66 58 85 59 50 60 51 61 65 63 86 64
REMARK SMILES IDX 53 65 37 66 38 67 46 68 39 69 45 70 47 71 44 72 40 73 41 74
REMARK SMILES IDX 42 75 43 76 69 77 70 78 78 79 71 80 77 81 79 82 76 83 72 84
REMARK SMILES IDX 73 85 74 86 75 87 54 88 55 89 63 90 56 91 62 92 64 93 61 94
REMARK SMILES IDX 57 95 58 96 59 97 60 98
REMARK H PARENT 84 51 52 62
REMARK Flexibility Score: inf
ROOT
ATOM      1  C   UNL A   1      37.265  21.173  24.925  1.00  0.00     0.188 C 
ENDROOT
BRANCH   1   2
ATOM      2  O   UNL A   1      35.966  21.268  25.513  1.00  0.00    -0.377 OA
BRANCH   2   3
ATOM      3  C   UNL A   1      34.932  20.469  24.962  1.00  0.00     0.188 C 
BRANCH   3   4
ATOM      4  C   UNL A   1      33.696  20.383  25.876  1.00  0.00     0.188 C 
BRANCH   4   5
ATOM      5  O   UNL A   1      32.587  21.117  25.380  1.00  0.00    -0.376 OA
BRANCH   5   6
ATOM      6  C   UNL A   1      32.085  22.231  26.102  1.00  0.00     0.202 C 
BRANCH   6   7
ATOM      7  C   UNL A   1      30.838  23.020  25.661  1.00  0.00     0.261 C 
BRANCH   7   8
ATOM      8  O   UNL A   1      30.775  23.428  24.291  1.00  0.00    -0.460 OA
BRANCH   8   9
ATOM      9  C   UNL A   1      31.803  24.131  23.788  1.00  0.00     0.338 C 
ATOM     10  O   UNL A   1      32.712  23.709  23.094  1.00  0.00    -0.246 OA
BRANCH   9  11
ATOM     11  C   UNL A   1      31.545  25.561  24.073  1.00  0.00     0.087 C 
ATOM     12  C   UNL A   1      28.489  30.445  21.893  1.00  0.00     0.044 C 
ATOM     13  C   UNL A   1      29.389  29.682  22.820  1.00  0.00    -0.050 A 
ATOM     14  C   UNL A   1      30.071  30.343  23.848  1.00  0.00     0.010 A 
ATOM     15  C   UNL A   1      29.550  28.301  22.674  1.00  0.00     0.015 A 
ATOM     16  C   UNL A   1      30.915  29.640  24.722  1.00  0.00    -0.008 A 
ATOM     17  C   UNL A   1      30.412  27.592  23.519  1.00  0.00     0.018 A 
ATOM     18  C   UNL A   1      31.667  30.375  25.796  1.00  0.00     0.048 C 
ATOM     19  C   UNL A   1      31.065  28.253  24.562  1.00  0.00     0.130 A 
ATOM     20  C   UNL A   1      30.683  26.188  23.264  1.00  0.00     0.027 C 
ATOM     21  O   UNL A   1      31.877  27.615  25.456  1.00  0.00    -0.475 OA
ATOM     22  C   UNL A   1      32.178  26.204  25.280  1.00  0.00     0.316 C 
BRANCH  22  23
ATOM     23  C   UNL A   1      33.705  26.049  25.285  1.00  0.00     0.430 C 
ATOM     24  F   UNL A   1      34.291  26.966  26.093  1.00  0.00    -0.167 F 
ATOM     25  F   UNL A   1      34.095  24.832  25.724  1.00  0.00    -0.167 F 
ATOM     26  F   UNL A   1      34.226  26.216  24.045  1.00  0.00    -0.167 F 
ENDBRANCH  22  23
ENDBRANCH   9  11
ENDBRANCH   8   9
ENDBRANCH   7   8
ENDBRANCH   6   7
ENDBRANCH   5   6
ENDBRANCH   4   5
ENDBRANCH   3   4
ENDBRANCH   2   3
ENDBRANCH   1   2
BRANCH   1  27
ATOM     27  C   UNL A   1      38.553  21.232  25.781  1.00  0.00     0.188 C 
BRANCH  27  28
ATOM     28  O   UNL A   1      39.361  20.060  25.701  1.00  0.00    -0.376 OA
BRANCH  28  29
ATOM     29  C   UNL A   1      40.604  20.084  26.390  1.00  0.00     0.202 C 
BRANCH  29  30
ATOM     30  C   UNL A   1      41.646  19.089  25.865  1.00  0.00     0.261 C 
BRANCH  30  31
ATOM     31  O   UNL A   1      43.009  19.388  26.201  1.00  0.00    -0.460 OA
BRANCH  31  32
ATOM     32  C   UNL A   1      43.746  20.046  25.279  1.00  0.00     0.338 C 
ATOM     33  O   UNL A   1      44.155  19.607  24.218  1.00  0.00    -0.246 OA
BRANCH  32  34
ATOM     34  C   UNL A   1      43.802  21.463  25.689  1.00  0.00     0.060 A 
ATOM     35  C   UNL A   1      43.878  22.456  24.704  1.00  0.00     0.016 A 
ATOM     36  C   UNL A   1      43.754  21.809  27.042  1.00  0.00     0.016 A 
ATOM     37  C   UNL A   1      43.934  23.800  25.073  1.00  0.00     0.010 A 
ATOM     38  C   UNL A   1      43.836  23.153  27.412  1.00  0.00     0.010 A 
ATOM     39  C   UNL A   1      43.955  24.152  26.430  1.00  0.00    -0.014 A 
BRANCH  39  40
ATOM     40  C   UNL A   1      44.324  25.534  26.821  1.00  0.00     0.031 A 
ATOM     41  C   UNL A   1      43.250  26.412  27.404  1.00  0.00     0.074 A 
ATOM     42  C   UNL A   1      45.585  25.988  26.705  1.00  0.00     0.049 A 
ATOM     43  N   UNL A   1      43.317  27.655  27.798  1.00  0.00    -0.248 NA
ATOM     44  C   UNL A   1      41.921  25.798  27.567  1.00  0.00     0.031 C 
ATOM     45  C   UNL A   1      46.722  25.211  26.214  1.00  0.00     0.029 A 
ATOM     46  N   UNL A   1      46.120  27.216  27.004  1.00  0.00    -0.354 N 
ATOM     47  C   UNL A   1      42.049  27.968  28.269  1.00  0.00     0.074 A 
ATOM     48  C   UNL A   1      41.219  26.801  28.072  1.00  0.00     0.031 C 
ATOM     49  C   UNL A   1      47.824  25.983  26.253  1.00  0.00     0.029 A 
ATOM     50  C   UNL A   1      47.465  27.316  26.737  1.00  0.00     0.049 A 
ATOM     51  H   UNL A   1      45.590  27.958  27.375  1.00  0.00     0.167 HD
ATOM     52  C   UNL A   1      41.616  29.122  28.831  1.00  0.00     0.034 A 
ATOM     53  C   UNL A   1      48.304  28.366  26.858  1.00  0.00     0.034 A 
ATOM     54  C   UNL A   1      42.442  30.285  29.011  1.00  0.00     0.049 A 
ATOM     55  C   UNL A   1      47.769  29.683  27.372  1.00  0.00     0.074 A 
ATOM     56  C   UNL A   1      42.095  31.508  29.558  1.00  0.00     0.029 A 
ATOM     57  N   UNL A   1      43.777  30.376  28.643  1.00  0.00    -0.354 N 
ATOM     58  N   UNL A   1      46.558  29.975  27.786  1.00  0.00    -0.248 NA
ATOM     59  C   UNL A   1      48.710  30.811  27.426  1.00  0.00     0.031 C 
ATOM     60  C   UNL A   1      43.200  32.358  29.463  1.00  0.00     0.029 A 
ATOM     61  C   UNL A   1      44.258  31.644  28.921  1.00  0.00     0.049 A 
ATOM     62  H   UNL A   1      44.303  29.647  28.243  1.00  0.00     0.167 HD
ATOM     63  C   UNL A   1      46.600  31.312  28.173  1.00  0.00     0.074 A 
ATOM     64  C   UNL A   1      47.955  31.769  27.947  1.00  0.00     0.031 C 
ATOM     65  C   UNL A   1      45.608  32.088  28.678  1.00  0.00     0.034 A 
BRANCH  52  66
ATOM     66  C   UNL A   1      40.177  29.187  29.262  1.00  0.00     0.023 A 
ATOM     67  C   UNL A   1      39.813  29.087  30.616  1.00  0.00     0.031 A 
ATOM     68  C   UNL A   1      39.158  29.363  28.311  1.00  0.00     0.131 A 
ATOM     69  C   UNL A   1      38.459  29.127  30.978  1.00  0.00     0.055 A 
ATOM     70  C   UNL A   1      37.818  29.464  28.683  1.00  0.00     0.041 A 
ATOM     71  F   UNL A   1      39.451  29.440  27.003  1.00  0.00    -0.206 F 
ATOM     72  C   UNL A   1      37.461  29.339  30.024  1.00  0.00     0.022 A 
BRANCH  69  73
ATOM     73  S   UNL A   1      38.013  28.819  32.708  1.00  0.00     0.124 S 
ATOM     74  O   UNL A   1      36.715  29.483  32.800  1.00  0.00    -0.237 OA
ATOM     75  O   UNL A   1      37.991  27.362  32.775  1.00  0.00    -0.237 OA
ATOM     76  O   UNL A   1      39.090  29.461  33.458  1.00  0.00    -0.744 OA
ENDBRANCH  69  73
ENDBRANCH  52  66
BRANCH  53  77
ATOM     77  C   UNL A   1      49.735  28.236  26.462  1.00  0.00     0.023 A 
ATOM     78  C   UNL A   1      50.129  28.347  25.120  1.00  0.00     0.031 A 
ATOM     79  C   UNL A   1      50.728  27.968  27.423  1.00  0.00     0.131 A 
ATOM     80  C   UNL A   1      51.477  28.166  24.770  1.00  0.00     0.055 A 
ATOM     81  C   UNL A   1      52.073  27.830  27.074  1.00  0.00     0.041 A 
ATOM     82  F   UNL A   1      50.402  27.848  28.720  1.00  0.00    -0.206 F 
ATOM     83  C   UNL A   1      52.453  27.922  25.739  1.00  0.00     0.022 A 
BRANCH  80  84
ATOM     84  S   UNL A   1      51.937  28.219  23.015  1.00  0.00     0.124 S 
ATOM     85  O   UNL A   1      50.635  28.357  22.373  1.00  0.00    -0.237 OA
ATOM     86  O   UNL A   1      52.807  29.389  22.963  1.00  0.00    -0.237 OA
ATOM     87  O   UNL A   1      52.607  26.938  22.801  1.00  0.00    -0.744 OA
ENDBRANCH  80  84
ENDBRANCH  53  77
BRANCH  65  88
ATOM     88  C   UNL A   1      45.946  33.510  29.045  1.00  0.00     0.023 A 
ATOM     89  C   UNL A   1      45.741  34.568  28.146  1.00  0.00     0.031 A 
ATOM     90  C   UNL A   1      46.413  33.815  30.337  1.00  0.00     0.131 A 
ATOM     91  C   UNL A   1      46.020  35.884  28.543  1.00  0.00     0.055 A 
ATOM     92  C   UNL A   1      46.645  35.129  30.742  1.00  0.00     0.041 A 
ATOM     93  F   UNL A   1      46.619  32.838  31.235  1.00  0.00    -0.206 F 
ATOM     94  C   UNL A   1      46.453  36.173  29.841  1.00  0.00     0.022 A 
BRANCH  91  95
ATOM     95  S   UNL A   1      45.833  37.221  27.332  1.00  0.00     0.124 S 
ATOM     96  O   UNL A   1      46.264  38.386  28.098  1.00  0.00    -0.237 OA
ATOM     97  O   UNL A   1      46.726  36.800  26.257  1.00  0.00    -0.237 OA
ATOM     98  O   UNL A   1      44.410  37.188  27.001  1.00  0.00    -0.744 OA
ENDBRANCH  91  95
ENDBRANCH  65  88
ENDBRANCH  39  40
ENDBRANCH  32  34
ENDBRANCH  31  32
ENDBRANCH  30  31
ENDBRANCH  29  30
ENDBRANCH  28  29
ENDBRANCH  27  28
ENDBRANCH   1  27
TORSDOF 24
ENDMDL
