MODEL 1
REMARK VINA RESULT:      -5.3      0.000      0.000
REMARK SMILES O=C(OCCOCCOCCOCCOC(=O)[C@@H]1CN(C(=O)CCC(F)(F)F)C[C@H]1c1ccc2c(c1)OCO2)c1ccc(-c2c3nc(c(-c4cc(S(=O)(=O)[O-])ccc4F)c4ccc([nH]4)c(-c4cc(S(=O)(=O)[O-])ccc4F)c4nc(c(-c5cc(S(=O)(=O)[O-])ccc5F)c5ccc2[nH]5)C=C4)C=C3)cc1
REMARK SMILES IDX 10 1 9 2 8 3 7 4 6 5 5 6 4 7 3 8 2 9 1 10 40 11 41 12 102 13
REMARK SMILES IDX 42 14 101 15 43 16 44 17 45 18 95 19 46 20 100 21 94 22
REMARK SMILES IDX 96 23 47 24 99 25 93 26 92 27 48 29 80 30 60 31 79 32 61 33
REMARK SMILES IDX 64 34 78 35 97 36 62 37 63 38 77 40 98 41 65 42 49 43 50 44
REMARK SMILES IDX 58 45 51 46 57 47 59 48 56 49 52 50 53 51 54 52 55 53 81 54
REMARK SMILES IDX 82 55 90 56 83 57 89 58 91 59 88 60 84 61 85 62 86 63 87 64
REMARK SMILES IDX 66 65 67 66 75 67 68 68 74 69 76 70 73 71 69 72 70 73 71 74
REMARK SMILES IDX 72 75 11 76 12 77 13 78 14 79 15 80 16 81 17 82 18 83 19 84
REMARK SMILES IDX 30 85 20 86 29 87 31 88 32 89 36 90 33 91 35 92 34 93 37 94
REMARK SMILES IDX 39 95 38 96 21 97 22 98 23 99 24 100 25 101 26 102 27 103
REMARK SMILES IDX 28 104
REMARK H PARENT 96 28 64 39
REMARK Flexibility Score: inf
ROOT
ATOM      1  C   UNL A   1      48.273  24.271  36.967  1.00  0.00     0.188 C 
ENDROOT
BRANCH   1   2
ATOM      2  O   UNL A   1      47.782  23.056  37.522  1.00  0.00    -0.377 OA
BRANCH   2   3
ATOM      3  C   UNL A   1      48.378  21.824  37.148  1.00  0.00     0.188 C 
BRANCH   3   4
ATOM      4  C   UNL A   1      48.144  21.307  35.732  1.00  0.00     0.188 C 
BRANCH   4   5
ATOM      5  O   UNL A   1      48.981  20.216  35.429  1.00  0.00    -0.376 OA
BRANCH   5   6
ATOM      6  C   UNL A   1      50.083  19.980  36.286  1.00  0.00     0.202 C 
BRANCH   6   7
ATOM      7  C   UNL A   1      51.284  19.577  35.431  1.00  0.00     0.261 C 
BRANCH   7   8
ATOM      8  O   UNL A   1      52.287  20.612  35.440  1.00  0.00    -0.460 OA
BRANCH   8   9
ATOM      9  C   UNL A   1      52.866  21.203  34.363  1.00  0.00     0.338 C 
ATOM     10  O   UNL A   1      53.872  20.676  33.884  1.00  0.00    -0.246 OA
BRANCH   9  11
ATOM     11  C   UNL A   1      52.304  22.402  33.651  1.00  0.00     0.060 A 
ATOM     12  C   UNL A   1      53.033  23.387  32.974  1.00  0.00     0.016 A 
ATOM     13  C   UNL A   1      50.900  22.492  33.614  1.00  0.00     0.016 A 
ATOM     14  C   UNL A   1      52.405  24.443  32.320  1.00  0.00     0.010 A 
ATOM     15  C   UNL A   1      50.259  23.553  32.969  1.00  0.00     0.010 A 
ATOM     16  C   UNL A   1      51.018  24.549  32.347  1.00  0.00    -0.014 A 
BRANCH  16  17
ATOM     17  C   UNL A   1      50.412  25.826  31.929  1.00  0.00     0.031 A 
ATOM     18  C   UNL A   1      50.202  26.861  32.994  1.00  0.00     0.074 A 
ATOM     19  C   UNL A   1      50.176  26.082  30.631  1.00  0.00     0.049 A 
ATOM     20  N   UNL A   1      49.617  28.023  32.925  1.00  0.00    -0.248 NA
ATOM     21  C   UNL A   1      50.742  26.534  34.326  1.00  0.00     0.031 C 
ATOM     22  C   UNL A   1      50.491  25.178  29.524  1.00  0.00     0.029 A 
ATOM     23  N   UNL A   1      49.633  27.182  30.023  1.00  0.00    -0.354 N 
ATOM     24  C   UNL A   1      49.691  28.556  34.208  1.00  0.00     0.074 A 
ATOM     25  C   UNL A   1      50.370  27.585  35.037  1.00  0.00     0.031 C 
ATOM     26  C   UNL A   1      50.129  25.763  28.368  1.00  0.00     0.029 A 
ATOM     27  C   UNL A   1      49.499  27.046  28.661  1.00  0.00     0.049 A 
ATOM     28  H   UNL A   1      49.364  27.992  30.515  1.00  0.00     0.167 HD
ATOM     29  C   UNL A   1      49.219  29.746  34.648  1.00  0.00     0.034 A 
ATOM     30  C   UNL A   1      48.890  27.858  27.772  1.00  0.00     0.034 A 
ATOM     31  C   UNL A   1      48.528  30.667  33.784  1.00  0.00     0.049 A 
ATOM     32  C   UNL A   1      48.270  29.129  28.303  1.00  0.00     0.074 A 
ATOM     33  C   UNL A   1      47.922  31.868  34.099  1.00  0.00     0.029 A 
ATOM     34  N   UNL A   1      48.346  30.474  32.416  1.00  0.00    -0.354 N 
ATOM     35  N   UNL A   1      48.262  29.594  29.535  1.00  0.00    -0.248 NA
ATOM     36  C   UNL A   1      47.573  29.981  27.334  1.00  0.00     0.031 C 
ATOM     37  C   UNL A   1      47.321  32.367  32.937  1.00  0.00     0.029 A 
ATOM     38  C   UNL A   1      47.619  31.520  31.878  1.00  0.00     0.049 A 
ATOM     39  H   UNL A   1      48.687  29.704  31.907  1.00  0.00     0.167 HD
ATOM     40  C   UNL A   1      47.577  30.804  29.483  1.00  0.00     0.074 A 
ATOM     41  C   UNL A   1      47.208  31.004  28.094  1.00  0.00     0.031 C 
ATOM     42  C   UNL A   1      47.273  31.673  30.482  1.00  0.00     0.034 A 
BRANCH  29  43
ATOM     43  C   UNL A   1      49.347  30.028  36.125  1.00  0.00     0.023 A 
ATOM     44  C   UNL A   1      48.376  29.608  37.053  1.00  0.00     0.031 A 
ATOM     45  C   UNL A   1      50.403  30.827  36.598  1.00  0.00     0.131 A 
ATOM     46  C   UNL A   1      48.432  30.062  38.381  1.00  0.00     0.055 A 
ATOM     47  C   UNL A   1      50.500  31.205  37.939  1.00  0.00     0.041 A 
ATOM     48  F   UNL A   1      51.341  31.288  35.755  1.00  0.00    -0.206 F 
ATOM     49  C   UNL A   1      49.501  30.838  38.835  1.00  0.00     0.022 A 
BRANCH  46  50
ATOM     50  S   UNL A   1      47.006  29.760  39.463  1.00  0.00     0.124 S 
ATOM     51  O   UNL A   1      47.095  28.311  39.667  1.00  0.00    -0.237 OA
ATOM     52  O   UNL A   1      47.297  30.586  40.616  1.00  0.00    -0.237 OA
ATOM     53  O   UNL A   1      45.863  30.191  38.650  1.00  0.00    -0.744 OA
ENDBRANCH  46  50
ENDBRANCH  29  43
BRANCH  30  54
ATOM     54  C   UNL A   1      48.764  27.466  26.336  1.00  0.00     0.023 A 
ATOM     55  C   UNL A   1      49.806  27.677  25.419  1.00  0.00     0.031 A 
ATOM     56  C   UNL A   1      47.565  26.913  25.844  1.00  0.00     0.131 A 
ATOM     57  C   UNL A   1      49.618  27.377  24.058  1.00  0.00     0.055 A 
ATOM     58  C   UNL A   1      47.403  26.563  24.502  1.00  0.00     0.041 A 
ATOM     59  F   UNL A   1      46.527  26.698  26.667  1.00  0.00    -0.206 F 
ATOM     60  C   UNL A   1      48.429  26.807  23.597  1.00  0.00     0.022 A 
BRANCH  57  61
ATOM     61  S   UNL A   1      50.919  27.826  22.875  1.00  0.00     0.124 S 
ATOM     62  O   UNL A   1      50.244  27.626  21.599  1.00  0.00    -0.237 OA
ATOM     63  O   UNL A   1      51.200  29.209  23.244  1.00  0.00    -0.237 OA
ATOM     64  O   UNL A   1      51.990  26.875  23.169  1.00  0.00    -0.744 OA
ENDBRANCH  57  61
ENDBRANCH  30  54
BRANCH  42  65
ATOM     65  C   UNL A   1      46.547  32.931  30.084  1.00  0.00     0.023 A 
ATOM     66  C   UNL A   1      45.146  33.017  30.122  1.00  0.00     0.031 A 
ATOM     67  C   UNL A   1      47.274  34.059  29.664  1.00  0.00     0.131 A 
ATOM     68  C   UNL A   1      44.510  34.189  29.690  1.00  0.00     0.055 A 
ATOM     69  C   UNL A   1      46.639  35.245  29.299  1.00  0.00     0.041 A 
ATOM     70  F   UNL A   1      48.615  34.027  29.612  1.00  0.00    -0.206 F 
ATOM     71  C   UNL A   1      45.248  35.309  29.297  1.00  0.00     0.022 A 
BRANCH  68  72
ATOM     72  S   UNL A   1      42.703  34.196  29.556  1.00  0.00     0.124 S 
ATOM     73  O   UNL A   1      42.499  34.814  28.250  1.00  0.00    -0.237 OA
ATOM     74  O   UNL A   1      42.377  32.777  29.649  1.00  0.00    -0.237 OA
ATOM     75  O   UNL A   1      42.278  35.006  30.697  1.00  0.00    -0.744 OA
ENDBRANCH  68  72
ENDBRANCH  42  65
ENDBRANCH  16  17
ENDBRANCH   9  11
ENDBRANCH   8   9
ENDBRANCH   7   8
ENDBRANCH   6   7
ENDBRANCH   5   6
ENDBRANCH   4   5
ENDBRANCH   3   4
ENDBRANCH   2   3
ENDBRANCH   1   2
BRANCH   1  76
ATOM     76  C   UNL A   1      47.438  25.154  36.038  1.00  0.00     0.188 C 
BRANCH  76  77
ATOM     77  O   UNL A   1      47.590  24.992  34.650  1.00  0.00    -0.376 OA
BRANCH  77  78
ATOM     78  C   UNL A   1      46.420  25.025  33.844  1.00  0.00     0.202 C 
BRANCH  78  79
ATOM     79  C   UNL A   1      46.155  26.193  32.882  1.00  0.00     0.261 C 
BRANCH  79  80
ATOM     80  O   UNL A   1      45.179  25.930  31.839  1.00  0.00    -0.463 OA
BRANCH  80  81
ATOM     81  C   UNL A   1      45.640  25.828  30.564  1.00  0.00     0.311 C 
ATOM     82  O   UNL A   1      46.824  25.707  30.267  1.00  0.00    -0.252 OA
BRANCH  81  83
ATOM     83  C   UNL A   1      44.595  26.062  29.489  1.00  0.00     0.128 C 
ATOM     84  C   UNL A   1      43.551  26.914  30.178  1.00  0.00     0.135 C 
ATOM     85  C   UNL A   1      43.775  24.932  28.818  1.00  0.00     0.055 C 
ATOM     86  N   UNL A   1      42.382  26.840  29.344  1.00  0.00    -0.341 N 
ATOM     87  C   UNL A   1      42.409  25.628  28.543  1.00  0.00     0.128 C 
BRANCH  85  88
ATOM     88  C   UNL A   1      44.362  24.288  27.549  1.00  0.00    -0.038 A 
ATOM     89  C   UNL A   1      45.748  24.019  27.424  1.00  0.00     0.008 A 
ATOM     90  C   UNL A   1      43.518  23.862  26.497  1.00  0.00     0.054 A 
ATOM     91  C   UNL A   1      46.274  23.301  26.340  1.00  0.00     0.051 A 
ATOM     92  C   UNL A   1      44.074  23.222  25.402  1.00  0.00     0.166 A 
ATOM     93  C   UNL A   1      45.413  22.931  25.337  1.00  0.00     0.165 A 
ATOM     94  O   UNL A   1      43.404  22.803  24.292  1.00  0.00    -0.454 OA
ATOM     95  O   UNL A   1      45.751  22.269  24.199  1.00  0.00    -0.454 OA
ATOM     96  C   UNL A   1      44.500  22.309  23.488  1.00  0.00     0.468 C 
ENDBRANCH  85  88
BRANCH  86  97
ATOM     97  C   UNL A   1      41.315  27.703  29.330  1.00  0.00     0.222 C 
ATOM     98  O   UNL A   1      40.164  27.330  29.557  1.00  0.00    -0.275 OA
BRANCH  97  99
ATOM     99  C   UNL A   1      41.586  29.156  28.981  1.00  0.00     0.109 C 
BRANCH  99 100
ATOM    100  C   UNL A   1      42.269  29.368  27.637  1.00  0.00     0.125 C 
BRANCH 100 101
ATOM    101  C   UNL A   1      43.722  29.768  27.719  1.00  0.00     0.389 C 
ATOM    102  F   UNL A   1      44.080  30.057  28.989  1.00  0.00    -0.171 F 
ATOM    103  F   UNL A   1      44.514  28.754  27.302  1.00  0.00    -0.171 F 
ATOM    104  F   UNL A   1      43.997  30.837  26.947  1.00  0.00    -0.171 F 
ENDBRANCH 100 101
ENDBRANCH  99 100
ENDBRANCH  97  99
ENDBRANCH  86  97
ENDBRANCH  81  83
ENDBRANCH  80  81
ENDBRANCH  79  80
ENDBRANCH  78  79
ENDBRANCH  77  78
ENDBRANCH  76  77
ENDBRANCH   1  76
TORSDOF 28
ENDMDL
MODEL 2
REMARK VINA RESULT:      -5.1      5.042     11.312
REMARK SMILES O=C(OCCOCCOCCOCCOC(=O)[C@@H]1CN(C(=O)CCC(F)(F)F)C[C@H]1c1ccc2c(c1)OCO2)c1ccc(-c2c3nc(c(-c4cc(S(=O)(=O)[O-])ccc4F)c4ccc([nH]4)c(-c4cc(S(=O)(=O)[O-])ccc4F)c4nc(c(-c5cc(S(=O)(=O)[O-])ccc5F)c5ccc2[nH]5)C=C4)C=C3)cc1
REMARK SMILES IDX 10 1 9 2 8 3 7 4 6 5 5 6 4 7 3 8 2 9 1 10 40 11 41 12 102 13
REMARK SMILES IDX 42 14 101 15 43 16 44 17 45 18 95 19 46 20 100 21 94 22
REMARK SMILES IDX 96 23 47 24 99 25 93 26 92 27 48 29 80 30 60 31 79 32 61 33
REMARK SMILES IDX 64 34 78 35 97 36 62 37 63 38 77 40 98 41 65 42 49 43 50 44
REMARK SMILES IDX 58 45 51 46 57 47 59 48 56 49 52 50 53 51 54 52 55 53 81 54
REMARK SMILES IDX 82 55 90 56 83 57 89 58 91 59 88 60 84 61 85 62 86 63 87 64
REMARK SMILES IDX 66 65 67 66 75 67 68 68 74 69 76 70 73 71 69 72 70 73 71 74
REMARK SMILES IDX 72 75 11 76 12 77 13 78 14 79 15 80 16 81 17 82 18 83 19 84
REMARK SMILES IDX 30 85 20 86 29 87 31 88 32 89 36 90 33 91 35 92 34 93 37 94
REMARK SMILES IDX 39 95 38 96 21 97 22 98 23 99 24 100 25 101 26 102 27 103
REMARK SMILES IDX 28 104
REMARK H PARENT 96 28 64 39
REMARK Flexibility Score: inf
ROOT
ATOM      1  C   UNL A   1      53.543  29.819  34.809  1.00  0.00     0.188 C 
ENDROOT
BRANCH   1   2
ATOM      2  O   UNL A   1      53.319  28.460  34.452  1.00  0.00    -0.377 OA
BRANCH   2   3
ATOM      3  C   UNL A   1      52.400  28.150  33.416  1.00  0.00     0.188 C 
BRANCH   3   4
ATOM      4  C   UNL A   1      52.108  26.682  33.124  1.00  0.00     0.188 C 
BRANCH   4   5
ATOM      5  O   UNL A   1      52.261  25.881  34.273  1.00  0.00    -0.376 OA
BRANCH   5   6
ATOM      6  C   UNL A   1      51.319  24.842  34.475  1.00  0.00     0.202 C 
BRANCH   6   7
ATOM      7  C   UNL A   1      50.049  25.183  33.696  1.00  0.00     0.261 C 
BRANCH   7   8
ATOM      8  O   UNL A   1      48.877  24.908  34.488  1.00  0.00    -0.460 OA
BRANCH   8   9
ATOM      9  C   UNL A   1      48.170  25.792  35.240  1.00  0.00     0.338 C 
ATOM     10  O   UNL A   1      48.673  26.192  36.291  1.00  0.00    -0.246 OA
BRANCH   9  11
ATOM     11  C   UNL A   1      46.855  26.394  34.826  1.00  0.00     0.060 A 
ATOM     12  C   UNL A   1      45.580  25.920  35.157  1.00  0.00     0.016 A 
ATOM     13  C   UNL A   1      46.933  27.592  34.091  1.00  0.00     0.016 A 
ATOM     14  C   UNL A   1      44.425  26.577  34.744  1.00  0.00     0.010 A 
ATOM     15  C   UNL A   1      45.780  28.254  33.661  1.00  0.00     0.010 A 
ATOM     16  C   UNL A   1      44.521  27.726  33.965  1.00  0.00    -0.014 A 
BRANCH  16  17
ATOM     17  C   UNL A   1      43.305  28.206  33.286  1.00  0.00     0.031 A 
ATOM     18  C   UNL A   1      43.079  27.739  31.879  1.00  0.00     0.074 A 
ATOM     19  C   UNL A   1      42.388  28.931  33.951  1.00  0.00     0.049 A 
ATOM     20  N   UNL A   1      42.151  28.072  31.027  1.00  0.00    -0.248 NA
ATOM     21  C   UNL A   1      44.040  26.745  31.368  1.00  0.00     0.031 C 
ATOM     22  C   UNL A   1      42.471  29.300  35.365  1.00  0.00     0.029 A 
ATOM     23  N   UNL A   1      41.202  29.472  33.531  1.00  0.00    -0.354 N 
ATOM     24  C   UNL A   1      42.430  27.352  29.870  1.00  0.00     0.074 A 
ATOM     25  C   UNL A   1      43.619  26.572  30.126  1.00  0.00     0.031 C 
ATOM     26  C   UNL A   1      41.379  30.013  35.694  1.00  0.00     0.029 A 
ATOM     27  C   UNL A   1      40.560  30.206  34.501  1.00  0.00     0.049 A 
ATOM     28  H   UNL A   1      40.845  29.347  32.622  1.00  0.00     0.167 HD
ATOM     29  C   UNL A   1      41.753  27.359  28.698  1.00  0.00     0.034 A 
ATOM     30  C   UNL A   1      39.460  30.980  34.406  1.00  0.00     0.034 A 
ATOM     31  C   UNL A   1      40.585  28.175  28.487  1.00  0.00     0.049 A 
ATOM     32  C   UNL A   1      38.783  31.063  33.057  1.00  0.00     0.074 A 
ATOM     33  C   UNL A   1      39.843  28.352  27.334  1.00  0.00     0.029 A 
ATOM     34  N   UNL A   1      39.992  28.963  29.470  1.00  0.00    -0.354 N 
ATOM     35  N   UNL A   1      39.098  30.450  31.935  1.00  0.00    -0.248 NA
ATOM     36  C   UNL A   1      37.613  31.941  32.955  1.00  0.00     0.031 C 
ATOM     37  C   UNL A   1      38.844  29.294  27.604  1.00  0.00     0.029 A 
ATOM     38  C   UNL A   1      38.909  29.646  28.946  1.00  0.00     0.049 A 
ATOM     39  H   UNL A   1      40.299  29.026  30.403  1.00  0.00     0.167 HD
ATOM     40  C   UNL A   1      38.151  30.854  30.999  1.00  0.00     0.074 A 
ATOM     41  C   UNL A   1      37.243  31.745  31.697  1.00  0.00     0.031 C 
ATOM     42  C   UNL A   1      38.034  30.529  29.685  1.00  0.00     0.034 A 
BRANCH  29  43
ATOM     43  C   UNL A   1      42.340  26.553  27.564  1.00  0.00     0.023 A 
ATOM     44  C   UNL A   1      42.172  25.159  27.472  1.00  0.00     0.031 A 
ATOM     45  C   UNL A   1      43.176  27.176  26.620  1.00  0.00     0.131 A 
ATOM     46  C   UNL A   1      42.898  24.427  26.519  1.00  0.00     0.055 A 
ATOM     47  C   UNL A   1      43.829  26.452  25.621  1.00  0.00     0.041 A 
ATOM     48  F   UNL A   1      43.404  28.498  26.678  1.00  0.00    -0.206 F 
ATOM     49  C   UNL A   1      43.707  25.067  25.578  1.00  0.00     0.022 A 
BRANCH  46  50
ATOM     50  S   UNL A   1      42.898  22.615  26.632  1.00  0.00     0.124 S 
ATOM     51  O   UNL A   1      41.849  22.261  25.671  1.00  0.00    -0.237 OA
ATOM     52  O   UNL A   1      44.252  22.269  26.256  1.00  0.00    -0.237 OA
ATOM     53  O   UNL A   1      42.548  22.359  28.034  1.00  0.00    -0.744 OA
ENDBRANCH  46  50
ENDBRANCH  29  43
BRANCH  30  54
ATOM     54  C   UNL A   1      38.985  31.786  35.570  1.00  0.00     0.023 A 
ATOM     55  C   UNL A   1      38.336  31.191  36.664  1.00  0.00     0.031 A 
ATOM     56  C   UNL A   1      39.131  33.187  35.582  1.00  0.00     0.131 A 
ATOM     57  C   UNL A   1      37.825  31.993  37.701  1.00  0.00     0.055 A 
ATOM     58  C   UNL A   1      38.672  33.974  36.640  1.00  0.00     0.041 A 
ATOM     59  F   UNL A   1      39.730  33.818  34.559  1.00  0.00    -0.206 F 
ATOM     60  C   UNL A   1      38.002  33.378  37.702  1.00  0.00     0.022 A 
BRANCH  57  61
ATOM     61  S   UNL A   1      36.840  31.210  39.008  1.00  0.00     0.124 S 
ATOM     62  O   UNL A   1      35.630  32.024  38.999  1.00  0.00    -0.237 OA
ATOM     63  O   UNL A   1      36.700  29.847  38.507  1.00  0.00    -0.237 OA
ATOM     64  O   UNL A   1      37.678  31.352  40.197  1.00  0.00    -0.744 OA
ENDBRANCH  57  61
ENDBRANCH  30  54
BRANCH  42  65
ATOM     65  C   UNL A   1      36.857  31.111  28.948  1.00  0.00     0.023 A 
ATOM     66  C   UNL A   1      35.798  30.303  28.498  1.00  0.00     0.031 A 
ATOM     67  C   UNL A   1      36.796  32.493  28.697  1.00  0.00     0.131 A 
ATOM     68  C   UNL A   1      34.750  30.879  27.767  1.00  0.00     0.055 A 
ATOM     69  C   UNL A   1      35.717  33.068  28.028  1.00  0.00     0.041 A 
ATOM     70  F   UNL A   1      37.782  33.306  29.108  1.00  0.00    -0.206 F 
ATOM     71  C   UNL A   1      34.693  32.258  27.546  1.00  0.00     0.022 A 
BRANCH  68  72
ATOM     72  S   UNL A   1      33.509  29.786  27.025  1.00  0.00     0.124 S 
ATOM     73  O   UNL A   1      33.392  28.734  28.031  1.00  0.00    -0.237 OA
ATOM     74  O   UNL A   1      32.356  30.669  26.889  1.00  0.00    -0.237 OA
ATOM     75  O   UNL A   1      34.126  29.372  25.766  1.00  0.00    -0.744 OA
ENDBRANCH  68  72
ENDBRANCH  42  65
ENDBRANCH  16  17
ENDBRANCH   9  11
ENDBRANCH   8   9
ENDBRANCH   7   8
ENDBRANCH   6   7
ENDBRANCH   5   6
ENDBRANCH   4   5
ENDBRANCH   3   4
ENDBRANCH   2   3
ENDBRANCH   1   2
BRANCH   1  76
ATOM     76  C   UNL A   1      53.505  30.960  33.789  1.00  0.00     0.188 C 
BRANCH  76  77
ATOM     77  O   UNL A   1      52.330  31.726  33.690  1.00  0.00    -0.376 OA
BRANCH  77  78
ATOM     78  C   UNL A   1      51.199  31.312  34.442  1.00  0.00     0.202 C 
BRANCH  78  79
ATOM     79  C   UNL A   1      49.801  31.878  34.147  1.00  0.00     0.261 C 
BRANCH  79  80
ATOM     80  O   UNL A   1      48.773  30.888  33.884  1.00  0.00    -0.463 OA
BRANCH  80  81
ATOM     81  C   UNL A   1      48.632  30.459  32.601  1.00  0.00     0.311 C 
ATOM     82  O   UNL A   1      49.468  29.792  32.002  1.00  0.00    -0.252 OA
BRANCH  81  83
ATOM     83  C   UNL A   1      47.427  31.023  31.870  1.00  0.00     0.128 C 
ATOM     84  C   UNL A   1      47.805  30.914  30.409  1.00  0.00     0.135 C 
ATOM     85  C   UNL A   1      46.927  32.481  32.021  1.00  0.00     0.055 C 
ATOM     86  N   UNL A   1      46.887  31.769  29.708  1.00  0.00    -0.341 N 
ATOM     87  C   UNL A   1      46.368  32.791  30.601  1.00  0.00     0.128 C 
BRANCH  85  88
ATOM     88  C   UNL A   1      45.893  32.765  33.125  1.00  0.00    -0.038 A 
ATOM     89  C   UNL A   1      44.566  32.270  33.048  1.00  0.00     0.008 A 
ATOM     90  C   UNL A   1      46.261  33.460  34.300  1.00  0.00     0.054 A 
ATOM     91  C   UNL A   1      43.660  32.395  34.111  1.00  0.00     0.051 A 
ATOM     92  C   UNL A   1      45.323  33.635  35.304  1.00  0.00     0.166 A 
ATOM     93  C   UNL A   1      44.064  33.097  35.218  1.00  0.00     0.165 A 
ATOM     94  O   UNL A   1      45.508  34.323  36.464  1.00  0.00    -0.454 OA
ATOM     95  O   UNL A   1      43.309  33.351  36.320  1.00  0.00    -0.454 OA
ATOM     96  C   UNL A   1      44.186  34.236  37.043  1.00  0.00     0.468 C 
ENDBRANCH  85  88
BRANCH  86  97
ATOM     97  C   UNL A   1      46.578  31.739  28.371  1.00  0.00     0.222 C 
ATOM     98  O   UNL A   1      47.011  30.869  27.615  1.00  0.00    -0.275 OA
BRANCH  97  99
ATOM     99  C   UNL A   1      45.701  32.851  27.823  1.00  0.00     0.109 C 
BRANCH  99 100
ATOM    100  C   UNL A   1      45.600  32.888  26.304  1.00  0.00     0.125 C 
BRANCH 100 101
ATOM    101  C   UNL A   1      44.197  33.020  25.764  1.00  0.00     0.389 C 
ATOM    102  F   UNL A   1      43.477  31.899  25.991  1.00  0.00    -0.171 F 
ATOM    103  F   UNL A   1      43.552  34.040  26.373  1.00  0.00    -0.171 F 
ATOM    104  F   UNL A   1      44.187  33.270  24.440  1.00  0.00    -0.171 F 
ENDBRANCH 100 101
ENDBRANCH  99 100
ENDBRANCH  97  99
ENDBRANCH  86  97
ENDBRANCH  81  83
ENDBRANCH  80  81
ENDBRANCH  79  80
ENDBRANCH  78  79
ENDBRANCH  77  78
ENDBRANCH  76  77
ENDBRANCH   1  76
TORSDOF 28
ENDMDL
MODEL 3
REMARK VINA RESULT:      -5.1      4.648     10.851
REMARK SMILES O=C(OCCOCCOCCOCCOC(=O)[C@@H]1CN(C(=O)CCC(F)(F)F)C[C@H]1c1ccc2c(c1)OCO2)c1ccc(-c2c3nc(c(-c4cc(S(=O)(=O)[O-])ccc4F)c4ccc([nH]4)c(-c4cc(S(=O)(=O)[O-])ccc4F)c4nc(c(-c5cc(S(=O)(=O)[O-])ccc5F)c5ccc2[nH]5)C=C4)C=C3)cc1
REMARK SMILES IDX 10 1 9 2 8 3 7 4 6 5 5 6 4 7 3 8 2 9 1 10 40 11 41 12 102 13
REMARK SMILES IDX 42 14 101 15 43 16 44 17 45 18 95 19 46 20 100 21 94 22
REMARK SMILES IDX 96 23 47 24 99 25 93 26 92 27 48 29 80 30 60 31 79 32 61 33
REMARK SMILES IDX 64 34 78 35 97 36 62 37 63 38 77 40 98 41 65 42 49 43 50 44
REMARK SMILES IDX 58 45 51 46 57 47 59 48 56 49 52 50 53 51 54 52 55 53 81 54
REMARK SMILES IDX 82 55 90 56 83 57 89 58 91 59 88 60 84 61 85 62 86 63 87 64
REMARK SMILES IDX 66 65 67 66 75 67 68 68 74 69 76 70 73 71 69 72 70 73 71 74
REMARK SMILES IDX 72 75 11 76 12 77 13 78 14 79 15 80 16 81 17 82 18 83 19 84
REMARK SMILES IDX 30 85 20 86 29 87 31 88 32 89 36 90 33 91 35 92 34 93 37 94
REMARK SMILES IDX 39 95 38 96 21 97 22 98 23 99 24 100 25 101 26 102 27 103
REMARK SMILES IDX 28 104
REMARK H PARENT 96 28 64 39
REMARK Flexibility Score: inf
ROOT
ATOM      1  C   UNL A   1      53.732  29.762  34.818  1.00  0.00     0.188 C 
ENDROOT
BRANCH   1   2
ATOM      2  O   UNL A   1      53.460  28.441  34.365  1.00  0.00    -0.377 OA
BRANCH   2   3
ATOM      3  C   UNL A   1      52.526  28.239  33.315  1.00  0.00     0.188 C 
BRANCH   3   4
ATOM      4  C   UNL A   1      52.394  26.839  32.726  1.00  0.00     0.188 C 
BRANCH   4   5
ATOM      5  O   UNL A   1      52.690  25.841  33.675  1.00  0.00    -0.376 OA
BRANCH   5   6
ATOM      6  C   UNL A   1      51.983  24.618  33.579  1.00  0.00     0.202 C 
BRANCH   6   7
ATOM      7  C   UNL A   1      50.762  24.833  32.684  1.00  0.00     0.261 C 
BRANCH   7   8
ATOM      8  O   UNL A   1      49.585  24.253  33.280  1.00  0.00    -0.460 OA
BRANCH   8   9
ATOM      9  C   UNL A   1      48.784  24.812  34.224  1.00  0.00     0.338 C 
ATOM     10  O   UNL A   1      49.182  24.824  35.390  1.00  0.00    -0.246 OA
BRANCH   9  11
ATOM     11  C   UNL A   1      47.484  25.508  33.927  1.00  0.00     0.060 A 
ATOM     12  C   UNL A   1      46.205  25.087  34.311  1.00  0.00     0.016 A 
ATOM     13  C   UNL A   1      47.588  26.740  33.252  1.00  0.00     0.016 A 
ATOM     14  C   UNL A   1      45.068  25.830  34.008  1.00  0.00     0.010 A 
ATOM     15  C   UNL A   1      46.452  27.488  32.932  1.00  0.00     0.010 A 
ATOM     16  C   UNL A   1      45.185  27.014  33.286  1.00  0.00    -0.014 A 
BRANCH  16  17
ATOM     17  C   UNL A   1      43.960  27.599  32.712  1.00  0.00     0.031 A 
ATOM     18  C   UNL A   1      43.546  27.116  31.353  1.00  0.00     0.074 A 
ATOM     19  C   UNL A   1      43.194  28.435  33.434  1.00  0.00     0.049 A 
ATOM     20  N   UNL A   1      42.574  27.519  30.585  1.00  0.00    -0.248 NA
ATOM     21  C   UNL A   1      44.344  26.012  30.790  1.00  0.00     0.031 C 
ATOM     22  C   UNL A   1      43.457  28.834  34.818  1.00  0.00     0.029 A 
ATOM     23  N   UNL A   1      42.033  29.083  33.113  1.00  0.00    -0.354 N 
ATOM     24  C   UNL A   1      42.659  26.740  29.435  1.00  0.00     0.074 A 
ATOM     25  C   UNL A   1      43.783  25.848  29.604  1.00  0.00     0.031 C 
ATOM     26  C   UNL A   1      42.483  29.667  35.224  1.00  0.00     0.029 A 
ATOM     27  C   UNL A   1      41.570  29.909  34.111  1.00  0.00     0.049 A 
ATOM     28  H   UNL A   1      41.573  28.970  32.249  1.00  0.00     0.167 HD
ATOM     29  C   UNL A   1      41.870  26.783  28.336  1.00  0.00     0.034 A 
ATOM     30  C   UNL A   1      40.549  30.791  34.093  1.00  0.00     0.034 A 
ATOM     31  C   UNL A   1      40.775  27.709  28.209  1.00  0.00     0.049 A 
ATOM     32  C   UNL A   1      39.751  30.904  32.816  1.00  0.00     0.074 A 
ATOM     33  C   UNL A   1      39.941  27.929  27.129  1.00  0.00     0.029 A 
ATOM     34  N   UNL A   1      40.368  28.585  29.214  1.00  0.00    -0.354 N 
ATOM     35  N   UNL A   1      39.886  30.229  31.693  1.00  0.00    -0.248 NA
ATOM     36  C   UNL A   1      38.671  31.897  32.795  1.00  0.00     0.031 C 
ATOM     37  C   UNL A   1      39.075  28.979  27.459  1.00  0.00     0.029 A 
ATOM     38  C   UNL A   1      39.312  29.361  28.772  1.00  0.00     0.049 A 
ATOM     39  H   UNL A   1      40.774  28.642  30.108  1.00  0.00     0.167 HD
ATOM     40  C   UNL A   1      38.893  30.702  30.840  1.00  0.00     0.074 A 
ATOM     41  C   UNL A   1      38.157  31.703  31.588  1.00  0.00     0.031 C 
ATOM     42  C   UNL A   1      38.611  30.352  29.558  1.00  0.00     0.034 A 
BRANCH  29  43
ATOM     43  C   UNL A   1      42.254  25.887  27.184  1.00  0.00     0.023 A 
ATOM     44  C   UNL A   1      41.853  24.539  27.119  1.00  0.00     0.031 A 
ATOM     45  C   UNL A   1      43.128  26.360  26.188  1.00  0.00     0.131 A 
ATOM     46  C   UNL A   1      42.396  23.693  26.138  1.00  0.00     0.055 A 
ATOM     47  C   UNL A   1      43.598  25.534  25.165  1.00  0.00     0.041 A 
ATOM     48  F   UNL A   1      43.573  27.626  26.217  1.00  0.00    -0.206 F 
ATOM     49  C   UNL A   1      43.247  24.188  25.146  1.00  0.00     0.022 A 
BRANCH  46  50
ATOM     50  S   UNL A   1      42.104  21.907  26.273  1.00  0.00     0.124 S 
ATOM     51  O   UNL A   1      40.640  21.845  26.227  1.00  0.00    -0.237 OA
ATOM     52  O   UNL A   1      42.802  21.378  25.121  1.00  0.00    -0.237 OA
ATOM     53  O   UNL A   1      42.686  21.563  27.576  1.00  0.00    -0.744 OA
ENDBRANCH  46  50
ENDBRANCH  29  43
BRANCH  30  54
ATOM     54  C   UNL A   1      40.280  31.676  35.266  1.00  0.00     0.023 A 
ATOM     55  C   UNL A   1      39.232  31.415  36.163  1.00  0.00     0.031 A 
ATOM     56  C   UNL A   1      41.045  32.840  35.479  1.00  0.00     0.131 A 
ATOM     57  C   UNL A   1      38.954  32.319  37.204  1.00  0.00     0.055 A 
ATOM     58  C   UNL A   1      40.802  33.705  36.547  1.00  0.00     0.041 A 
ATOM     59  F   UNL A   1      42.053  33.153  34.649  1.00  0.00    -0.206 F 
ATOM     60  C   UNL A   1      39.741  33.453  37.410  1.00  0.00     0.022 A 
BRANCH  57  61
ATOM     61  S   UNL A   1      37.487  32.041  38.235  1.00  0.00     0.124 S 
ATOM     62  O   UNL A   1      37.949  32.498  39.540  1.00  0.00    -0.237 OA
ATOM     63  O   UNL A   1      36.490  32.879  37.577  1.00  0.00    -0.237 OA
ATOM     64  O   UNL A   1      37.259  30.602  38.123  1.00  0.00    -0.744 OA
ENDBRANCH  57  61
ENDBRANCH  30  54
BRANCH  42  65
ATOM     65  C   UNL A   1      37.429  31.032  28.918  1.00  0.00     0.023 A 
ATOM     66  C   UNL A   1      36.315  30.303  28.469  1.00  0.00     0.031 A 
ATOM     67  C   UNL A   1      37.421  32.428  28.759  1.00  0.00     0.131 A 
ATOM     68  C   UNL A   1      35.262  30.970  27.829  1.00  0.00     0.055 A 
ATOM     69  C   UNL A   1      36.341  33.093  28.182  1.00  0.00     0.041 A 
ATOM     70  F   UNL A   1      38.462  33.169  29.174  1.00  0.00    -0.206 F 
ATOM     71  C   UNL A   1      35.259  32.362  27.700  1.00  0.00     0.022 A 
BRANCH  68  72
ATOM     72  S   UNL A   1      33.939  29.983  27.080  1.00  0.00     0.124 S 
ATOM     73  O   UNL A   1      33.087  31.013  26.494  1.00  0.00    -0.237 OA
ATOM     74  O   UNL A   1      34.670  29.146  26.134  1.00  0.00    -0.237 OA
ATOM     75  O   UNL A   1      33.357  29.270  28.216  1.00  0.00    -0.744 OA
ENDBRANCH  68  72
ENDBRANCH  42  65
ENDBRANCH  16  17
ENDBRANCH   9  11
ENDBRANCH   8   9
ENDBRANCH   7   8
ENDBRANCH   6   7
ENDBRANCH   5   6
ENDBRANCH   4   5
ENDBRANCH   3   4
ENDBRANCH   2   3
ENDBRANCH   1   2
BRANCH   1  76
ATOM     76  C   UNL A   1      53.721  30.976  33.886  1.00  0.00     0.188 C 
BRANCH  76  77
ATOM     77  O   UNL A   1      52.555  31.757  33.822  1.00  0.00    -0.376 OA
BRANCH  77  78
ATOM     78  C   UNL A   1      51.596  31.443  32.822  1.00  0.00     0.202 C 
BRANCH  78  79
ATOM     79  C   UNL A   1      50.562  32.482  32.361  1.00  0.00     0.261 C 
BRANCH  79  80
ATOM     80  O   UNL A   1      50.019  32.271  31.032  1.00  0.00    -0.463 OA
BRANCH  80  81
ATOM     81  C   UNL A   1      50.191  31.043  30.475  1.00  0.00     0.311 C 
ATOM     82  O   UNL A   1      51.113  30.752  29.721  1.00  0.00    -0.252 OA
BRANCH  81  83
ATOM     83  C   UNL A   1      49.043  30.076  30.700  1.00  0.00     0.128 C 
ATOM     84  C   UNL A   1      49.275  28.992  29.670  1.00  0.00     0.135 C 
ATOM     85  C   UNL A   1      47.550  30.448  30.523  1.00  0.00     0.055 C 
ATOM     86  N   UNL A   1      48.034  28.271  29.582  1.00  0.00    -0.341 N 
ATOM     87  C   UNL A   1      46.931  29.113  30.012  1.00  0.00     0.128 C 
BRANCH  85  88
ATOM     88  C   UNL A   1      46.806  30.997  31.754  1.00  0.00    -0.038 A 
ATOM     89  C   UNL A   1      45.463  31.444  31.674  1.00  0.00     0.008 A 
ATOM     90  C   UNL A   1      47.415  30.990  33.030  1.00  0.00     0.054 A 
ATOM     91  C   UNL A   1      44.728  31.807  32.812  1.00  0.00     0.051 A 
ATOM     92  C   UNL A   1      46.690  31.425  34.127  1.00  0.00     0.166 A 
ATOM     93  C   UNL A   1      45.375  31.802  34.021  1.00  0.00     0.165 A 
ATOM     94  O   UNL A   1      47.152  31.528  35.404  1.00  0.00    -0.454 OA
ATOM     95  O   UNL A   1      44.835  32.160  35.216  1.00  0.00    -0.454 OA
ATOM     96  C   UNL A   1      46.001  32.109  36.060  1.00  0.00     0.468 C 
ENDBRANCH  85  88
BRANCH  86  97
ATOM     97  C   UNL A   1      47.840  27.008  29.081  1.00  0.00     0.222 C 
ATOM     98  O   UNL A   1      47.590  26.045  29.805  1.00  0.00    -0.275 OA
BRANCH  97  99
ATOM     99  C   UNL A   1      47.983  26.812  27.582  1.00  0.00     0.109 C 
BRANCH  99 100
ATOM    100  C   UNL A   1      46.748  27.187  26.774  1.00  0.00     0.125 C 
BRANCH 100 101
ATOM    101  C   UNL A   1      47.003  27.452  25.310  1.00  0.00     0.389 C 
ATOM    102  F   UNL A   1      46.440  28.616  24.917  1.00  0.00    -0.171 F 
ATOM    103  F   UNL A   1      48.330  27.551  25.074  1.00  0.00    -0.171 F 
ATOM    104  F   UNL A   1      46.527  26.465  24.527  1.00  0.00    -0.171 F 
ENDBRANCH 100 101
ENDBRANCH  99 100
ENDBRANCH  97  99
ENDBRANCH  86  97
ENDBRANCH  81  83
ENDBRANCH  80  81
ENDBRANCH  79  80
ENDBRANCH  78  79
ENDBRANCH  77  78
ENDBRANCH  76  77
ENDBRANCH   1  76
TORSDOF 28
ENDMDL
