MODEL 1
REMARK VINA RESULT:     -10.0      0.000      0.000
REMARK SMILES CS(=O)(=O)c1ccc(/C=C(/C(=O)OCCOCCOCCOCCOC(=O)c2ccc(-c3c4nc(c(-c5cc(S(=O)(=O)[O-])ccc5F)c5ccc([nH]5)c(-c5cc(S(=O)(=O)[O-])ccc5F)c5nc(c(-c6cc(S(=O)(=O)[O-])ccc6F)c6ccc3[nH]6)C=C5)C=C4)cc2)c2ccccc2)cc1
REMARK SMILES IDX 20 1 19 2 18 3 17 4 16 5 15 6 14 7 13 8 11 9 12 10 10 11
REMARK SMILES IDX 9 12 8 13 5 14 6 15 98 16 7 17 97 18 2 19 1 20 3 21 4 22
REMARK SMILES IDX 91 23 92 24 96 25 93 26 95 27 94 28 21 29 22 30 23 31 24 32
REMARK SMILES IDX 25 33 26 34 27 35 28 36 29 37 90 38 30 39 89 40 31 41 32 42
REMARK SMILES IDX 33 43 83 44 34 45 88 46 82 47 84 48 35 49 87 50 81 51 80 52
REMARK SMILES IDX 36 54 68 55 48 56 67 57 49 58 52 59 66 60 85 61 50 62 51 63
REMARK SMILES IDX 65 65 86 66 53 67 37 68 38 69 46 70 39 71 45 72 47 73 44 74
REMARK SMILES IDX 40 75 41 76 42 77 43 78 69 79 70 80 78 81 71 82 77 83 79 84
REMARK SMILES IDX 76 85 72 86 73 87 74 88 75 89 54 90 55 91 63 92 56 93 62 94
REMARK SMILES IDX 64 95 61 96 57 97 58 98 59 99 60 100
REMARK H PARENT 84 53 52 64
REMARK Flexibility Score: inf
ROOT
ATOM      1  C   UNL A   1      32.430  29.454  23.788  1.00  0.00     0.188 C 
ENDROOT
BRANCH   1   2
ATOM      2  O   UNL A   1      31.888  29.242  22.492  1.00  0.00    -0.377 OA
BRANCH   2   3
ATOM      3  C   UNL A   1      30.731  28.441  22.347  1.00  0.00     0.188 C 
BRANCH   3   4
ATOM      4  C   UNL A   1      30.886  26.914  22.209  1.00  0.00     0.188 C 
BRANCH   4   5
ATOM      5  O   UNL A   1      32.231  26.463  22.113  1.00  0.00    -0.376 OA
BRANCH   5   6
ATOM      6  C   UNL A   1      32.868  26.152  23.345  1.00  0.00     0.202 C 
BRANCH   6   7
ATOM      7  C   UNL A   1      31.925  26.108  24.552  1.00  0.00     0.261 C 
BRANCH   7   8
ATOM      8  O   UNL A   1      31.363  24.812  24.827  1.00  0.00    -0.460 OA
BRANCH   8   9
ATOM      9  C   UNL A   1      31.798  24.161  25.932  1.00  0.00     0.338 C 
ATOM     10  O   UNL A   1      31.440  24.391  27.078  1.00  0.00    -0.246 OA
BRANCH   9  11
ATOM     11  C   UNL A   1      32.690  23.015  25.547  1.00  0.00     0.067 C 
ATOM     12  C   UNL A   1      32.149  21.776  25.453  1.00  0.00     0.024 C 
BRANCH  12  13
ATOM     13  C   UNL A   1      32.754  20.533  24.924  1.00  0.00    -0.025 A 
ATOM     14  C   UNL A   1      33.704  17.951  24.379  1.00  0.00     0.067 A 
ATOM     15  C   UNL A   1      32.647  18.468  23.637  1.00  0.00     0.021 A 
ATOM     16  C   UNL A   1      34.384  18.759  25.292  1.00  0.00     0.021 A 
ATOM     17  C   UNL A   1      32.209  19.769  23.887  1.00  0.00     0.009 A 
ATOM     18  C   UNL A   1      33.906  20.045  25.561  1.00  0.00     0.009 A 
BRANCH  14  19
ATOM     19  S   UNL A   1      34.166  16.243  24.256  1.00  0.00     0.175 S 
ATOM     20  C   UNL A   1      32.899  15.308  25.064  1.00  0.00     0.163 C 
ATOM     21  O   UNL A   1      35.382  16.090  25.033  1.00  0.00    -0.224 OA
ATOM     22  O   UNL A   1      34.125  15.889  22.850  1.00  0.00    -0.224 OA
ENDBRANCH  14  19
ENDBRANCH  12  13
BRANCH  11  23
ATOM     23  C   UNL A   1      34.110  23.316  25.270  1.00  0.00    -0.011 A 
ATOM     24  C   UNL A   1      34.996  23.556  26.336  1.00  0.00     0.009 A 
ATOM     25  C   UNL A   1      34.621  23.267  23.970  1.00  0.00     0.009 A 
ATOM     26  C   UNL A   1      36.362  23.728  26.113  1.00  0.00     0.001 A 
ATOM     27  C   UNL A   1      35.991  23.433  23.748  1.00  0.00     0.001 A 
ATOM     28  C   UNL A   1      36.860  23.660  24.816  1.00  0.00     0.000 A 
ENDBRANCH  11  23
ENDBRANCH   9  11
ENDBRANCH   8   9
ENDBRANCH   7   8
ENDBRANCH   6   7
ENDBRANCH   5   6
ENDBRANCH   4   5
ENDBRANCH   3   4
ENDBRANCH   2   3
ENDBRANCH   1   2
BRANCH   1  29
ATOM     29  C   UNL A   1      31.533  29.985  24.927  1.00  0.00     0.188 C 
BRANCH  29  30
ATOM     30  O   UNL A   1      31.246  29.041  25.955  1.00  0.00    -0.376 OA
BRANCH  30  31
ATOM     31  C   UNL A   1      31.944  29.212  27.179  1.00  0.00     0.202 C 
BRANCH  31  32
ATOM     32  C   UNL A   1      32.699  30.541  27.292  1.00  0.00     0.261 C 
BRANCH  32  33
ATOM     33  O   UNL A   1      34.112  30.462  27.053  1.00  0.00    -0.460 OA
BRANCH  33  34
ATOM     34  C   UNL A   1      34.909  31.292  27.764  1.00  0.00     0.338 C 
ATOM     35  O   UNL A   1      34.651  32.424  28.133  1.00  0.00    -0.246 OA
BRANCH  34  36
ATOM     36  C   UNL A   1      36.087  30.511  28.184  1.00  0.00     0.060 A 
ATOM     37  C   UNL A   1      36.044  29.812  29.398  1.00  0.00     0.016 A 
ATOM     38  C   UNL A   1      37.209  30.436  27.356  1.00  0.00     0.016 A 
ATOM     39  C   UNL A   1      37.141  29.048  29.796  1.00  0.00     0.010 A 
ATOM     40  C   UNL A   1      38.312  29.690  27.765  1.00  0.00     0.010 A 
ATOM     41  C   UNL A   1      38.293  29.013  28.998  1.00  0.00    -0.014 A 
BRANCH  41  42
ATOM     42  C   UNL A   1      39.549  28.442  29.534  1.00  0.00     0.031 A 
ATOM     43  C   UNL A   1      40.172  29.107  30.729  1.00  0.00     0.074 A 
ATOM     44  C   UNL A   1      40.128  27.367  28.972  1.00  0.00     0.049 A 
ATOM     45  N   UNL A   1      41.291  28.834  31.347  1.00  0.00    -0.248 NA
ATOM     46  C   UNL A   1      39.427  30.242  31.296  1.00  0.00     0.031 C 
ATOM     47  C   UNL A   1      39.595  26.617  27.837  1.00  0.00     0.029 A 
ATOM     48  N   UNL A   1      41.302  26.727  29.281  1.00  0.00    -0.354 N 
ATOM     49  C   UNL A   1      41.387  29.763  32.378  1.00  0.00     0.074 A 
ATOM     50  C   UNL A   1      40.234  30.633  32.268  1.00  0.00     0.031 C 
ATOM     51  C   UNL A   1      40.446  25.620  27.539  1.00  0.00     0.029 A 
ATOM     52  C   UNL A   1      41.599  25.685  28.437  1.00  0.00     0.049 A 
ATOM     53  H   UNL A   1      41.875  26.990  30.036  1.00  0.00     0.167 HD
ATOM     54  C   UNL A   1      42.343  29.874  33.332  1.00  0.00     0.034 A 
ATOM     55  C   UNL A   1      42.690  24.894  28.382  1.00  0.00     0.034 A 
ATOM     56  C   UNL A   1      43.502  29.019  33.403  1.00  0.00     0.049 A 
ATOM     57  C   UNL A   1      43.802  25.109  29.381  1.00  0.00     0.074 A 
ATOM     58  C   UNL A   1      44.525  29.026  34.335  1.00  0.00     0.029 A 
ATOM     59  N   UNL A   1      43.807  28.018  32.488  1.00  0.00    -0.354 N 
ATOM     60  N   UNL A   1      43.876  25.975  30.367  1.00  0.00    -0.248 NA
ATOM     61  C   UNL A   1      44.979  24.239  29.257  1.00  0.00     0.031 C 
ATOM     62  C   UNL A   1      45.485  28.088  33.939  1.00  0.00     0.029 A 
ATOM     63  C   UNL A   1      45.024  27.435  32.806  1.00  0.00     0.049 A 
ATOM     64  H   UNL A   1      43.241  27.760  31.725  1.00  0.00     0.167 HD
ATOM     65  C   UNL A   1      45.095  25.734  30.997  1.00  0.00     0.074 A 
ATOM     66  C   UNL A   1      45.717  24.636  30.285  1.00  0.00     0.031 C 
ATOM     67  C   UNL A   1      45.646  26.356  32.071  1.00  0.00     0.034 A 
BRANCH  54  68
ATOM     68  C   UNL A   1      42.190  31.003  34.323  1.00  0.00     0.023 A 
ATOM     69  C   UNL A   1      41.145  31.022  35.266  1.00  0.00     0.031 A 
ATOM     70  C   UNL A   1      43.054  32.110  34.277  1.00  0.00     0.131 A 
ATOM     71  C   UNL A   1      40.935  32.165  36.053  1.00  0.00     0.055 A 
ATOM     72  C   UNL A   1      42.893  33.206  35.127  1.00  0.00     0.041 A 
ATOM     73  F   UNL A   1      44.054  32.162  33.383  1.00  0.00    -0.206 F 
ATOM     74  C   UNL A   1      41.816  33.247  36.009  1.00  0.00     0.022 A 
BRANCH  71  75
ATOM     75  S   UNL A   1      39.390  32.290  36.998  1.00  0.00     0.124 S 
ATOM     76  O   UNL A   1      39.881  32.671  38.320  1.00  0.00    -0.237 OA
ATOM     77  O   UNL A   1      38.657  33.317  36.267  1.00  0.00    -0.237 OA
ATOM     78  O   UNL A   1      38.828  30.943  36.917  1.00  0.00    -0.744 OA
ENDBRANCH  71  75
ENDBRANCH  54  68
BRANCH  55  79
ATOM     79  C   UNL A   1      42.810  23.849  27.326  1.00  0.00     0.023 A 
ATOM     80  C   UNL A   1      42.186  22.600  27.470  1.00  0.00     0.031 A 
ATOM     81  C   UNL A   1      43.584  24.072  26.173  1.00  0.00     0.131 A 
ATOM     82  C   UNL A   1      42.372  21.609  26.493  1.00  0.00     0.055 A 
ATOM     83  C   UNL A   1      43.728  23.100  25.183  1.00  0.00     0.041 A 
ATOM     84  F   UNL A   1      44.203  25.248  25.989  1.00  0.00    -0.206 F 
ATOM     85  C   UNL A   1      43.127  21.856  25.344  1.00  0.00     0.022 A 
BRANCH  82  86
ATOM     86  S   UNL A   1      41.654  19.967  26.770  1.00  0.00     0.124 S 
ATOM     87  O   UNL A   1      42.578  19.400  27.745  1.00  0.00    -0.237 OA
ATOM     88  O   UNL A   1      40.322  20.297  27.265  1.00  0.00    -0.237 OA
ATOM     89  O   UNL A   1      41.688  19.352  25.445  1.00  0.00    -0.744 OA
ENDBRANCH  82  86
ENDBRANCH  55  79
BRANCH  67  90
ATOM     90  C   UNL A   1      46.980  25.837  32.558  1.00  0.00     0.023 A 
ATOM     91  C   UNL A   1      47.073  24.884  33.587  1.00  0.00     0.031 A 
ATOM     92  C   UNL A   1      48.175  26.310  31.986  1.00  0.00     0.131 A 
ATOM     93  C   UNL A   1      48.334  24.471  34.047  1.00  0.00     0.055 A 
ATOM     94  C   UNL A   1      49.424  25.851  32.405  1.00  0.00     0.041 A 
ATOM     95  F   UNL A   1      48.146  27.225  31.003  1.00  0.00    -0.206 F 
ATOM     96  C   UNL A   1      49.509  24.936  33.450  1.00  0.00     0.022 A 
BRANCH  93  97
ATOM     97  S   UNL A   1      48.423  23.386  35.498  1.00  0.00     0.124 S 
ATOM     98  O   UNL A   1      47.114  23.588  36.108  1.00  0.00    -0.237 OA
ATOM     99  O   UNL A   1      48.651  22.076  34.895  1.00  0.00    -0.237 OA
ATOM    100  O   UNL A   1      49.551  23.921  36.259  1.00  0.00    -0.744 OA
ENDBRANCH  93  97
ENDBRANCH  67  90
ENDBRANCH  41  42
ENDBRANCH  34  36
ENDBRANCH  33  34
ENDBRANCH  32  33
ENDBRANCH  31  32
ENDBRANCH  30  31
ENDBRANCH  29  30
ENDBRANCH   1  29
TORSDOF 26
ENDMDL
MODEL 2
REMARK VINA RESULT:      -9.7      1.872      2.151
REMARK SMILES CS(=O)(=O)c1ccc(/C=C(/C(=O)OCCOCCOCCOCCOC(=O)c2ccc(-c3c4nc(c(-c5cc(S(=O)(=O)[O-])ccc5F)c5ccc([nH]5)c(-c5cc(S(=O)(=O)[O-])ccc5F)c5nc(c(-c6cc(S(=O)(=O)[O-])ccc6F)c6ccc3[nH]6)C=C5)C=C4)cc2)c2ccccc2)cc1
REMARK SMILES IDX 20 1 19 2 18 3 17 4 16 5 15 6 14 7 13 8 11 9 12 10 10 11
REMARK SMILES IDX 9 12 8 13 5 14 6 15 98 16 7 17 97 18 2 19 1 20 3 21 4 22
REMARK SMILES IDX 91 23 92 24 96 25 93 26 95 27 94 28 21 29 22 30 23 31 24 32
REMARK SMILES IDX 25 33 26 34 27 35 28 36 29 37 90 38 30 39 89 40 31 41 32 42
REMARK SMILES IDX 33 43 83 44 34 45 88 46 82 47 84 48 35 49 87 50 81 51 80 52
REMARK SMILES IDX 36 54 68 55 48 56 67 57 49 58 52 59 66 60 85 61 50 62 51 63
REMARK SMILES IDX 65 65 86 66 53 67 37 68 38 69 46 70 39 71 45 72 47 73 44 74
REMARK SMILES IDX 40 75 41 76 42 77 43 78 69 79 70 80 78 81 71 82 77 83 79 84
REMARK SMILES IDX 76 85 72 86 73 87 74 88 75 89 54 90 55 91 63 92 56 93 62 94
REMARK SMILES IDX 64 95 61 96 57 97 58 98 59 99 60 100
REMARK H PARENT 84 53 52 64
REMARK Flexibility Score: inf
ROOT
ATOM      1  C   UNL A   1      32.550  29.411  23.828  1.00  0.00     0.188 C 
ENDROOT
BRANCH   1   2
ATOM      2  O   UNL A   1      32.072  29.235  22.502  1.00  0.00    -0.377 OA
BRANCH   2   3
ATOM      3  C   UNL A   1      30.949  28.405  22.275  1.00  0.00     0.188 C 
BRANCH   3   4
ATOM      4  C   UNL A   1      31.147  26.879  22.187  1.00  0.00     0.188 C 
BRANCH   4   5
ATOM      5  O   UNL A   1      32.495  26.469  21.998  1.00  0.00    -0.376 OA
BRANCH   5   6
ATOM      6  C   UNL A   1      33.232  26.198  23.183  1.00  0.00     0.202 C 
BRANCH   6   7
ATOM      7  C   UNL A   1      32.396  26.222  24.467  1.00  0.00     0.261 C 
BRANCH   7   8
ATOM      8  O   UNL A   1      31.738  24.980  24.777  1.00  0.00    -0.460 OA
BRANCH   8   9
ATOM      9  C   UNL A   1      32.162  24.300  25.869  1.00  0.00     0.338 C 
ATOM     10  O   UNL A   1      31.847  24.544  27.024  1.00  0.00    -0.246 OA
BRANCH   9  11
ATOM     11  C   UNL A   1      32.977  23.107  25.457  1.00  0.00     0.067 C 
ATOM     12  C   UNL A   1      32.379  21.891  25.430  1.00  0.00     0.024 C 
BRANCH  12  13
ATOM     13  C   UNL A   1      32.894  20.610  24.896  1.00  0.00    -0.025 A 
ATOM     14  C   UNL A   1      33.780  17.998  24.390  1.00  0.00     0.067 A 
ATOM     15  C   UNL A   1      32.577  18.436  23.846  1.00  0.00     0.021 A 
ATOM     16  C   UNL A   1      34.613  18.892  25.063  1.00  0.00     0.021 A 
ATOM     17  C   UNL A   1      32.164  19.750  24.068  1.00  0.00     0.009 A 
ATOM     18  C   UNL A   1      34.167  20.193  25.314  1.00  0.00     0.009 A 
BRANCH  14  19
ATOM     19  S   UNL A   1      34.253  16.291  24.321  1.00  0.00     0.175 S 
ATOM     20  C   UNL A   1      32.948  15.364  25.077  1.00  0.00     0.163 C 
ATOM     21  O   UNL A   1      35.427  16.156  25.164  1.00  0.00    -0.224 OA
ATOM     22  O   UNL A   1      34.287  15.912  22.922  1.00  0.00    -0.224 OA
ENDBRANCH  14  19
ENDBRANCH  12  13
BRANCH  11  23
ATOM     23  C   UNL A   1      34.388  23.337  25.081  1.00  0.00    -0.011 A 
ATOM     24  C   UNL A   1      35.329  23.680  26.069  1.00  0.00     0.009 A 
ATOM     25  C   UNL A   1      34.834  23.123  23.774  1.00  0.00     0.009 A 
ATOM     26  C   UNL A   1      36.686  23.791  25.765  1.00  0.00     0.001 A 
ATOM     27  C   UNL A   1      36.195  23.227  23.471  1.00  0.00     0.001 A 
ATOM     28  C   UNL A   1      37.119  23.557  24.464  1.00  0.00     0.000 A 
ENDBRANCH  11  23
ENDBRANCH   9  11
ENDBRANCH   8   9
ENDBRANCH   7   8
ENDBRANCH   6   7
ENDBRANCH   5   6
ENDBRANCH   4   5
ENDBRANCH   3   4
ENDBRANCH   2   3
ENDBRANCH   1   2
BRANCH   1  29
ATOM     29  C   UNL A   1      31.595  29.893  24.941  1.00  0.00     0.188 C 
BRANCH  29  30
ATOM     30  O   UNL A   1      31.261  28.907  25.914  1.00  0.00    -0.376 OA
BRANCH  30  31
ATOM     31  C   UNL A   1      31.942  28.995  27.157  1.00  0.00     0.202 C 
BRANCH  31  32
ATOM     32  C   UNL A   1      32.772  30.271  27.331  1.00  0.00     0.261 C 
BRANCH  32  33
ATOM     33  O   UNL A   1      34.190  30.101  27.193  1.00  0.00    -0.460 OA
BRANCH  33  34
ATOM     34  C   UNL A   1      34.987  31.003  27.809  1.00  0.00     0.338 C 
ATOM     35  O   UNL A   1      34.708  32.152  28.104  1.00  0.00    -0.246 OA
BRANCH  34  36
ATOM     36  C   UNL A   1      36.202  30.288  28.240  1.00  0.00     0.060 A 
ATOM     37  C   UNL A   1      36.253  29.749  29.533  1.00  0.00     0.016 A 
ATOM     38  C   UNL A   1      37.265  30.116  27.352  1.00  0.00     0.016 A 
ATOM     39  C   UNL A   1      37.386  29.047  29.946  1.00  0.00     0.010 A 
ATOM     40  C   UNL A   1      38.405  29.434  27.773  1.00  0.00     0.010 A 
ATOM     41  C   UNL A   1      38.480  28.918  29.079  1.00  0.00    -0.014 A 
BRANCH  41  42
ATOM     42  C   UNL A   1      39.779  28.427  29.594  1.00  0.00     0.031 A 
ATOM     43  C   UNL A   1      40.452  29.218  30.680  1.00  0.00     0.074 A 
ATOM     44  C   UNL A   1      40.352  27.314  29.105  1.00  0.00     0.049 A 
ATOM     45  N   UNL A   1      41.610  29.029  31.254  1.00  0.00    -0.248 NA
ATOM     46  C   UNL A   1      39.712  30.389  31.177  1.00  0.00     0.031 C 
ATOM     47  C   UNL A   1      39.775  26.446  28.081  1.00  0.00     0.029 A 
ATOM     48  N   UNL A   1      41.557  26.731  29.405  1.00  0.00    -0.354 N 
ATOM     49  C   UNL A   1      41.741  30.056  32.183  1.00  0.00     0.074 A 
ATOM     50  C   UNL A   1      40.562  30.888  32.058  1.00  0.00     0.031 C 
ATOM     51  C   UNL A   1      40.632  25.441  27.832  1.00  0.00     0.029 A 
ATOM     52  C   UNL A   1      41.832  25.617  28.650  1.00  0.00     0.049 A 
ATOM     53  H   UNL A   1      42.166  27.077  30.096  1.00  0.00     0.167 HD
ATOM     54  C   UNL A   1      42.746  30.279  33.064  1.00  0.00     0.034 A 
ATOM     55  C   UNL A   1      42.938  24.846  28.608  1.00  0.00     0.034 A 
ATOM     56  C   UNL A   1      43.928  29.458  33.150  1.00  0.00     0.049 A 
ATOM     57  C   UNL A   1      44.099  25.179  29.515  1.00  0.00     0.074 A 
ATOM     58  C   UNL A   1      45.002  29.576  34.015  1.00  0.00     0.029 A 
ATOM     59  N   UNL A   1      44.206  28.378  32.320  1.00  0.00    -0.354 N 
ATOM     60  N   UNL A   1      44.206  26.138  30.406  1.00  0.00    -0.248 NA
ATOM     61  C   UNL A   1      45.288  24.324  29.406  1.00  0.00     0.031 C 
ATOM     62  C   UNL A   1      45.961  28.623  33.656  1.00  0.00     0.029 A 
ATOM     63  C   UNL A   1      45.454  27.852  32.621  1.00  0.00     0.049 A 
ATOM     64  H   UNL A   1      43.605  28.035  31.620  1.00  0.00     0.167 HD
ATOM     65  C   UNL A   1      45.465  25.984  30.984  1.00  0.00     0.074 A 
ATOM     66  C   UNL A   1      46.073  24.834  30.346  1.00  0.00     0.031 C 
ATOM     67  C   UNL A   1      46.060  26.719  31.958  1.00  0.00     0.034 A 
BRANCH  54  68
ATOM     68  C   UNL A   1      42.621  31.496  33.949  1.00  0.00     0.023 A 
ATOM     69  C   UNL A   1      41.855  31.477  35.129  1.00  0.00     0.031 A 
ATOM     70  C   UNL A   1      43.213  32.713  33.570  1.00  0.00     0.131 A 
ATOM     71  C   UNL A   1      41.623  32.669  35.832  1.00  0.00     0.055 A 
ATOM     72  C   UNL A   1      43.053  33.877  34.325  1.00  0.00     0.041 A 
ATOM     73  F   UNL A   1      43.934  32.802  32.441  1.00  0.00    -0.206 F 
ATOM     74  C   UNL A   1      42.237  33.865  35.453  1.00  0.00     0.022 A 
BRANCH  71  75
ATOM     75  S   UNL A   1      40.363  32.671  37.138  1.00  0.00     0.124 S 
ATOM     76  O   UNL A   1      39.583  31.483  36.799  1.00  0.00    -0.237 OA
ATOM     77  O   UNL A   1      41.166  32.584  38.351  1.00  0.00    -0.237 OA
ATOM     78  O   UNL A   1      39.665  33.940  36.939  1.00  0.00    -0.744 OA
ENDBRANCH  71  75
ENDBRANCH  54  68
BRANCH  55  79
ATOM     79  C   UNL A   1      43.024  23.704  27.653  1.00  0.00     0.023 A 
ATOM     80  C   UNL A   1      43.885  23.750  26.545  1.00  0.00     0.031 A 
ATOM     81  C   UNL A   1      42.218  22.563  27.817  1.00  0.00     0.131 A 
ATOM     82  C   UNL A   1      43.895  22.690  25.624  1.00  0.00     0.055 A 
ATOM     83  C   UNL A   1      42.266  21.492  26.923  1.00  0.00     0.041 A 
ATOM     84  F   UNL A   1      41.377  22.471  28.859  1.00  0.00    -0.206 F 
ATOM     85  C   UNL A   1      43.102  21.556  25.814  1.00  0.00     0.022 A 
BRANCH  82  86
ATOM     86  S   UNL A   1      44.925  22.838  24.139  1.00  0.00     0.124 S 
ATOM     87  O   UNL A   1      45.248  24.260  24.141  1.00  0.00    -0.237 OA
ATOM     88  O   UNL A   1      46.027  21.930  24.440  1.00  0.00    -0.237 OA
ATOM     89  O   UNL A   1      44.038  22.400  23.064  1.00  0.00    -0.744 OA
ENDBRANCH  82  86
ENDBRANCH  55  79
BRANCH  67  90
ATOM     90  C   UNL A   1      47.432  26.277  32.414  1.00  0.00     0.023 A 
ATOM     91  C   UNL A   1      48.607  26.816  31.862  1.00  0.00     0.031 A 
ATOM     92  C   UNL A   1      47.562  25.296  33.415  1.00  0.00     0.131 A 
ATOM     93  C   UNL A   1      49.859  26.336  32.276  1.00  0.00     0.055 A 
ATOM     94  C   UNL A   1      48.811  24.867  33.867  1.00  0.00     0.041 A 
ATOM     95  F   UNL A   1      46.474  24.743  33.976  1.00  0.00    -0.206 F 
ATOM     96  C   UNL A   1      49.968  25.378  33.288  1.00  0.00     0.022 A 
BRANCH  93  97
ATOM     97  S   UNL A   1      51.346  26.915  31.412  1.00  0.00     0.124 S 
ATOM     98  O   UNL A   1      50.776  27.712  30.332  1.00  0.00    -0.237 OA
ATOM     99  O   UNL A   1      52.044  27.659  32.456  1.00  0.00    -0.237 OA
ATOM    100  O   UNL A   1      52.002  25.678  30.991  1.00  0.00    -0.744 OA
ENDBRANCH  93  97
ENDBRANCH  67  90
ENDBRANCH  41  42
ENDBRANCH  34  36
ENDBRANCH  33  34
ENDBRANCH  32  33
ENDBRANCH  31  32
ENDBRANCH  30  31
ENDBRANCH  29  30
ENDBRANCH   1  29
TORSDOF 26
ENDMDL
MODEL 3
REMARK VINA RESULT:      -8.8      2.240      2.541
REMARK SMILES CS(=O)(=O)c1ccc(/C=C(/C(=O)OCCOCCOCCOCCOC(=O)c2ccc(-c3c4nc(c(-c5cc(S(=O)(=O)[O-])ccc5F)c5ccc([nH]5)c(-c5cc(S(=O)(=O)[O-])ccc5F)c5nc(c(-c6cc(S(=O)(=O)[O-])ccc6F)c6ccc3[nH]6)C=C5)C=C4)cc2)c2ccccc2)cc1
REMARK SMILES IDX 20 1 19 2 18 3 17 4 16 5 15 6 14 7 13 8 11 9 12 10 10 11
REMARK SMILES IDX 9 12 8 13 5 14 6 15 98 16 7 17 97 18 2 19 1 20 3 21 4 22
REMARK SMILES IDX 91 23 92 24 96 25 93 26 95 27 94 28 21 29 22 30 23 31 24 32
REMARK SMILES IDX 25 33 26 34 27 35 28 36 29 37 90 38 30 39 89 40 31 41 32 42
REMARK SMILES IDX 33 43 83 44 34 45 88 46 82 47 84 48 35 49 87 50 81 51 80 52
REMARK SMILES IDX 36 54 68 55 48 56 67 57 49 58 52 59 66 60 85 61 50 62 51 63
REMARK SMILES IDX 65 65 86 66 53 67 37 68 38 69 46 70 39 71 45 72 47 73 44 74
REMARK SMILES IDX 40 75 41 76 42 77 43 78 69 79 70 80 78 81 71 82 77 83 79 84
REMARK SMILES IDX 76 85 72 86 73 87 74 88 75 89 54 90 55 91 63 92 56 93 62 94
REMARK SMILES IDX 64 95 61 96 57 97 58 98 59 99 60 100
REMARK H PARENT 84 53 52 64
REMARK Flexibility Score: inf
ROOT
ATOM      1  C   UNL A   1      32.855  29.352  24.109  1.00  0.00     0.188 C 
ENDROOT
BRANCH   1   2
ATOM      2  O   UNL A   1      32.766  28.962  22.746  1.00  0.00    -0.377 OA
BRANCH   2   3
ATOM      3  C   UNL A   1      32.099  27.760  22.411  1.00  0.00     0.188 C 
BRANCH   3   4
ATOM      4  C   UNL A   1      32.393  26.486  23.227  1.00  0.00     0.188 C 
BRANCH   4   5
ATOM      5  O   UNL A   1      33.740  26.361  23.662  1.00  0.00    -0.376 OA
BRANCH   5   6
ATOM      6  C   UNL A   1      33.954  26.494  25.061  1.00  0.00     0.202 C 
BRANCH   6   7
ATOM      7  C   UNL A   1      32.765  26.062  25.927  1.00  0.00     0.261 C 
BRANCH   7   8
ATOM      8  O   UNL A   1      32.141  24.832  25.517  1.00  0.00    -0.460 OA
BRANCH   8   9
ATOM      9  C   UNL A   1      32.141  23.805  26.400  1.00  0.00     0.338 C 
ATOM     10  O   UNL A   1      31.524  23.775  27.455  1.00  0.00    -0.246 OA
BRANCH   9  11
ATOM     11  C   UNL A   1      32.903  22.636  25.843  1.00  0.00     0.067 C 
ATOM     12  C   UNL A   1      32.301  21.422  25.816  1.00  0.00     0.024 C 
BRANCH  12  13
ATOM     13  C   UNL A   1      32.752  20.172  25.164  1.00  0.00    -0.025 A 
ATOM     14  C   UNL A   1      33.678  17.625  24.441  1.00  0.00     0.067 A 
ATOM     15  C   UNL A   1      32.338  17.950  24.257  1.00  0.00     0.021 A 
ATOM     16  C   UNL A   1      34.588  18.602  24.848  1.00  0.00     0.021 A 
ATOM     17  C   UNL A   1      31.895  19.233  24.580  1.00  0.00     0.009 A 
ATOM     18  C   UNL A   1      34.121  19.870  25.208  1.00  0.00     0.009 A 
BRANCH  14  19
ATOM     19  S   UNL A   1      34.256  15.960  24.250  1.00  0.00     0.175 S 
ATOM     20  C   UNL A   1      35.700  15.798  25.262  1.00  0.00     0.163 C 
ATOM     21  O   UNL A   1      34.677  15.828  22.868  1.00  0.00    -0.224 OA
ATOM     22  O   UNL A   1      33.243  15.088  24.813  1.00  0.00    -0.224 OA
ENDBRANCH  14  19
ENDBRANCH  12  13
BRANCH  11  23
ATOM     23  C   UNL A   1      34.267  22.889  25.332  1.00  0.00    -0.011 A 
ATOM     24  C   UNL A   1      34.495  22.949  23.944  1.00  0.00     0.009 A 
ATOM     25  C   UNL A   1      35.325  23.173  26.199  1.00  0.00     0.009 A 
ATOM     26  C   UNL A   1      35.745  23.299  23.434  1.00  0.00     0.001 A 
ATOM     27  C   UNL A   1      36.576  23.530  25.688  1.00  0.00     0.001 A 
ATOM     28  C   UNL A   1      36.785  23.596  24.310  1.00  0.00     0.000 A 
ENDBRANCH  11  23
ENDBRANCH   9  11
ENDBRANCH   8   9
ENDBRANCH   7   8
ENDBRANCH   6   7
ENDBRANCH   5   6
ENDBRANCH   4   5
ENDBRANCH   3   4
ENDBRANCH   2   3
ENDBRANCH   1   2
BRANCH   1  29
ATOM     29  C   UNL A   1      31.605  29.867  24.854  1.00  0.00     0.188 C 
BRANCH  29  30
ATOM     30  O   UNL A   1      31.164  29.043  25.929  1.00  0.00    -0.376 OA
BRANCH  30  31
ATOM     31  C   UNL A   1      31.866  29.181  27.155  1.00  0.00     0.202 C 
BRANCH  31  32
ATOM     32  C   UNL A   1      32.786  30.405  27.220  1.00  0.00     0.261 C 
BRANCH  32  33
ATOM     33  O   UNL A   1      34.190  30.111  27.271  1.00  0.00    -0.460 OA
BRANCH  33  34
ATOM     34  C   UNL A   1      35.002  31.053  27.800  1.00  0.00     0.338 C 
ATOM     35  O   UNL A   1      34.712  32.203  28.079  1.00  0.00    -0.246 OA
BRANCH  34  36
ATOM     36  C   UNL A   1      36.266  30.385  28.163  1.00  0.00     0.060 A 
ATOM     37  C   UNL A   1      36.379  29.777  29.421  1.00  0.00     0.016 A 
ATOM     38  C   UNL A   1      37.315  30.325  27.243  1.00  0.00     0.016 A 
ATOM     39  C   UNL A   1      37.558  29.119  29.767  1.00  0.00     0.010 A 
ATOM     40  C   UNL A   1      38.501  29.687  27.601  1.00  0.00     0.010 A 
ATOM     41  C   UNL A   1      38.637  29.102  28.872  1.00  0.00    -0.014 A 
BRANCH  41  42
ATOM     42  C   UNL A   1      39.973  28.658  29.330  1.00  0.00     0.031 A 
ATOM     43  C   UNL A   1      40.727  29.548  30.277  1.00  0.00     0.074 A 
ATOM     44  C   UNL A   1      40.509  27.499  28.910  1.00  0.00     0.049 A 
ATOM     45  N   UNL A   1      41.927  29.411  30.775  1.00  0.00    -0.248 NA
ATOM     46  C   UNL A   1      40.025  30.766  30.713  1.00  0.00     0.031 C 
ATOM     47  C   UNL A   1      39.856  26.538  28.024  1.00  0.00     0.029 A 
ATOM     48  N   UNL A   1      41.735  26.942  29.171  1.00  0.00    -0.354 N 
ATOM     49  C   UNL A   1      42.127  30.524  31.585  1.00  0.00     0.074 A 
ATOM     50  C   UNL A   1      40.940  31.345  31.471  1.00  0.00     0.031 C 
ATOM     51  C   UNL A   1      40.694  25.509  27.809  1.00  0.00     0.029 A 
ATOM     52  C   UNL A   1      41.954  25.758  28.510  1.00  0.00     0.049 A 
ATOM     53  H   UNL A   1      42.395  27.351  29.775  1.00  0.00     0.167 HD
ATOM     54  C   UNL A   1      43.197  30.827  32.359  1.00  0.00     0.034 A 
ATOM     55  C   UNL A   1      43.055  24.981  28.458  1.00  0.00     0.034 A 
ATOM     56  C   UNL A   1      44.385  30.012  32.433  1.00  0.00     0.049 A 
ATOM     57  C   UNL A   1      44.282  25.395  29.234  1.00  0.00     0.074 A 
ATOM     58  C   UNL A   1      45.523  30.210  33.195  1.00  0.00     0.029 A 
ATOM     59  N   UNL A   1      44.600  28.854  31.694  1.00  0.00    -0.354 N 
ATOM     60  N   UNL A   1      44.456  26.437  30.016  1.00  0.00    -0.248 NA
ATOM     61  C   UNL A   1      45.462  24.528  29.118  1.00  0.00     0.031 C 
ATOM     62  C   UNL A   1      46.453  29.221  32.858  1.00  0.00     0.029 A 
ATOM     63  C   UNL A   1      45.868  28.355  31.947  1.00  0.00     0.049 A 
ATOM     64  H   UNL A   1      43.946  28.447  31.080  1.00  0.00     0.167 HD
ATOM     65  C   UNL A   1      45.756  26.334  30.506  1.00  0.00     0.074 A 
ATOM     66  C   UNL A   1      46.316  25.124  29.939  1.00  0.00     0.031 C 
ATOM     67  C   UNL A   1      46.424  27.158  31.354  1.00  0.00     0.034 A 
BRANCH  54  68
ATOM     68  C   UNL A   1      43.139  32.126  33.127  1.00  0.00     0.023 A 
ATOM     69  C   UNL A   1      43.731  33.303  32.633  1.00  0.00     0.031 A 
ATOM     70  C   UNL A   1      42.550  32.171  34.402  1.00  0.00     0.131 A 
ATOM     71  C   UNL A   1      43.805  34.443  33.448  1.00  0.00     0.055 A 
ATOM     72  C   UNL A   1      42.548  33.336  35.171  1.00  0.00     0.041 A 
ATOM     73  F   UNL A   1      41.992  31.074  34.938  1.00  0.00    -0.206 F 
ATOM     74  C   UNL A   1      43.195  34.477  34.704  1.00  0.00     0.022 A 
BRANCH  71  75
ATOM     75  S   UNL A   1      44.867  35.816  32.918  1.00  0.00     0.124 S 
ATOM     76  O   UNL A   1      45.868  35.122  32.112  1.00  0.00    -0.237 OA
ATOM     77  O   UNL A   1      43.937  36.670  32.188  1.00  0.00    -0.237 OA
ATOM     78  O   UNL A   1      45.367  36.368  34.176  1.00  0.00    -0.744 OA
ENDBRANCH  71  75
ENDBRANCH  54  68
BRANCH  55  79
ATOM     79  C   UNL A   1      43.069  23.750  27.617  1.00  0.00     0.023 A 
ATOM     80  C   UNL A   1      43.922  23.641  26.507  1.00  0.00     0.031 A 
ATOM     81  C   UNL A   1      42.201  22.678  27.890  1.00  0.00     0.131 A 
ATOM     82  C   UNL A   1      43.866  22.500  25.692  1.00  0.00     0.055 A 
ATOM     83  C   UNL A   1      42.181  21.526  27.103  1.00  0.00     0.041 A 
ATOM     84  F   UNL A   1      41.364  22.733  28.938  1.00  0.00    -0.206 F 
ATOM     85  C   UNL A   1      43.012  21.436  25.990  1.00  0.00     0.022 A 
BRANCH  82  86
ATOM     86  S   UNL A   1      44.891  22.447  24.197  1.00  0.00     0.124 S 
ATOM     87  O   UNL A   1      45.741  23.618  24.378  1.00  0.00    -0.237 OA
ATOM     88  O   UNL A   1      45.549  21.150  24.325  1.00  0.00    -0.237 OA
ATOM     89  O   UNL A   1      43.917  22.542  23.112  1.00  0.00    -0.744 OA
ENDBRANCH  82  86
ENDBRANCH  55  79
BRANCH  67  90
ATOM     90  C   UNL A   1      47.828  26.756  31.743  1.00  0.00     0.023 A 
ATOM     91  C   UNL A   1      48.089  25.999  32.898  1.00  0.00     0.031 A 
ATOM     92  C   UNL A   1      48.921  27.142  30.946  1.00  0.00     0.131 A 
ATOM     93  C   UNL A   1      49.414  25.695  33.252  1.00  0.00     0.055 A 
ATOM     94  C   UNL A   1      50.231  26.785  31.269  1.00  0.00     0.041 A 
ATOM     95  F   UNL A   1      48.732  27.870  29.833  1.00  0.00    -0.206 F 
ATOM     96  C   UNL A   1      50.484  26.068  32.435  1.00  0.00     0.022 A 
BRANCH  93  97
ATOM     97  S   UNL A   1      49.729  24.881  34.842  1.00  0.00     0.124 S 
ATOM     98  O   UNL A   1      48.796  25.573  35.726  1.00  0.00    -0.237 OA
ATOM     99  O   UNL A   1      49.416  23.487  34.548  1.00  0.00    -0.237 OA
ATOM    100  O   UNL A   1      51.142  25.158  35.096  1.00  0.00    -0.744 OA
ENDBRANCH  93  97
ENDBRANCH  67  90
ENDBRANCH  41  42
ENDBRANCH  34  36
ENDBRANCH  33  34
ENDBRANCH  32  33
ENDBRANCH  31  32
ENDBRANCH  30  31
ENDBRANCH  29  30
ENDBRANCH   1  29
TORSDOF 26
ENDMDL
