MODEL 1
REMARK VINA RESULT:      -6.9      0.000      0.000
REMARK SMILES CC[C@@H](Oc1cc(Cl)ccc1Cl)C(=O)NNC(=O)[C@@H]1[C@@H]2CC[C@@H](C2)[C@@H]1C(=O)OCCOCCOCCOCCOC(=O)c1ccc(-c2c3nc(c(-c4cc(S(=O)(=O)[O-])ccc4F)c4ccc([nH]4)c(-c4cc(S(=O)(=O)[O-])ccc4F)c4nc(c(-c5cc(S(=O)(=O)[O-])ccc5F)c5ccc2[nH]5)C=C4)C=C3)cc1
REMARK SMILES IDX 33 1 32 2 31 3 30 4 29 5 28 6 26 7 27 8 25 9 19 10 20 11
REMARK SMILES IDX 21 12 24 13 23 14 22 15 17 16 16 17 18 19 15 20 13 21 14 22
REMARK SMILES IDX 3 24 2 25 1 26 4 27 5 28 6 29 11 30 7 31 10 32 12 33 8 34
REMARK SMILES IDX 9 35 34 36 35 37 36 38 37 39 38 40 39 41 40 42 41 43 42 44
REMARK SMILES IDX 43 45 44 46 105 47 45 48 104 49 46 50 47 51 48 52 98 53
REMARK SMILES IDX 49 54 103 55 97 56 99 57 50 58 102 59 96 60 95 61 51 63
REMARK SMILES IDX 83 64 63 65 82 66 64 67 67 68 81 69 100 70 65 71 66 72 80 74
REMARK SMILES IDX 101 75 68 76 52 77 53 78 61 79 54 80 60 81 62 82 59 83 55 84
REMARK SMILES IDX 56 85 57 86 58 87 84 88 85 89 93 90 86 91 92 92 94 93 91 94
REMARK SMILES IDX 87 95 88 96 89 97 90 98 69 99 70 100 78 101 71 102 77 103
REMARK SMILES IDX 79 104 76 105 72 106 73 107 74 108 75 109
REMARK H PARENT 16 18 15 23 99 62 67 73
REMARK Flexibility Score: inf
ROOT
ATOM      1  C   UNL A   1      47.687  27.059  28.564  1.00  0.00     0.188 C 
ENDROOT
BRANCH   1   2
ATOM      2  C   UNL A   1      46.496  26.438  27.795  1.00  0.00     0.188 C 
BRANCH   2   3
ATOM      3  O   UNL A   1      46.063  27.242  26.709  1.00  0.00    -0.376 OA
BRANCH   3   4
ATOM      4  C   UNL A   1      46.936  28.209  26.150  1.00  0.00     0.202 C 
BRANCH   4   5
ATOM      5  C   UNL A   1      46.405  29.236  25.136  1.00  0.00     0.261 C 
BRANCH   5   6
ATOM      6  O   UNL A   1      46.419  30.629  25.529  1.00  0.00    -0.463 OA
BRANCH   6   7
ATOM      7  C   UNL A   1      45.944  30.990  26.749  1.00  0.00     0.310 C 
ATOM      8  O   UNL A   1      44.754  31.064  27.006  1.00  0.00    -0.252 OA
BRANCH   7   9
ATOM      9  C   UNL A   1      47.103  31.322  27.697  1.00  0.00     0.115 C 
ATOM     10  C   UNL A   1      47.140  32.106  29.073  1.00  0.00     0.098 C 
ATOM     11  C   UNL A   1      48.204  33.188  28.798  1.00  0.00     0.003 C 
ATOM     12  C   UNL A   1      47.686  34.222  27.786  1.00  0.00     0.005 C 
ATOM     13  C   UNL A   1      49.214  32.407  27.951  1.00  0.00     0.009 C 
ATOM     14  C   UNL A   1      48.190  32.064  26.872  1.00  0.00     0.004 C 
ATOM     15  C   UNL A   1      47.717  33.468  26.461  1.00  0.00     0.005 C 
BRANCH  10  16
ATOM     16  C   UNL A   1      46.019  32.528  30.053  1.00  0.00     0.242 C 
ATOM     17  N   UNL A   1      44.688  32.573  29.741  1.00  0.00    -0.267 N 
ATOM     18  H   UNL A   1      44.056  31.955  30.175  1.00  0.00     0.191 HD
ATOM     19  O   UNL A   1      46.303  32.960  31.176  1.00  0.00    -0.273 OA
BRANCH  17  20
ATOM     20  N   UNL A   1      44.226  33.515  28.792  1.00  0.00    -0.264 N 
ATOM     21  C   UNL A   1      43.275  34.477  29.058  1.00  0.00     0.279 C 
ATOM     22  O   UNL A   1      42.935  35.244  28.154  1.00  0.00    -0.269 OA
ATOM     23  H   UNL A   1      44.607  33.480  27.885  1.00  0.00     0.191 HD
BRANCH  21  24
ATOM     24  C   UNL A   1      42.608  34.529  30.448  1.00  0.00     0.263 C 
BRANCH  24  25
ATOM     25  C   UNL A   1      41.444  33.520  30.441  1.00  0.00     0.052 C 
ATOM     26  C   UNL A   1      40.065  34.145  30.552  1.00  0.00     0.008 C 
ENDBRANCH  24  25
BRANCH  24  27
ATOM     27  O   UNL A   1      43.575  34.213  31.464  1.00  0.00    -0.479 OA
BRANCH  27  28
ATOM     28  C   UNL A   1      43.567  35.087  32.526  1.00  0.00     0.140 A 
ATOM     29  C   UNL A   1      43.576  36.450  32.229  1.00  0.00     0.068 A 
ATOM     30  C   UNL A   1      43.405  34.676  33.856  1.00  0.00     0.083 A 
ATOM     31  C   UNL A   1      43.487  37.397  33.248  1.00  0.00     0.044 A 
ATOM     32  C   UNL A   1      43.286  35.631  34.875  1.00  0.00     0.026 A 
ATOM     33  Cl  UNL A   1      43.307  33.010  34.285  1.00  0.00    -0.080 Cl
ATOM     34  Cl  UNL A   1      43.556  39.070  32.861  1.00  0.00    -0.084 Cl
ATOM     35  C   UNL A   1      43.334  36.995  34.572  1.00  0.00     0.022 A 
ENDBRANCH  27  28
ENDBRANCH  24  27
ENDBRANCH  21  24
ENDBRANCH  17  20
ENDBRANCH  10  16
ENDBRANCH   7   9
ENDBRANCH   6   7
ENDBRANCH   5   6
ENDBRANCH   4   5
ENDBRANCH   3   4
ENDBRANCH   2   3
ENDBRANCH   1   2
BRANCH   1  36
ATOM     36  O   UNL A   1      47.614  26.999  29.977  1.00  0.00    -0.377 OA
BRANCH  36  37
ATOM     37  C   UNL A   1      48.685  27.652  30.616  1.00  0.00     0.188 C 
BRANCH  37  38
ATOM     38  C   UNL A   1      49.452  26.745  31.598  1.00  0.00     0.188 C 
BRANCH  38  39
ATOM     39  O   UNL A   1      50.536  27.212  32.399  1.00  0.00    -0.376 OA
BRANCH  39  40
ATOM     40  C   UNL A   1      50.431  27.436  33.799  1.00  0.00     0.202 C 
BRANCH  40  41
ATOM     41  C   UNL A   1      49.755  26.451  34.756  1.00  0.00     0.261 C 
BRANCH  41  42
ATOM     42  O   UNL A   1      48.660  25.719  34.213  1.00  0.00    -0.460 OA
BRANCH  42  43
ATOM     43  C   UNL A   1      47.658  25.474  35.091  1.00  0.00     0.338 C 
ATOM     44  O   UNL A   1      47.721  24.844  36.124  1.00  0.00    -0.246 OA
BRANCH  43  45
ATOM     45  C   UNL A   1      46.492  26.281  34.686  1.00  0.00     0.060 A 
ATOM     46  C   UNL A   1      45.218  25.793  35.006  1.00  0.00     0.016 A 
ATOM     47  C   UNL A   1      46.649  27.502  34.025  1.00  0.00     0.016 A 
ATOM     48  C   UNL A   1      44.089  26.527  34.670  1.00  0.00     0.010 A 
ATOM     49  C   UNL A   1      45.513  28.208  33.633  1.00  0.00     0.010 A 
ATOM     50  C   UNL A   1      44.235  27.705  33.932  1.00  0.00    -0.014 A 
BRANCH  50  51
ATOM     51  C   UNL A   1      43.043  28.248  33.253  1.00  0.00     0.031 A 
ATOM     52  C   UNL A   1      42.814  27.826  31.829  1.00  0.00     0.074 A 
ATOM     53  C   UNL A   1      42.174  29.038  33.902  1.00  0.00     0.049 A 
ATOM     54  N   UNL A   1      41.870  28.179  31.002  1.00  0.00    -0.248 NA
ATOM     55  C   UNL A   1      43.789  26.876  31.265  1.00  0.00     0.031 C 
ATOM     56  C   UNL A   1      42.282  29.439  35.305  1.00  0.00     0.029 A 
ATOM     57  N   UNL A   1      41.028  29.647  33.463  1.00  0.00    -0.354 N 
ATOM     58  C   UNL A   1      42.141  27.505  29.817  1.00  0.00     0.074 A 
ATOM     59  C   UNL A   1      43.349  26.741  30.024  1.00  0.00     0.031 C 
ATOM     60  C   UNL A   1      41.251  30.249  35.604  1.00  0.00     0.029 A 
ATOM     61  C   UNL A   1      40.440  30.455  34.406  1.00  0.00     0.049 A 
ATOM     62  H   UNL A   1      40.661  29.519  32.558  1.00  0.00     0.167 HD
ATOM     63  C   UNL A   1      41.439  27.531  28.659  1.00  0.00     0.034 A 
ATOM     64  C   UNL A   1      39.387  31.291  34.292  1.00  0.00     0.034 A 
ATOM     65  C   UNL A   1      40.246  28.317  28.480  1.00  0.00     0.049 A 
ATOM     66  C   UNL A   1      38.675  31.370  32.960  1.00  0.00     0.074 A 
ATOM     67  C   UNL A   1      39.438  28.411  27.362  1.00  0.00     0.029 A 
ATOM     68  N   UNL A   1      39.700  29.162  29.440  1.00  0.00    -0.354 N 
ATOM     69  N   UNL A   1      38.925  30.717  31.847  1.00  0.00    -0.248 NA
ATOM     70  C   UNL A   1      37.533  32.288  32.872  1.00  0.00     0.031 C 
ATOM     71  C   UNL A   1      38.462  29.380  27.613  1.00  0.00     0.029 A 
ATOM     72  C   UNL A   1      38.594  29.815  28.922  1.00  0.00     0.049 A 
ATOM     73  H   UNL A   1      40.049  29.278  30.353  1.00  0.00     0.167 HD
ATOM     74  C   UNL A   1      37.949  31.122  30.939  1.00  0.00     0.074 A 
ATOM     75  C   UNL A   1      37.099  32.061  31.641  1.00  0.00     0.031 C 
ATOM     76  C   UNL A   1      37.765  30.752  29.645  1.00  0.00     0.034 A 
BRANCH  63  77
ATOM     77  C   UNL A   1      41.991  26.755  27.491  1.00  0.00     0.023 A 
ATOM     78  C   UNL A   1      41.847  25.361  27.379  1.00  0.00     0.031 A 
ATOM     79  C   UNL A   1      42.697  27.428  26.477  1.00  0.00     0.131 A 
ATOM     80  C   UNL A   1      42.448  24.680  26.308  1.00  0.00     0.055 A 
ATOM     81  C   UNL A   1      43.225  26.755  25.374  1.00  0.00     0.041 A 
ATOM     82  F   UNL A   1      42.896  28.754  26.548  1.00  0.00    -0.206 F 
ATOM     83  C   UNL A   1      43.111  25.371  25.290  1.00  0.00     0.022 A 
BRANCH  80  84
ATOM     84  S   UNL A   1      42.464  22.866  26.328  1.00  0.00     0.124 S 
ATOM     85  O   UNL A   1      42.917  22.559  24.973  1.00  0.00    -0.237 OA
ATOM     86  O   UNL A   1      43.409  22.571  27.400  1.00  0.00    -0.237 OA
ATOM     87  O   UNL A   1      41.074  22.514  26.608  1.00  0.00    -0.744 OA
ENDBRANCH  80  84
ENDBRANCH  63  77
BRANCH  64  88
ATOM     88  C   UNL A   1      38.979  32.164  35.432  1.00  0.00     0.023 A 
ATOM     89  C   UNL A   1      39.438  33.486  35.542  1.00  0.00     0.031 A 
ATOM     90  C   UNL A   1      38.179  31.659  36.474  1.00  0.00     0.131 A 
ATOM     91  C   UNL A   1      39.146  34.235  36.694  1.00  0.00     0.055 A 
ATOM     92  C   UNL A   1      37.837  32.430  37.586  1.00  0.00     0.041 A 
ATOM     93  F   UNL A   1      37.715  30.400  36.428  1.00  0.00    -0.206 F 
ATOM     94  C   UNL A   1      38.337  33.722  37.709  1.00  0.00     0.022 A 
BRANCH  91  95
ATOM     95  S   UNL A   1      39.941  35.852  36.901  1.00  0.00     0.124 S 
ATOM     96  O   UNL A   1      39.180  36.417  38.010  1.00  0.00    -0.237 OA
ATOM     97  O   UNL A   1      41.320  35.476  37.193  1.00  0.00    -0.237 OA
ATOM     98  O   UNL A   1      39.735  36.501  35.608  1.00  0.00    -0.744 OA
ENDBRANCH  91  95
ENDBRANCH  64  88
BRANCH  76  99
ATOM     99  C   UNL A   1      36.565  31.324  28.928  1.00  0.00     0.023 A 
ATOM    100  C   UNL A   1      35.545  30.505  28.415  1.00  0.00     0.031 A 
ATOM    101  C   UNL A   1      36.444  32.716  28.759  1.00  0.00     0.131 A 
ATOM    102  C   UNL A   1      34.481  31.080  27.705  1.00  0.00     0.055 A 
ATOM    103  C   UNL A   1      35.345  33.287  28.118  1.00  0.00     0.041 A 
ATOM    104  F   UNL A   1      37.392  33.546  29.225  1.00  0.00    -0.206 F 
ATOM    105  C   UNL A   1      34.362  32.466  27.573  1.00  0.00     0.022 A 
BRANCH 102 106
ATOM    106  S   UNL A   1      33.305  29.985  26.863  1.00  0.00     0.124 S 
ATOM    107  O   UNL A   1      32.726  29.248  27.981  1.00  0.00    -0.237 OA
ATOM    108  O   UNL A   1      32.419  30.931  26.195  1.00  0.00    -0.237 OA
ATOM    109  O   UNL A   1      34.152  29.194  25.972  1.00  0.00    -0.744 OA
ENDBRANCH 102 106
ENDBRANCH  76  99
ENDBRANCH  50  51
ENDBRANCH  43  45
ENDBRANCH  42  43
ENDBRANCH  41  42
ENDBRANCH  40  41
ENDBRANCH  39  40
ENDBRANCH  38  39
ENDBRANCH  37  38
ENDBRANCH  36  37
ENDBRANCH   1  36
TORSDOF 29
ENDMDL
MODEL 2
REMARK VINA RESULT:      -6.7      5.019     13.241
REMARK SMILES CC[C@@H](Oc1cc(Cl)ccc1Cl)C(=O)NNC(=O)[C@@H]1[C@@H]2CC[C@@H](C2)[C@@H]1C(=O)OCCOCCOCCOCCOC(=O)c1ccc(-c2c3nc(c(-c4cc(S(=O)(=O)[O-])ccc4F)c4ccc([nH]4)c(-c4cc(S(=O)(=O)[O-])ccc4F)c4nc(c(-c5cc(S(=O)(=O)[O-])ccc5F)c5ccc2[nH]5)C=C4)C=C3)cc1
REMARK SMILES IDX 33 1 32 2 31 3 30 4 29 5 28 6 26 7 27 8 25 9 19 10 20 11
REMARK SMILES IDX 21 12 24 13 23 14 22 15 17 16 16 17 18 19 15 20 13 21 14 22
REMARK SMILES IDX 3 24 2 25 1 26 4 27 5 28 6 29 11 30 7 31 10 32 12 33 8 34
REMARK SMILES IDX 9 35 34 36 35 37 36 38 37 39 38 40 39 41 40 42 41 43 42 44
REMARK SMILES IDX 43 45 44 46 105 47 45 48 104 49 46 50 47 51 48 52 98 53
REMARK SMILES IDX 49 54 103 55 97 56 99 57 50 58 102 59 96 60 95 61 51 63
REMARK SMILES IDX 83 64 63 65 82 66 64 67 67 68 81 69 100 70 65 71 66 72 80 74
REMARK SMILES IDX 101 75 68 76 52 77 53 78 61 79 54 80 60 81 62 82 59 83 55 84
REMARK SMILES IDX 56 85 57 86 58 87 84 88 85 89 93 90 86 91 92 92 94 93 91 94
REMARK SMILES IDX 87 95 88 96 89 97 90 98 69 99 70 100 78 101 71 102 77 103
REMARK SMILES IDX 79 104 76 105 72 106 73 107 74 108 75 109
REMARK H PARENT 16 18 15 23 99 62 67 73
REMARK Flexibility Score: inf
ROOT
ATOM      1  C   UNL A   1      36.803  32.246  28.819  1.00  0.00     0.188 C 
ENDROOT
BRANCH   1   2
ATOM      2  C   UNL A   1      38.087  31.420  29.078  1.00  0.00     0.188 C 
BRANCH   2   3
ATOM      3  O   UNL A   1      37.826  30.190  29.736  1.00  0.00    -0.376 OA
BRANCH   3   4
ATOM      4  C   UNL A   1      38.290  28.973  29.176  1.00  0.00     0.202 C 
BRANCH   4   5
ATOM      5  C   UNL A   1      39.058  27.965  30.047  1.00  0.00     0.261 C 
BRANCH   5   6
ATOM      6  O   UNL A   1      40.478  28.185  30.224  1.00  0.00    -0.463 OA
BRANCH   6   7
ATOM      7  C   UNL A   1      40.991  28.300  31.476  1.00  0.00     0.310 C 
ATOM      8  O   UNL A   1      40.302  28.274  32.483  1.00  0.00    -0.252 OA
BRANCH   7   9
ATOM      9  C   UNL A   1      42.509  28.508  31.415  1.00  0.00     0.115 C 
ATOM     10  C   UNL A   1      43.648  27.700  30.667  1.00  0.00     0.098 C 
ATOM     11  C   UNL A   1      44.616  27.367  31.821  1.00  0.00     0.003 C 
ATOM     12  C   UNL A   1      43.994  26.343  32.782  1.00  0.00     0.005 C 
ATOM     13  C   UNL A   1      44.545  28.652  32.653  1.00  0.00     0.009 C 
ATOM     14  C   UNL A   1      43.039  28.539  32.875  1.00  0.00     0.004 C 
ATOM     15  C   UNL A   1      42.945  27.153  33.534  1.00  0.00     0.005 C 
BRANCH  10  16
ATOM     16  C   UNL A   1      43.596  26.646  29.535  1.00  0.00     0.242 C 
ATOM     17  N   UNL A   1      43.831  26.909  28.215  1.00  0.00    -0.267 N 
ATOM     18  H   UNL A   1      44.619  26.525  27.765  1.00  0.00     0.191 HD
ATOM     19  O   UNL A   1      43.221  25.493  29.775  1.00  0.00    -0.273 OA
BRANCH  17  20
ATOM     20  N   UNL A   1      42.936  27.738  27.498  1.00  0.00    -0.264 N 
ATOM     21  C   UNL A   1      41.934  27.265  26.678  1.00  0.00     0.279 C 
ATOM     22  O   UNL A   1      41.213  28.075  26.091  1.00  0.00    -0.269 OA
ATOM     23  H   UNL A   1      43.036  28.712  27.590  1.00  0.00     0.191 HD
BRANCH  21  24
ATOM     24  C   UNL A   1      41.780  25.745  26.457  1.00  0.00     0.263 C 
BRANCH  24  25
ATOM     25  C   UNL A   1      40.283  25.408  26.588  1.00  0.00     0.052 C 
ATOM     26  C   UNL A   1      39.858  24.941  27.969  1.00  0.00     0.008 C 
ENDBRANCH  24  25
BRANCH  24  27
ATOM     27  O   UNL A   1      42.290  25.388  25.162  1.00  0.00    -0.479 OA
BRANCH  27  28
ATOM     28  C   UNL A   1      43.425  24.614  25.209  1.00  0.00     0.140 A 
ATOM     29  C   UNL A   1      44.651  25.275  25.118  1.00  0.00     0.068 A 
ATOM     30  C   UNL A   1      43.407  23.240  25.485  1.00  0.00     0.083 A 
ATOM     31  C   UNL A   1      45.846  24.569  25.240  1.00  0.00     0.044 A 
ATOM     32  C   UNL A   1      44.611  22.538  25.637  1.00  0.00     0.026 A 
ATOM     33  Cl  UNL A   1      41.930  22.376  25.687  1.00  0.00    -0.080 Cl
ATOM     34  Cl  UNL A   1      47.343  25.397  25.070  1.00  0.00    -0.084 Cl
ATOM     35  C   UNL A   1      45.834  23.202  25.506  1.00  0.00     0.022 A 
ENDBRANCH  27  28
ENDBRANCH  24  27
ENDBRANCH  21  24
ENDBRANCH  17  20
ENDBRANCH  10  16
ENDBRANCH   7   9
ENDBRANCH   6   7
ENDBRANCH   5   6
ENDBRANCH   4   5
ENDBRANCH   3   4
ENDBRANCH   2   3
ENDBRANCH   1   2
BRANCH   1  36
ATOM     36  O   UNL A   1      35.954  32.441  29.936  1.00  0.00    -0.377 OA
BRANCH  36  37
ATOM     37  C   UNL A   1      36.003  33.752  30.447  1.00  0.00     0.188 C 
BRANCH  37  38
ATOM     38  C   UNL A   1      34.702  34.178  31.155  1.00  0.00     0.188 C 
BRANCH  38  39
ATOM     39  O   UNL A   1      33.963  33.306  32.009  1.00  0.00    -0.376 OA
BRANCH  39  40
ATOM     40  C   UNL A   1      34.229  33.164  33.398  1.00  0.00     0.202 C 
BRANCH  40  41
ATOM     41  C   UNL A   1      35.552  33.582  34.044  1.00  0.00     0.261 C 
BRANCH  41  42
ATOM     42  O   UNL A   1      36.716  32.933  33.538  1.00  0.00    -0.460 OA
BRANCH  42  43
ATOM     43  C   UNL A   1      37.576  32.500  34.490  1.00  0.00     0.338 C 
ATOM     44  O   UNL A   1      37.401  31.607  35.290  1.00  0.00    -0.246 OA
BRANCH  43  45
ATOM     45  C   UNL A   1      38.873  33.167  34.267  1.00  0.00     0.060 A 
ATOM     46  C   UNL A   1      39.098  33.753  33.014  1.00  0.00     0.016 A 
ATOM     47  C   UNL A   1      39.836  33.235  35.276  1.00  0.00     0.016 A 
ATOM     48  C   UNL A   1      40.291  34.415  32.762  1.00  0.00     0.010 A 
ATOM     49  C   UNL A   1      41.059  33.846  35.002  1.00  0.00     0.010 A 
ATOM     50  C   UNL A   1      41.294  34.410  33.736  1.00  0.00    -0.014 A 
BRANCH  50  51
ATOM     51  C   UNL A   1      42.666  34.757  33.319  1.00  0.00     0.031 A 
ATOM     52  C   UNL A   1      43.177  36.116  33.707  1.00  0.00     0.074 A 
ATOM     53  C   UNL A   1      43.439  33.872  32.671  1.00  0.00     0.049 A 
ATOM     54  N   UNL A   1      44.324  36.677  33.441  1.00  0.00    -0.248 NA
ATOM     55  C   UNL A   1      42.265  36.954  34.504  1.00  0.00     0.031 C 
ATOM     56  C   UNL A   1      43.048  32.508  32.317  1.00  0.00     0.029 A 
ATOM     57  N   UNL A   1      44.717  33.992  32.191  1.00  0.00    -0.354 N 
ATOM     58  C   UNL A   1      44.268  37.936  34.026  1.00  0.00     0.074 A 
ATOM     59  C   UNL A   1      42.967  38.066  34.641  1.00  0.00     0.031 C 
ATOM     60  C   UNL A   1      44.062  31.924  31.655  1.00  0.00     0.029 A 
ATOM     61  C   UNL A   1      45.151  32.885  31.502  1.00  0.00     0.049 A 
ATOM     62  H   UNL A   1      45.271  34.795  32.327  1.00  0.00     0.167 HD
ATOM     63  C   UNL A   1      45.222  38.896  34.040  1.00  0.00     0.034 A 
ATOM     64  C   UNL A   1      46.287  32.696  30.800  1.00  0.00     0.034 A 
ATOM     65  C   UNL A   1      46.504  38.741  33.402  1.00  0.00     0.049 A 
ATOM     66  C   UNL A   1      47.299  33.819  30.756  1.00  0.00     0.074 A 
ATOM     67  C   UNL A   1      47.558  39.634  33.363  1.00  0.00     0.029 A 
ATOM     68  N   UNL A   1      46.897  37.625  32.672  1.00  0.00    -0.354 N 
ATOM     69  N   UNL A   1      47.248  35.003  31.326  1.00  0.00    -0.248 NA
ATOM     70  C   UNL A   1      48.525  33.578  29.984  1.00  0.00     0.031 C 
ATOM     71  C   UNL A   1      48.549  39.099  32.535  1.00  0.00     0.029 A 
ATOM     72  C   UNL A   1      48.160  37.828  32.140  1.00  0.00     0.049 A 
ATOM     73  H   UNL A   1      46.357  36.811  32.550  1.00  0.00     0.167 HD
ATOM     74  C   UNL A   1      48.450  35.632  31.008  1.00  0.00     0.074 A 
ATOM     75  C   UNL A   1      49.209  34.689  30.212  1.00  0.00     0.031 C 
ATOM     76  C   UNL A   1      48.893  36.871  31.344  1.00  0.00     0.034 A 
BRANCH  63  77
ATOM     77  C   UNL A   1      44.880  40.211  34.692  1.00  0.00     0.023 A 
ATOM     78  C   UNL A   1      44.308  41.279  33.978  1.00  0.00     0.031 A 
ATOM     79  C   UNL A   1      45.153  40.405  36.058  1.00  0.00     0.131 A 
ATOM     80  C   UNL A   1      44.081  42.507  34.619  1.00  0.00     0.055 A 
ATOM     81  C   UNL A   1      44.852  41.602  36.709  1.00  0.00     0.041 A 
ATOM     82  F   UNL A   1      45.731  39.434  36.784  1.00  0.00    -0.206 F 
ATOM     83  C   UNL A   1      44.322  42.666  35.986  1.00  0.00     0.022 A 
BRANCH  80  84
ATOM     84  S   UNL A   1      43.587  43.935  33.615  1.00  0.00     0.124 S 
ATOM     85  O   UNL A   1      42.159  44.025  33.912  1.00  0.00    -0.237 OA
ATOM     86  O   UNL A   1      44.421  45.003  34.154  1.00  0.00    -0.237 OA
ATOM     87  O   UNL A   1      43.908  43.523  32.251  1.00  0.00    -0.744 OA
ENDBRANCH  80  84
ENDBRANCH  63  77
BRANCH  64  88
ATOM     88  C   UNL A   1      46.508  31.435  30.032  1.00  0.00     0.023 A 
ATOM     89  C   UNL A   1      46.102  31.312  28.694  1.00  0.00     0.031 A 
ATOM     90  C   UNL A   1      47.066  30.302  30.655  1.00  0.00     0.131 A 
ATOM     91  C   UNL A   1      46.200  30.072  28.043  1.00  0.00     0.055 A 
ATOM     92  C   UNL A   1      47.222  29.089  29.983  1.00  0.00     0.041 A 
ATOM     93  F   UNL A   1      47.468  30.357  31.935  1.00  0.00    -0.206 F 
ATOM     94  C   UNL A   1      46.771  28.964  28.673  1.00  0.00     0.022 A 
BRANCH  91  95
ATOM     95  S   UNL A   1      45.460  29.894  26.397  1.00  0.00     0.124 S 
ATOM     96  O   UNL A   1      44.130  30.456  26.608  1.00  0.00    -0.237 OA
ATOM     97  O   UNL A   1      46.367  30.683  25.572  1.00  0.00    -0.237 OA
ATOM     98  O   UNL A   1      45.498  28.453  26.160  1.00  0.00    -0.744 OA
ENDBRANCH  91  95
ENDBRANCH  64  88
BRANCH  76  99
ATOM     99  C   UNL A   1      50.285  37.251  30.898  1.00  0.00     0.023 A 
ATOM    100  C   UNL A   1      50.532  37.822  29.638  1.00  0.00     0.031 A 
ATOM    101  C   UNL A   1      51.381  37.039  31.754  1.00  0.00     0.131 A 
ATOM    102  C   UNL A   1      51.850  38.103  29.247  1.00  0.00     0.055 A 
ATOM    103  C   UNL A   1      52.680  37.390  31.389  1.00  0.00     0.041 A 
ATOM    104  F   UNL A   1      51.204  36.492  32.969  1.00  0.00    -0.206 F 
ATOM    105  C   UNL A   1      52.922  37.912  30.122  1.00  0.00     0.022 A 
BRANCH 102 106
ATOM    106  S   UNL A   1      52.156  38.624  27.537  1.00  0.00     0.124 S 
ATOM    107  O   UNL A   1      52.419  37.350  26.876  1.00  0.00    -0.237 OA
ATOM    108  O   UNL A   1      50.904  39.282  27.180  1.00  0.00    -0.237 OA
ATOM    109  O   UNL A   1      53.312  39.513  27.652  1.00  0.00    -0.744 OA
ENDBRANCH 102 106
ENDBRANCH  76  99
ENDBRANCH  50  51
ENDBRANCH  43  45
ENDBRANCH  42  43
ENDBRANCH  41  42
ENDBRANCH  40  41
ENDBRANCH  39  40
ENDBRANCH  38  39
ENDBRANCH  37  38
ENDBRANCH  36  37
ENDBRANCH   1  36
TORSDOF 29
ENDMDL
MODEL 3
REMARK VINA RESULT:      -6.6      5.610     13.149
REMARK SMILES CC[C@@H](Oc1cc(Cl)ccc1Cl)C(=O)NNC(=O)[C@@H]1[C@@H]2CC[C@@H](C2)[C@@H]1C(=O)OCCOCCOCCOCCOC(=O)c1ccc(-c2c3nc(c(-c4cc(S(=O)(=O)[O-])ccc4F)c4ccc([nH]4)c(-c4cc(S(=O)(=O)[O-])ccc4F)c4nc(c(-c5cc(S(=O)(=O)[O-])ccc5F)c5ccc2[nH]5)C=C4)C=C3)cc1
REMARK SMILES IDX 33 1 32 2 31 3 30 4 29 5 28 6 26 7 27 8 25 9 19 10 20 11
REMARK SMILES IDX 21 12 24 13 23 14 22 15 17 16 16 17 18 19 15 20 13 21 14 22
REMARK SMILES IDX 3 24 2 25 1 26 4 27 5 28 6 29 11 30 7 31 10 32 12 33 8 34
REMARK SMILES IDX 9 35 34 36 35 37 36 38 37 39 38 40 39 41 40 42 41 43 42 44
REMARK SMILES IDX 43 45 44 46 105 47 45 48 104 49 46 50 47 51 48 52 98 53
REMARK SMILES IDX 49 54 103 55 97 56 99 57 50 58 102 59 96 60 95 61 51 63
REMARK SMILES IDX 83 64 63 65 82 66 64 67 67 68 81 69 100 70 65 71 66 72 80 74
REMARK SMILES IDX 101 75 68 76 52 77 53 78 61 79 54 80 60 81 62 82 59 83 55 84
REMARK SMILES IDX 56 85 57 86 58 87 84 88 85 89 93 90 86 91 92 92 94 93 91 94
REMARK SMILES IDX 87 95 88 96 89 97 90 98 69 99 70 100 78 101 71 102 77 103
REMARK SMILES IDX 79 104 76 105 72 106 73 107 74 108 75 109
REMARK H PARENT 16 18 15 23 99 62 67 73
REMARK Flexibility Score: inf
ROOT
ATOM      1  C   UNL A   1      41.607  26.135  28.255  1.00  0.00     0.188 C 
ENDROOT
BRANCH   1   2
ATOM      2  C   UNL A   1      42.285  27.190  29.163  1.00  0.00     0.188 C 
BRANCH   2   3
ATOM      3  O   UNL A   1      41.493  27.537  30.288  1.00  0.00    -0.376 OA
BRANCH   3   4
ATOM      4  C   UNL A   1      40.434  28.470  30.149  1.00  0.00     0.202 C 
BRANCH   4   5
ATOM      5  C   UNL A   1      39.627  28.912  31.381  1.00  0.00     0.261 C 
BRANCH   5   6
ATOM      6  O   UNL A   1      38.184  28.904  31.271  1.00  0.00    -0.463 OA
BRANCH   6   7
ATOM      7  C   UNL A   1      37.599  29.127  30.066  1.00  0.00     0.310 C 
ATOM      8  O   UNL A   1      37.899  28.512  29.055  1.00  0.00    -0.252 OA
BRANCH   7   9
ATOM      9  C   UNL A   1      36.577  30.265  30.170  1.00  0.00     0.115 C 
ATOM     10  C   UNL A   1      35.603  30.901  29.094  1.00  0.00     0.098 C 
ATOM     11  C   UNL A   1      35.974  32.396  29.169  1.00  0.00     0.003 C 
ATOM     12  C   UNL A   1      37.379  32.643  28.600  1.00  0.00     0.005 C 
ATOM     13  C   UNL A   1      36.215  32.570  30.672  1.00  0.00     0.009 C 
ATOM     14  C   UNL A   1      37.318  31.517  30.715  1.00  0.00     0.004 C 
ATOM     15  C   UNL A   1      38.301  32.081  29.677  1.00  0.00     0.005 C 
BRANCH  10  16
ATOM     16  C   UNL A   1      35.142  30.412  27.700  1.00  0.00     0.242 C 
ATOM     17  N   UNL A   1      33.847  30.416  27.262  1.00  0.00    -0.267 N 
ATOM     18  H   UNL A   1      33.576  31.004  26.520  1.00  0.00     0.191 HD
ATOM     19  O   UNL A   1      35.948  29.879  26.929  1.00  0.00    -0.273 OA
BRANCH  17  20
ATOM     20  N   UNL A   1      32.898  29.570  27.883  1.00  0.00    -0.264 N 
ATOM     21  C   UNL A   1      32.309  28.487  27.267  1.00  0.00     0.279 C 
ATOM     22  O   UNL A   1      31.485  27.818  27.896  1.00  0.00    -0.269 OA
ATOM     23  H   UNL A   1      32.643  29.767  28.813  1.00  0.00     0.191 HD
BRANCH  21  24
ATOM     24  C   UNL A   1      32.634  28.177  25.790  1.00  0.00     0.263 C 
BRANCH  24  25
ATOM     25  C   UNL A   1      33.935  27.353  25.766  1.00  0.00     0.052 C 
ATOM     26  C   UNL A   1      33.750  25.889  25.409  1.00  0.00     0.008 C 
ENDBRANCH  24  25
BRANCH  24  27
ATOM     27  O   UNL A   1      31.542  27.458  25.193  1.00  0.00    -0.479 OA
BRANCH  27  28
ATOM     28  C   UNL A   1      30.911  28.147  24.185  1.00  0.00     0.140 A 
ATOM     29  C   UNL A   1      30.398  29.407  24.499  1.00  0.00     0.068 A 
ATOM     30  C   UNL A   1      30.893  27.714  22.852  1.00  0.00     0.083 A 
ATOM     31  C   UNL A   1      29.817  30.201  23.512  1.00  0.00     0.044 A 
ATOM     32  C   UNL A   1      30.335  28.528  21.857  1.00  0.00     0.026 A 
ATOM     33  Cl  UNL A   1      31.578  26.204  22.381  1.00  0.00    -0.080 Cl
ATOM     34  Cl  UNL A   1      29.143  31.725  23.935  1.00  0.00    -0.084 Cl
ATOM     35  C   UNL A   1      29.788  29.771  22.188  1.00  0.00     0.022 A 
ENDBRANCH  27  28
ENDBRANCH  24  27
ENDBRANCH  21  24
ENDBRANCH  17  20
ENDBRANCH  10  16
ENDBRANCH   7   9
ENDBRANCH   6   7
ENDBRANCH   5   6
ENDBRANCH   4   5
ENDBRANCH   3   4
ENDBRANCH   2   3
ENDBRANCH   1   2
BRANCH   1  36
ATOM     36  O   UNL A   1      42.062  26.085  26.915  1.00  0.00    -0.377 OA
BRANCH  36  37
ATOM     37  C   UNL A   1      43.401  26.495  26.767  1.00  0.00     0.188 C 
BRANCH  37  38
ATOM     38  C   UNL A   1      43.895  26.451  25.309  1.00  0.00     0.188 C 
BRANCH  38  39
ATOM     39  O   UNL A   1      44.924  25.569  24.865  1.00  0.00    -0.376 OA
BRANCH  39  40
ATOM     40  C   UNL A   1      44.881  24.161  25.057  1.00  0.00     0.202 C 
BRANCH  40  41
ATOM     41  C   UNL A   1      45.890  23.403  25.922  1.00  0.00     0.261 C 
BRANCH  41  42
ATOM     42  O   UNL A   1      45.806  23.648  27.323  1.00  0.00    -0.460 OA
BRANCH  42  43
ATOM     43  C   UNL A   1      44.634  23.274  27.889  1.00  0.00     0.338 C 
ATOM     44  O   UNL A   1      43.816  22.499  27.446  1.00  0.00    -0.246 OA
BRANCH  43  45
ATOM     45  C   UNL A   1      44.598  23.819  29.260  1.00  0.00     0.060 A 
ATOM     46  C   UNL A   1      45.351  24.970  29.524  1.00  0.00     0.016 A 
ATOM     47  C   UNL A   1      43.822  23.223  30.257  1.00  0.00     0.016 A 
ATOM     48  C   UNL A   1      45.332  25.537  30.790  1.00  0.00     0.010 A 
ATOM     49  C   UNL A   1      43.852  23.756  31.545  1.00  0.00     0.010 A 
ATOM     50  C   UNL A   1      44.628  24.896  31.815  1.00  0.00    -0.014 A 
BRANCH  50  51
ATOM     51  C   UNL A   1      44.936  25.274  33.207  1.00  0.00     0.031 A 
ATOM     52  C   UNL A   1      44.527  26.651  33.650  1.00  0.00     0.074 A 
ATOM     53  C   UNL A   1      45.504  24.402  34.054  1.00  0.00     0.049 A 
ATOM     54  N   UNL A   1      44.705  27.239  34.800  1.00  0.00    -0.248 NA
ATOM     55  C   UNL A   1      43.820  27.474  32.653  1.00  0.00     0.031 C 
ATOM     56  C   UNL A   1      45.869  23.023  33.729  1.00  0.00     0.029 A 
ATOM     57  N   UNL A   1      45.878  24.550  35.365  1.00  0.00    -0.354 N 
ATOM     58  C   UNL A   1      44.145  28.504  34.663  1.00  0.00     0.074 A 
ATOM     59  C   UNL A   1      43.642  28.606  33.312  1.00  0.00     0.031 C 
ATOM     60  C   UNL A   1      46.436  22.459  34.809  1.00  0.00     0.029 A 
ATOM     61  C   UNL A   1      46.513  23.447  35.883  1.00  0.00     0.049 A 
ATOM     62  H   UNL A   1      45.709  25.370  35.884  1.00  0.00     0.167 HD
ATOM     63  C   UNL A   1      44.066  29.489  35.588  1.00  0.00     0.034 A 
ATOM     64  C   UNL A   1      47.115  23.279  37.078  1.00  0.00     0.034 A 
ATOM     65  C   UNL A   1      44.593  29.361  36.921  1.00  0.00     0.049 A 
ATOM     66  C   UNL A   1      47.092  24.429  38.061  1.00  0.00     0.074 A 
ATOM     67  C   UNL A   1      44.558  30.281  37.952  1.00  0.00     0.029 A 
ATOM     68  N   UNL A   1      45.272  28.246  37.403  1.00  0.00    -0.354 N 
ATOM     69  N   UNL A   1      46.546  25.618  37.932  1.00  0.00    -0.248 NA
ATOM     70  C   UNL A   1      47.756  24.211  39.352  1.00  0.00     0.031 C 
ATOM     71  C   UNL A   1      45.293  29.762  39.022  1.00  0.00     0.029 A 
ATOM     72  C   UNL A   1      45.700  28.476  38.700  1.00  0.00     0.049 A 
ATOM     73  H   UNL A   1      45.426  27.417  36.896  1.00  0.00     0.167 HD
ATOM     74  C   UNL A   1      46.772  26.275  39.140  1.00  0.00     0.074 A 
ATOM     75  C   UNL A   1      47.489  25.343  39.986  1.00  0.00     0.031 C 
ATOM     76  C   UNL A   1      46.418  27.529  39.521  1.00  0.00     0.034 A 
BRANCH  63  77
ATOM     77  C   UNL A   1      43.464  30.803  35.158  1.00  0.00     0.023 A 
ATOM     78  C   UNL A   1      44.234  31.834  34.593  1.00  0.00     0.031 A 
ATOM     79  C   UNL A   1      42.089  31.033  35.341  1.00  0.00     0.131 A 
ATOM     80  C   UNL A   1      43.634  33.064  34.282  1.00  0.00     0.055 A 
ATOM     81  C   UNL A   1      41.483  32.230  34.958  1.00  0.00     0.041 A 
ATOM     82  F   UNL A   1      41.309  30.098  35.909  1.00  0.00    -0.206 F 
ATOM     83  C   UNL A   1      42.259  33.259  34.434  1.00  0.00     0.022 A 
BRANCH  80  84
ATOM     84  S   UNL A   1      44.696  34.453  33.798  1.00  0.00     0.124 S 
ATOM     85  O   UNL A   1      44.494  34.490  32.351  1.00  0.00    -0.237 OA
ATOM     86  O   UNL A   1      44.126  35.564  34.551  1.00  0.00    -0.237 OA
ATOM     87  O   UNL A   1      46.029  34.031  34.223  1.00  0.00    -0.744 OA
ENDBRANCH  80  84
ENDBRANCH  63  77
BRANCH  64  88
ATOM     88  C   UNL A   1      47.843  22.015  37.394  1.00  0.00     0.023 A 
ATOM     89  C   UNL A   1      49.084  21.719  36.808  1.00  0.00     0.031 A 
ATOM     90  C   UNL A   1      47.267  21.045  38.236  1.00  0.00     0.131 A 
ATOM     91  C   UNL A   1      49.677  20.464  37.020  1.00  0.00     0.055 A 
ATOM     92  C   UNL A   1      47.893  19.825  38.496  1.00  0.00     0.041 A 
ATOM     93  F   UNL A   1      46.080  21.269  38.820  1.00  0.00    -0.206 F 
ATOM     94  C   UNL A   1      49.098  19.521  37.872  1.00  0.00     0.022 A 
BRANCH  91  95
ATOM     95  S   UNL A   1      51.162  20.034  36.071  1.00  0.00     0.124 S 
ATOM     96  O   UNL A   1      51.214  18.587  36.242  1.00  0.00    -0.237 OA
ATOM     97  O   UNL A   1      50.815  20.512  34.737  1.00  0.00    -0.237 OA
ATOM     98  O   UNL A   1      52.223  20.781  36.742  1.00  0.00    -0.744 OA
ENDBRANCH  91  95
ENDBRANCH  64  88
BRANCH  76  99
ATOM     99  C   UNL A   1      46.754  27.941  40.935  1.00  0.00     0.023 A 
ATOM    100  C   UNL A   1      47.981  28.541  41.264  1.00  0.00     0.031 A 
ATOM    101  C   UNL A   1      45.822  27.729  41.969  1.00  0.00     0.131 A 
ATOM    102  C   UNL A   1      48.268  28.852  42.601  1.00  0.00     0.055 A 
ATOM    103  C   UNL A   1      46.084  28.109  43.285  1.00  0.00     0.041 A 
ATOM    104  F   UNL A   1      44.635  27.155  41.713  1.00  0.00    -0.206 F 
ATOM    105  C   UNL A   1      47.319  28.661  43.610  1.00  0.00     0.022 A 
BRANCH 102 106
ATOM    106  S   UNL A   1      49.940  29.413  43.024  1.00  0.00     0.124 S 
ATOM    107  O   UNL A   1      50.350  28.421  44.012  1.00  0.00    -0.237 OA
ATOM    108  O   UNL A   1      50.625  29.353  41.738  1.00  0.00    -0.237 OA
ATOM    109  O   UNL A   1      49.726  30.760  43.550  1.00  0.00    -0.744 OA
ENDBRANCH 102 106
ENDBRANCH  76  99
ENDBRANCH  50  51
ENDBRANCH  43  45
ENDBRANCH  42  43
ENDBRANCH  41  42
ENDBRANCH  40  41
ENDBRANCH  39  40
ENDBRANCH  38  39
ENDBRANCH  37  38
ENDBRANCH  36  37
ENDBRANCH   1  36
TORSDOF 29
ENDMDL
