MODEL 1
REMARK VINA RESULT:     -10.4      0.000      0.000
REMARK SMILES O=C(OCCOCCOCCOCCOC(=O)[C@H]1C=C[C@H](NC(=O)c2ccc(Cl)cc2Cl)C1)c1ccc(-c2c3nc(c(-c4cc(S(=O)(=O)[O-])ccc4F)c4ccc([nH]4)c(-c4cc(S(=O)(=O)[O-])ccc4F)c4nc(c(-c5cc(S(=O)(=O)[O-])ccc5F)c5ccc2[nH]5)C=C4)C=C3)cc1
REMARK SMILES IDX 8 1 7 2 6 3 5 4 4 5 3 6 2 7 1 8 34 9 35 10 96 11 36 12 95 13
REMARK SMILES IDX 37 14 38 15 39 16 89 17 40 18 94 19 88 20 90 21 41 22 93 23
REMARK SMILES IDX 87 24 86 25 42 27 74 28 54 29 73 30 55 31 58 32 72 33 91 34
REMARK SMILES IDX 56 35 57 36 71 38 92 39 59 40 43 41 44 42 52 43 45 44 51 45
REMARK SMILES IDX 53 46 50 47 46 48 47 49 48 50 49 51 75 52 76 53 84 54 77 55
REMARK SMILES IDX 83 56 85 57 82 58 78 59 79 60 80 61 81 62 60 63 61 64 69 65
REMARK SMILES IDX 62 66 68 67 70 68 67 69 63 70 64 71 65 72 66 73 9 74 10 75
REMARK SMILES IDX 11 76 12 77 13 78 14 79 15 80 16 81 17 82 18 83 19 84 33 85
REMARK SMILES IDX 20 86 21 87 22 88 23 89 24 91 25 92 26 93 31 94 27 95 30 96
REMARK SMILES IDX 32 97 28 98 29 99
REMARK H PARENT 90 26 58 37 22 90
REMARK Flexibility Score: inf
ROOT
ATOM      1  C   UNL A   1      35.866  21.953  26.058  1.00  0.00     0.188 C 
ENDROOT
BRANCH   1   2
ATOM      2  C   UNL A   1      36.637  21.804  24.744  1.00  0.00     0.188 C 
BRANCH   2   3
ATOM      3  O   UNL A   1      37.910  21.205  24.992  1.00  0.00    -0.376 OA
BRANCH   3   4
ATOM      4  C   UNL A   1      37.921  19.779  25.050  1.00  0.00     0.202 C 
BRANCH   4   5
ATOM      5  C   UNL A   1      39.277  19.166  25.401  1.00  0.00     0.261 C 
BRANCH   5   6
ATOM      6  O   UNL A   1      39.816  19.748  26.598  1.00  0.00    -0.460 OA
BRANCH   6   7
ATOM      7  C   UNL A   1      41.014  20.375  26.725  1.00  0.00     0.338 C 
ATOM      8  O   UNL A   1      42.040  19.745  26.473  1.00  0.00    -0.246 OA
BRANCH   7   9
ATOM      9  C   UNL A   1      41.145  21.812  27.110  1.00  0.00     0.060 A 
ATOM     10  C   UNL A   1      40.577  22.880  26.415  1.00  0.00     0.016 A 
ATOM     11  C   UNL A   1      41.861  22.098  28.283  1.00  0.00     0.016 A 
ATOM     12  C   UNL A   1      40.814  24.192  26.776  1.00  0.00     0.010 A 
ATOM     13  C   UNL A   1      42.061  23.420  28.692  1.00  0.00     0.010 A 
ATOM     14  C   UNL A   1      41.570  24.470  27.907  1.00  0.00    -0.014 A 
BRANCH  14  15
ATOM     15  C   UNL A   1      41.971  25.871  28.115  1.00  0.00     0.031 A 
ATOM     16  C   UNL A   1      43.260  26.322  27.496  1.00  0.00     0.074 A 
ATOM     17  C   UNL A   1      41.106  26.737  28.671  1.00  0.00     0.049 A 
ATOM     18  N   UNL A   1      43.863  27.474  27.582  1.00  0.00    -0.248 NA
ATOM     19  C   UNL A   1      43.955  25.337  26.649  1.00  0.00     0.031 C 
ATOM     20  C   UNL A   1      39.755  26.397  29.132  1.00  0.00     0.029 A 
ATOM     21  N   UNL A   1      41.208  28.079  28.907  1.00  0.00    -0.354 N 
ATOM     22  C   UNL A   1      45.027  27.342  26.833  1.00  0.00     0.074 A 
ATOM     23  C   UNL A   1      45.046  25.998  26.303  1.00  0.00     0.031 C 
ATOM     24  C   UNL A   1      39.148  27.510  29.570  1.00  0.00     0.029 A 
ATOM     25  C   UNL A   1      40.096  28.617  29.511  1.00  0.00     0.049 A 
ATOM     26  H   UNL A   1      42.002  28.610  28.667  1.00  0.00     0.167 HD
ATOM     27  C   UNL A   1      45.993  28.268  26.627  1.00  0.00     0.034 A 
ATOM     28  C   UNL A   1      39.901  29.855  30.007  1.00  0.00     0.034 A 
ATOM     29  C   UNL A   1      45.923  29.591  27.193  1.00  0.00     0.049 A 
ATOM     30  C   UNL A   1      41.043  30.832  29.879  1.00  0.00     0.074 A 
ATOM     31  C   UNL A   1      46.866  30.599  27.172  1.00  0.00     0.029 A 
ATOM     32  N   UNL A   1      44.824  30.085  27.891  1.00  0.00    -0.354 N 
ATOM     33  N   UNL A   1      42.206  30.667  29.282  1.00  0.00    -0.248 NA
ATOM     34  C   UNL A   1      40.865  32.145  30.502  1.00  0.00     0.031 C 
ATOM     35  C   UNL A   1      46.361  31.680  27.907  1.00  0.00     0.029 A 
ATOM     36  C   UNL A   1      45.073  31.374  28.324  1.00  0.00     0.049 A 
ATOM     37  H   UNL A   1      43.990  29.587  28.053  1.00  0.00     0.167 HD
ATOM     38  C   UNL A   1      42.892  31.864  29.450  1.00  0.00     0.074 A 
ATOM     39  C   UNL A   1      41.999  32.747  30.177  1.00  0.00     0.031 C 
ATOM     40  C   UNL A   1      44.146  32.209  29.055  1.00  0.00     0.034 A 
BRANCH  27  41
ATOM     41  C   UNL A   1      47.219  27.815  25.875  1.00  0.00     0.023 A 
ATOM     42  C   UNL A   1      47.400  28.085  24.506  1.00  0.00     0.031 A 
ATOM     43  C   UNL A   1      48.169  26.997  26.515  1.00  0.00     0.131 A 
ATOM     44  C   UNL A   1      48.452  27.471  23.805  1.00  0.00     0.055 A 
ATOM     45  C   UNL A   1      49.258  26.456  25.829  1.00  0.00     0.041 A 
ATOM     46  F   UNL A   1      48.030  26.675  27.811  1.00  0.00    -0.206 F 
ATOM     47  C   UNL A   1      49.395  26.677  24.462  1.00  0.00     0.022 A 
BRANCH  44  48
ATOM     48  S   UNL A   1      48.477  27.589  21.993  1.00  0.00     0.124 S 
ATOM     49  O   UNL A   1      48.676  26.192  21.611  1.00  0.00    -0.237 OA
ATOM     50  O   UNL A   1      47.166  28.151  21.694  1.00  0.00    -0.237 OA
ATOM     51  O   UNL A   1      49.612  28.469  21.721  1.00  0.00    -0.744 OA
ENDBRANCH  44  48
ENDBRANCH  27  41
BRANCH  28  52
ATOM     52  C   UNL A   1      38.646  30.203  30.740  1.00  0.00     0.023 A 
ATOM     53  C   UNL A   1      37.610  30.923  30.126  1.00  0.00     0.031 A 
ATOM     54  C   UNL A   1      38.488  29.863  32.099  1.00  0.00     0.131 A 
ATOM     55  C   UNL A   1      36.487  31.314  30.877  1.00  0.00     0.055 A 
ATOM     56  C   UNL A   1      37.343  30.200  32.822  1.00  0.00     0.041 A 
ATOM     57  F   UNL A   1      39.448  29.185  32.748  1.00  0.00    -0.206 F 
ATOM     58  C   UNL A   1      36.339  30.944  32.215  1.00  0.00     0.022 A 
BRANCH  55  59
ATOM     59  S   UNL A   1      35.260  32.408  30.106  1.00  0.00     0.124 S 
ATOM     60  O   UNL A   1      36.079  33.554  29.728  1.00  0.00    -0.237 OA
ATOM     61  O   UNL A   1      34.766  31.581  29.010  1.00  0.00    -0.237 OA
ATOM     62  O   UNL A   1      34.300  32.654  31.180  1.00  0.00    -0.744 OA
ENDBRANCH  55  59
ENDBRANCH  28  52
BRANCH  40  63
ATOM     63  C   UNL A   1      44.584  33.611  29.382  1.00  0.00     0.023 A 
ATOM     64  C   UNL A   1      45.305  33.897  30.553  1.00  0.00     0.031 A 
ATOM     65  C   UNL A   1      44.264  34.669  28.515  1.00  0.00     0.131 A 
ATOM     66  C   UNL A   1      45.634  35.225  30.855  1.00  0.00     0.055 A 
ATOM     67  C   UNL A   1      44.649  35.980  28.791  1.00  0.00     0.041 A 
ATOM     68  F   UNL A   1      43.576  34.442  27.385  1.00  0.00    -0.206 F 
ATOM     69  C   UNL A   1      45.326  36.265  29.974  1.00  0.00     0.022 A 
BRANCH  66  70
ATOM     70  S   UNL A   1      46.387  35.584  32.464  1.00  0.00     0.124 S 
ATOM     71  O   UNL A   1      47.797  35.725  32.114  1.00  0.00    -0.237 OA
ATOM     72  O   UNL A   1      45.703  36.809  32.863  1.00  0.00    -0.237 OA
ATOM     73  O   UNL A   1      46.063  34.405  33.264  1.00  0.00    -0.744 OA
ENDBRANCH  66  70
ENDBRANCH  40  63
ENDBRANCH  14  15
ENDBRANCH   7   9
ENDBRANCH   6   7
ENDBRANCH   5   6
ENDBRANCH   4   5
ENDBRANCH   3   4
ENDBRANCH   2   3
ENDBRANCH   1   2
BRANCH   1  74
ATOM     74  O   UNL A   1      34.544  21.410  26.039  1.00  0.00    -0.377 OA
BRANCH  74  75
ATOM     75  C   UNL A   1      34.232  20.576  24.930  1.00  0.00     0.188 C 
BRANCH  75  76
ATOM     76  C   UNL A   1      33.079  20.983  23.982  1.00  0.00     0.188 C 
BRANCH  76  77
ATOM     77  O   UNL A   1      32.252  22.043  24.447  1.00  0.00    -0.376 OA
BRANCH  77  78
ATOM     78  C   UNL A   1      31.987  23.071  23.490  1.00  0.00     0.202 C 
BRANCH  78  79
ATOM     79  C   UNL A   1      32.909  23.006  22.266  1.00  0.00     0.261 C 
BRANCH  79  80
ATOM     80  O   UNL A   1      33.713  24.191  22.137  1.00  0.00    -0.463 OA
BRANCH  80  81
ATOM     81  C   UNL A   1      34.088  24.830  23.276  1.00  0.00     0.312 C 
ATOM     82  O   UNL A   1      34.960  24.437  24.047  1.00  0.00    -0.252 OA
BRANCH  81  83
ATOM     83  C   UNL A   1      33.402  26.190  23.338  1.00  0.00     0.124 C 
ATOM     84  C   UNL A   1      34.118  27.205  24.183  1.00  0.00    -0.014 C 
ATOM     85  C   UNL A   1      33.225  26.900  22.000  1.00  0.00     0.048 C 
ATOM     86  C   UNL A   1      34.078  28.421  23.627  1.00  0.00    -0.006 C 
ATOM     87  C   UNL A   1      33.391  28.389  22.312  1.00  0.00     0.106 C 
BRANCH  87  88
ATOM     88  N   UNL A   1      32.165  29.170  22.281  1.00  0.00    -0.346 N 
ATOM     89  C   UNL A   1      30.876  29.024  22.711  1.00  0.00     0.253 C 
ATOM     90  H   UNL A   1      32.298  30.034  21.829  1.00  0.00     0.164 HD
ATOM     91  O   UNL A   1      30.037  29.825  22.295  1.00  0.00    -0.269 OA
BRANCH  89  92
ATOM     92  C   UNL A   1      30.432  28.059  23.734  1.00  0.00     0.058 A 
ATOM     93  C   UNL A   1      29.840  26.865  23.300  1.00  0.00     0.017 A 
ATOM     94  C   UNL A   1      30.887  28.155  25.059  1.00  0.00     0.055 A 
ATOM     95  C   UNL A   1      29.695  25.788  24.177  1.00  0.00     0.021 A 
ATOM     96  C   UNL A   1      30.771  27.062  25.929  1.00  0.00     0.041 A 
ATOM     97  Cl  UNL A   1      31.607  29.595  25.684  1.00  0.00    -0.083 Cl
ATOM     98  C   UNL A   1      30.195  25.878  25.473  1.00  0.00     0.042 A 
ATOM     99  Cl  UNL A   1      30.151  24.486  26.482  1.00  0.00    -0.084 Cl
ENDBRANCH  89  92
ENDBRANCH  87  88
ENDBRANCH  81  83
ENDBRANCH  80  81
ENDBRANCH  79  80
ENDBRANCH  78  79
ENDBRANCH  77  78
ENDBRANCH  76  77
ENDBRANCH  75  76
ENDBRANCH  74  75
ENDBRANCH   1  74
TORSDOF 25
ENDMDL
MODEL 2
REMARK VINA RESULT:      -9.8      2.176      2.812
REMARK SMILES O=C(OCCOCCOCCOCCOC(=O)[C@H]1C=C[C@H](NC(=O)c2ccc(Cl)cc2Cl)C1)c1ccc(-c2c3nc(c(-c4cc(S(=O)(=O)[O-])ccc4F)c4ccc([nH]4)c(-c4cc(S(=O)(=O)[O-])ccc4F)c4nc(c(-c5cc(S(=O)(=O)[O-])ccc5F)c5ccc2[nH]5)C=C4)C=C3)cc1
REMARK SMILES IDX 8 1 7 2 6 3 5 4 4 5 3 6 2 7 1 8 34 9 35 10 96 11 36 12 95 13
REMARK SMILES IDX 37 14 38 15 39 16 89 17 40 18 94 19 88 20 90 21 41 22 93 23
REMARK SMILES IDX 87 24 86 25 42 27 74 28 54 29 73 30 55 31 58 32 72 33 91 34
REMARK SMILES IDX 56 35 57 36 71 38 92 39 59 40 43 41 44 42 52 43 45 44 51 45
REMARK SMILES IDX 53 46 50 47 46 48 47 49 48 50 49 51 75 52 76 53 84 54 77 55
REMARK SMILES IDX 83 56 85 57 82 58 78 59 79 60 80 61 81 62 60 63 61 64 69 65
REMARK SMILES IDX 62 66 68 67 70 68 67 69 63 70 64 71 65 72 66 73 9 74 10 75
REMARK SMILES IDX 11 76 12 77 13 78 14 79 15 80 16 81 17 82 18 83 19 84 33 85
REMARK SMILES IDX 20 86 21 87 22 88 23 89 24 91 25 92 26 93 31 94 27 95 30 96
REMARK SMILES IDX 32 97 28 98 29 99
REMARK H PARENT 90 26 58 37 22 90
REMARK Flexibility Score: inf
ROOT
ATOM      1  C   UNL A   1      35.327  21.824  26.115  1.00  0.00     0.188 C 
ENDROOT
BRANCH   1   2
ATOM      2  C   UNL A   1      36.263  21.874  24.904  1.00  0.00     0.188 C 
BRANCH   2   3
ATOM      3  O   UNL A   1      37.548  21.359  25.262  1.00  0.00    -0.376 OA
BRANCH   3   4
ATOM      4  C   UNL A   1      37.763  19.979  24.971  1.00  0.00     0.202 C 
BRANCH   4   5
ATOM      5  C   UNL A   1      39.199  19.499  25.180  1.00  0.00     0.261 C 
BRANCH   5   6
ATOM      6  O   UNL A   1      39.638  19.742  26.526  1.00  0.00    -0.460 OA
BRANCH   6   7
ATOM      7  C   UNL A   1      40.836  20.253  26.907  1.00  0.00     0.338 C 
ATOM      8  O   UNL A   1      41.816  19.508  26.933  1.00  0.00    -0.246 OA
BRANCH   7   9
ATOM      9  C   UNL A   1      41.038  21.693  27.250  1.00  0.00     0.060 A 
ATOM     10  C   UNL A   1      40.490  22.765  26.545  1.00  0.00     0.016 A 
ATOM     11  C   UNL A   1      41.802  21.979  28.392  1.00  0.00     0.016 A 
ATOM     12  C   UNL A   1      40.791  24.076  26.865  1.00  0.00     0.010 A 
ATOM     13  C   UNL A   1      42.067  23.301  28.761  1.00  0.00     0.010 A 
ATOM     14  C   UNL A   1      41.593  24.350  27.965  1.00  0.00    -0.014 A 
BRANCH  14  15
ATOM     15  C   UNL A   1      42.057  25.738  28.123  1.00  0.00     0.031 A 
ATOM     16  C   UNL A   1      43.354  26.115  27.474  1.00  0.00     0.074 A 
ATOM     17  C   UNL A   1      41.237  26.657  28.664  1.00  0.00     0.049 A 
ATOM     18  N   UNL A   1      44.007  27.241  27.516  1.00  0.00    -0.248 NA
ATOM     19  C   UNL A   1      43.995  25.075  26.649  1.00  0.00     0.031 C 
ATOM     20  C   UNL A   1      39.879  26.390  29.152  1.00  0.00     0.029 A 
ATOM     21  N   UNL A   1      41.399  28.000  28.856  1.00  0.00    -0.354 N 
ATOM     22  C   UNL A   1      45.153  27.037  26.757  1.00  0.00     0.074 A 
ATOM     23  C   UNL A   1      45.108  25.678  26.268  1.00  0.00     0.031 C 
ATOM     24  C   UNL A   1      39.327  27.541  29.563  1.00  0.00     0.029 A 
ATOM     25  C   UNL A   1      40.320  28.604  29.458  1.00  0.00     0.049 A 
ATOM     26  H   UNL A   1      42.211  28.489  28.590  1.00  0.00     0.167 HD
ATOM     27  C   UNL A   1      46.155  27.914  26.510  1.00  0.00     0.034 A 
ATOM     28  C   UNL A   1      40.184  29.863  29.917  1.00  0.00     0.034 A 
ATOM     29  C   UNL A   1      46.150  29.255  27.034  1.00  0.00     0.049 A 
ATOM     30  C   UNL A   1      41.366  30.786  29.744  1.00  0.00     0.074 A 
ATOM     31  C   UNL A   1      47.134  30.221  26.970  1.00  0.00     0.029 A 
ATOM     32  N   UNL A   1      45.082  29.817  27.731  1.00  0.00    -0.354 N 
ATOM     33  N   UNL A   1      42.511  30.553  29.137  1.00  0.00    -0.248 NA
ATOM     34  C   UNL A   1      41.252  32.124  30.328  1.00  0.00     0.031 C 
ATOM     35  C   UNL A   1      46.685  31.345  27.677  1.00  0.00     0.029 A 
ATOM     36  C   UNL A   1      45.392  31.108  28.121  1.00  0.00     0.049 A 
ATOM     37  H   UNL A   1      44.230  29.361  27.919  1.00  0.00     0.167 HD
ATOM     38  C   UNL A   1      43.250  31.724  29.259  1.00  0.00     0.074 A 
ATOM     39  C   UNL A   1      42.406  32.667  29.969  1.00  0.00     0.031 C 
ATOM     40  C   UNL A   1      44.512  32.003  28.837  1.00  0.00     0.034 A 
BRANCH  27  41
ATOM     41  C   UNL A   1      47.350  27.386  25.756  1.00  0.00     0.023 A 
ATOM     42  C   UNL A   1      48.424  26.752  26.405  1.00  0.00     0.031 A 
ATOM     43  C   UNL A   1      47.468  27.629  24.375  1.00  0.00     0.131 A 
ATOM     44  C   UNL A   1      49.600  26.463  25.693  1.00  0.00     0.055 A 
ATOM     45  C   UNL A   1      48.609  27.265  23.656  1.00  0.00     0.041 A 
ATOM     46  F   UNL A   1      46.491  28.263  23.707  1.00  0.00    -0.206 F 
ATOM     47  C   UNL A   1      49.691  26.694  24.319  1.00  0.00     0.022 A 
BRANCH  44  48
ATOM     48  S   UNL A   1      51.071  25.934  26.617  1.00  0.00     0.124 S 
ATOM     49  O   UNL A   1      52.033  25.716  25.538  1.00  0.00    -0.237 OA
ATOM     50  O   UNL A   1      51.331  27.078  27.482  1.00  0.00    -0.237 OA
ATOM     51  O   UNL A   1      50.630  24.720  27.302  1.00  0.00    -0.744 OA
ENDBRANCH  44  48
ENDBRANCH  27  41
BRANCH  28  52
ATOM     52  C   UNL A   1      38.956  30.287  30.655  1.00  0.00     0.023 A 
ATOM     53  C   UNL A   1      37.966  31.073  30.047  1.00  0.00     0.031 A 
ATOM     54  C   UNL A   1      38.782  29.953  32.013  1.00  0.00     0.131 A 
ATOM     55  C   UNL A   1      36.871  31.531  30.802  1.00  0.00     0.055 A 
ATOM     56  C   UNL A   1      37.662  30.359  32.742  1.00  0.00     0.041 A 
ATOM     57  F   UNL A   1      39.699  29.214  32.657  1.00  0.00    -0.206 F 
ATOM     58  C   UNL A   1      36.705  31.167  32.140  1.00  0.00     0.022 A 
BRANCH  55  59
ATOM     59  S   UNL A   1      35.713  32.702  30.039  1.00  0.00     0.124 S 
ATOM     60  O   UNL A   1      34.839  31.808  29.288  1.00  0.00    -0.237 OA
ATOM     61  O   UNL A   1      35.124  33.348  31.207  1.00  0.00    -0.237 OA
ATOM     62  O   UNL A   1      36.578  33.556  29.226  1.00  0.00    -0.744 OA
ENDBRANCH  55  59
ENDBRANCH  28  52
BRANCH  40  63
ATOM     63  C   UNL A   1      45.013  33.394  29.115  1.00  0.00     0.023 A 
ATOM     64  C   UNL A   1      44.834  34.434  28.188  1.00  0.00     0.031 A 
ATOM     65  C   UNL A   1      45.686  33.674  30.316  1.00  0.00     0.131 A 
ATOM     66  C   UNL A   1      45.376  35.698  28.453  1.00  0.00     0.055 A 
ATOM     67  C   UNL A   1      46.168  34.951  30.601  1.00  0.00     0.041 A 
ATOM     68  F   UNL A   1      45.880  32.711  31.231  1.00  0.00    -0.206 F 
ATOM     69  C   UNL A   1      46.026  35.967  29.660  1.00  0.00     0.022 A 
BRANCH  66  70
ATOM     70  S   UNL A   1      45.301  36.961  27.155  1.00  0.00     0.124 S 
ATOM     71  O   UNL A   1      43.881  36.969  26.822  1.00  0.00    -0.237 OA
ATOM     72  O   UNL A   1      45.803  38.146  27.842  1.00  0.00    -0.237 OA
ATOM     73  O   UNL A   1      46.179  36.432  26.113  1.00  0.00    -0.744 OA
ENDBRANCH  66  70
ENDBRANCH  40  63
ENDBRANCH  14  15
ENDBRANCH   7   9
ENDBRANCH   6   7
ENDBRANCH   5   6
ENDBRANCH   4   5
ENDBRANCH   3   4
ENDBRANCH   2   3
ENDBRANCH   1   2
BRANCH   1  74
ATOM     74  O   UNL A   1      34.205  20.951  25.966  1.00  0.00    -0.377 OA
BRANCH  74  75
ATOM     75  C   UNL A   1      34.349  19.915  25.002  1.00  0.00     0.188 C 
BRANCH  75  76
ATOM     76  C   UNL A   1      33.081  19.292  24.372  1.00  0.00     0.188 C 
BRANCH  76  77
ATOM     77  O   UNL A   1      32.077  20.218  23.976  1.00  0.00    -0.376 OA
BRANCH  77  78
ATOM     78  C   UNL A   1      32.394  21.002  22.824  1.00  0.00     0.202 C 
BRANCH  78  79
ATOM     79  C   UNL A   1      31.960  22.466  22.954  1.00  0.00     0.261 C 
BRANCH  79  80
ATOM     80  O   UNL A   1      32.658  23.140  24.015  1.00  0.00    -0.463 OA
BRANCH  80  81
ATOM     81  C   UNL A   1      31.951  23.475  25.127  1.00  0.00     0.312 C 
ATOM     82  O   UNL A   1      31.643  22.694  26.024  1.00  0.00    -0.252 OA
BRANCH  81  83
ATOM     83  C   UNL A   1      31.778  24.989  25.174  1.00  0.00     0.124 C 
ATOM     84  C   UNL A   1      30.349  25.444  25.264  1.00  0.00    -0.014 C 
ATOM     85  C   UNL A   1      32.451  25.694  26.347  1.00  0.00     0.048 C 
ATOM     86  C   UNL A   1      30.219  26.491  26.085  1.00  0.00    -0.006 C 
ATOM     87  C   UNL A   1      31.517  26.850  26.709  1.00  0.00     0.106 C 
BRANCH  87  88
ATOM     88  N   UNL A   1      31.992  28.172  26.335  1.00  0.00    -0.346 N 
ATOM     89  C   UNL A   1      32.605  28.745  25.256  1.00  0.00     0.253 C 
ATOM     90  H   UNL A   1      31.830  28.830  27.049  1.00  0.00     0.164 HD
ATOM     91  O   UNL A   1      33.070  29.878  25.395  1.00  0.00    -0.269 OA
BRANCH  89  92
ATOM     92  C   UNL A   1      32.643  28.166  23.901  1.00  0.00     0.058 A 
ATOM     93  C   UNL A   1      33.771  27.419  23.536  1.00  0.00     0.017 A 
ATOM     94  C   UNL A   1      31.474  28.061  23.130  1.00  0.00     0.055 A 
ATOM     95  C   UNL A   1      33.736  26.587  22.414  1.00  0.00     0.021 A 
ATOM     96  C   UNL A   1      31.430  27.202  22.024  1.00  0.00     0.041 A 
ATOM     97  Cl  UNL A   1      30.046  28.964  23.493  1.00  0.00    -0.083 Cl
ATOM     98  C   UNL A   1      32.556  26.453  21.688  1.00  0.00     0.042 A 
ATOM     99  Cl  UNL A   1      32.490  25.303  20.411  1.00  0.00    -0.084 Cl
ENDBRANCH  89  92
ENDBRANCH  87  88
ENDBRANCH  81  83
ENDBRANCH  80  81
ENDBRANCH  79  80
ENDBRANCH  78  79
ENDBRANCH  77  78
ENDBRANCH  76  77
ENDBRANCH  75  76
ENDBRANCH  74  75
ENDBRANCH   1  74
TORSDOF 25
ENDMDL
MODEL 3
REMARK VINA RESULT:      -9.7      2.745      9.146
REMARK SMILES O=C(OCCOCCOCCOCCOC(=O)[C@H]1C=C[C@H](NC(=O)c2ccc(Cl)cc2Cl)C1)c1ccc(-c2c3nc(c(-c4cc(S(=O)(=O)[O-])ccc4F)c4ccc([nH]4)c(-c4cc(S(=O)(=O)[O-])ccc4F)c4nc(c(-c5cc(S(=O)(=O)[O-])ccc5F)c5ccc2[nH]5)C=C4)C=C3)cc1
REMARK SMILES IDX 8 1 7 2 6 3 5 4 4 5 3 6 2 7 1 8 34 9 35 10 96 11 36 12 95 13
REMARK SMILES IDX 37 14 38 15 39 16 89 17 40 18 94 19 88 20 90 21 41 22 93 23
REMARK SMILES IDX 87 24 86 25 42 27 74 28 54 29 73 30 55 31 58 32 72 33 91 34
REMARK SMILES IDX 56 35 57 36 71 38 92 39 59 40 43 41 44 42 52 43 45 44 51 45
REMARK SMILES IDX 53 46 50 47 46 48 47 49 48 50 49 51 75 52 76 53 84 54 77 55
REMARK SMILES IDX 83 56 85 57 82 58 78 59 79 60 80 61 81 62 60 63 61 64 69 65
REMARK SMILES IDX 62 66 68 67 70 68 67 69 63 70 64 71 65 72 66 73 9 74 10 75
REMARK SMILES IDX 11 76 12 77 13 78 14 79 15 80 16 81 17 82 18 83 19 84 33 85
REMARK SMILES IDX 20 86 21 87 22 88 23 89 24 91 25 92 26 93 31 94 27 95 30 96
REMARK SMILES IDX 32 97 28 98 29 99
REMARK H PARENT 90 26 58 37 22 90
REMARK Flexibility Score: inf
ROOT
ATOM      1  C   UNL A   1      35.714  33.714  29.519  1.00  0.00     0.188 C 
ENDROOT
BRANCH   1   2
ATOM      2  C   UNL A   1      34.640  34.620  30.127  1.00  0.00     0.188 C 
BRANCH   2   3
ATOM      3  O   UNL A   1      33.870  33.887  31.082  1.00  0.00    -0.376 OA
BRANCH   3   4
ATOM      4  C   UNL A   1      34.060  34.260  32.447  1.00  0.00     0.202 C 
BRANCH   4   5
ATOM      5  C   UNL A   1      34.704  33.183  33.319  1.00  0.00     0.261 C 
BRANCH   5   6
ATOM      6  O   UNL A   1      36.129  33.350  33.383  1.00  0.00    -0.460 OA
BRANCH   6   7
ATOM      7  C   UNL A   1      37.031  32.438  33.828  1.00  0.00     0.338 C 
ATOM      8  O   UNL A   1      37.097  32.210  35.035  1.00  0.00    -0.246 OA
BRANCH   7   9
ATOM      9  C   UNL A   1      37.920  31.657  32.914  1.00  0.00     0.060 A 
ATOM     10  C   UNL A   1      38.687  30.557  33.296  1.00  0.00     0.016 A 
ATOM     11  C   UNL A   1      37.945  32.041  31.564  1.00  0.00     0.016 A 
ATOM     12  C   UNL A   1      39.556  29.936  32.418  1.00  0.00     0.010 A 
ATOM     13  C   UNL A   1      38.777  31.385  30.652  1.00  0.00     0.010 A 
ATOM     14  C   UNL A   1      39.617  30.357  31.096  1.00  0.00    -0.014 A 
BRANCH  14  15
ATOM     15  C   UNL A   1      40.709  29.812  30.272  1.00  0.00     0.031 A 
ATOM     16  C   UNL A   1      42.015  30.548  30.278  1.00  0.00     0.074 A 
ATOM     17  C   UNL A   1      40.575  28.600  29.706  1.00  0.00     0.049 A 
ATOM     18  N   UNL A   1      43.101  30.316  29.598  1.00  0.00    -0.248 NA
ATOM     19  C   UNL A   1      42.110  31.698  31.194  1.00  0.00     0.031 C 
ATOM     20  C   UNL A   1      39.387  27.746  29.816  1.00  0.00     0.029 A 
ATOM     21  N   UNL A   1      41.450  27.857  28.965  1.00  0.00    -0.354 N 
ATOM     22  C   UNL A   1      43.996  31.311  29.972  1.00  0.00     0.074 A 
ATOM     23  C   UNL A   1      43.326  32.150  30.938  1.00  0.00     0.031 C 
ATOM     24  C   UNL A   1      39.622  26.586  29.185  1.00  0.00     0.029 A 
ATOM     25  C   UNL A   1      40.933  26.652  28.550  1.00  0.00     0.049 A 
ATOM     26  H   UNL A   1      42.364  28.154  28.749  1.00  0.00     0.167 HD
ATOM     27  C   UNL A   1      45.261  31.501  29.528  1.00  0.00     0.034 A 
ATOM     28  C   UNL A   1      41.451  25.739  27.705  1.00  0.00     0.034 A 
ATOM     29  C   UNL A   1      45.874  30.636  28.554  1.00  0.00     0.049 A 
ATOM     30  C   UNL A   1      42.810  26.038  27.123  1.00  0.00     0.074 A 
ATOM     31  C   UNL A   1      47.095  30.758  27.923  1.00  0.00     0.029 A 
ATOM     32  N   UNL A   1      45.288  29.468  28.069  1.00  0.00    -0.354 N 
ATOM     33  N   UNL A   1      43.611  27.053  27.377  1.00  0.00    -0.248 NA
ATOM     34  C   UNL A   1      43.329  25.093  26.133  1.00  0.00     0.031 C 
ATOM     35  C   UNL A   1      47.223  29.699  27.015  1.00  0.00     0.029 A 
ATOM     36  C   UNL A   1      46.113  28.873  27.132  1.00  0.00     0.049 A 
ATOM     37  H   UNL A   1      44.413  29.118  28.353  1.00  0.00     0.167 HD
ATOM     38  C   UNL A   1      44.734  26.859  26.583  1.00  0.00     0.074 A 
ATOM     39  C   UNL A   1      44.518  25.615  25.867  1.00  0.00     0.031 C 
ATOM     40  C   UNL A   1      45.842  27.633  26.441  1.00  0.00     0.034 A 
BRANCH  27  41
ATOM     41  C   UNL A   1      45.970  32.743  30.009  1.00  0.00     0.023 A 
ATOM     42  C   UNL A   1      45.887  33.967  29.320  1.00  0.00     0.031 A 
ATOM     43  C   UNL A   1      46.840  32.668  31.113  1.00  0.00     0.131 A 
ATOM     44  C   UNL A   1      46.722  35.035  29.687  1.00  0.00     0.055 A 
ATOM     45  C   UNL A   1      47.608  33.760  31.523  1.00  0.00     0.041 A 
ATOM     46  F   UNL A   1      46.988  31.517  31.788  1.00  0.00    -0.206 F 
ATOM     47  C   UNL A   1      47.565  34.948  30.798  1.00  0.00     0.022 A 
BRANCH  44  48
ATOM     48  S   UNL A   1      46.817  36.483  28.596  1.00  0.00     0.124 S 
ATOM     49  O   UNL A   1      48.261  36.620  28.414  1.00  0.00    -0.237 OA
ATOM     50  O   UNL A   1      46.065  36.048  27.426  1.00  0.00    -0.237 OA
ATOM     51  O   UNL A   1      46.192  37.547  29.381  1.00  0.00    -0.744 OA
ENDBRANCH  44  48
ENDBRANCH  27  41
BRANCH  28  52
ATOM     52  C   UNL A   1      40.663  24.539  27.288  1.00  0.00     0.023 A 
ATOM     53  C   UNL A   1      41.168  23.239  27.437  1.00  0.00     0.031 A 
ATOM     54  C   UNL A   1      39.401  24.683  26.678  1.00  0.00     0.131 A 
ATOM     55  C   UNL A   1      40.439  22.142  26.946  1.00  0.00     0.055 A 
ATOM     56  C   UNL A   1      38.653  23.586  26.248  1.00  0.00     0.041 A 
ATOM     57  F   UNL A   1      38.867  25.901  26.495  1.00  0.00    -0.206 F 
ATOM     58  C   UNL A   1      39.178  22.305  26.367  1.00  0.00     0.022 A 
BRANCH  55  59
ATOM     59  S   UNL A   1      41.206  20.497  26.979  1.00  0.00     0.124 S 
ATOM     60  O   UNL A   1      40.440  19.790  25.959  1.00  0.00    -0.237 OA
ATOM     61  O   UNL A   1      42.593  20.805  26.645  1.00  0.00    -0.237 OA
ATOM     62  O   UNL A   1      40.984  20.045  28.351  1.00  0.00    -0.744 OA
ENDBRANCH  55  59
ENDBRANCH  28  52
BRANCH  40  63
ATOM     63  C   UNL A   1      46.898  27.118  25.501  1.00  0.00     0.023 A 
ATOM     64  C   UNL A   1      47.112  27.710  24.245  1.00  0.00     0.031 A 
ATOM     65  C   UNL A   1      47.688  26.015  25.866  1.00  0.00     0.131 A 
ATOM     66  C   UNL A   1      48.057  27.157  23.372  1.00  0.00     0.055 A 
ATOM     67  C   UNL A   1      48.671  25.509  25.016  1.00  0.00     0.041 A 
ATOM     68  F   UNL A   1      47.519  25.417  27.056  1.00  0.00    -0.206 F 
ATOM     69  C   UNL A   1      48.849  26.072  23.756  1.00  0.00     0.022 A 
BRANCH  66  70
ATOM     70  S   UNL A   1      48.169  27.820  21.688  1.00  0.00     0.124 S 
ATOM     71  O   UNL A   1      46.823  28.342  21.478  1.00  0.00    -0.237 OA
ATOM     72  O   UNL A   1      49.227  28.817  21.814  1.00  0.00    -0.237 OA
ATOM     73  O   UNL A   1      48.513  26.650  20.883  1.00  0.00    -0.744 OA
ENDBRANCH  66  70
ENDBRANCH  40  63
ENDBRANCH  14  15
ENDBRANCH   7   9
ENDBRANCH   6   7
ENDBRANCH   5   6
ENDBRANCH   4   5
ENDBRANCH   3   4
ENDBRANCH   2   3
ENDBRANCH   1   2
BRANCH   1  74
ATOM     74  O   UNL A   1      35.397  33.201  28.222  1.00  0.00    -0.377 OA
BRANCH  74  75
ATOM     75  C   UNL A   1      35.982  31.947  27.892  1.00  0.00     0.188 C 
BRANCH  75  76
ATOM     76  C   UNL A   1      35.550  30.685  28.675  1.00  0.00     0.188 C 
BRANCH  76  77
ATOM     77  O   UNL A   1      34.816  29.724  27.928  1.00  0.00    -0.376 OA
BRANCH  77  78
ATOM     78  C   UNL A   1      33.702  30.244  27.198  1.00  0.00     0.202 C 
BRANCH  78  79
ATOM     79  C   UNL A   1      33.169  29.270  26.141  1.00  0.00     0.261 C 
BRANCH  79  80
ATOM     80  O   UNL A   1      33.280  27.902  26.567  1.00  0.00    -0.463 OA
BRANCH  80  81
ATOM     81  C   UNL A   1      32.160  27.133  26.531  1.00  0.00     0.312 C 
ATOM     82  O   UNL A   1      31.188  27.273  27.268  1.00  0.00    -0.252 OA
BRANCH  81  83
ATOM     83  C   UNL A   1      32.223  26.212  25.317  1.00  0.00     0.124 C 
ATOM     84  C   UNL A   1      31.522  24.896  25.504  1.00  0.00    -0.014 C 
ATOM     85  C   UNL A   1      31.608  26.766  24.036  1.00  0.00     0.048 C 
ATOM     86  C   UNL A   1      30.874  24.525  24.395  1.00  0.00    -0.006 C 
ATOM     87  C   UNL A   1      30.992  25.555  23.332  1.00  0.00     0.106 C 
BRANCH  87  88
ATOM     88  N   UNL A   1      31.706  25.092  22.154  1.00  0.00    -0.346 N 
ATOM     89  C   UNL A   1      32.870  24.427  21.889  1.00  0.00     0.253 C 
ATOM     90  H   UNL A   1      31.223  25.318  21.327  1.00  0.00     0.164 HD
ATOM     91  O   UNL A   1      33.269  24.410  20.722  1.00  0.00    -0.269 OA
BRANCH  89  92
ATOM     92  C   UNL A   1      33.624  23.621  22.867  1.00  0.00     0.058 A 
ATOM     93  C   UNL A   1      34.568  24.274  23.670  1.00  0.00     0.017 A 
ATOM     94  C   UNL A   1      33.184  22.339  23.232  1.00  0.00     0.055 A 
ATOM     95  C   UNL A   1      35.074  23.653  24.814  1.00  0.00     0.021 A 
ATOM     96  C   UNL A   1      33.668  21.730  24.399  1.00  0.00     0.041 A 
ATOM     97  Cl  UNL A   1      32.041  21.452  22.289  1.00  0.00    -0.083 Cl
ATOM     98  C   UNL A   1      34.593  22.403  25.194  1.00  0.00     0.042 A 
ATOM     99  Cl  UNL A   1      35.109  21.731  26.690  1.00  0.00    -0.084 Cl
ENDBRANCH  89  92
ENDBRANCH  87  88
ENDBRANCH  81  83
ENDBRANCH  80  81
ENDBRANCH  79  80
ENDBRANCH  78  79
ENDBRANCH  77  78
ENDBRANCH  76  77
ENDBRANCH  75  76
ENDBRANCH  74  75
ENDBRANCH   1  74
TORSDOF 25
ENDMDL
