MODEL 1
REMARK VINA RESULT:      -9.3      0.000      0.000
REMARK SMILES O=C(CCCNc1ccccc1SC(F)F)OCCOCCOCCOCCOC(=O)c1ccc(-c2c3nc(c(-c4cc(S(=O)(=O)[O-])ccc4F)c4ccc([nH]4)c(-c4cc(S(=O)(=O)[O-])ccc4F)c4nc(c(-c5cc(S(=O)(=O)[O-])ccc5F)c5ccc2[nH]5)C=C4)C=C3)cc1
REMARK SMILES IDX 21 1 20 2 19 3 18 4 17 5 2 6 1 7 3 8 4 9 5 10 6 11 7 13 8 14
REMARK SMILES IDX 12 15 9 16 11 17 10 18 13 19 14 20 15 21 16 22 22 23 23 24
REMARK SMILES IDX 24 25 25 26 26 27 27 28 28 29 29 30 30 31 31 32 32 33 33 34
REMARK SMILES IDX 94 35 34 36 93 37 35 38 36 39 37 40 87 41 38 42 92 43 86 44
REMARK SMILES IDX 88 45 39 46 91 47 85 48 84 49 40 51 72 52 52 53 71 54 53 55
REMARK SMILES IDX 56 56 70 57 89 58 54 59 55 60 69 62 90 63 57 64 41 65 42 66
REMARK SMILES IDX 50 67 43 68 49 69 51 70 48 71 44 72 45 73 46 74 47 75 73 76
REMARK SMILES IDX 74 77 82 78 75 79 81 80 83 81 80 82 76 83 77 84 78 85 79 86
REMARK SMILES IDX 58 87 59 88 67 89 60 90 66 91 68 92 65 93 61 94 62 95 63 96
REMARK SMILES IDX 64 97
REMARK H PARENT 6 12 88 50 56 61
REMARK Flexibility Score: inf
ROOT
ATOM      1  C   UNL A   1      33.591  30.375  26.914  1.00  0.00     0.188 C 
ENDROOT
BRANCH   1   2
ATOM      2  O   UNL A   1      32.441  29.704  27.430  1.00  0.00    -0.376 OA
BRANCH   2   3
ATOM      3  C   UNL A   1      32.111  28.477  26.793  1.00  0.00     0.202 C 
BRANCH   3   4
ATOM      4  C   UNL A   1      32.301  28.501  25.286  1.00  0.00     0.261 C 
BRANCH   4   5
ATOM      5  O   UNL A   1      32.307  27.198  24.688  1.00  0.00    -0.463 OA
BRANCH   5   6
ATOM      6  C   UNL A   1      32.288  27.106  23.335  1.00  0.00     0.305 C 
ATOM      7  O   UNL A   1      32.538  28.089  22.640  1.00  0.00    -0.252 OA
BRANCH   6   8
ATOM      8  C   UNL A   1      31.730  25.838  22.718  1.00  0.00     0.124 C 
BRANCH   8   9
ATOM      9  C   UNL A   1      32.736  24.879  22.095  1.00  0.00     0.033 C 
BRANCH   9  10
ATOM     10  C   UNL A   1      32.608  23.392  22.436  1.00  0.00     0.113 C 
BRANCH  10  11
ATOM     11  N   UNL A   1      33.155  23.045  23.731  1.00  0.00    -0.384 N 
ATOM     12  H   UNL A   1      32.631  23.314  24.519  1.00  0.00     0.160 HD
BRANCH  11  13
ATOM     13  C   UNL A   1      34.350  22.365  23.974  1.00  0.00     0.048 A 
ATOM     14  C   UNL A   1      35.513  22.999  23.469  1.00  0.00     0.027 A 
ATOM     15  C   UNL A   1      34.548  21.188  24.738  1.00  0.00     0.036 A 
ATOM     16  C   UNL A   1      36.802  22.498  23.680  1.00  0.00     0.002 A 
ATOM     17  C   UNL A   1      35.856  20.678  24.919  1.00  0.00     0.017 A 
ATOM     18  C   UNL A   1      36.972  21.326  24.396  1.00  0.00     0.001 A 
BRANCH  15  19
ATOM     19  S   UNL A   1      33.289  20.251  25.614  1.00  0.00    -0.053 SA
BRANCH  19  20
ATOM     20  C   UNL A   1      32.846  18.999  24.390  1.00  0.00     0.405 C 
ATOM     21  F   UNL A   1      31.919  18.158  24.928  1.00  0.00    -0.198 F 
ATOM     22  F   UNL A   1      32.277  19.520  23.278  1.00  0.00    -0.198 F 
ENDBRANCH  19  20
ENDBRANCH  15  19
ENDBRANCH  11  13
ENDBRANCH  10  11
ENDBRANCH   9  10
ENDBRANCH   8   9
ENDBRANCH   6   8
ENDBRANCH   5   6
ENDBRANCH   4   5
ENDBRANCH   3   4
ENDBRANCH   2   3
ENDBRANCH   1   2
BRANCH   1  23
ATOM     23  C   UNL A   1      34.371  31.250  27.898  1.00  0.00     0.188 C 
BRANCH  23  24
ATOM     24  O   UNL A   1      33.800  32.461  28.382  1.00  0.00    -0.377 OA
BRANCH  24  25
ATOM     25  C   UNL A   1      34.596  33.634  28.452  1.00  0.00     0.188 C 
BRANCH  25  26
ATOM     26  C   UNL A   1      34.066  34.811  29.274  1.00  0.00     0.188 C 
BRANCH  26  27
ATOM     27  O   UNL A   1      33.403  34.425  30.473  1.00  0.00    -0.376 OA
BRANCH  27  28
ATOM     28  C   UNL A   1      33.775  35.195  31.613  1.00  0.00     0.202 C 
BRANCH  28  29
ATOM     29  C   UNL A   1      34.034  34.378  32.890  1.00  0.00     0.261 C 
BRANCH  29  30
ATOM     30  O   UNL A   1      34.638  33.085  32.715  1.00  0.00    -0.460 OA
BRANCH  30  31
ATOM     31  C   UNL A   1      35.757  32.823  33.433  1.00  0.00     0.338 C 
ATOM     32  O   UNL A   1      35.909  33.032  34.616  1.00  0.00    -0.246 OA
BRANCH  31  33
ATOM     33  C   UNL A   1      36.716  32.069  32.578  1.00  0.00     0.060 A 
ATOM     34  C   UNL A   1      37.678  31.269  33.209  1.00  0.00     0.016 A 
ATOM     35  C   UNL A   1      36.687  32.150  31.182  1.00  0.00     0.016 A 
ATOM     36  C   UNL A   1      38.610  30.554  32.449  1.00  0.00     0.010 A 
ATOM     37  C   UNL A   1      37.647  31.461  30.423  1.00  0.00     0.010 A 
ATOM     38  C   UNL A   1      38.630  30.675  31.053  1.00  0.00    -0.014 A 
BRANCH  38  39
ATOM     39  C   UNL A   1      39.809  30.161  30.303  1.00  0.00     0.031 A 
ATOM     40  C   UNL A   1      41.012  31.061  30.170  1.00  0.00     0.074 A 
ATOM     41  C   UNL A   1      39.857  28.907  29.811  1.00  0.00     0.049 A 
ATOM     42  N   UNL A   1      42.171  30.830  29.609  1.00  0.00    -0.248 NA
ATOM     43  C   UNL A   1      40.883  32.404  30.758  1.00  0.00     0.031 C 
ATOM     44  C   UNL A   1      38.781  27.921  29.900  1.00  0.00     0.029 A 
ATOM     45  N   UNL A   1      40.858  28.248  29.136  1.00  0.00    -0.354 N 
ATOM     46  C   UNL A   1      42.919  31.987  29.798  1.00  0.00     0.074 A 
ATOM     47  C   UNL A   1      42.062  32.936  30.476  1.00  0.00     0.031 C 
ATOM     48  C   UNL A   1      39.179  26.786  29.296  1.00  0.00     0.029 A 
ATOM     49  C   UNL A   1      40.526  26.968  28.754  1.00  0.00     0.049 A 
ATOM     50  H   UNL A   1      41.734  28.654  28.945  1.00  0.00     0.167 HD
ATOM     51  C   UNL A   1      44.208  32.235  29.457  1.00  0.00     0.034 A 
ATOM     52  C   UNL A   1      41.220  26.056  28.039  1.00  0.00     0.034 A 
ATOM     53  C   UNL A   1      45.049  31.303  28.748  1.00  0.00     0.049 A 
ATOM     54  C   UNL A   1      42.625  26.393  27.581  1.00  0.00     0.074 A 
ATOM     55  C   UNL A   1      46.361  31.464  28.337  1.00  0.00     0.029 A 
ATOM     56  N   UNL A   1      44.658  30.037  28.331  1.00  0.00    -0.354 N 
ATOM     57  N   UNL A   1      43.326  27.486  27.785  1.00  0.00    -0.248 NA
ATOM     58  C   UNL A   1      43.337  25.363  26.812  1.00  0.00     0.031 C 
ATOM     59  C   UNL A   1      46.739  30.329  27.612  1.00  0.00     0.029 A 
ATOM     60  C   UNL A   1      45.694  29.419  27.644  1.00  0.00     0.049 A 
ATOM     61  H   UNL A   1      43.775  29.635  28.500  1.00  0.00     0.167 HD
ATOM     62  C   UNL A   1      44.568  27.258  27.193  1.00  0.00     0.074 A 
ATOM     63  C   UNL A   1      44.531  25.915  26.656  1.00  0.00     0.031 C 
ATOM     64  C   UNL A   1      45.643  28.085  27.097  1.00  0.00     0.034 A 
BRANCH  51  65
ATOM     65  C   UNL A   1      44.768  33.590  29.814  1.00  0.00     0.023 A 
ATOM     66  C   UNL A   1      44.734  34.662  28.904  1.00  0.00     0.031 A 
ATOM     67  C   UNL A   1      45.359  33.810  31.071  1.00  0.00     0.131 A 
ATOM     68  C   UNL A   1      45.332  35.885  29.241  1.00  0.00     0.055 A 
ATOM     69  C   UNL A   1      45.885  35.053  31.429  1.00  0.00     0.041 A 
ATOM     70  F   UNL A   1      45.444  32.817  31.969  1.00  0.00    -0.206 F 
ATOM     71  C   UNL A   1      45.883  36.096  30.507  1.00  0.00     0.022 A 
BRANCH  68  72
ATOM     72  S   UNL A   1      45.490  37.157  27.958  1.00  0.00     0.124 S 
ATOM     73  O   UNL A   1      45.517  38.380  28.756  1.00  0.00    -0.237 OA
ATOM     74  O   UNL A   1      46.741  36.793  27.304  1.00  0.00    -0.237 OA
ATOM     75  O   UNL A   1      44.287  36.978  27.147  1.00  0.00    -0.744 OA
ENDBRANCH  68  72
ENDBRANCH  51  65
BRANCH  52  76
ATOM     76  C   UNL A   1      40.604  24.748  27.653  1.00  0.00     0.023 A 
ATOM     77  C   UNL A   1      41.299  23.534  27.791  1.00  0.00     0.031 A 
ATOM     78  C   UNL A   1      39.340  24.710  27.037  1.00  0.00     0.131 A 
ATOM     79  C   UNL A   1      40.756  22.349  27.265  1.00  0.00     0.055 A 
ATOM     80  C   UNL A   1      38.777  23.519  26.571  1.00  0.00     0.041 A 
ATOM     81  F   UNL A   1      38.632  25.838  26.868  1.00  0.00    -0.206 F 
ATOM     82  C   UNL A   1      39.495  22.332  26.668  1.00  0.00     0.022 A 
BRANCH  79  83
ATOM     83  S   UNL A   1      41.774  20.846  27.267  1.00  0.00     0.124 S 
ATOM     84  O   UNL A   1      42.849  21.215  28.181  1.00  0.00    -0.237 OA
ATOM     85  O   UNL A   1      40.832  19.844  27.753  1.00  0.00    -0.237 OA
ATOM     86  O   UNL A   1      42.168  20.699  25.867  1.00  0.00    -0.744 OA
ENDBRANCH  79  83
ENDBRANCH  52  76
BRANCH  64  87
ATOM     87  C   UNL A   1      46.878  27.533  26.417  1.00  0.00     0.023 A 
ATOM     88  C   UNL A   1      47.894  26.884  27.142  1.00  0.00     0.031 A 
ATOM     89  C   UNL A   1      47.058  27.690  25.031  1.00  0.00     0.131 A 
ATOM     90  C   UNL A   1      49.076  26.492  26.495  1.00  0.00     0.055 A 
ATOM     91  C   UNL A   1      48.204  27.230  24.380  1.00  0.00     0.041 A 
ATOM     92  F   UNL A   1      46.125  28.302  24.284  1.00  0.00    -0.206 F 
ATOM     93  C   UNL A   1      49.231  26.645  25.115  1.00  0.00     0.022 A 
BRANCH  90  94
ATOM     94  S   UNL A   1      50.465  25.904  27.503  1.00  0.00     0.124 S 
ATOM     95  O   UNL A   1      50.166  26.495  28.804  1.00  0.00    -0.237 OA
ATOM     96  O   UNL A   1      50.323  24.455  27.415  1.00  0.00    -0.237 OA
ATOM     97  O   UNL A   1      51.638  26.455  26.827  1.00  0.00    -0.744 OA
ENDBRANCH  90  94
ENDBRANCH  64  87
ENDBRANCH  38  39
ENDBRANCH  31  33
ENDBRANCH  30  31
ENDBRANCH  29  30
ENDBRANCH  28  29
ENDBRANCH  27  28
ENDBRANCH  26  27
ENDBRANCH  25  26
ENDBRANCH  24  25
ENDBRANCH  23  24
ENDBRANCH   1  23
TORSDOF 29
ENDMDL
MODEL 2
REMARK VINA RESULT:      -8.9      5.576      9.604
REMARK SMILES O=C(CCCNc1ccccc1SC(F)F)OCCOCCOCCOCCOC(=O)c1ccc(-c2c3nc(c(-c4cc(S(=O)(=O)[O-])ccc4F)c4ccc([nH]4)c(-c4cc(S(=O)(=O)[O-])ccc4F)c4nc(c(-c5cc(S(=O)(=O)[O-])ccc5F)c5ccc2[nH]5)C=C4)C=C3)cc1
REMARK SMILES IDX 21 1 20 2 19 3 18 4 17 5 2 6 1 7 3 8 4 9 5 10 6 11 7 13 8 14
REMARK SMILES IDX 12 15 9 16 11 17 10 18 13 19 14 20 15 21 16 22 22 23 23 24
REMARK SMILES IDX 24 25 25 26 26 27 27 28 28 29 29 30 30 31 31 32 32 33 33 34
REMARK SMILES IDX 94 35 34 36 93 37 35 38 36 39 37 40 87 41 38 42 92 43 86 44
REMARK SMILES IDX 88 45 39 46 91 47 85 48 84 49 40 51 72 52 52 53 71 54 53 55
REMARK SMILES IDX 56 56 70 57 89 58 54 59 55 60 69 62 90 63 57 64 41 65 42 66
REMARK SMILES IDX 50 67 43 68 49 69 51 70 48 71 44 72 45 73 46 74 47 75 73 76
REMARK SMILES IDX 74 77 82 78 75 79 81 80 83 81 80 82 76 83 77 84 78 85 79 86
REMARK SMILES IDX 58 87 59 88 67 89 60 90 66 91 68 92 65 93 61 94 62 95 63 96
REMARK SMILES IDX 64 97
REMARK H PARENT 6 12 88 50 56 61
REMARK Flexibility Score: inf
ROOT
ATOM      1  C   UNL A   1      31.801  30.459  25.752  1.00  0.00     0.188 C 
ENDROOT
BRANCH   1   2
ATOM      2  O   UNL A   1      31.548  29.187  25.155  1.00  0.00    -0.376 OA
BRANCH   2   3
ATOM      3  C   UNL A   1      30.612  29.188  24.085  1.00  0.00     0.202 C 
BRANCH   3   4
ATOM      4  C   UNL A   1      31.018  28.302  22.919  1.00  0.00     0.261 C 
BRANCH   4   5
ATOM      5  O   UNL A   1      32.249  28.696  22.301  1.00  0.00    -0.463 OA
BRANCH   5   6
ATOM      6  C   UNL A   1      33.185  27.744  22.057  1.00  0.00     0.305 C 
ATOM      7  O   UNL A   1      34.356  28.059  21.858  1.00  0.00    -0.252 OA
BRANCH   6   8
ATOM      8  C   UNL A   1      32.706  26.326  21.808  1.00  0.00     0.124 C 
BRANCH   8   9
ATOM      9  C   UNL A   1      33.502  25.209  22.471  1.00  0.00     0.033 C 
BRANCH   9  10
ATOM     10  C   UNL A   1      33.066  23.767  22.199  1.00  0.00     0.113 C 
BRANCH  10  11
ATOM     11  N   UNL A   1      34.086  22.786  22.506  1.00  0.00    -0.384 N 
ATOM     12  H   UNL A   1      34.254  22.094  21.826  1.00  0.00     0.160 HD
BRANCH  11  13
ATOM     13  C   UNL A   1      34.856  22.722  23.668  1.00  0.00     0.048 A 
ATOM     14  C   UNL A   1      36.149  23.292  23.563  1.00  0.00     0.027 A 
ATOM     15  C   UNL A   1      34.472  22.252  24.949  1.00  0.00     0.036 A 
ATOM     16  C   UNL A   1      37.030  23.379  24.646  1.00  0.00     0.002 A 
ATOM     17  C   UNL A   1      35.384  22.321  26.028  1.00  0.00     0.017 A 
ATOM     18  C   UNL A   1      36.651  22.880  25.879  1.00  0.00     0.001 A 
BRANCH  15  19
ATOM     19  S   UNL A   1      32.859  21.611  25.419  1.00  0.00    -0.053 SA
BRANCH  19  20
ATOM     20  C   UNL A   1      32.781  20.079  24.466  1.00  0.00     0.405 C 
ATOM     21  F   UNL A   1      34.028  19.533  24.396  1.00  0.00    -0.198 F 
ATOM     22  F   UNL A   1      31.993  19.137  25.034  1.00  0.00    -0.198 F 
ENDBRANCH  19  20
ENDBRANCH  15  19
ENDBRANCH  11  13
ENDBRANCH  10  11
ENDBRANCH   9  10
ENDBRANCH   8   9
ENDBRANCH   6   8
ENDBRANCH   5   6
ENDBRANCH   4   5
ENDBRANCH   3   4
ENDBRANCH   2   3
ENDBRANCH   1   2
BRANCH   1  23
ATOM     23  C   UNL A   1      32.695  30.466  26.995  1.00  0.00     0.188 C 
BRANCH  23  24
ATOM     24  O   UNL A   1      33.347  31.667  27.396  1.00  0.00    -0.377 OA
BRANCH  24  25
ATOM     25  C   UNL A   1      34.582  31.596  28.092  1.00  0.00     0.188 C 
BRANCH  25  26
ATOM     26  C   UNL A   1      35.373  32.893  28.281  1.00  0.00     0.188 C 
BRANCH  26  27
ATOM     27  O   UNL A   1      34.825  34.009  27.586  1.00  0.00    -0.376 OA
BRANCH  27  28
ATOM     28  C   UNL A   1      34.595  35.147  28.413  1.00  0.00     0.202 C 
BRANCH  28  29
ATOM     29  C   UNL A   1      33.163  35.267  28.963  1.00  0.00     0.261 C 
BRANCH  29  30
ATOM     30  O   UNL A   1      32.905  34.634  30.228  1.00  0.00    -0.460 OA
BRANCH  30  31
ATOM     31  C   UNL A   1      33.055  35.392  31.340  1.00  0.00     0.338 C 
ATOM     32  O   UNL A   1      32.324  36.291  31.694  1.00  0.00    -0.246 OA
BRANCH  31  33
ATOM     33  C   UNL A   1      34.163  34.831  32.164  1.00  0.00     0.060 A 
ATOM     34  C   UNL A   1      35.449  35.360  31.992  1.00  0.00     0.016 A 
ATOM     35  C   UNL A   1      33.954  33.797  33.081  1.00  0.00     0.016 A 
ATOM     36  C   UNL A   1      36.524  34.856  32.732  1.00  0.00     0.010 A 
ATOM     37  C   UNL A   1      35.041  33.267  33.795  1.00  0.00     0.010 A 
ATOM     38  C   UNL A   1      36.339  33.778  33.608  1.00  0.00    -0.014 A 
BRANCH  38  39
ATOM     39  C   UNL A   1      37.535  33.067  34.138  1.00  0.00     0.031 A 
ATOM     40  C   UNL A   1      38.074  31.900  33.348  1.00  0.00     0.074 A 
ATOM     41  C   UNL A   1      38.182  33.477  35.247  1.00  0.00     0.049 A 
ATOM     42  N   UNL A   1      39.123  31.153  33.571  1.00  0.00    -0.248 NA
ATOM     43  C   UNL A   1      37.320  31.536  32.137  1.00  0.00     0.031 C 
ATOM     44  C   UNL A   1      37.792  34.610  36.084  1.00  0.00     0.029 A 
ATOM     45  N   UNL A   1      39.311  32.983  35.859  1.00  0.00    -0.354 N 
ATOM     46  C   UNL A   1      39.172  30.246  32.518  1.00  0.00     0.074 A 
ATOM     47  C   UNL A   1      38.015  30.504  31.687  1.00  0.00     0.031 C 
ATOM     48  C   UNL A   1      38.664  34.718  37.105  1.00  0.00     0.029 A 
ATOM     49  C   UNL A   1      39.660  33.650  37.011  1.00  0.00     0.049 A 
ATOM     50  H   UNL A   1      39.824  32.221  35.504  1.00  0.00     0.167 HD
ATOM     51  C   UNL A   1      40.104  29.297  32.251  1.00  0.00     0.034 A 
ATOM     52  C   UNL A   1      40.656  33.418  37.894  1.00  0.00     0.034 A 
ATOM     53  C   UNL A   1      41.235  29.016  33.100  1.00  0.00     0.049 A 
ATOM     54  C   UNL A   1      41.628  32.285  37.627  1.00  0.00     0.074 A 
ATOM     55  C   UNL A   1      42.225  28.063  32.931  1.00  0.00     0.029 A 
ATOM     56  N   UNL A   1      41.524  29.678  34.286  1.00  0.00    -0.354 N 
ATOM     57  N   UNL A   1      41.672  31.449  36.614  1.00  0.00    -0.248 NA
ATOM     58  C   UNL A   1      42.695  32.081  38.616  1.00  0.00     0.031 C 
ATOM     59  C   UNL A   1      43.067  28.099  34.047  1.00  0.00     0.029 A 
ATOM     60  C   UNL A   1      42.658  29.135  34.872  1.00  0.00     0.049 A 
ATOM     61  H   UNL A   1      41.001  30.425  34.657  1.00  0.00     0.167 HD
ATOM     62  C   UNL A   1      42.788  30.642  36.835  1.00  0.00     0.074 A 
ATOM     63  C   UNL A   1      43.405  31.114  38.056  1.00  0.00     0.031 C 
ATOM     64  C   UNL A   1      43.259  29.601  36.099  1.00  0.00     0.034 A 
BRANCH  51  65
ATOM     65  C   UNL A   1      39.906  28.466  31.007  1.00  0.00     0.023 A 
ATOM     66  C   UNL A   1      40.577  28.766  29.808  1.00  0.00     0.031 A 
ATOM     67  C   UNL A   1      39.023  27.372  31.012  1.00  0.00     0.131 A 
ATOM     68  C   UNL A   1      40.311  28.020  28.651  1.00  0.00     0.055 A 
ATOM     69  C   UNL A   1      38.820  26.585  29.877  1.00  0.00     0.041 A 
ATOM     70  F   UNL A   1      38.335  27.054  32.120  1.00  0.00    -0.206 F 
ATOM     71  C   UNL A   1      39.458  26.915  28.684  1.00  0.00     0.022 A 
BRANCH  68  72
ATOM     72  S   UNL A   1      41.000  28.589  27.073  1.00  0.00     0.124 S 
ATOM     73  O   UNL A   1      39.860  29.292  26.490  1.00  0.00    -0.237 OA
ATOM     74  O   UNL A   1      42.117  29.424  27.497  1.00  0.00    -0.237 OA
ATOM     75  O   UNL A   1      41.370  27.349  26.393  1.00  0.00    -0.744 OA
ENDBRANCH  68  72
ENDBRANCH  51  65
BRANCH  52  76
ATOM     76  C   UNL A   1      40.779  34.226  39.147  1.00  0.00     0.023 A 
ATOM     77  C   UNL A   1      39.994  33.953  40.281  1.00  0.00     0.031 A 
ATOM     78  C   UNL A   1      41.616  35.356  39.188  1.00  0.00     0.131 A 
ATOM     79  C   UNL A   1      40.015  34.833  41.378  1.00  0.00     0.055 A 
ATOM     80  C   UNL A   1      41.679  36.191  40.306  1.00  0.00     0.041 A 
ATOM     81  F   UNL A   1      42.383  35.673  38.132  1.00  0.00    -0.206 F 
ATOM     82  C   UNL A   1      40.862  35.942  41.402  1.00  0.00     0.022 A 
BRANCH  79  83
ATOM     83  S   UNL A   1      38.831  34.571  42.729  1.00  0.00     0.124 S 
ATOM     84  O   UNL A   1      38.657  33.123  42.697  1.00  0.00    -0.237 OA
ATOM     85  O   UNL A   1      39.559  35.105  43.875  1.00  0.00    -0.237 OA
ATOM     86  O   UNL A   1      37.666  35.350  42.316  1.00  0.00    -0.744 OA
ENDBRANCH  79  83
ENDBRANCH  52  76
BRANCH  64  87
ATOM     87  C   UNL A   1      44.529  28.935  36.583  1.00  0.00     0.023 A 
ATOM     88  C   UNL A   1      44.515  27.971  37.607  1.00  0.00     0.031 A 
ATOM     89  C   UNL A   1      45.775  29.295  36.037  1.00  0.00     0.131 A 
ATOM     90  C   UNL A   1      45.724  27.464  38.110  1.00  0.00     0.055 A 
ATOM     91  C   UNL A   1      46.969  28.730  36.490  1.00  0.00     0.041 A 
ATOM     92  F   UNL A   1      45.855  30.209  35.058  1.00  0.00    -0.206 F 
ATOM     93  C   UNL A   1      46.950  27.824  37.546  1.00  0.00     0.022 A 
BRANCH  90  94
ATOM     94  S   UNL A   1      45.679  26.431  39.600  1.00  0.00     0.124 S 
ATOM     95  O   UNL A   1      46.209  25.163  39.107  1.00  0.00    -0.237 OA
ATOM     96  O   UNL A   1      46.542  27.168  40.517  1.00  0.00    -0.237 OA
ATOM     97  O   UNL A   1      44.263  26.412  39.962  1.00  0.00    -0.744 OA
ENDBRANCH  90  94
ENDBRANCH  64  87
ENDBRANCH  38  39
ENDBRANCH  31  33
ENDBRANCH  30  31
ENDBRANCH  29  30
ENDBRANCH  28  29
ENDBRANCH  27  28
ENDBRANCH  26  27
ENDBRANCH  25  26
ENDBRANCH  24  25
ENDBRANCH  23  24
ENDBRANCH   1  23
TORSDOF 29
ENDMDL
MODEL 3
REMARK VINA RESULT:      -8.8      5.674      9.693
REMARK SMILES O=C(CCCNc1ccccc1SC(F)F)OCCOCCOCCOCCOC(=O)c1ccc(-c2c3nc(c(-c4cc(S(=O)(=O)[O-])ccc4F)c4ccc([nH]4)c(-c4cc(S(=O)(=O)[O-])ccc4F)c4nc(c(-c5cc(S(=O)(=O)[O-])ccc5F)c5ccc2[nH]5)C=C4)C=C3)cc1
REMARK SMILES IDX 21 1 20 2 19 3 18 4 17 5 2 6 1 7 3 8 4 9 5 10 6 11 7 13 8 14
REMARK SMILES IDX 12 15 9 16 11 17 10 18 13 19 14 20 15 21 16 22 22 23 23 24
REMARK SMILES IDX 24 25 25 26 26 27 27 28 28 29 29 30 30 31 31 32 32 33 33 34
REMARK SMILES IDX 94 35 34 36 93 37 35 38 36 39 37 40 87 41 38 42 92 43 86 44
REMARK SMILES IDX 88 45 39 46 91 47 85 48 84 49 40 51 72 52 52 53 71 54 53 55
REMARK SMILES IDX 56 56 70 57 89 58 54 59 55 60 69 62 90 63 57 64 41 65 42 66
REMARK SMILES IDX 50 67 43 68 49 69 51 70 48 71 44 72 45 73 46 74 47 75 73 76
REMARK SMILES IDX 74 77 82 78 75 79 81 80 83 81 80 82 76 83 77 84 78 85 79 86
REMARK SMILES IDX 58 87 59 88 67 89 60 90 66 91 68 92 65 93 61 94 62 95 63 96
REMARK SMILES IDX 64 97
REMARK H PARENT 6 12 88 50 56 61
REMARK Flexibility Score: inf
ROOT
ATOM      1  C   UNL A   1      31.959  30.458  26.217  1.00  0.00     0.188 C 
ENDROOT
BRANCH   1   2
ATOM      2  O   UNL A   1      31.640  29.203  25.616  1.00  0.00    -0.376 OA
BRANCH   2   3
ATOM      3  C   UNL A   1      30.771  29.266  24.493  1.00  0.00     0.202 C 
BRANCH   3   4
ATOM      4  C   UNL A   1      31.115  28.269  23.398  1.00  0.00     0.261 C 
BRANCH   4   5
ATOM      5  O   UNL A   1      32.324  28.585  22.696  1.00  0.00    -0.463 OA
BRANCH   5   6
ATOM      6  C   UNL A   1      33.326  27.670  22.688  1.00  0.00     0.305 C 
ATOM      7  O   UNL A   1      33.938  27.425  21.651  1.00  0.00    -0.252 OA
BRANCH   6   8
ATOM      8  C   UNL A   1      33.508  26.806  23.922  1.00  0.00     0.124 C 
BRANCH   8   9
ATOM      9  C   UNL A   1      33.345  25.303  23.735  1.00  0.00     0.033 C 
BRANCH   9  10
ATOM     10  C   UNL A   1      34.486  24.542  23.056  1.00  0.00     0.113 C 
BRANCH  10  11
ATOM     11  N   UNL A   1      34.236  23.123  22.918  1.00  0.00    -0.384 N 
ATOM     12  H   UNL A   1      34.328  22.743  22.014  1.00  0.00     0.160 HD
BRANCH  11  13
ATOM     13  C   UNL A   1      33.877  22.238  23.937  1.00  0.00     0.048 A 
ATOM     14  C   UNL A   1      32.773  21.401  23.641  1.00  0.00     0.027 A 
ATOM     15  C   UNL A   1      34.535  22.011  25.171  1.00  0.00     0.036 A 
ATOM     16  C   UNL A   1      32.319  20.408  24.516  1.00  0.00     0.002 A 
ATOM     17  C   UNL A   1      34.048  21.022  26.057  1.00  0.00     0.017 A 
ATOM     18  C   UNL A   1      32.951  20.226  25.734  1.00  0.00     0.001 A 
BRANCH  15  19
ATOM     19  S   UNL A   1      36.036  22.813  25.753  1.00  0.00    -0.053 SA
BRANCH  19  20
ATOM     20  C   UNL A   1      37.302  21.627  25.253  1.00  0.00     0.405 C 
ATOM     21  F   UNL A   1      37.252  21.463  23.901  1.00  0.00    -0.198 F 
ATOM     22  F   UNL A   1      38.561  22.042  25.531  1.00  0.00    -0.198 F 
ENDBRANCH  19  20
ENDBRANCH  15  19
ENDBRANCH  11  13
ENDBRANCH  10  11
ENDBRANCH   9  10
ENDBRANCH   8   9
ENDBRANCH   6   8
ENDBRANCH   5   6
ENDBRANCH   4   5
ENDBRANCH   3   4
ENDBRANCH   2   3
ENDBRANCH   1   2
BRANCH   1  23
ATOM     23  C   UNL A   1      33.229  30.504  27.070  1.00  0.00     0.188 C 
BRANCH  23  24
ATOM     24  O   UNL A   1      33.647  31.732  27.659  1.00  0.00    -0.377 OA
BRANCH  24  25
ATOM     25  C   UNL A   1      34.992  31.884  28.084  1.00  0.00     0.188 C 
BRANCH  25  26
ATOM     26  C   UNL A   1      35.580  33.298  28.106  1.00  0.00     0.188 C 
BRANCH  26  27
ATOM     27  O   UNL A   1      34.744  34.280  27.502  1.00  0.00    -0.376 OA
BRANCH  27  28
ATOM     28  C   UNL A   1      34.502  35.417  28.326  1.00  0.00     0.202 C 
BRANCH  28  29
ATOM     29  C   UNL A   1      33.140  35.418  29.042  1.00  0.00     0.261 C 
BRANCH  29  30
ATOM     30  O   UNL A   1      33.049  34.646  30.252  1.00  0.00    -0.460 OA
BRANCH  30  31
ATOM     31  C   UNL A   1      33.121  35.322  31.423  1.00  0.00     0.338 C 
ATOM     32  O   UNL A   1      32.326  36.146  31.820  1.00  0.00    -0.246 OA
BRANCH  31  33
ATOM     33  C   UNL A   1      34.237  34.766  32.237  1.00  0.00     0.060 A 
ATOM     34  C   UNL A   1      35.529  35.261  32.017  1.00  0.00     0.016 A 
ATOM     35  C   UNL A   1      34.031  33.766  33.193  1.00  0.00     0.016 A 
ATOM     36  C   UNL A   1      36.612  34.759  32.746  1.00  0.00     0.010 A 
ATOM     37  C   UNL A   1      35.125  33.236  33.897  1.00  0.00     0.010 A 
ATOM     38  C   UNL A   1      36.427  33.714  33.662  1.00  0.00    -0.014 A 
BRANCH  38  39
ATOM     39  C   UNL A   1      37.622  32.996  34.186  1.00  0.00     0.031 A 
ATOM     40  C   UNL A   1      38.154  31.831  33.388  1.00  0.00     0.074 A 
ATOM     41  C   UNL A   1      38.273  33.398  35.295  1.00  0.00     0.049 A 
ATOM     42  N   UNL A   1      39.201  31.078  33.605  1.00  0.00    -0.248 NA
ATOM     43  C   UNL A   1      37.396  31.476  32.177  1.00  0.00     0.031 C 
ATOM     44  C   UNL A   1      37.890  34.528  36.138  1.00  0.00     0.029 A 
ATOM     45  N   UNL A   1      39.402  32.896  35.901  1.00  0.00    -0.354 N 
ATOM     46  C   UNL A   1      39.244  30.177  32.547  1.00  0.00     0.074 A 
ATOM     47  C   UNL A   1      38.086  30.443  31.721  1.00  0.00     0.031 C 
ATOM     48  C   UNL A   1      38.765  34.628  37.158  1.00  0.00     0.029 A 
ATOM     49  C   UNL A   1      39.756  33.557  37.056  1.00  0.00     0.049 A 
ATOM     50  H   UNL A   1      39.911  32.134  35.541  1.00  0.00     0.167 HD
ATOM     51  C   UNL A   1      40.172  29.225  32.274  1.00  0.00     0.034 A 
ATOM     52  C   UNL A   1      40.754  33.316  37.935  1.00  0.00     0.034 A 
ATOM     53  C   UNL A   1      41.304  28.936  33.119  1.00  0.00     0.049 A 
ATOM     54  C   UNL A   1      41.720  32.182  37.661  1.00  0.00     0.074 A 
ATOM     55  C   UNL A   1      42.289  27.979  32.943  1.00  0.00     0.029 A 
ATOM     56  N   UNL A   1      41.598  29.591  34.307  1.00  0.00    -0.354 N 
ATOM     57  N   UNL A   1      41.758  31.350  36.644  1.00  0.00    -0.248 NA
ATOM     58  C   UNL A   1      42.789  31.968  38.646  1.00  0.00     0.031 C 
ATOM     59  C   UNL A   1      43.135  28.007  34.057  1.00  0.00     0.029 A 
ATOM     60  C   UNL A   1      42.732  29.040  34.888  1.00  0.00     0.049 A 
ATOM     61  H   UNL A   1      41.079  30.338  34.683  1.00  0.00     0.167 HD
ATOM     62  C   UNL A   1      42.872  30.538  36.858  1.00  0.00     0.074 A 
ATOM     63  C   UNL A   1      43.494  31.001  38.080  1.00  0.00     0.031 C 
ATOM     64  C   UNL A   1      43.337  29.498  36.115  1.00  0.00     0.034 A 
BRANCH  51  65
ATOM     65  C   UNL A   1      39.968  28.401  31.026  1.00  0.00     0.023 A 
ATOM     66  C   UNL A   1      40.653  28.692  29.833  1.00  0.00     0.031 A 
ATOM     67  C   UNL A   1      39.064  27.324  31.022  1.00  0.00     0.131 A 
ATOM     68  C   UNL A   1      40.382  27.953  28.672  1.00  0.00     0.055 A 
ATOM     69  C   UNL A   1      38.855  26.543  29.883  1.00  0.00     0.041 A 
ATOM     70  F   UNL A   1      38.362  27.016  32.124  1.00  0.00    -0.206 F 
ATOM     71  C   UNL A   1      39.508  26.864  28.696  1.00  0.00     0.022 A 
BRANCH  68  72
ATOM     72  S   UNL A   1      41.093  28.513  27.101  1.00  0.00     0.124 S 
ATOM     73  O   UNL A   1      42.163  29.396  27.558  1.00  0.00    -0.237 OA
ATOM     74  O   UNL A   1      41.517  27.263  26.482  1.00  0.00    -0.237 OA
ATOM     75  O   UNL A   1      39.978  29.190  26.441  1.00  0.00    -0.744 OA
ENDBRANCH  68  72
ENDBRANCH  51  65
BRANCH  52  76
ATOM     76  C   UNL A   1      40.882  34.118  39.192  1.00  0.00     0.023 A 
ATOM     77  C   UNL A   1      41.616  35.315  39.233  1.00  0.00     0.031 A 
ATOM     78  C   UNL A   1      40.353  33.633  40.403  1.00  0.00     0.131 A 
ATOM     79  C   UNL A   1      41.855  35.952  40.464  1.00  0.00     0.055 A 
ATOM     80  C   UNL A   1      40.541  34.304  41.614  1.00  0.00     0.041 A 
ATOM     81  F   UNL A   1      39.651  32.490  40.429  1.00  0.00    -0.206 F 
ATOM     82  C   UNL A   1      41.311  35.461  41.652  1.00  0.00     0.022 A 
BRANCH  79  83
ATOM     83  S   UNL A   1      42.987  37.371  40.508  1.00  0.00     0.124 S 
ATOM     84  O   UNL A   1      42.848  37.905  39.158  1.00  0.00    -0.237 OA
ATOM     85  O   UNL A   1      42.416  38.178  41.580  1.00  0.00    -0.237 OA
ATOM     86  O   UNL A   1      44.281  36.765  40.810  1.00  0.00    -0.744 OA
ENDBRANCH  79  83
ENDBRANCH  52  76
BRANCH  64  87
ATOM     87  C   UNL A   1      44.606  28.825  36.593  1.00  0.00     0.023 A 
ATOM     88  C   UNL A   1      44.581  27.790  37.545  1.00  0.00     0.031 A 
ATOM     89  C   UNL A   1      45.860  29.248  36.117  1.00  0.00     0.131 A 
ATOM     90  C   UNL A   1      45.783  27.272  38.051  1.00  0.00     0.055 A 
ATOM     91  C   UNL A   1      47.051  28.676  36.568  1.00  0.00     0.041 A 
ATOM     92  F   UNL A   1      45.951  30.232  35.208  1.00  0.00    -0.206 F 
ATOM     93  C   UNL A   1      47.019  27.696  37.555  1.00  0.00     0.022 A 
BRANCH  90  94
ATOM     94  S   UNL A   1      45.714  26.134  39.462  1.00  0.00     0.124 S 
ATOM     95  O   UNL A   1      45.815  24.833  38.808  1.00  0.00    -0.237 OA
ATOM     96  O   UNL A   1      46.873  26.543  40.249  1.00  0.00    -0.237 OA
ATOM     97  O   UNL A   1      44.417  26.423  40.072  1.00  0.00    -0.744 OA
ENDBRANCH  90  94
ENDBRANCH  64  87
ENDBRANCH  38  39
ENDBRANCH  31  33
ENDBRANCH  30  31
ENDBRANCH  29  30
ENDBRANCH  28  29
ENDBRANCH  27  28
ENDBRANCH  26  27
ENDBRANCH  25  26
ENDBRANCH  24  25
ENDBRANCH  23  24
ENDBRANCH   1  23
TORSDOF 29
ENDMDL
