MODEL 1
REMARK VINA RESULT:     -10.3      0.000      0.000
REMARK SMILES O=C(OCCOCCOCCOCCOC(=O)[C@]1(NC(=O)C2CCN(C(=O)C3CC3)CC2)CCCc2ccccc21)c1ccc(-c2c3nc(c(-c4cc(S(=O)(=O)[O-])ccc4F)c4ccc([nH]4)c(-c4cc(S(=O)(=O)[O-])ccc4F)c4nc(c(-c5cc(S(=O)(=O)[O-])ccc5F)c5ccc2[nH]5)C=C4)C=C3)cc1
REMARK SMILES IDX 9 1 8 2 7 3 6 4 5 5 4 6 3 7 2 8 1 9 42 10 43 11 104 12 44 13
REMARK SMILES IDX 103 14 45 15 46 16 47 17 97 18 48 19 102 20 96 21 98 22
REMARK SMILES IDX 49 23 101 24 95 25 94 26 50 28 82 29 62 30 81 31 63 32 66 33
REMARK SMILES IDX 80 34 99 35 64 36 65 37 79 39 100 40 67 41 51 42 52 43 60 44
REMARK SMILES IDX 53 45 59 46 61 47 58 48 54 49 55 50 56 51 57 52 83 53 84 54
REMARK SMILES IDX 92 55 85 56 91 57 93 58 90 59 86 60 87 61 88 62 89 63 68 64
REMARK SMILES IDX 69 65 77 66 70 67 76 68 78 69 75 70 71 71 72 72 73 73 74 74
REMARK SMILES IDX 10 75 11 76 12 77 13 78 14 79 15 80 16 81 17 82 18 83 33 84
REMARK SMILES IDX 41 85 34 86 36 87 40 88 35 89 37 90 39 91 38 92 19 93 20 94
REMARK SMILES IDX 21 96 22 97 23 98 32 99 24 100 31 101 25 102 26 103 27 104
REMARK SMILES IDX 28 105 29 106 30 107
REMARK H PARENT 98 27 66 38 19 95
REMARK Flexibility Score: inf
ROOT
ATOM      1  O   UNL A   1      40.022  20.444  26.045  1.00  0.00    -0.377 OA
ENDROOT
BRANCH   1   2
ATOM      2  C   UNL A   1      41.218  20.492  26.792  1.00  0.00     0.188 C 
BRANCH   2   3
ATOM      3  C   UNL A   1      42.082  21.711  26.541  1.00  0.00     0.188 C 
BRANCH   3   4
ATOM      4  O   UNL A   1      42.442  21.831  25.169  1.00  0.00    -0.376 OA
BRANCH   4   5
ATOM      5  C   UNL A   1      43.271  22.940  24.815  1.00  0.00     0.202 C 
BRANCH   5   6
ATOM      6  C   UNL A   1      44.538  22.660  23.994  1.00  0.00     0.261 C 
BRANCH   6   7
ATOM      7  O   UNL A   1      45.652  23.540  24.219  1.00  0.00    -0.460 OA
BRANCH   7   8
ATOM      8  C   UNL A   1      46.180  24.009  25.378  1.00  0.00     0.338 C 
ATOM      9  O   UNL A   1      46.820  23.241  26.095  1.00  0.00    -0.246 OA
BRANCH   8  10
ATOM     10  C   UNL A   1      45.858  25.361  25.934  1.00  0.00     0.060 A 
ATOM     11  C   UNL A   1      45.415  26.433  25.168  1.00  0.00     0.016 A 
ATOM     12  C   UNL A   1      45.903  25.528  27.335  1.00  0.00     0.016 A 
ATOM     13  C   UNL A   1      44.874  27.557  25.744  1.00  0.00     0.010 A 
ATOM     14  C   UNL A   1      45.494  26.726  27.930  1.00  0.00     0.010 A 
ATOM     15  C   UNL A   1      44.974  27.734  27.117  1.00  0.00    -0.014 A 
BRANCH  15  16
ATOM     16  C   UNL A   1      44.852  29.140  27.511  1.00  0.00     0.031 A 
ATOM     17  C   UNL A   1      43.547  29.513  28.155  1.00  0.00     0.074 A 
ATOM     18  C   UNL A   1      45.973  29.873  27.632  1.00  0.00     0.049 A 
ATOM     19  N   UNL A   1      43.206  30.606  28.773  1.00  0.00    -0.248 NA
ATOM     20  C   UNL A   1      42.503  28.465  28.169  1.00  0.00     0.031 C 
ATOM     21  C   UNL A   1      47.315  29.419  27.247  1.00  0.00     0.029 A 
ATOM     22  N   UNL A   1      46.181  31.106  28.177  1.00  0.00    -0.354 N 
ATOM     23  C   UNL A   1      41.924  30.371  29.261  1.00  0.00     0.074 A 
ATOM     24  C   UNL A   1      41.543  29.037  28.872  1.00  0.00     0.031 C 
ATOM     25  C   UNL A   1      48.207  30.372  27.569  1.00  0.00     0.029 A 
ATOM     26  C   UNL A   1      47.492  31.519  28.117  1.00  0.00     0.049 A 
ATOM     27  H   UNL A   1      45.462  31.648  28.575  1.00  0.00     0.167 HD
ATOM     28  C   UNL A   1      41.138  31.217  29.963  1.00  0.00     0.034 A 
ATOM     29  C   UNL A   1      48.018  32.718  28.431  1.00  0.00     0.034 A 
ATOM     30  C   UNL A   1      41.555  32.563  30.243  1.00  0.00     0.049 A 
ATOM     31  C   UNL A   1      47.055  33.731  29.008  1.00  0.00     0.074 A 
ATOM     32  C   UNL A   1      40.826  33.623  30.739  1.00  0.00     0.029 A 
ATOM     33  N   UNL A   1      42.849  33.032  30.017  1.00  0.00    -0.354 N 
ATOM     34  N   UNL A   1      45.788  33.570  29.333  1.00  0.00    -0.248 NA
ATOM     35  C   UNL A   1      47.575  35.075  29.258  1.00  0.00     0.031 C 
ATOM     36  C   UNL A   1      41.661  34.747  30.746  1.00  0.00     0.029 A 
ATOM     37  C   UNL A   1      42.936  34.370  30.339  1.00  0.00     0.049 A 
ATOM     38  H   UNL A   1      43.594  32.486  29.676  1.00  0.00     0.167 HD
ATOM     39  C   UNL A   1      45.361  34.792  29.837  1.00  0.00     0.074 A 
ATOM     40  C   UNL A   1      46.524  35.663  29.808  1.00  0.00     0.031 C 
ATOM     41  C   UNL A   1      44.132  35.179  30.274  1.00  0.00     0.034 A 
BRANCH  28  42
ATOM     42  C   UNL A   1      39.749  30.732  30.292  1.00  0.00     0.023 A 
ATOM     43  C   UNL A   1      38.646  31.017  29.464  1.00  0.00     0.031 A 
ATOM     44  C   UNL A   1      39.499  30.113  31.529  1.00  0.00     0.131 A 
ATOM     45  C   UNL A   1      37.343  30.756  29.920  1.00  0.00     0.055 A 
ATOM     46  C   UNL A   1      38.205  29.786  31.942  1.00  0.00     0.041 A 
ATOM     47  F   UNL A   1      40.504  29.862  32.382  1.00  0.00    -0.206 F 
ATOM     48  C   UNL A   1      37.117  30.121  31.143  1.00  0.00     0.022 A 
BRANCH  45  49
ATOM     49  S   UNL A   1      35.936  31.404  28.969  1.00  0.00     0.124 S 
ATOM     50  O   UNL A   1      36.581  32.435  28.159  1.00  0.00    -0.237 OA
ATOM     51  O   UNL A   1      35.470  30.226  28.247  1.00  0.00    -0.237 OA
ATOM     52  O   UNL A   1      35.028  31.905  29.998  1.00  0.00    -0.744 OA
ENDBRANCH  45  49
ENDBRANCH  28  42
BRANCH  29  53
ATOM     53  C   UNL A   1      49.435  33.061  28.098  1.00  0.00     0.023 A 
ATOM     54  C   UNL A   1      49.834  33.430  26.804  1.00  0.00     0.031 A 
ATOM     55  C   UNL A   1      50.448  32.930  29.073  1.00  0.00     0.131 A 
ATOM     56  C   UNL A   1      51.200  33.598  26.507  1.00  0.00     0.055 A 
ATOM     57  C   UNL A   1      51.796  33.163  28.789  1.00  0.00     0.041 A 
ATOM     58  F   UNL A   1      50.144  32.561  30.328  1.00  0.00    -0.206 F 
ATOM     59  C   UNL A   1      52.180  33.481  27.494  1.00  0.00     0.022 A 
BRANCH  56  60
ATOM     60  S   UNL A   1      51.696  33.843  24.777  1.00  0.00     0.124 S 
ATOM     61  O   UNL A   1      50.740  34.850  24.334  1.00  0.00    -0.237 OA
ATOM     62  O   UNL A   1      53.078  34.287  24.919  1.00  0.00    -0.237 OA
ATOM     63  O   UNL A   1      51.526  32.518  24.183  1.00  0.00    -0.744 OA
ENDBRANCH  56  60
ENDBRANCH  29  53
BRANCH  41  64
ATOM     64  C   UNL A   1      44.027  36.591  30.775  1.00  0.00     0.023 A 
ATOM     65  C   UNL A   1      44.069  36.883  32.148  1.00  0.00     0.031 A 
ATOM     66  C   UNL A   1      43.870  37.651  29.868  1.00  0.00     0.131 A 
ATOM     67  C   UNL A   1      43.873  38.198  32.580  1.00  0.00     0.055 A 
ATOM     68  C   UNL A   1      43.759  38.971  30.301  1.00  0.00     0.041 A 
ATOM     69  F   UNL A   1      43.826  37.420  28.546  1.00  0.00    -0.206 F 
ATOM     70  C   UNL A   1      43.741  39.247  31.666  1.00  0.00     0.022 A 
BRANCH  67  71
ATOM     71  S   UNL A   1      43.660  38.495  34.354  1.00  0.00     0.124 S 
ATOM     72  O   UNL A   1      44.852  37.862  34.909  1.00  0.00    -0.237 OA
ATOM     73  O   UNL A   1      43.623  39.952  34.423  1.00  0.00    -0.237 OA
ATOM     74  O   UNL A   1      42.399  37.826  34.662  1.00  0.00    -0.744 OA
ENDBRANCH  67  71
ENDBRANCH  41  64
ENDBRANCH  15  16
ENDBRANCH   8  10
ENDBRANCH   7   8
ENDBRANCH   6   7
ENDBRANCH   5   6
ENDBRANCH   4   5
ENDBRANCH   3   4
ENDBRANCH   2   3
ENDBRANCH   1   2
BRANCH   1  75
ATOM     75  C   UNL A   1      39.165  21.576  26.010  1.00  0.00     0.188 C 
BRANCH  75  76
ATOM     76  C   UNL A   1      37.828  21.422  25.314  1.00  0.00     0.188 C 
BRANCH  76  77
ATOM     77  O   UNL A   1      36.891  22.430  25.700  1.00  0.00    -0.376 OA
BRANCH  77  78
ATOM     78  C   UNL A   1      36.886  23.586  24.873  1.00  0.00     0.202 C 
BRANCH  78  79
ATOM     79  C   UNL A   1      35.562  23.818  24.103  1.00  0.00     0.261 C 
BRANCH  79  80
ATOM     80  O   UNL A   1      34.806  25.021  24.420  1.00  0.00    -0.461 OA
BRANCH  80  81
ATOM     81  C   UNL A   1      33.789  25.262  23.553  1.00  0.00     0.336 C 
ATOM     82  O   UNL A   1      33.991  25.770  22.449  1.00  0.00    -0.249 OA
BRANCH  81  83
ATOM     83  C   UNL A   1      32.291  24.875  24.051  1.00  0.00     0.164 C 
ATOM     84  C   UNL A   1      31.316  24.794  22.826  1.00  0.00     0.046 C 
ATOM     85  C   UNL A   1      31.980  26.175  24.840  1.00  0.00    -0.008 A 
ATOM     86  C   UNL A   1      31.254  26.063  21.977  1.00  0.00     0.008 C 
ATOM     87  C   UNL A   1      31.424  27.307  24.224  1.00  0.00    -0.042 A 
ATOM     88  C   UNL A   1      32.477  26.257  26.161  1.00  0.00     0.007 A 
ATOM     89  C   UNL A   1      30.891  27.291  22.810  1.00  0.00     0.036 C 
ATOM     90  C   UNL A   1      31.384  28.501  24.955  1.00  0.00     0.004 A 
ATOM     91  C   UNL A   1      32.421  27.443  26.870  1.00  0.00     0.000 A 
ATOM     92  C   UNL A   1      31.885  28.569  26.260  1.00  0.00     0.000 A 
BRANCH  83  93
ATOM     93  N   UNL A   1      31.821  23.806  25.038  1.00  0.00    -0.336 N 
ATOM     94  C   UNL A   1      31.815  22.479  25.286  1.00  0.00     0.224 C 
ATOM     95  H   UNL A   1      31.340  24.256  25.769  1.00  0.00     0.164 HD
ATOM     96  O   UNL A   1      30.968  22.057  26.080  1.00  0.00    -0.275 OA
BRANCH  94  97
ATOM     97  C   UNL A   1      32.825  21.539  24.704  1.00  0.00     0.082 C 
ATOM     98  C   UNL A   1      32.392  21.172  23.280  1.00  0.00     0.035 C 
ATOM     99  C   UNL A   1      33.148  20.356  25.636  1.00  0.00     0.035 C 
ATOM    100  C   UNL A   1      32.017  19.720  22.975  1.00  0.00     0.120 C 
ATOM    101  C   UNL A   1      32.506  19.038  25.231  1.00  0.00     0.120 C 
ATOM    102  N   UNL A   1      32.729  18.778  23.822  1.00  0.00    -0.342 N 
ATOM    103  C   UNL A   1      33.321  17.668  23.232  1.00  0.00     0.225 C 
ATOM    104  O   UNL A   1      33.071  17.379  22.052  1.00  0.00    -0.275 OA
BRANCH 103 105
ATOM    105  C   UNL A   1      34.315  16.773  23.896  1.00  0.00     0.079 C 
ATOM    106  C   UNL A   1      35.119  16.912  25.155  1.00  0.00     0.014 C 
ATOM    107  C   UNL A   1      33.900  16.033  25.149  1.00  0.00     0.014 C 
ENDBRANCH 103 105
ENDBRANCH  94  97
ENDBRANCH  83  93
ENDBRANCH  81  83
ENDBRANCH  80  81
ENDBRANCH  79  80
ENDBRANCH  78  79
ENDBRANCH  77  78
ENDBRANCH  76  77
ENDBRANCH  75  76
ENDBRANCH   1  75
TORSDOF 26
ENDMDL
MODEL 2
REMARK VINA RESULT:      -9.7      2.027      7.451
REMARK SMILES O=C(OCCOCCOCCOCCOC(=O)[C@]1(NC(=O)C2CCN(C(=O)C3CC3)CC2)CCCc2ccccc21)c1ccc(-c2c3nc(c(-c4cc(S(=O)(=O)[O-])ccc4F)c4ccc([nH]4)c(-c4cc(S(=O)(=O)[O-])ccc4F)c4nc(c(-c5cc(S(=O)(=O)[O-])ccc5F)c5ccc2[nH]5)C=C4)C=C3)cc1
REMARK SMILES IDX 9 1 8 2 7 3 6 4 5 5 4 6 3 7 2 8 1 9 42 10 43 11 104 12 44 13
REMARK SMILES IDX 103 14 45 15 46 16 47 17 97 18 48 19 102 20 96 21 98 22
REMARK SMILES IDX 49 23 101 24 95 25 94 26 50 28 82 29 62 30 81 31 63 32 66 33
REMARK SMILES IDX 80 34 99 35 64 36 65 37 79 39 100 40 67 41 51 42 52 43 60 44
REMARK SMILES IDX 53 45 59 46 61 47 58 48 54 49 55 50 56 51 57 52 83 53 84 54
REMARK SMILES IDX 92 55 85 56 91 57 93 58 90 59 86 60 87 61 88 62 89 63 68 64
REMARK SMILES IDX 69 65 77 66 70 67 76 68 78 69 75 70 71 71 72 72 73 73 74 74
REMARK SMILES IDX 10 75 11 76 12 77 13 78 14 79 15 80 16 81 17 82 18 83 33 84
REMARK SMILES IDX 41 85 34 86 36 87 40 88 35 89 37 90 39 91 38 92 19 93 20 94
REMARK SMILES IDX 21 96 22 97 23 98 32 99 24 100 31 101 25 102 26 103 27 104
REMARK SMILES IDX 28 105 29 106 30 107
REMARK H PARENT 98 27 66 38 19 95
REMARK Flexibility Score: inf
ROOT
ATOM      1  O   UNL A   1      41.586  19.654  25.995  1.00  0.00    -0.377 OA
ENDROOT
BRANCH   1   2
ATOM      2  C   UNL A   1      42.544  20.627  26.346  1.00  0.00     0.188 C 
BRANCH   2   3
ATOM      3  C   UNL A   1      43.698  20.771  25.373  1.00  0.00     0.188 C 
BRANCH   3   4
ATOM      4  O   UNL A   1      43.519  21.883  24.502  1.00  0.00    -0.376 OA
BRANCH   4   5
ATOM      5  C   UNL A   1      43.827  23.174  25.033  1.00  0.00     0.202 C 
BRANCH   5   6
ATOM      6  C   UNL A   1      45.275  23.450  25.460  1.00  0.00     0.261 C 
BRANCH   6   7
ATOM      7  O   UNL A   1      46.079  24.208  24.540  1.00  0.00    -0.460 OA
BRANCH   7   8
ATOM      8  C   UNL A   1      46.902  25.265  24.759  1.00  0.00     0.338 C 
ATOM      9  O   UNL A   1      48.065  25.206  24.364  1.00  0.00    -0.246 OA
BRANCH   8  10
ATOM     10  C   UNL A   1      46.529  26.422  25.632  1.00  0.00     0.060 A 
ATOM     11  C   UNL A   1      45.775  27.509  25.205  1.00  0.00     0.016 A 
ATOM     12  C   UNL A   1      46.873  26.355  27.000  1.00  0.00     0.016 A 
ATOM     13  C   UNL A   1      45.228  28.402  26.095  1.00  0.00     0.010 A 
ATOM     14  C   UNL A   1      46.448  27.341  27.896  1.00  0.00     0.010 A 
ATOM     15  C   UNL A   1      45.617  28.360  27.428  1.00  0.00    -0.014 A 
BRANCH  15  16
ATOM     16  C   UNL A   1      45.392  29.633  28.117  1.00  0.00     0.031 A 
ATOM     17  C   UNL A   1      46.396  30.710  27.815  1.00  0.00     0.074 A 
ATOM     18  C   UNL A   1      44.174  29.879  28.629  1.00  0.00     0.049 A 
ATOM     19  N   UNL A   1      46.370  31.977  28.109  1.00  0.00    -0.248 NA
ATOM     20  C   UNL A   1      47.557  30.308  26.992  1.00  0.00     0.031 C 
ATOM     21  C   UNL A   1      43.079  28.903  28.693  1.00  0.00     0.029 A 
ATOM     22  N   UNL A   1      43.624  31.029  29.116  1.00  0.00    -0.354 N 
ATOM     23  C   UNL A   1      47.495  32.522  27.496  1.00  0.00     0.074 A 
ATOM     24  C   UNL A   1      48.184  31.457  26.814  1.00  0.00     0.031 C 
ATOM     25  C   UNL A   1      41.988  29.503  29.198  1.00  0.00     0.029 A 
ATOM     26  C   UNL A   1      42.327  30.877  29.549  1.00  0.00     0.049 A 
ATOM     27  H   UNL A   1      44.108  31.885  29.154  1.00  0.00     0.167 HD
ATOM     28  C   UNL A   1      47.910  33.808  27.523  1.00  0.00     0.034 A 
ATOM     29  C   UNL A   1      41.543  31.756  30.203  1.00  0.00     0.034 A 
ATOM     30  C   UNL A   1      47.214  34.801  28.294  1.00  0.00     0.049 A 
ATOM     31  C   UNL A   1      42.132  33.131  30.421  1.00  0.00     0.074 A 
ATOM     32  C   UNL A   1      47.595  36.085  28.621  1.00  0.00     0.029 A 
ATOM     33  N   UNL A   1      45.968  34.584  28.884  1.00  0.00    -0.354 N 
ATOM     34  N   UNL A   1      43.275  33.617  29.978  1.00  0.00    -0.248 NA
ATOM     35  C   UNL A   1      41.346  34.071  31.220  1.00  0.00     0.031 C 
ATOM     36  C   UNL A   1      46.614  36.617  29.465  1.00  0.00     0.029 A 
ATOM     37  C   UNL A   1      45.576  35.701  29.593  1.00  0.00     0.049 A 
ATOM     38  H   UNL A   1      45.445  33.755  28.805  1.00  0.00     0.167 HD
ATOM     39  C   UNL A   1      43.339  34.926  30.435  1.00  0.00     0.074 A 
ATOM     40  C   UNL A   1      42.098  35.160  31.155  1.00  0.00     0.031 C 
ATOM     41  C   UNL A   1      44.324  35.856  30.297  1.00  0.00     0.034 A 
BRANCH  28  42
ATOM     42  C   UNL A   1      49.221  34.108  26.841  1.00  0.00     0.023 A 
ATOM     43  C   UNL A   1      50.450  34.034  27.526  1.00  0.00     0.031 A 
ATOM     44  C   UNL A   1      49.227  34.627  25.535  1.00  0.00     0.131 A 
ATOM     45  C   UNL A   1      51.615  34.546  26.930  1.00  0.00     0.055 A 
ATOM     46  C   UNL A   1      50.403  35.063  24.920  1.00  0.00     0.041 A 
ATOM     47  F   UNL A   1      48.081  34.769  24.852  1.00  0.00    -0.206 F 
ATOM     48  C   UNL A   1      51.603  35.039  25.623  1.00  0.00     0.022 A 
BRANCH  45  49
ATOM     49  S   UNL A   1      53.115  34.713  27.941  1.00  0.00     0.124 S 
ATOM     50  O   UNL A   1      54.013  35.405  27.020  1.00  0.00    -0.237 OA
ATOM     51  O   UNL A   1      52.645  35.494  29.080  1.00  0.00    -0.237 OA
ATOM     52  O   UNL A   1      53.482  33.332  28.242  1.00  0.00    -0.744 OA
ENDBRANCH  45  49
ENDBRANCH  28  42
BRANCH  29  53
ATOM     53  C   UNL A   1      40.230  31.345  30.790  1.00  0.00     0.023 A 
ATOM     54  C   UNL A   1      39.014  31.539  30.118  1.00  0.00     0.031 A 
ATOM     55  C   UNL A   1      40.167  30.825  32.101  1.00  0.00     0.131 A 
ATOM     56  C   UNL A   1      37.795  31.274  30.771  1.00  0.00     0.055 A 
ATOM     57  C   UNL A   1      38.958  30.500  32.721  1.00  0.00     0.041 A 
ATOM     58  F   UNL A   1      41.289  30.631  32.813  1.00  0.00    -0.206 F 
ATOM     59  C   UNL A   1      37.761  30.743  32.062  1.00  0.00     0.022 A 
BRANCH  56  60
ATOM     60  S   UNL A   1      36.243  31.757  29.961  1.00  0.00     0.124 S 
ATOM     61  O   UNL A   1      36.637  32.982  29.273  1.00  0.00    -0.237 OA
ATOM     62  O   UNL A   1      35.972  30.603  29.113  1.00  0.00    -0.237 OA
ATOM     63  O   UNL A   1      35.318  31.941  31.078  1.00  0.00    -0.744 OA
ENDBRANCH  56  60
ENDBRANCH  29  53
BRANCH  41  64
ATOM     64  C   UNL A   1      44.052  37.198  30.915  1.00  0.00     0.023 A 
ATOM     65  C   UNL A   1      43.570  38.270  30.147  1.00  0.00     0.031 A 
ATOM     66  C   UNL A   1      44.292  37.406  32.283  1.00  0.00     0.131 A 
ATOM     67  C   UNL A   1      43.421  39.529  30.738  1.00  0.00     0.055 A 
ATOM     68  C   UNL A   1      44.060  38.641  32.884  1.00  0.00     0.041 A 
ATOM     69  F   UNL A   1      44.751  36.408  33.056  1.00  0.00    -0.206 F 
ATOM     70  C   UNL A   1      43.640  39.716  32.106  1.00  0.00     0.022 A 
BRANCH  67  71
ATOM     71  S   UNL A   1      43.063  40.943  29.664  1.00  0.00     0.124 S 
ATOM     72  O   UNL A   1      41.796  40.547  29.058  1.00  0.00    -0.237 OA
ATOM     73  O   UNL A   1      42.996  42.047  30.616  1.00  0.00    -0.237 OA
ATOM     74  O   UNL A   1      44.205  40.976  28.753  1.00  0.00    -0.744 OA
ENDBRANCH  67  71
ENDBRANCH  41  64
ENDBRANCH  15  16
ENDBRANCH   8  10
ENDBRANCH   7   8
ENDBRANCH   6   7
ENDBRANCH   5   6
ENDBRANCH   4   5
ENDBRANCH   3   4
ENDBRANCH   2   3
ENDBRANCH   1   2
BRANCH   1  75
ATOM     75  C   UNL A   1      40.205  19.916  26.200  1.00  0.00     0.188 C 
BRANCH  75  76
ATOM     76  C   UNL A   1      39.775  21.365  26.316  1.00  0.00     0.188 C 
BRANCH  76  77
ATOM     77  O   UNL A   1      38.682  21.682  25.450  1.00  0.00    -0.376 OA
BRANCH  77  78
ATOM     78  C   UNL A   1      37.960  22.853  25.808  1.00  0.00     0.202 C 
BRANCH  78  79
ATOM     79  C   UNL A   1      37.178  23.505  24.641  1.00  0.00     0.261 C 
BRANCH  79  80
ATOM     80  O   UNL A   1      35.886  24.101  24.953  1.00  0.00    -0.461 OA
BRANCH  80  81
ATOM     81  C   UNL A   1      35.008  24.052  23.918  1.00  0.00     0.336 C 
ATOM     82  O   UNL A   1      35.382  23.816  22.767  1.00  0.00    -0.249 OA
BRANCH  81  83
ATOM     83  C   UNL A   1      33.448  24.350  24.263  1.00  0.00     0.164 C 
ATOM     84  C   UNL A   1      32.518  23.651  23.212  1.00  0.00     0.046 C 
ATOM     85  C   UNL A   1      33.448  25.876  23.980  1.00  0.00    -0.008 A 
ATOM     86  C   UNL A   1      32.796  24.037  21.760  1.00  0.00     0.008 C 
ATOM     87  C   UNL A   1      33.208  26.398  22.699  1.00  0.00    -0.042 A 
ATOM     88  C   UNL A   1      33.913  26.719  25.014  1.00  0.00     0.007 A 
ATOM     89  C   UNL A   1      32.727  25.548  21.545  1.00  0.00     0.036 C 
ATOM     90  C   UNL A   1      33.446  27.762  22.489  1.00  0.00     0.004 A 
ATOM     91  C   UNL A   1      34.135  28.066  24.790  1.00  0.00     0.000 A 
ATOM     92  C   UNL A   1      33.912  28.584  23.521  1.00  0.00     0.000 A 
BRANCH  83  93
ATOM     93  N   UNL A   1      32.701  24.293  25.595  1.00  0.00    -0.336 N 
ATOM     94  C   UNL A   1      32.086  23.463  26.465  1.00  0.00     0.224 C 
ATOM     95  H   UNL A   1      32.645  25.207  25.954  1.00  0.00     0.164 HD
ATOM     96  O   UNL A   1      31.301  23.973  27.272  1.00  0.00    -0.275 OA
BRANCH  94  97
ATOM     97  C   UNL A   1      32.375  21.996  26.532  1.00  0.00     0.082 C 
ATOM     98  C   UNL A   1      33.885  21.798  26.713  1.00  0.00     0.035 C 
ATOM     99  C   UNL A   1      31.725  21.205  25.381  1.00  0.00     0.035 C 
ATOM    100  C   UNL A   1      34.676  21.111  25.599  1.00  0.00     0.120 C 
ATOM    101  C   UNL A   1      32.689  20.781  24.283  1.00  0.00     0.120 C 
ATOM    102  N   UNL A   1      33.868  20.160  24.855  1.00  0.00    -0.342 N 
ATOM    103  C   UNL A   1      34.391  18.899  24.597  1.00  0.00     0.225 C 
ATOM    104  O   UNL A   1      35.590  18.664  24.811  1.00  0.00    -0.275 OA
BRANCH 103 105
ATOM    105  C   UNL A   1      33.603  17.728  24.110  1.00  0.00     0.079 C 
ATOM    106  C   UNL A   1      32.795  17.498  22.868  1.00  0.00     0.014 C 
ATOM    107  C   UNL A   1      34.167  16.894  22.981  1.00  0.00     0.014 C 
ENDBRANCH 103 105
ENDBRANCH  94  97
ENDBRANCH  83  93
ENDBRANCH  81  83
ENDBRANCH  80  81
ENDBRANCH  79  80
ENDBRANCH  78  79
ENDBRANCH  77  78
ENDBRANCH  76  77
ENDBRANCH  75  76
ENDBRANCH   1  75
TORSDOF 26
ENDMDL
MODEL 3
REMARK VINA RESULT:      -9.6      4.442      6.721
REMARK SMILES O=C(OCCOCCOCCOCCOC(=O)[C@]1(NC(=O)C2CCN(C(=O)C3CC3)CC2)CCCc2ccccc21)c1ccc(-c2c3nc(c(-c4cc(S(=O)(=O)[O-])ccc4F)c4ccc([nH]4)c(-c4cc(S(=O)(=O)[O-])ccc4F)c4nc(c(-c5cc(S(=O)(=O)[O-])ccc5F)c5ccc2[nH]5)C=C4)C=C3)cc1
REMARK SMILES IDX 9 1 8 2 7 3 6 4 5 5 4 6 3 7 2 8 1 9 42 10 43 11 104 12 44 13
REMARK SMILES IDX 103 14 45 15 46 16 47 17 97 18 48 19 102 20 96 21 98 22
REMARK SMILES IDX 49 23 101 24 95 25 94 26 50 28 82 29 62 30 81 31 63 32 66 33
REMARK SMILES IDX 80 34 99 35 64 36 65 37 79 39 100 40 67 41 51 42 52 43 60 44
REMARK SMILES IDX 53 45 59 46 61 47 58 48 54 49 55 50 56 51 57 52 83 53 84 54
REMARK SMILES IDX 92 55 85 56 91 57 93 58 90 59 86 60 87 61 88 62 89 63 68 64
REMARK SMILES IDX 69 65 77 66 70 67 76 68 78 69 75 70 71 71 72 72 73 73 74 74
REMARK SMILES IDX 10 75 11 76 12 77 13 78 14 79 15 80 16 81 17 82 18 83 33 84
REMARK SMILES IDX 41 85 34 86 36 87 40 88 35 89 37 90 39 91 38 92 19 93 20 94
REMARK SMILES IDX 21 96 22 97 23 98 32 99 24 100 31 101 25 102 26 103 27 104
REMARK SMILES IDX 28 105 29 106 30 107
REMARK H PARENT 98 27 66 38 19 95
REMARK Flexibility Score: inf
ROOT
ATOM      1  O   UNL A   1      40.422  20.781  26.079  1.00  0.00    -0.377 OA
ENDROOT
BRANCH   1   2
ATOM      2  C   UNL A   1      41.797  21.022  26.285  1.00  0.00     0.188 C 
BRANCH   2   3
ATOM      3  C   UNL A   1      42.304  22.342  25.739  1.00  0.00     0.188 C 
BRANCH   3   4
ATOM      4  O   UNL A   1      43.366  22.156  24.808  1.00  0.00    -0.376 OA
BRANCH   4   5
ATOM      5  C   UNL A   1      44.244  23.266  24.603  1.00  0.00     0.202 C 
BRANCH   5   6
ATOM      6  C   UNL A   1      45.584  23.270  25.351  1.00  0.00     0.261 C 
BRANCH   6   7
ATOM      7  O   UNL A   1      46.588  24.173  24.857  1.00  0.00    -0.460 OA
BRANCH   7   8
ATOM      8  C   UNL A   1      46.640  25.530  24.887  1.00  0.00     0.338 C 
ATOM      9  O   UNL A   1      47.217  26.124  23.977  1.00  0.00    -0.246 OA
BRANCH   8  10
ATOM     10  C   UNL A   1      46.208  26.337  26.071  1.00  0.00     0.060 A 
ATOM     11  C   UNL A   1      47.085  26.934  26.969  1.00  0.00     0.016 A 
ATOM     12  C   UNL A   1      44.829  26.596  26.226  1.00  0.00     0.016 A 
ATOM     13  C   UNL A   1      46.660  27.882  27.870  1.00  0.00     0.010 A 
ATOM     14  C   UNL A   1      44.366  27.445  27.237  1.00  0.00     0.010 A 
ATOM     15  C   UNL A   1      45.299  28.088  28.050  1.00  0.00    -0.014 A 
BRANCH  15  16
ATOM     16  C   UNL A   1      44.993  28.695  29.349  1.00  0.00     0.031 A 
ATOM     17  C   UNL A   1      44.489  30.109  29.291  1.00  0.00     0.074 A 
ATOM     18  C   UNL A   1      44.812  27.887  30.408  1.00  0.00     0.049 A 
ATOM     19  N   UNL A   1      43.963  30.843  30.227  1.00  0.00    -0.248 NA
ATOM     20  C   UNL A   1      44.512  30.757  27.962  1.00  0.00     0.031 C 
ATOM     21  C   UNL A   1      45.050  26.438  30.407  1.00  0.00     0.029 A 
ATOM     22  N   UNL A   1      44.316  28.143  31.653  1.00  0.00    -0.354 N 
ATOM     23  C   UNL A   1      43.579  32.025  29.599  1.00  0.00     0.074 A 
ATOM     24  C   UNL A   1      43.929  31.916  28.205  1.00  0.00     0.031 C 
ATOM     25  C   UNL A   1      44.701  25.938  31.604  1.00  0.00     0.029 A 
ATOM     26  C   UNL A   1      44.280  27.034  32.468  1.00  0.00     0.049 A 
ATOM     27  H   UNL A   1      44.013  29.033  31.941  1.00  0.00     0.167 HD
ATOM     28  C   UNL A   1      42.995  33.108  30.159  1.00  0.00     0.034 A 
ATOM     29  C   UNL A   1      43.985  26.956  33.780  1.00  0.00     0.034 A 
ATOM     30  C   UNL A   1      42.751  33.176  31.573  1.00  0.00     0.049 A 
ATOM     31  C   UNL A   1      43.551  28.246  34.437  1.00  0.00     0.074 A 
ATOM     32  C   UNL A   1      42.379  34.253  32.349  1.00  0.00     0.029 A 
ATOM     33  N   UNL A   1      42.886  32.084  32.431  1.00  0.00    -0.354 N 
ATOM     34  N   UNL A   1      43.332  29.421  33.880  1.00  0.00    -0.248 NA
ATOM     35  C   UNL A   1      43.327  28.213  35.882  1.00  0.00     0.031 C 
ATOM     36  C   UNL A   1      42.357  33.829  33.683  1.00  0.00     0.029 A 
ATOM     37  C   UNL A   1      42.628  32.466  33.732  1.00  0.00     0.049 A 
ATOM     38  H   UNL A   1      43.129  31.173  32.150  1.00  0.00     0.167 HD
ATOM     39  C   UNL A   1      42.933  30.266  34.907  1.00  0.00     0.074 A 
ATOM     40  C   UNL A   1      42.904  29.449  36.108  1.00  0.00     0.031 C 
ATOM     41  C   UNL A   1      42.629  31.592  34.884  1.00  0.00     0.034 A 
BRANCH  28  42
ATOM     42  C   UNL A   1      42.767  34.293  29.256  1.00  0.00     0.023 A 
ATOM     43  C   UNL A   1      43.833  35.072  28.766  1.00  0.00     0.031 A 
ATOM     44  C   UNL A   1      41.458  34.744  29.011  1.00  0.00     0.131 A 
ATOM     45  C   UNL A   1      43.571  36.297  28.130  1.00  0.00     0.055 A 
ATOM     46  C   UNL A   1      41.203  35.924  28.309  1.00  0.00     0.041 A 
ATOM     47  F   UNL A   1      40.403  34.071  29.496  1.00  0.00    -0.206 F 
ATOM     48  C   UNL A   1      42.262  36.717  27.878  1.00  0.00     0.022 A 
BRANCH  45  49
ATOM     49  S   UNL A   1      44.958  37.417  27.780  1.00  0.00     0.124 S 
ATOM     50  O   UNL A   1      44.292  38.483  27.034  1.00  0.00    -0.237 OA
ATOM     51  O   UNL A   1      45.426  37.770  29.115  1.00  0.00    -0.237 OA
ATOM     52  O   UNL A   1      45.875  36.594  26.995  1.00  0.00    -0.744 OA
ENDBRANCH  45  49
ENDBRANCH  28  42
BRANCH  29  53
ATOM     53  C   UNL A   1      44.207  25.698  34.557  1.00  0.00     0.023 A 
ATOM     54  C   UNL A   1      45.489  25.262  34.929  1.00  0.00     0.031 A 
ATOM     55  C   UNL A   1      43.123  24.848  34.864  1.00  0.00     0.131 A 
ATOM     56  C   UNL A   1      45.660  23.999  35.528  1.00  0.00     0.055 A 
ATOM     57  C   UNL A   1      43.290  23.626  35.520  1.00  0.00     0.041 A 
ATOM     58  F   UNL A   1      41.870  25.190  34.522  1.00  0.00    -0.206 F 
ATOM     59  C   UNL A   1      44.568  23.187  35.838  1.00  0.00     0.022 A 
BRANCH  56  60
ATOM     60  S   UNL A   1      47.344  23.370  35.779  1.00  0.00     0.124 S 
ATOM     61  O   UNL A   1      48.147  24.562  35.533  1.00  0.00    -0.237 OA
ATOM     62  O   UNL A   1      47.291  22.905  37.160  1.00  0.00    -0.237 OA
ATOM     63  O   UNL A   1      47.468  22.317  34.772  1.00  0.00    -0.744 OA
ENDBRANCH  56  60
ENDBRANCH  29  53
BRANCH  41  64
ATOM     64  C   UNL A   1      42.214  32.196  36.196  1.00  0.00     0.023 A 
ATOM     65  C   UNL A   1      40.884  32.134  36.638  1.00  0.00     0.031 A 
ATOM     66  C   UNL A   1      43.161  32.849  37.001  1.00  0.00     0.131 A 
ATOM     67  C   UNL A   1      40.518  32.789  37.818  1.00  0.00     0.055 A 
ATOM     68  C   UNL A   1      42.806  33.428  38.218  1.00  0.00     0.041 A 
ATOM     69  F   UNL A   1      44.445  32.931  36.618  1.00  0.00    -0.206 F 
ATOM     70  C   UNL A   1      41.474  33.416  38.623  1.00  0.00     0.022 A 
BRANCH  67  71
ATOM     71  S   UNL A   1      38.756  32.922  38.215  1.00  0.00     0.124 S 
ATOM     72  O   UNL A   1      38.209  31.742  37.553  1.00  0.00    -0.237 OA
ATOM     73  O   UNL A   1      38.762  32.886  39.674  1.00  0.00    -0.237 OA
ATOM     74  O   UNL A   1      38.370  34.201  37.626  1.00  0.00    -0.744 OA
ENDBRANCH  67  71
ENDBRANCH  41  64
ENDBRANCH  15  16
ENDBRANCH   8  10
ENDBRANCH   7   8
ENDBRANCH   6   7
ENDBRANCH   5   6
ENDBRANCH   4   5
ENDBRANCH   3   4
ENDBRANCH   2   3
ENDBRANCH   1   2
BRANCH   1  75
ATOM     75  C   UNL A   1      39.468  21.761  26.462  1.00  0.00     0.188 C 
BRANCH  75  76
ATOM     76  C   UNL A   1      38.178  21.831  25.670  1.00  0.00     0.188 C 
BRANCH  76  77
ATOM     77  O   UNL A   1      37.421  23.008  25.960  1.00  0.00    -0.376 OA
BRANCH  77  78
ATOM     78  C   UNL A   1      36.890  23.671  24.820  1.00  0.00     0.202 C 
BRANCH  78  79
ATOM     79  C   UNL A   1      35.346  23.799  24.813  1.00  0.00     0.261 C 
BRANCH  79  80
ATOM     80  O   UNL A   1      34.787  25.133  24.651  1.00  0.00    -0.461 OA
BRANCH  80  81
ATOM     81  C   UNL A   1      33.852  25.208  23.669  1.00  0.00     0.336 C 
ATOM     82  O   UNL A   1      34.144  25.573  22.528  1.00  0.00    -0.249 OA
BRANCH  81  83
ATOM     83  C   UNL A   1      32.326  24.823  24.075  1.00  0.00     0.164 C 
ATOM     84  C   UNL A   1      31.435  24.708  22.791  1.00  0.00     0.046 C 
ATOM     85  C   UNL A   1      31.957  26.138  24.812  1.00  0.00    -0.008 A 
ATOM     86  C   UNL A   1      31.423  25.957  21.910  1.00  0.00     0.008 C 
ATOM     87  C   UNL A   1      31.437  27.252  24.135  1.00  0.00    -0.042 A 
ATOM     88  C   UNL A   1      32.365  26.254  26.161  1.00  0.00     0.007 A 
ATOM     89  C   UNL A   1      31.000  27.201  22.689  1.00  0.00     0.036 C 
ATOM     90  C   UNL A   1      31.343  28.462  24.834  1.00  0.00     0.004 A 
ATOM     91  C   UNL A   1      32.256  27.455  26.837  1.00  0.00     0.000 A 
ATOM     92  C   UNL A   1      31.756  28.564  26.167  1.00  0.00     0.000 A 
BRANCH  83  93
ATOM     93  N   UNL A   1      31.798  23.774  25.053  1.00  0.00    -0.336 N 
ATOM     94  C   UNL A   1      31.781  22.452  25.330  1.00  0.00     0.224 C 
ATOM     95  H   UNL A   1      31.268  24.237  25.741  1.00  0.00     0.164 HD
ATOM     96  O   UNL A   1      30.885  22.044  26.077  1.00  0.00    -0.275 OA
BRANCH  94  97
ATOM     97  C   UNL A   1      32.829  21.504  24.835  1.00  0.00     0.082 C 
ATOM     98  C   UNL A   1      32.504  21.123  23.386  1.00  0.00     0.035 C 
ATOM     99  C   UNL A   1      33.078  20.331  25.801  1.00  0.00     0.035 C 
ATOM    100  C   UNL A   1      32.150  19.670  23.068  1.00  0.00     0.120 C 
ATOM    101  C   UNL A   1      32.465  19.009  25.361  1.00  0.00     0.120 C 
ATOM    102  N   UNL A   1      32.794  18.735  23.976  1.00  0.00    -0.342 N 
ATOM    103  C   UNL A   1      33.426  17.618  23.443  1.00  0.00     0.225 C 
ATOM    104  O   UNL A   1      33.265  17.318  22.251  1.00  0.00    -0.275 OA
BRANCH 103 105
ATOM    105  C   UNL A   1      34.365  16.729  24.190  1.00  0.00     0.079 C 
ATOM    106  C   UNL A   1      34.659  16.567  25.652  1.00  0.00     0.014 C 
ATOM    107  C   UNL A   1      33.796  15.553  24.954  1.00  0.00     0.014 C 
ENDBRANCH 103 105
ENDBRANCH  94  97
ENDBRANCH  83  93
ENDBRANCH  81  83
ENDBRANCH  80  81
ENDBRANCH  79  80
ENDBRANCH  78  79
ENDBRANCH  77  78
ENDBRANCH  76  77
ENDBRANCH  75  76
ENDBRANCH   1  75
TORSDOF 26
ENDMDL
