MODEL 1
REMARK VINA RESULT:     -10.9      0.000      0.000
REMARK SMILES O=C(OCCOCCOCCOCCOC(=O)[C@H]1CC=CC[C@H]1C(=O)N[C@@H]1CCN(c2cccc(Cl)c2)C1)c1ccc(-c2c3nc(c(-c4cc(S(=O)(=O)[O-])ccc4F)c4ccc([nH]4)c(-c4cc(S(=O)(=O)[O-])ccc4F)c4nc(c(-c5cc(S(=O)(=O)[O-])ccc5F)c5ccc2[nH]5)C=C4)C=C3)cc1
REMARK SMILES IDX 9 1 8 2 7 3 6 4 5 5 4 6 3 7 2 8 1 9 39 10 40 11 101 12 41 13
REMARK SMILES IDX 100 14 42 15 43 16 44 17 94 18 45 19 99 20 93 21 95 22 46 23
REMARK SMILES IDX 98 24 92 25 91 26 47 28 79 29 59 30 78 31 60 32 63 33 77 34
REMARK SMILES IDX 96 35 61 36 62 37 76 39 97 40 64 41 48 42 49 43 57 44 50 45
REMARK SMILES IDX 56 46 58 47 55 48 51 49 52 50 53 51 54 52 80 53 81 54 89 55
REMARK SMILES IDX 82 56 88 57 90 58 87 59 83 60 84 61 85 62 86 63 65 64 66 65
REMARK SMILES IDX 74 66 67 67 73 68 75 69 72 70 68 71 69 72 70 73 71 74 10 75
REMARK SMILES IDX 11 76 12 77 13 78 14 79 15 80 16 81 17 82 18 83 19 84 23 85
REMARK SMILES IDX 20 86 22 87 21 88 24 89 25 90 26 91 27 93 28 94 38 95 29 96
REMARK SMILES IDX 30 97 31 98 32 99 37 100 33 101 35 102 34 103 36 104
REMARK H PARENT 95 27 63 38 26 92
REMARK Flexibility Score: inf
ROOT
ATOM      1  O   UNL A   1      35.301  22.323  25.717  1.00  0.00    -0.377 OA
ENDROOT
BRANCH   1   2
ATOM      2  C   UNL A   1      36.715  22.540  25.673  1.00  0.00     0.188 C 
BRANCH   2   3
ATOM      3  C   UNL A   1      37.463  21.654  24.680  1.00  0.00     0.188 C 
BRANCH   3   4
ATOM      4  O   UNL A   1      36.947  20.336  24.793  1.00  0.00    -0.376 OA
BRANCH   4   5
ATOM      5  C   UNL A   1      37.847  19.335  25.243  1.00  0.00     0.202 C 
BRANCH   5   6
ATOM      6  C   UNL A   1      39.295  19.810  25.250  1.00  0.00     0.261 C 
BRANCH   6   7
ATOM      7  O   UNL A   1      39.833  19.849  26.581  1.00  0.00    -0.460 OA
BRANCH   7   8
ATOM      8  C   UNL A   1      40.995  20.428  26.975  1.00  0.00     0.338 C 
ATOM      9  O   UNL A   1      41.995  19.717  27.076  1.00  0.00    -0.246 OA
BRANCH   8  10
ATOM     10  C   UNL A   1      41.159  21.890  27.248  1.00  0.00     0.060 A 
ATOM     11  C   UNL A   1      40.596  22.924  26.498  1.00  0.00     0.016 A 
ATOM     12  C   UNL A   1      41.843  22.236  28.425  1.00  0.00     0.016 A 
ATOM     13  C   UNL A   1      40.743  24.259  26.858  1.00  0.00     0.010 A 
ATOM     14  C   UNL A   1      41.989  23.574  28.805  1.00  0.00     0.010 A 
ATOM     15  C   UNL A   1      41.461  24.592  28.001  1.00  0.00    -0.014 A 
BRANCH  15  16
ATOM     16  C   UNL A   1      41.851  26.004  28.190  1.00  0.00     0.031 A 
ATOM     17  C   UNL A   1      43.177  26.423  27.631  1.00  0.00     0.074 A 
ATOM     18  C   UNL A   1      40.995  26.897  28.717  1.00  0.00     0.049 A 
ATOM     19  N   UNL A   1      43.816  27.554  27.745  1.00  0.00    -0.248 NA
ATOM     20  C   UNL A   1      43.879  25.412  26.821  1.00  0.00     0.031 C 
ATOM     21  C   UNL A   1      39.622  26.606  29.134  1.00  0.00     0.029 A 
ATOM     22  N   UNL A   1      41.145  28.235  28.966  1.00  0.00    -0.354 N 
ATOM     23  C   UNL A   1      45.010  27.379  27.055  1.00  0.00     0.074 A 
ATOM     24  C   UNL A   1      45.013  26.029  26.540  1.00  0.00     0.031 C 
ATOM     25  C   UNL A   1      39.052  27.739  29.578  1.00  0.00     0.029 A 
ATOM     26  C   UNL A   1      40.040  28.814  29.548  1.00  0.00     0.049 A 
ATOM     27  H   UNL A   1      41.964  28.736  28.751  1.00  0.00     0.167 HD
ATOM     28  C   UNL A   1      46.015  28.271  26.880  1.00  0.00     0.034 A 
ATOM     29  C   UNL A   1      39.877  30.060  30.035  1.00  0.00     0.034 A 
ATOM     30  C   UNL A   1      45.971  29.601  27.431  1.00  0.00     0.049 A 
ATOM     31  C   UNL A   1      41.056  31.001  29.948  1.00  0.00     0.074 A 
ATOM     32  C   UNL A   1      46.945  30.580  27.430  1.00  0.00     0.029 A 
ATOM     33  N   UNL A   1      44.868  30.135  28.096  1.00  0.00    -0.354 N 
ATOM     34  N   UNL A   1      42.234  30.800  29.400  1.00  0.00    -0.248 NA
ATOM     35  C   UNL A   1      40.893  32.325  30.558  1.00  0.00     0.031 C 
ATOM     36  C   UNL A   1      46.453  31.681  28.143  1.00  0.00     0.029 A 
ATOM     37  C   UNL A   1      45.146  31.419  28.528  1.00  0.00     0.049 A 
ATOM     38  H   UNL A   1      44.014  29.666  28.237  1.00  0.00     0.167 HD
ATOM     39  C   UNL A   1      42.950  31.978  29.587  1.00  0.00     0.074 A 
ATOM     40  C   UNL A   1      42.058  32.890  30.281  1.00  0.00     0.031 C 
ATOM     41  C   UNL A   1      44.224  32.286  29.228  1.00  0.00     0.034 A 
BRANCH  28  42
ATOM     42  C   UNL A   1      47.252  27.762  26.178  1.00  0.00     0.023 A 
ATOM     43  C   UNL A   1      47.511  28.053  24.825  1.00  0.00     0.031 A 
ATOM     44  C   UNL A   1      48.100  26.848  26.826  1.00  0.00     0.131 A 
ATOM     45  C   UNL A   1      48.516  27.351  24.139  1.00  0.00     0.055 A 
ATOM     46  C   UNL A   1      49.158  26.224  26.162  1.00  0.00     0.041 A 
ATOM     47  F   UNL A   1      47.886  26.504  28.105  1.00  0.00    -0.206 F 
ATOM     48  C   UNL A   1      49.357  26.456  24.803  1.00  0.00     0.022 A 
BRANCH  45  49
ATOM     49  S   UNL A   1      48.573  27.468  22.326  1.00  0.00     0.124 S 
ATOM     50  O   UNL A   1      49.863  28.118  22.113  1.00  0.00    -0.237 OA
ATOM     51  O   UNL A   1      48.485  26.074  21.916  1.00  0.00    -0.237 OA
ATOM     52  O   UNL A   1      47.411  28.289  21.999  1.00  0.00    -0.744 OA
ENDBRANCH  45  49
ENDBRANCH  28  42
BRANCH  29  53
ATOM     53  C   UNL A   1      38.607  30.459  30.714  1.00  0.00     0.023 A 
ATOM     54  C   UNL A   1      37.709  31.364  30.124  1.00  0.00     0.031 A 
ATOM     55  C   UNL A   1      38.285  29.961  31.992  1.00  0.00     0.131 A 
ATOM     56  C   UNL A   1      36.553  31.761  30.819  1.00  0.00     0.055 A 
ATOM     57  C   UNL A   1      37.110  30.319  32.656  1.00  0.00     0.041 A 
ATOM     58  F   UNL A   1      39.108  29.101  32.614  1.00  0.00    -0.206 F 
ATOM     59  C   UNL A   1      36.241  31.233  32.073  1.00  0.00     0.022 A 
BRANCH  56  60
ATOM     60  S   UNL A   1      35.490  33.040  30.092  1.00  0.00     0.124 S 
ATOM     61  O   UNL A   1      36.229  33.390  28.885  1.00  0.00    -0.237 OA
ATOM     62  O   UNL A   1      34.240  32.317  29.893  1.00  0.00    -0.237 OA
ATOM     63  O   UNL A   1      35.451  34.077  31.122  1.00  0.00    -0.744 OA
ENDBRANCH  56  60
ENDBRANCH  29  53
BRANCH  41  64
ATOM     64  C   UNL A   1      44.696  33.678  29.555  1.00  0.00     0.023 A 
ATOM     65  C   UNL A   1      44.414  34.767  28.712  1.00  0.00     0.031 A 
ATOM     66  C   UNL A   1      45.438  33.914  30.725  1.00  0.00     0.131 A 
ATOM     67  C   UNL A   1      44.916  36.036  29.028  1.00  0.00     0.055 A 
ATOM     68  C   UNL A   1      45.885  35.190  31.064  1.00  0.00     0.041 A 
ATOM     69  F   UNL A   1      45.731  32.905  31.562  1.00  0.00    -0.206 F 
ATOM     70  C   UNL A   1      45.635  36.258  30.206  1.00  0.00     0.022 A 
BRANCH  67  71
ATOM     71  S   UNL A   1      44.690  37.381  27.833  1.00  0.00     0.124 S 
ATOM     72  O   UNL A   1      44.244  38.476  28.688  1.00  0.00    -0.237 OA
ATOM     73  O   UNL A   1      46.027  37.521  27.265  1.00  0.00    -0.237 OA
ATOM     74  O   UNL A   1      43.679  36.859  26.916  1.00  0.00    -0.744 OA
ENDBRANCH  67  71
ENDBRANCH  41  64
ENDBRANCH  15  16
ENDBRANCH   8  10
ENDBRANCH   7   8
ENDBRANCH   6   7
ENDBRANCH   5   6
ENDBRANCH   4   5
ENDBRANCH   3   4
ENDBRANCH   2   3
ENDBRANCH   1   2
BRANCH   1  75
ATOM     75  C   UNL A   1      34.749  21.771  26.914  1.00  0.00     0.188 C 
BRANCH  75  76
ATOM     76  C   UNL A   1      33.908  22.641  27.869  1.00  0.00     0.188 C 
BRANCH  76  77
ATOM     77  O   UNL A   1      32.502  22.452  27.813  1.00  0.00    -0.376 OA
BRANCH  77  78
ATOM     78  C   UNL A   1      31.937  22.778  26.545  1.00  0.00     0.202 C 
BRANCH  78  79
ATOM     79  C   UNL A   1      30.646  23.578  26.674  1.00  0.00     0.261 C 
BRANCH  79  80
ATOM     80  O   UNL A   1      30.811  25.001  26.863  1.00  0.00    -0.463 OA
BRANCH  80  81
ATOM     81  C   UNL A   1      30.854  25.789  25.762  1.00  0.00     0.310 C 
ATOM     82  O   UNL A   1      30.474  25.440  24.666  1.00  0.00    -0.252 OA
BRANCH  81  83
ATOM     83  C   UNL A   1      31.484  27.161  26.035  1.00  0.00     0.115 C 
ATOM     84  C   UNL A   1      31.507  27.633  27.501  1.00  0.00     0.043 C 
ATOM     85  C   UNL A   1      32.805  27.327  25.259  1.00  0.00     0.096 C 
ATOM     86  C   UNL A   1      32.465  28.738  27.819  1.00  0.00    -0.030 C 
ATOM     87  C   UNL A   1      33.865  28.298  25.809  1.00  0.00     0.041 C 
ATOM     88  C   UNL A   1      33.516  29.043  27.056  1.00  0.00    -0.030 C 
BRANCH  85  89
ATOM     89  C   UNL A   1      33.501  26.092  24.696  1.00  0.00     0.224 C 
ATOM     90  O   UNL A   1      34.047  25.308  25.482  1.00  0.00    -0.275 OA
ATOM     91  N   UNL A   1      33.472  25.695  23.406  1.00  0.00    -0.351 N 
ATOM     92  H   UNL A   1      33.793  24.770  23.303  1.00  0.00     0.163 HD
BRANCH  91  93
ATOM     93  C   UNL A   1      33.087  26.282  22.119  1.00  0.00     0.103 C 
ATOM     94  C   UNL A   1      33.680  27.643  21.810  1.00  0.00     0.048 C 
ATOM     95  C   UNL A   1      31.573  26.601  22.074  1.00  0.00     0.141 C 
ATOM     96  C   UNL A   1      32.820  28.589  22.627  1.00  0.00     0.119 C 
ATOM     97  N   UNL A   1      31.495  27.989  22.537  1.00  0.00    -0.369 N 
BRANCH  97  98
ATOM     98  C   UNL A   1      30.317  28.685  22.431  1.00  0.00     0.038 A 
ATOM     99  C   UNL A   1      30.227  29.894  21.730  1.00  0.00     0.026 A 
ATOM    100  C   UNL A   1      29.143  28.181  23.007  1.00  0.00     0.046 A 
ATOM    101  C   UNL A   1      29.014  30.575  21.597  1.00  0.00     0.004 A 
ATOM    102  C   UNL A   1      27.934  28.865  22.891  1.00  0.00     0.043 A 
ATOM    103  C   UNL A   1      27.863  30.060  22.182  1.00  0.00     0.020 A 
ATOM    104  Cl  UNL A   1      26.517  28.228  23.632  1.00  0.00    -0.084 Cl
ENDBRANCH  97  98
ENDBRANCH  91  93
ENDBRANCH  85  89
ENDBRANCH  81  83
ENDBRANCH  80  81
ENDBRANCH  79  80
ENDBRANCH  78  79
ENDBRANCH  77  78
ENDBRANCH  76  77
ENDBRANCH  75  76
ENDBRANCH   1  75
TORSDOF 26
ENDMDL
MODEL 2
REMARK VINA RESULT:     -10.5      1.861      2.134
REMARK SMILES O=C(OCCOCCOCCOCCOC(=O)[C@H]1CC=CC[C@H]1C(=O)N[C@@H]1CCN(c2cccc(Cl)c2)C1)c1ccc(-c2c3nc(c(-c4cc(S(=O)(=O)[O-])ccc4F)c4ccc([nH]4)c(-c4cc(S(=O)(=O)[O-])ccc4F)c4nc(c(-c5cc(S(=O)(=O)[O-])ccc5F)c5ccc2[nH]5)C=C4)C=C3)cc1
REMARK SMILES IDX 9 1 8 2 7 3 6 4 5 5 4 6 3 7 2 8 1 9 39 10 40 11 101 12 41 13
REMARK SMILES IDX 100 14 42 15 43 16 44 17 94 18 45 19 99 20 93 21 95 22 46 23
REMARK SMILES IDX 98 24 92 25 91 26 47 28 79 29 59 30 78 31 60 32 63 33 77 34
REMARK SMILES IDX 96 35 61 36 62 37 76 39 97 40 64 41 48 42 49 43 57 44 50 45
REMARK SMILES IDX 56 46 58 47 55 48 51 49 52 50 53 51 54 52 80 53 81 54 89 55
REMARK SMILES IDX 82 56 88 57 90 58 87 59 83 60 84 61 85 62 86 63 65 64 66 65
REMARK SMILES IDX 74 66 67 67 73 68 75 69 72 70 68 71 69 72 70 73 71 74 10 75
REMARK SMILES IDX 11 76 12 77 13 78 14 79 15 80 16 81 17 82 18 83 19 84 23 85
REMARK SMILES IDX 20 86 22 87 21 88 24 89 25 90 26 91 27 93 28 94 38 95 29 96
REMARK SMILES IDX 30 97 31 98 32 99 37 100 33 101 35 102 34 103 36 104
REMARK H PARENT 95 27 63 38 26 92
REMARK Flexibility Score: inf
ROOT
ATOM      1  O   UNL A   1      35.045  22.538  25.483  1.00  0.00    -0.377 OA
ENDROOT
BRANCH   1   2
ATOM      2  C   UNL A   1      36.453  22.580  25.741  1.00  0.00     0.188 C 
BRANCH   2   3
ATOM      3  C   UNL A   1      37.290  21.679  24.836  1.00  0.00     0.188 C 
BRANCH   3   4
ATOM      4  O   UNL A   1      36.699  20.389  24.832  1.00  0.00    -0.376 OA
BRANCH   4   5
ATOM      5  C   UNL A   1      37.563  19.289  25.069  1.00  0.00     0.202 C 
BRANCH   5   6
ATOM      6  C   UNL A   1      39.036  19.676  25.000  1.00  0.00     0.261 C 
BRANCH   6   7
ATOM      7  O   UNL A   1      39.696  19.468  26.257  1.00  0.00    -0.460 OA
BRANCH   7   8
ATOM      8  C   UNL A   1      40.872  20.013  26.662  1.00  0.00     0.338 C 
ATOM      9  O   UNL A   1      41.853  19.276  26.761  1.00  0.00    -0.246 OA
BRANCH   8  10
ATOM     10  C   UNL A   1      41.073  21.468  26.948  1.00  0.00     0.060 A 
ATOM     11  C   UNL A   1      40.521  22.522  26.218  1.00  0.00     0.016 A 
ATOM     12  C   UNL A   1      41.782  21.785  28.118  1.00  0.00     0.016 A 
ATOM     13  C   UNL A   1      40.704  23.850  26.590  1.00  0.00     0.010 A 
ATOM     14  C   UNL A   1      41.964  23.116  28.511  1.00  0.00     0.010 A 
ATOM     15  C   UNL A   1      41.446  24.154  27.725  1.00  0.00    -0.014 A 
BRANCH  15  16
ATOM     16  C   UNL A   1      41.870  25.555  27.924  1.00  0.00     0.031 A 
ATOM     17  C   UNL A   1      43.182  25.959  27.319  1.00  0.00     0.074 A 
ATOM     18  C   UNL A   1      41.054  26.454  28.501  1.00  0.00     0.049 A 
ATOM     19  N   UNL A   1      43.845  27.077  27.427  1.00  0.00    -0.248 NA
ATOM     20  C   UNL A   1      43.831  24.951  26.464  1.00  0.00     0.031 C 
ATOM     21  C   UNL A   1      39.694  26.181  28.968  1.00  0.00     0.029 A 
ATOM     22  N   UNL A   1      41.240  27.784  28.768  1.00  0.00    -0.354 N 
ATOM     23  C   UNL A   1      45.008  26.892  26.686  1.00  0.00     0.074 A 
ATOM     24  C   UNL A   1      44.964  25.552  26.148  1.00  0.00     0.031 C 
ATOM     25  C   UNL A   1      39.164  27.316  29.454  1.00  0.00     0.029 A 
ATOM     26  C   UNL A   1      40.170  28.372  29.403  1.00  0.00     0.049 A 
ATOM     27  H   UNL A   1      42.059  28.274  28.528  1.00  0.00     0.167 HD
ATOM     28  C   UNL A   1      46.022  27.768  26.487  1.00  0.00     0.034 A 
ATOM     29  C   UNL A   1      40.051  29.612  29.919  1.00  0.00     0.034 A 
ATOM     30  C   UNL A   1      46.025  29.088  27.063  1.00  0.00     0.049 A 
ATOM     31  C   UNL A   1      41.243  30.533  29.801  1.00  0.00     0.074 A 
ATOM     32  C   UNL A   1      47.017  30.050  27.040  1.00  0.00     0.029 A 
ATOM     33  N   UNL A   1      44.961  29.631  27.781  1.00  0.00    -0.354 N 
ATOM     34  N   UNL A   1      42.395  30.320  29.202  1.00  0.00    -0.248 NA
ATOM     35  C   UNL A   1      41.130  31.847  30.441  1.00  0.00     0.031 C 
ATOM     36  C   UNL A   1      46.576  31.146  27.792  1.00  0.00     0.029 A 
ATOM     37  C   UNL A   1      45.280  30.901  28.225  1.00  0.00     0.049 A 
ATOM     38  H   UNL A   1      44.104  29.175  27.948  1.00  0.00     0.167 HD
ATOM     39  C   UNL A   1      43.139  31.480  29.381  1.00  0.00     0.074 A 
ATOM     40  C   UNL A   1      42.294  32.397  30.126  1.00  0.00     0.031 C 
ATOM     41  C   UNL A   1      44.404  31.772  28.976  1.00  0.00     0.034 A 
BRANCH  28  42
ATOM     42  C   UNL A   1      47.219  27.250  25.726  1.00  0.00     0.023 A 
ATOM     43  C   UNL A   1      48.276  26.578  26.369  1.00  0.00     0.031 A 
ATOM     44  C   UNL A   1      47.378  27.570  24.367  1.00  0.00     0.131 A 
ATOM     45  C   UNL A   1      49.481  26.351  25.685  1.00  0.00     0.055 A 
ATOM     46  C   UNL A   1      48.544  27.257  23.666  1.00  0.00     0.041 A 
ATOM     47  F   UNL A   1      46.421  28.240  23.706  1.00  0.00    -0.206 F 
ATOM     48  C   UNL A   1      49.615  26.665  24.330  1.00  0.00     0.022 A 
BRANCH  45  49
ATOM     49  S   UNL A   1      50.938  25.835  26.641  1.00  0.00     0.124 S 
ATOM     50  O   UNL A   1      51.241  27.048  27.395  1.00  0.00    -0.237 OA
ATOM     51  O   UNL A   1      50.426  24.713  27.416  1.00  0.00    -0.237 OA
ATOM     52  O   UNL A   1      51.917  25.490  25.614  1.00  0.00    -0.744 OA
ENDBRANCH  45  49
ENDBRANCH  28  42
BRANCH  29  53
ATOM     53  C   UNL A   1      38.817  30.021  30.656  1.00  0.00     0.023 A 
ATOM     54  C   UNL A   1      37.827  30.813  30.051  1.00  0.00     0.031 A 
ATOM     55  C   UNL A   1      38.624  29.651  32.001  1.00  0.00     0.131 A 
ATOM     56  C   UNL A   1      36.707  31.228  30.794  1.00  0.00     0.055 A 
ATOM     57  C   UNL A   1      37.486  30.024  32.720  1.00  0.00     0.041 A 
ATOM     58  F   UNL A   1      39.540  28.905  32.639  1.00  0.00    -0.206 F 
ATOM     59  C   UNL A   1      36.524  30.826  32.119  1.00  0.00     0.022 A 
BRANCH  56  60
ATOM     60  S   UNL A   1      35.521  32.368  30.028  1.00  0.00     0.124 S 
ATOM     61  O   UNL A   1      36.327  33.573  29.867  1.00  0.00    -0.237 OA
ATOM     62  O   UNL A   1      35.171  31.661  28.801  1.00  0.00    -0.237 OA
ATOM     63  O   UNL A   1      34.449  32.462  31.018  1.00  0.00    -0.744 OA
ENDBRANCH  56  60
ENDBRANCH  29  53
BRANCH  41  64
ATOM     64  C   UNL A   1      44.916  33.149  29.309  1.00  0.00     0.023 A 
ATOM     65  C   UNL A   1      45.508  33.432  30.551  1.00  0.00     0.031 A 
ATOM     66  C   UNL A   1      44.807  34.187  28.368  1.00  0.00     0.131 A 
ATOM     67  C   UNL A   1      45.925  34.738  30.839  1.00  0.00     0.055 A 
ATOM     68  C   UNL A   1      45.277  35.471  28.638  1.00  0.00     0.041 A 
ATOM     69  F   UNL A   1      44.249  33.964  27.167  1.00  0.00    -0.206 F 
ATOM     70  C   UNL A   1      45.828  35.756  29.885  1.00  0.00     0.022 A 
BRANCH  67  71
ATOM     71  S   UNL A   1      46.517  35.112  32.511  1.00  0.00     0.124 S 
ATOM     72  O   UNL A   1      47.964  35.000  32.353  1.00  0.00    -0.237 OA
ATOM     73  O   UNL A   1      46.003  36.460  32.729  1.00  0.00    -0.237 OA
ATOM     74  O   UNL A   1      45.900  34.074  33.333  1.00  0.00    -0.744 OA
ENDBRANCH  67  71
ENDBRANCH  41  64
ENDBRANCH  15  16
ENDBRANCH   8  10
ENDBRANCH   7   8
ENDBRANCH   6   7
ENDBRANCH   5   6
ENDBRANCH   4   5
ENDBRANCH   3   4
ENDBRANCH   2   3
ENDBRANCH   1   2
BRANCH   1  75
ATOM     75  C   UNL A   1      34.240  21.702  26.318  1.00  0.00     0.188 C 
BRANCH  75  76
ATOM     76  C   UNL A   1      33.747  22.201  27.690  1.00  0.00     0.188 C 
BRANCH  76  77
ATOM     77  O   UNL A   1      32.383  22.589  27.762  1.00  0.00    -0.376 OA
BRANCH  77  78
ATOM     78  C   UNL A   1      31.990  23.473  26.715  1.00  0.00     0.202 C 
BRANCH  78  79
ATOM     79  C   UNL A   1      30.545  23.936  26.858  1.00  0.00     0.261 C 
BRANCH  79  80
ATOM     80  O   UNL A   1      30.336  25.362  26.755  1.00  0.00    -0.463 OA
BRANCH  80  81
ATOM     81  C   UNL A   1      30.815  25.999  25.660  1.00  0.00     0.310 C 
ATOM     82  O   UNL A   1      30.753  25.551  24.536  1.00  0.00    -0.252 OA
BRANCH  81  83
ATOM     83  C   UNL A   1      31.494  27.333  25.996  1.00  0.00     0.115 C 
ATOM     84  C   UNL A   1      31.530  27.738  27.482  1.00  0.00     0.043 C 
ATOM     85  C   UNL A   1      32.822  27.486  25.230  1.00  0.00     0.096 C 
ATOM     86  C   UNL A   1      32.526  28.791  27.851  1.00  0.00    -0.030 C 
ATOM     87  C   UNL A   1      33.916  28.391  25.826  1.00  0.00     0.041 C 
ATOM     88  C   UNL A   1      33.590  29.091  27.104  1.00  0.00    -0.030 C 
BRANCH  85  89
ATOM     89  C   UNL A   1      33.475  26.252  24.613  1.00  0.00     0.224 C 
ATOM     90  O   UNL A   1      34.032  25.438  25.360  1.00  0.00    -0.275 OA
ATOM     91  N   UNL A   1      33.394  25.888  23.315  1.00  0.00    -0.351 N 
ATOM     92  H   UNL A   1      33.693  24.961  23.178  1.00  0.00     0.163 HD
BRANCH  91  93
ATOM     93  C   UNL A   1      32.977  26.516  22.058  1.00  0.00     0.103 C 
ATOM     94  C   UNL A   1      33.470  27.931  21.830  1.00  0.00     0.048 C 
ATOM     95  C   UNL A   1      31.444  26.724  22.011  1.00  0.00     0.141 C 
ATOM     96  C   UNL A   1      32.535  28.765  22.686  1.00  0.00     0.119 C 
ATOM     97  N   UNL A   1      31.259  28.076  22.547  1.00  0.00    -0.369 N 
BRANCH  97  98
ATOM     98  C   UNL A   1      30.033  28.687  22.465  1.00  0.00     0.038 A 
ATOM     99  C   UNL A   1      28.894  28.157  23.085  1.00  0.00     0.026 A 
ATOM    100  C   UNL A   1      29.889  29.895  21.770  1.00  0.00     0.046 A 
ATOM    101  C   UNL A   1      27.659  28.807  23.027  1.00  0.00     0.004 A 
ATOM    102  C   UNL A   1      28.655  30.538  21.695  1.00  0.00     0.043 A 
ATOM    103  C   UNL A   1      27.538  30.001  22.326  1.00  0.00     0.020 A 
ATOM    104  Cl  UNL A   1      28.511  32.009  20.812  1.00  0.00    -0.084 Cl
ENDBRANCH  97  98
ENDBRANCH  91  93
ENDBRANCH  85  89
ENDBRANCH  81  83
ENDBRANCH  80  81
ENDBRANCH  79  80
ENDBRANCH  78  79
ENDBRANCH  77  78
ENDBRANCH  76  77
ENDBRANCH  75  76
ENDBRANCH   1  75
TORSDOF 26
ENDMDL
MODEL 3
REMARK VINA RESULT:      -9.9      4.619      9.742
REMARK SMILES O=C(OCCOCCOCCOCCOC(=O)[C@H]1CC=CC[C@H]1C(=O)N[C@@H]1CCN(c2cccc(Cl)c2)C1)c1ccc(-c2c3nc(c(-c4cc(S(=O)(=O)[O-])ccc4F)c4ccc([nH]4)c(-c4cc(S(=O)(=O)[O-])ccc4F)c4nc(c(-c5cc(S(=O)(=O)[O-])ccc5F)c5ccc2[nH]5)C=C4)C=C3)cc1
REMARK SMILES IDX 9 1 8 2 7 3 6 4 5 5 4 6 3 7 2 8 1 9 39 10 40 11 101 12 41 13
REMARK SMILES IDX 100 14 42 15 43 16 44 17 94 18 45 19 99 20 93 21 95 22 46 23
REMARK SMILES IDX 98 24 92 25 91 26 47 28 79 29 59 30 78 31 60 32 63 33 77 34
REMARK SMILES IDX 96 35 61 36 62 37 76 39 97 40 64 41 48 42 49 43 57 44 50 45
REMARK SMILES IDX 56 46 58 47 55 48 51 49 52 50 53 51 54 52 80 53 81 54 89 55
REMARK SMILES IDX 82 56 88 57 90 58 87 59 83 60 84 61 85 62 86 63 65 64 66 65
REMARK SMILES IDX 74 66 67 67 73 68 75 69 72 70 68 71 69 72 70 73 71 74 10 75
REMARK SMILES IDX 11 76 12 77 13 78 14 79 15 80 16 81 17 82 18 83 19 84 23 85
REMARK SMILES IDX 20 86 22 87 21 88 24 89 25 90 26 91 27 93 28 94 38 95 29 96
REMARK SMILES IDX 30 97 31 98 32 99 37 100 33 101 35 102 34 103 36 104
REMARK H PARENT 95 27 63 38 26 92
REMARK Flexibility Score: inf
ROOT
ATOM      1  O   UNL A   1      34.689  31.784  27.760  1.00  0.00    -0.377 OA
ENDROOT
BRANCH   1   2
ATOM      2  C   UNL A   1      34.031  33.014  28.079  1.00  0.00     0.188 C 
BRANCH   2   3
ATOM      3  C   UNL A   1      34.605  33.745  29.291  1.00  0.00     0.188 C 
BRANCH   3   4
ATOM      4  O   UNL A   1      34.515  32.877  30.410  1.00  0.00    -0.376 OA
BRANCH   4   5
ATOM      5  C   UNL A   1      34.584  33.481  31.692  1.00  0.00     0.202 C 
BRANCH   5   6
ATOM      6  C   UNL A   1      35.836  33.080  32.463  1.00  0.00     0.261 C 
BRANCH   6   7
ATOM      7  O   UNL A   1      37.026  33.306  31.692  1.00  0.00    -0.460 OA
BRANCH   7   8
ATOM      8  C   UNL A   1      37.916  34.319  31.844  1.00  0.00     0.338 C 
ATOM      9  O   UNL A   1      37.630  35.236  32.614  1.00  0.00    -0.246 OA
BRANCH   8  10
ATOM     10  C   UNL A   1      39.252  34.375  31.174  1.00  0.00     0.060 A 
ATOM     11  C   UNL A   1      40.481  34.144  31.794  1.00  0.00     0.016 A 
ATOM     12  C   UNL A   1      39.250  34.564  29.782  1.00  0.00     0.016 A 
ATOM     13  C   UNL A   1      41.677  34.151  31.084  1.00  0.00     0.010 A 
ATOM     14  C   UNL A   1      40.444  34.562  29.053  1.00  0.00     0.010 A 
ATOM     15  C   UNL A   1      41.666  34.384  29.714  1.00  0.00    -0.014 A 
BRANCH  15  16
ATOM     16  C   UNL A   1      42.951  34.680  29.049  1.00  0.00     0.031 A 
ATOM     17  C   UNL A   1      43.820  33.509  28.699  1.00  0.00     0.074 A 
ATOM     18  C   UNL A   1      43.260  35.928  28.655  1.00  0.00     0.049 A 
ATOM     19  N   UNL A   1      45.032  33.479  28.217  1.00  0.00    -0.248 NA
ATOM     20  C   UNL A   1      43.225  32.181  28.922  1.00  0.00     0.031 C 
ATOM     21  C   UNL A   1      42.395  37.099  28.809  1.00  0.00     0.029 A 
ATOM     22  N   UNL A   1      44.373  36.414  28.022  1.00  0.00    -0.354 N 
ATOM     23  C   UNL A   1      45.359  32.130  28.117  1.00  0.00     0.074 A 
ATOM     24  C   UNL A   1      44.224  31.378  28.601  1.00  0.00     0.031 C 
ATOM     25  C   UNL A   1      43.008  38.168  28.272  1.00  0.00     0.029 A 
ATOM     26  C   UNL A   1      44.335  37.773  27.808  1.00  0.00     0.049 A 
ATOM     27  H   UNL A   1      45.128  35.846  27.747  1.00  0.00     0.167 HD
ATOM     28  C   UNL A   1      46.512  31.579  27.668  1.00  0.00     0.034 A 
ATOM     29  C   UNL A   1      45.291  38.596  27.331  1.00  0.00     0.034 A 
ATOM     30  C   UNL A   1      47.622  32.377  27.213  1.00  0.00     0.049 A 
ATOM     31  C   UNL A   1      46.617  37.978  26.957  1.00  0.00     0.074 A 
ATOM     32  C   UNL A   1      48.886  31.975  26.827  1.00  0.00     0.029 A 
ATOM     33  N   UNL A   1      47.589  33.764  27.088  1.00  0.00    -0.354 N 
ATOM     34  N   UNL A   1      46.973  36.712  26.972  1.00  0.00    -0.248 NA
ATOM     35  C   UNL A   1      47.675  38.896  26.520  1.00  0.00     0.031 C 
ATOM     36  C   UNL A   1      49.632  33.123  26.527  1.00  0.00     0.029 A 
ATOM     37  C   UNL A   1      48.814  34.236  26.655  1.00  0.00     0.049 A 
ATOM     38  H   UNL A   1      46.804  34.328  27.281  1.00  0.00     0.167 HD
ATOM     39  C   UNL A   1      48.293  36.679  26.535  1.00  0.00     0.074 A 
ATOM     40  C   UNL A   1      48.659  38.054  26.242  1.00  0.00     0.031 C 
ATOM     41  C   UNL A   1      49.133  35.621  26.388  1.00  0.00     0.034 A 
BRANCH  28  42
ATOM     42  C   UNL A   1      46.630  30.078  27.781  1.00  0.00     0.023 A 
ATOM     43  C   UNL A   1      46.267  29.222  26.724  1.00  0.00     0.031 A 
ATOM     44  C   UNL A   1      46.960  29.492  29.015  1.00  0.00     0.131 A 
ATOM     45  C   UNL A   1      46.135  27.842  26.955  1.00  0.00     0.055 A 
ATOM     46  C   UNL A   1      46.917  28.110  29.211  1.00  0.00     0.041 A 
ATOM     47  F   UNL A   1      47.281  30.255  30.071  1.00  0.00    -0.206 F 
ATOM     48  C   UNL A   1      46.480  27.277  28.184  1.00  0.00     0.022 A 
BRANCH  45  49
ATOM     49  S   UNL A   1      45.308  26.828  25.694  1.00  0.00     0.124 S 
ATOM     50  O   UNL A   1      43.953  27.373  25.719  1.00  0.00    -0.237 OA
ATOM     51  O   UNL A   1      46.088  27.112  24.498  1.00  0.00    -0.237 OA
ATOM     52  O   UNL A   1      45.432  25.468  26.212  1.00  0.00    -0.744 OA
ENDBRANCH  45  49
ENDBRANCH  28  42
BRANCH  29  53
ATOM     53  C   UNL A   1      45.067  40.071  27.262  1.00  0.00     0.023 A 
ATOM     54  C   UNL A   1      44.577  40.689  26.100  1.00  0.00     0.031 A 
ATOM     55  C   UNL A   1      45.377  40.900  28.359  1.00  0.00     0.131 A 
ATOM     56  C   UNL A   1      44.436  42.087  26.052  1.00  0.00     0.055 A 
ATOM     57  C   UNL A   1      45.188  42.283  28.324  1.00  0.00     0.041 A 
ATOM     58  F   UNL A   1      45.861  40.371  29.494  1.00  0.00    -0.206 F 
ATOM     59  C   UNL A   1      44.724  42.885  27.161  1.00  0.00     0.022 A 
BRANCH  56  60
ATOM     60  S   UNL A   1      43.939  42.865  24.489  1.00  0.00     0.124 S 
ATOM     61  O   UNL A   1      44.150  44.278  24.779  1.00  0.00    -0.237 OA
ATOM     62  O   UNL A   1      44.866  42.258  23.541  1.00  0.00    -0.237 OA
ATOM     63  O   UNL A   1      42.542  42.461  24.337  1.00  0.00    -0.744 OA
ENDBRANCH  56  60
ENDBRANCH  29  53
BRANCH  41  64
ATOM     64  C   UNL A   1      50.509  35.924  25.857  1.00  0.00     0.023 A 
ATOM     65  C   UNL A   1      51.637  35.928  26.696  1.00  0.00     0.031 A 
ATOM     66  C   UNL A   1      50.690  36.212  24.493  1.00  0.00     0.131 A 
ATOM     67  C   UNL A   1      52.891  36.265  26.170  1.00  0.00     0.055 A 
ATOM     68  C   UNL A   1      51.950  36.489  23.965  1.00  0.00     0.041 A 
ATOM     69  F   UNL A   1      49.643  36.220  23.652  1.00  0.00    -0.206 F 
ATOM     70  C   UNL A   1      53.058  36.529  24.808  1.00  0.00     0.022 A 
BRANCH  67  71
ATOM     71  S   UNL A   1      54.291  36.438  27.309  1.00  0.00     0.124 S 
ATOM     72  O   UNL A   1      53.625  36.801  28.556  1.00  0.00    -0.237 OA
ATOM     73  O   UNL A   1      54.890  35.108  27.271  1.00  0.00    -0.237 OA
ATOM     74  O   UNL A   1      55.096  37.498  26.704  1.00  0.00    -0.744 OA
ENDBRANCH  67  71
ENDBRANCH  41  64
ENDBRANCH  15  16
ENDBRANCH   8  10
ENDBRANCH   7   8
ENDBRANCH   6   7
ENDBRANCH   5   6
ENDBRANCH   4   5
ENDBRANCH   3   4
ENDBRANCH   2   3
ENDBRANCH   1   2
BRANCH   1  75
ATOM     75  C   UNL A   1      33.900  30.732  27.200  1.00  0.00     0.188 C 
BRANCH  75  76
ATOM     76  C   UNL A   1      34.364  29.265  27.290  1.00  0.00     0.188 C 
BRANCH  76  77
ATOM     77  O   UNL A   1      33.344  28.281  27.217  1.00  0.00    -0.376 OA
BRANCH  77  78
ATOM     78  C   UNL A   1      33.172  27.740  25.909  1.00  0.00     0.202 C 
BRANCH  78  79
ATOM     79  C   UNL A   1      33.499  26.252  25.849  1.00  0.00     0.261 C 
BRANCH  79  80
ATOM     80  O   UNL A   1      32.590  25.446  25.068  1.00  0.00    -0.463 OA
BRANCH  80  81
ATOM     81  C   UNL A   1      31.732  24.632  25.728  1.00  0.00     0.310 C 
ATOM     82  O   UNL A   1      31.205  24.919  26.781  1.00  0.00    -0.252 OA
BRANCH  81  83
ATOM     83  C   UNL A   1      31.531  23.282  25.028  1.00  0.00     0.115 C 
ATOM     84  C   UNL A   1      31.798  23.242  23.511  1.00  0.00     0.043 C 
ATOM     85  C   UNL A   1      32.157  22.137  25.847  1.00  0.00     0.096 C 
ATOM     86  C   UNL A   1      32.009  21.885  22.918  1.00  0.00    -0.030 C 
ATOM     87  C   UNL A   1      32.602  20.861  25.108  1.00  0.00     0.041 C 
ATOM     88  C   UNL A   1      32.360  20.815  23.635  1.00  0.00    -0.030 C 
BRANCH  85  89
ATOM     89  C   UNL A   1      33.175  22.465  26.935  1.00  0.00     0.224 C 
ATOM     90  O   UNL A   1      32.840  22.338  28.120  1.00  0.00    -0.275 OA
ATOM     91  N   UNL A   1      34.474  22.768  26.728  1.00  0.00    -0.351 N 
ATOM     92  H   UNL A   1      34.995  22.726  27.563  1.00  0.00     0.163 HD
BRANCH  91  93
ATOM     93  C   UNL A   1      35.311  23.143  25.585  1.00  0.00     0.103 C 
ATOM     94  C   UNL A   1      35.874  21.993  24.773  1.00  0.00     0.048 C 
ATOM     95  C   UNL A   1      36.610  23.848  26.042  1.00  0.00     0.141 C 
ATOM     96  C   UNL A   1      37.043  21.515  25.615  1.00  0.00     0.119 C 
ATOM     97  N   UNL A   1      37.576  22.752  26.170  1.00  0.00    -0.369 N 
BRANCH  97  98
ATOM     98  C   UNL A   1      38.906  23.026  26.361  1.00  0.00     0.038 A 
ATOM     99  C   UNL A   1      39.353  24.283  26.789  1.00  0.00     0.026 A 
ATOM    100  C   UNL A   1      39.871  22.031  26.157  1.00  0.00     0.046 A 
ATOM    101  C   UNL A   1      40.707  24.540  27.017  1.00  0.00     0.004 A 
ATOM    102  C   UNL A   1      41.224  22.288  26.367  1.00  0.00     0.043 A 
ATOM    103  C   UNL A   1      41.647  23.540  26.802  1.00  0.00     0.020 A 
ATOM    104  Cl  UNL A   1      42.384  21.047  26.084  1.00  0.00    -0.084 Cl
ENDBRANCH  97  98
ENDBRANCH  91  93
ENDBRANCH  85  89
ENDBRANCH  81  83
ENDBRANCH  80  81
ENDBRANCH  79  80
ENDBRANCH  78  79
ENDBRANCH  77  78
ENDBRANCH  76  77
ENDBRANCH  75  76
ENDBRANCH   1  75
TORSDOF 26
ENDMDL
