MODEL 1
REMARK VINA RESULT:      -6.4      0.000      0.000
REMARK SMILES O=C(COc1ccc(C(=O)/C=C/c2ccc(Cl)c([N+](=O)[O-])c2)cc1)OCCOCCOCCOCCOC(=O)c1ccc(-c2c3nc(c(-c4cc(S(=O)(=O)[O-])ccc4F)c4ccc([nH]4)c(-c4cc(S(=O)(=O)[O-])ccc4F)c4nc(c(-c5cc(S(=O)(=O)[O-])ccc5F)c5ccc2[nH]5)C=C4)C=C3)cc1
REMARK SMILES IDX 29 1 28 2 27 3 26 4 25 5 2 6 1 7 3 8 4 9 5 10 6 11 24 12
REMARK SMILES IDX 7 13 23 14 8 15 9 16 10 17 11 18 12 19 13 20 14 21 22 22
REMARK SMILES IDX 15 23 18 24 16 25 17 26 19 27 20 28 21 29 30 30 31 31 32 32
REMARK SMILES IDX 33 33 34 34 35 35 36 36 37 37 38 38 39 39 40 40 41 41 102 42
REMARK SMILES IDX 42 43 101 44 43 45 44 46 45 47 95 48 46 49 100 50 94 51
REMARK SMILES IDX 96 52 47 53 99 54 93 55 92 56 48 58 80 59 60 60 79 61 61 62
REMARK SMILES IDX 64 63 78 64 97 65 62 66 63 67 77 69 98 70 65 71 49 72 50 73
REMARK SMILES IDX 58 74 51 75 57 76 59 77 56 78 52 79 53 80 54 81 55 82 81 83
REMARK SMILES IDX 82 84 90 85 83 86 89 87 91 88 88 89 84 90 85 91 86 92 87 93
REMARK SMILES IDX 66 94 67 95 75 96 68 97 74 98 76 99 73 100 69 101 70 102
REMARK SMILES IDX 71 103 72 104
REMARK H PARENT 96 57 64 68
REMARK Flexibility Score: inf
ROOT
ATOM      1  C   UNL A   1      45.715  25.295  31.614  1.00  0.00     0.188 C 
ENDROOT
BRANCH   1   2
ATOM      2  O   UNL A   1      45.381  26.282  32.572  1.00  0.00    -0.376 OA
BRANCH   2   3
ATOM      3  C   UNL A   1      44.175  26.400  33.295  1.00  0.00     0.202 C 
BRANCH   3   4
ATOM      4  C   UNL A   1      42.992  27.228  32.808  1.00  0.00     0.261 C 
BRANCH   4   5
ATOM      5  O   UNL A   1      41.923  27.474  33.736  1.00  0.00    -0.461 OA
BRANCH   5   6
ATOM      6  C   UNL A   1      41.429  28.673  34.111  1.00  0.00     0.344 C 
ATOM      7  O   UNL A   1      40.295  28.741  34.580  1.00  0.00    -0.248 OA
BRANCH   6   8
ATOM      8  C   UNL A   1      42.267  29.926  33.870  1.00  0.00     0.351 C 
BRANCH   8   9
ATOM      9  O   UNL A   1      43.269  30.253  34.828  1.00  0.00    -0.482 OA
BRANCH   9  10
ATOM     10  C   UNL A   1      44.408  30.624  34.177  1.00  0.00     0.120 A 
ATOM     11  C   UNL A   1      44.519  31.932  33.725  1.00  0.00     0.047 A 
ATOM     12  C   UNL A   1      45.446  29.713  34.006  1.00  0.00     0.047 A 
ATOM     13  C   UNL A   1      45.752  32.377  33.253  1.00  0.00     0.016 A 
ATOM     14  C   UNL A   1      46.664  30.147  33.518  1.00  0.00     0.016 A 
ATOM     15  C   UNL A   1      46.847  31.499  33.230  1.00  0.00     0.022 A 
BRANCH  15  16
ATOM     16  C   UNL A   1      48.199  32.032  32.939  1.00  0.00     0.185 C 
ATOM     17  O   UNL A   1      49.165  31.662  33.598  1.00  0.00    -0.289 OA
BRANCH  16  18
ATOM     18  C   UNL A   1      48.395  33.003  31.819  1.00  0.00     0.053 C 
ATOM     19  C   UNL A   1      49.234  32.826  30.783  1.00  0.00     0.012 C 
BRANCH  19  20
ATOM     20  C   UNL A   1      49.366  33.799  29.701  1.00  0.00    -0.019 A 
ATOM     21  C   UNL A   1      49.517  35.156  29.990  1.00  0.00     0.010 A 
ATOM     22  C   UNL A   1      49.292  33.387  28.369  1.00  0.00     0.095 A 
ATOM     23  C   UNL A   1      49.606  36.088  28.951  1.00  0.00     0.028 A 
ATOM     24  C   UNL A   1      49.368  34.324  27.317  1.00  0.00     0.288 A 
ATOM     25  C   UNL A   1      49.532  35.686  27.609  1.00  0.00     0.118 A 
ATOM     26  Cl  UNL A   1      49.656  36.964  26.452  1.00  0.00    -0.077 Cl
BRANCH  24  27
ATOM     27  N   UNL A   1      49.249  33.795  25.949  1.00  0.00     0.064 N 
ATOM     28  O   UNL A   1      49.905  32.803  25.617  1.00  0.00    -0.258 OA
ATOM     29  O   UNL A   1      48.487  34.395  25.175  1.00  0.00    -0.258 OA
ENDBRANCH  24  27
ENDBRANCH  19  20
ENDBRANCH  16  18
ENDBRANCH  15  16
ENDBRANCH   9  10
ENDBRANCH   8   9
ENDBRANCH   6   8
ENDBRANCH   5   6
ENDBRANCH   4   5
ENDBRANCH   3   4
ENDBRANCH   2   3
ENDBRANCH   1   2
BRANCH   1  30
ATOM     30  C   UNL A   1      44.656  24.894  30.578  1.00  0.00     0.188 C 
BRANCH  30  31
ATOM     31  O   UNL A   1      44.059  23.618  30.756  1.00  0.00    -0.377 OA
BRANCH  31  32
ATOM     32  C   UNL A   1      43.276  23.174  29.659  1.00  0.00     0.188 C 
BRANCH  32  33
ATOM     33  C   UNL A   1      43.904  23.488  28.291  1.00  0.00     0.188 C 
BRANCH  33  34
ATOM     34  O   UNL A   1      43.485  22.745  27.165  1.00  0.00    -0.376 OA
BRANCH  34  35
ATOM     35  C   UNL A   1      42.488  21.741  27.246  1.00  0.00     0.202 C 
BRANCH  35  36
ATOM     36  C   UNL A   1      41.206  21.623  26.396  1.00  0.00     0.261 C 
BRANCH  36  37
ATOM     37  O   UNL A   1      39.938  21.813  27.015  1.00  0.00    -0.460 OA
BRANCH  37  38
ATOM     38  C   UNL A   1      39.105  22.701  26.434  1.00  0.00     0.338 C 
ATOM     39  O   UNL A   1      38.107  22.457  25.780  1.00  0.00    -0.246 OA
BRANCH  38  40
ATOM     40  C   UNL A   1      39.494  24.035  26.943  1.00  0.00     0.060 A 
ATOM     41  C   UNL A   1      39.944  24.998  26.029  1.00  0.00     0.016 A 
ATOM     42  C   UNL A   1      39.334  24.359  28.293  1.00  0.00     0.016 A 
ATOM     43  C   UNL A   1      40.227  26.292  26.460  1.00  0.00     0.010 A 
ATOM     44  C   UNL A   1      39.667  25.642  28.733  1.00  0.00     0.010 A 
ATOM     45  C   UNL A   1      40.129  26.608  27.820  1.00  0.00    -0.014 A 
BRANCH  45  46
ATOM     46  C   UNL A   1      40.709  27.876  28.315  1.00  0.00     0.031 A 
ATOM     47  C   UNL A   1      39.759  28.934  28.803  1.00  0.00     0.074 A 
ATOM     48  C   UNL A   1      42.039  28.076  28.343  1.00  0.00     0.049 A 
ATOM     49  N   UNL A   1      40.008  30.153  29.199  1.00  0.00    -0.248 NA
ATOM     50  C   UNL A   1      38.335  28.561  28.848  1.00  0.00     0.031 C 
ATOM     51  C   UNL A   1      43.050  27.095  27.955  1.00  0.00     0.029 A 
ATOM     52  N   UNL A   1      42.765  29.184  28.701  1.00  0.00    -0.354 N 
ATOM     53  C   UNL A   1      38.773  30.698  29.530  1.00  0.00     0.074 A 
ATOM     54  C   UNL A   1      37.775  29.683  29.273  1.00  0.00     0.031 C 
ATOM     55  C   UNL A   1      44.268  27.654  28.074  1.00  0.00     0.029 A 
ATOM     56  C   UNL A   1      44.119  29.046  28.496  1.00  0.00     0.049 A 
ATOM     57  H   UNL A   1      42.356  30.000  29.070  1.00  0.00     0.167 HD
ATOM     58  C   UNL A   1      38.501  31.937  30.002  1.00  0.00     0.034 A 
ATOM     59  C   UNL A   1      45.111  29.957  28.597  1.00  0.00     0.034 A 
ATOM     60  C   UNL A   1      39.508  32.939  30.239  1.00  0.00     0.049 A 
ATOM     61  C   UNL A   1      44.763  31.367  29.023  1.00  0.00     0.074 A 
ATOM     62  C   UNL A   1      39.346  34.218  30.739  1.00  0.00     0.029 A 
ATOM     63  N   UNL A   1      40.862  32.784  29.970  1.00  0.00    -0.354 N 
ATOM     64  N   UNL A   1      43.595  31.867  29.357  1.00  0.00    -0.248 NA
ATOM     65  C   UNL A   1      45.867  32.336  29.085  1.00  0.00     0.031 C 
ATOM     66  C   UNL A   1      40.584  34.865  30.691  1.00  0.00     0.029 A 
ATOM     67  C   UNL A   1      41.537  33.962  30.247  1.00  0.00     0.049 A 
ATOM     68  H   UNL A   1      41.281  31.960  29.633  1.00  0.00     0.167 HD
ATOM     69  C   UNL A   1      43.833  33.198  29.694  1.00  0.00     0.074 A 
ATOM     70  C   UNL A   1      45.257  33.415  29.548  1.00  0.00     0.031 C 
ATOM     71  C   UNL A   1      42.957  34.161  30.086  1.00  0.00     0.034 A 
BRANCH  58  72
ATOM     72  C   UNL A   1      37.057  32.299  30.232  1.00  0.00     0.023 A 
ATOM     73  C   UNL A   1      36.266  32.882  29.227  1.00  0.00     0.031 A 
ATOM     74  C   UNL A   1      36.460  32.044  31.478  1.00  0.00     0.131 A 
ATOM     75  C   UNL A   1      34.933  33.226  29.501  1.00  0.00     0.055 A 
ATOM     76  C   UNL A   1      35.115  32.323  31.722  1.00  0.00     0.041 A 
ATOM     77  F   UNL A   1      37.178  31.516  32.483  1.00  0.00    -0.206 F 
ATOM     78  C   UNL A   1      34.345  32.924  30.732  1.00  0.00     0.022 A 
BRANCH  75  79
ATOM     79  S   UNL A   1      34.004  34.166  28.260  1.00  0.00     0.124 S 
ATOM     80  O   UNL A   1      35.064  34.558  27.332  1.00  0.00    -0.237 OA
ATOM     81  O   UNL A   1      33.053  33.179  27.762  1.00  0.00    -0.237 OA
ATOM     82  O   UNL A   1      33.421  35.264  29.026  1.00  0.00    -0.744 OA
ENDBRANCH  75  79
ENDBRANCH  58  72
BRANCH  59  83
ATOM     83  C   UNL A   1      46.515  29.610  28.220  1.00  0.00     0.023 A 
ATOM     84  C   UNL A   1      46.828  29.132  26.937  1.00  0.00     0.031 A 
ATOM     85  C   UNL A   1      47.550  29.650  29.173  1.00  0.00     0.131 A 
ATOM     86  C   UNL A   1      48.118  28.651  26.662  1.00  0.00     0.055 A 
ATOM     87  C   UNL A   1      48.849  29.234  28.875  1.00  0.00     0.041 A 
ATOM     88  F   UNL A   1      47.311  30.089  30.419  1.00  0.00    -0.206 F 
ATOM     89  C   UNL A   1      49.135  28.713  27.618  1.00  0.00     0.022 A 
BRANCH  86  90
ATOM     90  S   UNL A   1      48.415  27.819  25.077  1.00  0.00     0.124 S 
ATOM     91  O   UNL A   1      48.273  26.417  25.450  1.00  0.00    -0.237 OA
ATOM     92  O   UNL A   1      47.353  28.375  24.245  1.00  0.00    -0.237 OA
ATOM     93  O   UNL A   1      49.769  28.241  24.722  1.00  0.00    -0.744 OA
ENDBRANCH  86  90
ENDBRANCH  59  83
BRANCH  71  94
ATOM     94  C   UNL A   1      43.526  35.518  30.420  1.00  0.00     0.023 A 
ATOM     95  C   UNL A   1      43.613  36.540  29.458  1.00  0.00     0.031 A 
ATOM     96  C   UNL A   1      43.988  35.795  31.721  1.00  0.00     0.131 A 
ATOM     97  C   UNL A   1      44.201  37.769  29.794  1.00  0.00     0.055 A 
ATOM     98  C   UNL A   1      44.507  37.042  32.066  1.00  0.00     0.041 A 
ATOM     99  F   UNL A   1      43.932  34.857  32.679  1.00  0.00    -0.206 F 
ATOM    100  C   UNL A   1      44.629  38.034  31.097  1.00  0.00     0.022 A 
BRANCH  97 101
ATOM    101  S   UNL A   1      44.487  38.983  28.479  1.00  0.00     0.124 S 
ATOM    102  O   UNL A   1      43.884  38.327  27.324  1.00  0.00    -0.237 OA
ATOM    103  O   UNL A   1      43.785  40.160  28.981  1.00  0.00    -0.237 OA
ATOM    104  O   UNL A   1      45.943  39.103  28.434  1.00  0.00    -0.744 OA
ENDBRANCH  97 101
ENDBRANCH  71  94
ENDBRANCH  45  46
ENDBRANCH  38  40
ENDBRANCH  37  38
ENDBRANCH  36  37
ENDBRANCH  35  36
ENDBRANCH  34  35
ENDBRANCH  33  34
ENDBRANCH  32  33
ENDBRANCH  31  32
ENDBRANCH  30  31
ENDBRANCH   1  30
TORSDOF 29
ENDMDL
MODEL 2
REMARK VINA RESULT:      -6.2      5.126     11.670
REMARK SMILES O=C(COc1ccc(C(=O)/C=C/c2ccc(Cl)c([N+](=O)[O-])c2)cc1)OCCOCCOCCOCCOC(=O)c1ccc(-c2c3nc(c(-c4cc(S(=O)(=O)[O-])ccc4F)c4ccc([nH]4)c(-c4cc(S(=O)(=O)[O-])ccc4F)c4nc(c(-c5cc(S(=O)(=O)[O-])ccc5F)c5ccc2[nH]5)C=C4)C=C3)cc1
REMARK SMILES IDX 29 1 28 2 27 3 26 4 25 5 2 6 1 7 3 8 4 9 5 10 6 11 24 12
REMARK SMILES IDX 7 13 23 14 8 15 9 16 10 17 11 18 12 19 13 20 14 21 22 22
REMARK SMILES IDX 15 23 18 24 16 25 17 26 19 27 20 28 21 29 30 30 31 31 32 32
REMARK SMILES IDX 33 33 34 34 35 35 36 36 37 37 38 38 39 39 40 40 41 41 102 42
REMARK SMILES IDX 42 43 101 44 43 45 44 46 45 47 95 48 46 49 100 50 94 51
REMARK SMILES IDX 96 52 47 53 99 54 93 55 92 56 48 58 80 59 60 60 79 61 61 62
REMARK SMILES IDX 64 63 78 64 97 65 62 66 63 67 77 69 98 70 65 71 49 72 50 73
REMARK SMILES IDX 58 74 51 75 57 76 59 77 56 78 52 79 53 80 54 81 55 82 81 83
REMARK SMILES IDX 82 84 90 85 83 86 89 87 91 88 88 89 84 90 85 91 86 92 87 93
REMARK SMILES IDX 66 94 67 95 75 96 68 97 74 98 76 99 73 100 69 101 70 102
REMARK SMILES IDX 71 103 72 104
REMARK H PARENT 96 57 64 68
REMARK Flexibility Score: inf
ROOT
ATOM      1  C   UNL A   1      39.659  35.138  43.834  1.00  0.00     0.188 C 
ENDROOT
BRANCH   1   2
ATOM      2  O   UNL A   1      38.526  34.325  44.081  1.00  0.00    -0.376 OA
BRANCH   2   3
ATOM      3  C   UNL A   1      37.685  33.715  43.128  1.00  0.00     0.202 C 
BRANCH   3   4
ATOM      4  C   UNL A   1      37.426  34.307  41.748  1.00  0.00     0.261 C 
BRANCH   4   5
ATOM      5  O   UNL A   1      37.191  33.394  40.664  1.00  0.00    -0.461 OA
BRANCH   5   6
ATOM      6  C   UNL A   1      38.080  32.545  40.105  1.00  0.00     0.344 C 
ATOM      7  O   UNL A   1      37.794  31.354  39.994  1.00  0.00    -0.248 OA
BRANCH   6   8
ATOM      8  C   UNL A   1      39.452  33.075  39.696  1.00  0.00     0.351 C 
BRANCH   8   9
ATOM      9  O   UNL A   1      39.503  34.099  38.708  1.00  0.00    -0.482 OA
BRANCH   9  10
ATOM     10  C   UNL A   1      39.305  33.547  37.477  1.00  0.00     0.120 A 
ATOM     11  C   UNL A   1      38.353  34.115  36.640  1.00  0.00     0.047 A 
ATOM     12  C   UNL A   1      40.069  32.461  37.064  1.00  0.00     0.047 A 
ATOM     13  C   UNL A   1      38.292  33.697  35.312  1.00  0.00     0.016 A 
ATOM     14  C   UNL A   1      39.994  32.030  35.753  1.00  0.00     0.016 A 
ATOM     15  C   UNL A   1      39.175  32.709  34.851  1.00  0.00     0.022 A 
BRANCH  15  16
ATOM     16  C   UNL A   1      39.257  32.427  33.399  1.00  0.00     0.185 C 
ATOM     17  O   UNL A   1      40.308  32.037  32.902  1.00  0.00    -0.289 OA
BRANCH  16  18
ATOM     18  C   UNL A   1      38.047  32.591  32.536  1.00  0.00     0.053 C 
ATOM     19  C   UNL A   1      38.031  33.206  31.340  1.00  0.00     0.012 C 
BRANCH  19  20
ATOM     20  C   UNL A   1      36.821  33.314  30.526  1.00  0.00    -0.019 A 
ATOM     21  C   UNL A   1      36.758  32.696  29.277  1.00  0.00     0.010 A 
ATOM     22  C   UNL A   1      35.740  34.078  30.968  1.00  0.00     0.095 A 
ATOM     23  C   UNL A   1      35.613  32.832  28.485  1.00  0.00     0.028 A 
ATOM     24  C   UNL A   1      34.587  34.230  30.168  1.00  0.00     0.288 A 
ATOM     25  C   UNL A   1      34.520  33.598  28.919  1.00  0.00     0.118 A 
ATOM     26  Cl  UNL A   1      33.188  33.664  27.819  1.00  0.00    -0.077 Cl
BRANCH  24  27
ATOM     27  N   UNL A   1      33.514  35.079  30.709  1.00  0.00     0.064 N 
ATOM     28  O   UNL A   1      33.088  36.026  30.041  1.00  0.00    -0.258 OA
ATOM     29  O   UNL A   1      33.090  34.802  31.842  1.00  0.00    -0.258 OA
ENDBRANCH  24  27
ENDBRANCH  19  20
ENDBRANCH  16  18
ENDBRANCH  15  16
ENDBRANCH   9  10
ENDBRANCH   8   9
ENDBRANCH   6   8
ENDBRANCH   5   6
ENDBRANCH   4   5
ENDBRANCH   3   4
ENDBRANCH   2   3
ENDBRANCH   1   2
BRANCH   1  30
ATOM     30  C   UNL A   1      41.052  34.523  44.017  1.00  0.00     0.188 C 
BRANCH  30  31
ATOM     31  O   UNL A   1      41.697  34.071  42.834  1.00  0.00    -0.377 OA
BRANCH  31  32
ATOM     32  C   UNL A   1      43.044  33.664  43.015  1.00  0.00     0.188 C 
BRANCH  32  33
ATOM     33  C   UNL A   1      44.067  34.754  42.655  1.00  0.00     0.188 C 
BRANCH  33  34
ATOM     34  O   UNL A   1      43.596  36.039  42.305  1.00  0.00    -0.376 OA
BRANCH  34  35
ATOM     35  C   UNL A   1      43.568  36.497  40.964  1.00  0.00     0.202 C 
BRANCH  35  36
ATOM     36  C   UNL A   1      42.520  36.162  39.882  1.00  0.00     0.261 C 
BRANCH  36  37
ATOM     37  O   UNL A   1      42.067  37.191  39.007  1.00  0.00    -0.460 OA
BRANCH  37  38
ATOM     38  C   UNL A   1      42.941  37.626  38.075  1.00  0.00     0.338 C 
ATOM     39  O   UNL A   1      43.670  38.599  38.146  1.00  0.00    -0.246 OA
BRANCH  38  40
ATOM     40  C   UNL A   1      43.023  36.562  37.050  1.00  0.00     0.060 A 
ATOM     41  C   UNL A   1      44.240  35.890  36.875  1.00  0.00     0.016 A 
ATOM     42  C   UNL A   1      41.889  36.174  36.331  1.00  0.00     0.016 A 
ATOM     43  C   UNL A   1      44.327  34.820  35.987  1.00  0.00     0.010 A 
ATOM     44  C   UNL A   1      41.990  35.135  35.403  1.00  0.00     0.010 A 
ATOM     45  C   UNL A   1      43.213  34.465  35.218  1.00  0.00    -0.014 A 
BRANCH  45  46
ATOM     46  C   UNL A   1      43.384  33.540  34.075  1.00  0.00     0.031 A 
ATOM     47  C   UNL A   1      43.526  34.142  32.705  1.00  0.00     0.074 A 
ATOM     48  C   UNL A   1      43.423  32.207  34.251  1.00  0.00     0.049 A 
ATOM     49  N   UNL A   1      43.597  33.551  31.543  1.00  0.00    -0.248 NA
ATOM     50  C   UNL A   1      43.598  35.612  32.642  1.00  0.00     0.031 C 
ATOM     51  C   UNL A   1      43.360  31.522  35.541  1.00  0.00     0.029 A 
ATOM     52  N   UNL A   1      43.511  31.190  33.334  1.00  0.00    -0.354 N 
ATOM     53  C   UNL A   1      43.711  34.574  30.609  1.00  0.00     0.074 A 
ATOM     54  C   UNL A   1      43.682  35.823  31.339  1.00  0.00     0.031 C 
ATOM     55  C   UNL A   1      43.387  30.194  35.330  1.00  0.00     0.029 A 
ATOM     56  C   UNL A   1      43.418  29.935  33.891  1.00  0.00     0.049 A 
ATOM     57  H   UNL A   1      43.630  31.344  32.369  1.00  0.00     0.167 HD
ATOM     58  C   UNL A   1      43.824  34.476  29.264  1.00  0.00     0.034 A 
ATOM     59  C   UNL A   1      43.323  28.725  33.298  1.00  0.00     0.034 A 
ATOM     60  C   UNL A   1      43.837  33.222  28.555  1.00  0.00     0.049 A 
ATOM     61  C   UNL A   1      43.342  28.653  31.786  1.00  0.00     0.074 A 
ATOM     62  C   UNL A   1      43.972  33.006  27.196  1.00  0.00     0.029 A 
ATOM     63  N   UNL A   1      43.686  31.974  29.145  1.00  0.00    -0.354 N 
ATOM     64  N   UNL A   1      43.474  29.624  30.912  1.00  0.00    -0.248 NA
ATOM     65  C   UNL A   1      43.201  27.320  31.182  1.00  0.00     0.031 C 
ATOM     66  C   UNL A   1      43.816  31.638  26.954  1.00  0.00     0.029 A 
ATOM     67  C   UNL A   1      43.675  30.988  28.170  1.00  0.00     0.049 A 
ATOM     68  H   UNL A   1      43.600  31.812  30.112  1.00  0.00     0.167 HD
ATOM     69  C   UNL A   1      43.458  29.014  29.659  1.00  0.00     0.074 A 
ATOM     70  C   UNL A   1      43.331  27.591  29.892  1.00  0.00     0.031 C 
ATOM     71  C   UNL A   1      43.538  29.574  28.424  1.00  0.00     0.034 A 
BRANCH  58  72
ATOM     72  C   UNL A   1      43.877  35.754  28.468  1.00  0.00     0.023 A 
ATOM     73  C   UNL A   1      45.093  36.372  28.132  1.00  0.00     0.031 A 
ATOM     74  C   UNL A   1      42.685  36.356  28.030  1.00  0.00     0.131 A 
ATOM     75  C   UNL A   1      45.086  37.577  27.412  1.00  0.00     0.055 A 
ATOM     76  C   UNL A   1      42.687  37.516  27.255  1.00  0.00     0.041 A 
ATOM     77  F   UNL A   1      41.494  35.824  28.350  1.00  0.00    -0.206 F 
ATOM     78  C   UNL A   1      43.893  38.137  26.947  1.00  0.00     0.022 A 
BRANCH  75  79
ATOM     79  S   UNL A   1      46.653  38.459  27.177  1.00  0.00     0.124 S 
ATOM     80  O   UNL A   1      46.585  38.809  25.759  1.00  0.00    -0.237 OA
ATOM     81  O   UNL A   1      46.535  39.569  28.115  1.00  0.00    -0.237 OA
ATOM     82  O   UNL A   1      47.663  37.459  27.515  1.00  0.00    -0.744 OA
ENDBRANCH  75  79
ENDBRANCH  58  72
BRANCH  59  83
ATOM     83  C   UNL A   1      43.122  27.485  34.108  1.00  0.00     0.023 A 
ATOM     84  C   UNL A   1      44.193  26.625  34.400  1.00  0.00     0.031 A 
ATOM     85  C   UNL A   1      41.834  27.087  34.513  1.00  0.00     0.131 A 
ATOM     86  C   UNL A   1      43.950  25.384  35.011  1.00  0.00     0.055 A 
ATOM     87  C   UNL A   1      41.606  25.883  35.182  1.00  0.00     0.041 A 
ATOM     88  F   UNL A   1      40.770  27.863  34.255  1.00  0.00    -0.206 F 
ATOM     89  C   UNL A   1      42.666  25.014  35.417  1.00  0.00     0.022 A 
BRANCH  86  90
ATOM     90  S   UNL A   1      45.319  24.201  35.148  1.00  0.00     0.124 S 
ATOM     91  O   UNL A   1      45.650  24.296  36.564  1.00  0.00    -0.237 OA
ATOM     92  O   UNL A   1      44.685  22.960  34.716  1.00  0.00    -0.237 OA
ATOM     93  O   UNL A   1      46.323  24.739  34.231  1.00  0.00    -0.744 OA
ENDBRANCH  86  90
ENDBRANCH  59  83
BRANCH  71  94
ATOM     94  C   UNL A   1      43.528  28.639  27.239  1.00  0.00     0.023 A 
ATOM     95  C   UNL A   1      44.671  27.915  26.859  1.00  0.00     0.031 A 
ATOM     96  C   UNL A   1      42.355  28.468  26.479  1.00  0.00     0.131 A 
ATOM     97  C   UNL A   1      44.636  27.100  25.718  1.00  0.00     0.055 A 
ATOM     98  C   UNL A   1      42.307  27.602  25.387  1.00  0.00     0.041 A 
ATOM     99  F   UNL A   1      41.234  29.135  26.794  1.00  0.00    -0.206 F 
ATOM    100  C   UNL A   1      43.456  26.922  24.992  1.00  0.00     0.022 A 
BRANCH  97 101
ATOM    101  S   UNL A   1      46.181  26.350  25.138  1.00  0.00     0.124 S 
ATOM    102  O   UNL A   1      46.961  26.274  26.368  1.00  0.00    -0.237 OA
ATOM    103  O   UNL A   1      45.725  25.075  24.593  1.00  0.00    -0.237 OA
ATOM    104  O   UNL A   1      46.675  27.305  24.148  1.00  0.00    -0.744 OA
ENDBRANCH  97 101
ENDBRANCH  71  94
ENDBRANCH  45  46
ENDBRANCH  38  40
ENDBRANCH  37  38
ENDBRANCH  36  37
ENDBRANCH  35  36
ENDBRANCH  34  35
ENDBRANCH  33  34
ENDBRANCH  32  33
ENDBRANCH  31  32
ENDBRANCH  30  31
ENDBRANCH   1  30
TORSDOF 29
ENDMDL
MODEL 3
REMARK VINA RESULT:      -6.2      6.250     13.206
REMARK SMILES O=C(COc1ccc(C(=O)/C=C/c2ccc(Cl)c([N+](=O)[O-])c2)cc1)OCCOCCOCCOCCOC(=O)c1ccc(-c2c3nc(c(-c4cc(S(=O)(=O)[O-])ccc4F)c4ccc([nH]4)c(-c4cc(S(=O)(=O)[O-])ccc4F)c4nc(c(-c5cc(S(=O)(=O)[O-])ccc5F)c5ccc2[nH]5)C=C4)C=C3)cc1
REMARK SMILES IDX 29 1 28 2 27 3 26 4 25 5 2 6 1 7 3 8 4 9 5 10 6 11 24 12
REMARK SMILES IDX 7 13 23 14 8 15 9 16 10 17 11 18 12 19 13 20 14 21 22 22
REMARK SMILES IDX 15 23 18 24 16 25 17 26 19 27 20 28 21 29 30 30 31 31 32 32
REMARK SMILES IDX 33 33 34 34 35 35 36 36 37 37 38 38 39 39 40 40 41 41 102 42
REMARK SMILES IDX 42 43 101 44 43 45 44 46 45 47 95 48 46 49 100 50 94 51
REMARK SMILES IDX 96 52 47 53 99 54 93 55 92 56 48 58 80 59 60 60 79 61 61 62
REMARK SMILES IDX 64 63 78 64 97 65 62 66 63 67 77 69 98 70 65 71 49 72 50 73
REMARK SMILES IDX 58 74 51 75 57 76 59 77 56 78 52 79 53 80 54 81 55 82 81 83
REMARK SMILES IDX 82 84 90 85 83 86 89 87 91 88 88 89 84 90 85 91 86 92 87 93
REMARK SMILES IDX 66 94 67 95 75 96 68 97 74 98 76 99 73 100 69 101 70 102
REMARK SMILES IDX 71 103 72 104
REMARK H PARENT 96 57 64 68
REMARK Flexibility Score: inf
ROOT
ATOM      1  C   UNL A   1      55.639  37.627  30.542  1.00  0.00     0.188 C 
ENDROOT
BRANCH   1   2
ATOM      2  O   UNL A   1      54.750  36.873  29.736  1.00  0.00    -0.376 OA
BRANCH   2   3
ATOM      3  C   UNL A   1      53.435  36.474  30.055  1.00  0.00     0.202 C 
BRANCH   3   4
ATOM      4  C   UNL A   1      52.200  37.226  29.577  1.00  0.00     0.261 C 
BRANCH   4   5
ATOM      5  O   UNL A   1      52.016  37.374  28.159  1.00  0.00    -0.461 OA
BRANCH   5   6
ATOM      6  C   UNL A   1      51.047  38.073  27.532  1.00  0.00     0.344 C 
ATOM      7  O   UNL A   1      51.152  39.294  27.426  1.00  0.00    -0.248 OA
BRANCH   6   8
ATOM      8  C   UNL A   1      49.806  37.336  27.036  1.00  0.00     0.351 C 
BRANCH   8   9
ATOM      9  O   UNL A   1      49.228  37.756  25.804  1.00  0.00    -0.482 OA
BRANCH   9  10
ATOM     10  C   UNL A   1      47.906  38.029  25.997  1.00  0.00     0.120 A 
ATOM     11  C   UNL A   1      47.186  37.235  26.881  1.00  0.00     0.047 A 
ATOM     12  C   UNL A   1      47.310  39.104  25.345  1.00  0.00     0.047 A 
ATOM     13  C   UNL A   1      45.901  37.633  27.245  1.00  0.00     0.016 A 
ATOM     14  C   UNL A   1      46.027  39.487  25.689  1.00  0.00     0.016 A 
ATOM     15  C   UNL A   1      45.357  38.809  26.708  1.00  0.00     0.022 A 
BRANCH  15  16
ATOM     16  C   UNL A   1      44.089  39.342  27.261  1.00  0.00     0.185 C 
ATOM     17  O   UNL A   1      43.050  39.262  26.615  1.00  0.00    -0.289 OA
BRANCH  16  18
ATOM     18  C   UNL A   1      44.068  39.958  28.623  1.00  0.00     0.053 C 
ATOM     19  C   UNL A   1      43.223  39.614  29.611  1.00  0.00     0.012 C 
BRANCH  19  20
ATOM     20  C   UNL A   1      43.266  40.233  30.935  1.00  0.00    -0.019 A 
ATOM     21  C   UNL A   1      43.589  39.469  32.058  1.00  0.00     0.010 A 
ATOM     22  C   UNL A   1      42.935  41.580  31.095  1.00  0.00     0.095 A 
ATOM     23  C   UNL A   1      43.593  40.056  33.327  1.00  0.00     0.028 A 
ATOM     24  C   UNL A   1      42.924  42.174  32.374  1.00  0.00     0.288 A 
ATOM     25  C   UNL A   1      43.261  41.408  33.500  1.00  0.00     0.118 A 
ATOM     26  Cl  UNL A   1      43.312  41.973  35.133  1.00  0.00    -0.077 Cl
BRANCH  24  27
ATOM     27  N   UNL A   1      42.532  43.591  32.443  1.00  0.00     0.064 N 
ATOM     28  O   UNL A   1      42.177  44.076  33.521  1.00  0.00    -0.258 OA
ATOM     29  O   UNL A   1      42.567  44.238  31.385  1.00  0.00    -0.258 OA
ENDBRANCH  24  27
ENDBRANCH  19  20
ENDBRANCH  16  18
ENDBRANCH  15  16
ENDBRANCH   9  10
ENDBRANCH   8   9
ENDBRANCH   6   8
ENDBRANCH   5   6
ENDBRANCH   4   5
ENDBRANCH   3   4
ENDBRANCH   2   3
ENDBRANCH   1   2
BRANCH   1  30
ATOM     30  C   UNL A   1      56.301  38.869  29.932  1.00  0.00     0.188 C 
BRANCH  30  31
ATOM     31  O   UNL A   1      55.777  40.124  30.345  1.00  0.00    -0.377 OA
BRANCH  31  32
ATOM     32  C   UNL A   1      54.410  40.098  30.721  1.00  0.00     0.188 C 
BRANCH  32  33
ATOM     33  C   UNL A   1      54.149  40.673  32.124  1.00  0.00     0.188 C 
BRANCH  33  34
ATOM     34  O   UNL A   1      52.829  40.666  32.626  1.00  0.00    -0.376 OA
BRANCH  34  35
ATOM     35  C   UNL A   1      51.713  40.325  31.821  1.00  0.00     0.202 C 
BRANCH  35  36
ATOM     36  C   UNL A   1      50.675  39.213  32.081  1.00  0.00     0.261 C 
BRANCH  36  37
ATOM     37  O   UNL A   1      50.841  38.352  33.204  1.00  0.00    -0.460 OA
BRANCH  37  38
ATOM     38  C   UNL A   1      50.267  38.744  34.361  1.00  0.00     0.338 C 
ATOM     39  O   UNL A   1      50.694  39.563  35.155  1.00  0.00    -0.246 OA
BRANCH  38  40
ATOM     40  C   UNL A   1      48.903  38.170  34.367  1.00  0.00     0.060 A 
ATOM     41  C   UNL A   1      48.761  36.776  34.398  1.00  0.00     0.016 A 
ATOM     42  C   UNL A   1      47.780  38.999  34.430  1.00  0.00     0.016 A 
ATOM     43  C   UNL A   1      47.494  36.205  34.501  1.00  0.00     0.010 A 
ATOM     44  C   UNL A   1      46.508  38.425  34.482  1.00  0.00     0.010 A 
ATOM     45  C   UNL A   1      46.361  37.026  34.502  1.00  0.00    -0.014 A 
BRANCH  45  46
ATOM     46  C   UNL A   1      45.024  36.421  34.311  1.00  0.00     0.031 A 
ATOM     47  C   UNL A   1      44.617  36.056  32.911  1.00  0.00     0.074 A 
ATOM     48  C   UNL A   1      44.203  36.190  35.351  1.00  0.00     0.049 A 
ATOM     49  N   UNL A   1      43.475  35.598  32.472  1.00  0.00    -0.248 NA
ATOM     50  C   UNL A   1      45.641  36.232  31.867  1.00  0.00     0.031 C 
ATOM     51  C   UNL A   1      44.523  36.445  36.754  1.00  0.00     0.029 A 
ATOM     52  N   UNL A   1      42.921  35.702  35.382  1.00  0.00    -0.354 N 
ATOM     53  C   UNL A   1      43.637  35.443  31.100  1.00  0.00     0.074 A 
ATOM     54  C   UNL A   1      44.981  35.869  30.778  1.00  0.00     0.031 C 
ATOM     55  C   UNL A   1      43.454  36.134  37.509  1.00  0.00     0.029 A 
ATOM     56  C   UNL A   1      42.359  35.706  36.639  1.00  0.00     0.049 A 
ATOM     57  H   UNL A   1      42.448  35.379  34.581  1.00  0.00     0.167 HD
ATOM     58  C   UNL A   1      42.740  34.988  30.194  1.00  0.00     0.034 A 
ATOM     59  C   UNL A   1      41.094  35.437  37.027  1.00  0.00     0.034 A 
ATOM     60  C   UNL A   1      41.401  34.581  30.534  1.00  0.00     0.049 A 
ATOM     61  C   UNL A   1      40.081  35.035  35.976  1.00  0.00     0.074 A 
ATOM     62  C   UNL A   1      40.419  34.081  29.699  1.00  0.00     0.029 A 
ATOM     63  N   UNL A   1      40.849  34.648  31.806  1.00  0.00    -0.354 N 
ATOM     64  N   UNL A   1      40.250  34.868  34.684  1.00  0.00    -0.248 NA
ATOM     65  C   UNL A   1      38.707  34.787  36.436  1.00  0.00     0.031 C 
ATOM     66  C   UNL A   1      39.247  33.928  30.447  1.00  0.00     0.029 A 
ATOM     67  C   UNL A   1      39.523  34.246  31.768  1.00  0.00     0.049 A 
ATOM     68  H   UNL A   1      41.327  34.938  32.616  1.00  0.00     0.167 HD
ATOM     69  C   UNL A   1      39.011  34.468  34.187  1.00  0.00     0.074 A 
ATOM     70  C   UNL A   1      38.113  34.395  35.320  1.00  0.00     0.031 C 
ATOM     71  C   UNL A   1      38.641  34.188  32.909  1.00  0.00     0.034 A 
BRANCH  58  72
ATOM     72  C   UNL A   1      43.154  34.968  28.746  1.00  0.00     0.023 A 
ATOM     73  C   UNL A   1      44.076  34.033  28.247  1.00  0.00     0.031 A 
ATOM     74  C   UNL A   1      42.602  35.898  27.848  1.00  0.00     0.131 A 
ATOM     75  C   UNL A   1      44.448  34.076  26.894  1.00  0.00     0.055 A 
ATOM     76  C   UNL A   1      42.923  35.890  26.490  1.00  0.00     0.041 A 
ATOM     77  F   UNL A   1      41.739  36.832  28.278  1.00  0.00    -0.206 F 
ATOM     78  C   UNL A   1      43.857  34.979  26.007  1.00  0.00     0.022 A 
BRANCH  75  79
ATOM     79  S   UNL A   1      45.793  32.999  26.328  1.00  0.00     0.124 S 
ATOM     80  O   UNL A   1      46.699  33.962  25.704  1.00  0.00    -0.237 OA
ATOM     81  O   UNL A   1      46.260  32.396  27.571  1.00  0.00    -0.237 OA
ATOM     82  O   UNL A   1      45.133  32.085  25.399  1.00  0.00    -0.744 OA
ENDBRANCH  75  79
ENDBRANCH  58  72
BRANCH  59  83
ATOM     83  C   UNL A   1      40.673  35.608  38.451  1.00  0.00     0.023 A 
ATOM     84  C   UNL A   1      40.616  36.879  39.045  1.00  0.00     0.031 A 
ATOM     85  C   UNL A   1      40.424  34.491  39.270  1.00  0.00     0.131 A 
ATOM     86  C   UNL A   1      40.386  36.999  40.425  1.00  0.00     0.055 A 
ATOM     87  C   UNL A   1      40.128  34.620  40.628  1.00  0.00     0.041 A 
ATOM     88  F   UNL A   1      40.472  33.250  38.761  1.00  0.00    -0.206 F 
ATOM     89  C   UNL A   1      40.128  35.878  41.218  1.00  0.00     0.022 A 
BRANCH  86  90
ATOM     90  S   UNL A   1      40.563  38.632  41.196  1.00  0.00     0.124 S 
ATOM     91  O   UNL A   1      39.238  38.833  41.769  1.00  0.00    -0.237 OA
ATOM     92  O   UNL A   1      41.647  38.399  42.145  1.00  0.00    -0.237 OA
ATOM     93  O   UNL A   1      40.899  39.502  40.071  1.00  0.00    -0.744 OA
ENDBRANCH  86  90
ENDBRANCH  59  83
BRANCH  71  94
ATOM     94  C   UNL A   1      37.217  33.743  32.684  1.00  0.00     0.023 A 
ATOM     95  C   UNL A   1      36.201  34.655  32.351  1.00  0.00     0.031 A 
ATOM     96  C   UNL A   1      36.871  32.383  32.802  1.00  0.00     0.131 A 
ATOM     97  C   UNL A   1      34.879  34.208  32.206  1.00  0.00     0.055 A 
ATOM     98  C   UNL A   1      35.568  31.935  32.587  1.00  0.00     0.041 A 
ATOM     99  F   UNL A   1      37.799  31.467  33.119  1.00  0.00    -0.206 F 
ATOM    100  C   UNL A   1      34.560  32.851  32.301  1.00  0.00     0.022 A 
BRANCH  97 101
ATOM    101  S   UNL A   1      33.565  35.436  31.987  1.00  0.00     0.124 S 
ATOM    102  O   UNL A   1      34.113  36.594  32.686  1.00  0.00    -0.237 OA
ATOM    103  O   UNL A   1      33.481  35.550  30.535  1.00  0.00    -0.237 OA
ATOM    104  O   UNL A   1      32.406  34.817  32.628  1.00  0.00    -0.744 OA
ENDBRANCH  97 101
ENDBRANCH  71  94
ENDBRANCH  45  46
ENDBRANCH  38  40
ENDBRANCH  37  38
ENDBRANCH  36  37
ENDBRANCH  35  36
ENDBRANCH  34  35
ENDBRANCH  33  34
ENDBRANCH  32  33
ENDBRANCH  31  32
ENDBRANCH  30  31
ENDBRANCH   1  30
TORSDOF 29
ENDMDL
