MODEL 1
REMARK VINA RESULT:      -7.4      0.000      0.000
REMARK SMILES CCCCCCNC(=O)Oc1cccc(-c2ccc([C@@H](C)C(=O)OCCOCCOCCOCCOC(=O)c3ccc(-c4c5nc(c(-c6cc(S(=O)(=O)[O-])ccc6F)c6ccc([nH]6)c(-c6cc(S(=O)(=O)[O-])ccc6F)c6nc(c(-c7cc(S(=O)(=O)[O-])ccc7F)c7ccc4[nH]7)C=C6)C=C5)cc3)cc2)c1
REMARK SMILES IDX 27 1 26 2 25 3 24 4 22 5 23 6 20 7 21 8 19 9 16 10 17 11
REMARK SMILES IDX 103 12 18 13 102 14 15 15 11 16 12 17 104 18 13 19 14 20
REMARK SMILES IDX 10 21 8 22 7 23 9 25 6 26 5 27 4 28 3 29 2 30 1 31 28 32
REMARK SMILES IDX 29 33 30 34 31 35 32 36 33 37 34 38 35 39 36 40 37 41 38 42
REMARK SMILES IDX 39 43 40 44 101 45 41 46 100 47 42 48 43 49 44 50 94 51
REMARK SMILES IDX 45 52 99 53 93 54 95 55 46 56 98 57 92 58 91 59 47 61 79 62
REMARK SMILES IDX 59 63 78 64 60 65 63 66 77 67 96 68 61 69 62 70 76 72 97 73
REMARK SMILES IDX 64 74 48 75 49 76 57 77 50 78 56 79 58 80 55 81 51 82 52 83
REMARK SMILES IDX 53 84 54 85 80 86 81 87 89 88 82 89 88 90 90 91 87 92 83 93
REMARK SMILES IDX 84 94 85 95 86 96 65 97 66 98 74 99 67 100 73 101 75 102
REMARK SMILES IDX 72 103 68 104 69 105 70 106 71 107
REMARK H PARENT 7 24 95 60 63 71
REMARK Flexibility Score: inf
ROOT
ATOM      1  O   UNL A   1      40.723  34.954  32.899  1.00  0.00    -0.376 OA
ENDROOT
BRANCH   1   2
ATOM      2  C   UNL A   1      39.629  34.083  32.646  1.00  0.00     0.202 C 
BRANCH   2   3
ATOM      3  C   UNL A   1      38.420  34.574  31.827  1.00  0.00     0.261 C 
BRANCH   3   4
ATOM      4  O   UNL A   1      38.321  34.111  30.464  1.00  0.00    -0.463 OA
BRANCH   4   5
ATOM      5  C   UNL A   1      37.966  32.818  30.290  1.00  0.00     0.313 C 
ATOM      6  O   UNL A   1      38.754  31.941  29.935  1.00  0.00    -0.252 OA
BRANCH   5   7
ATOM      7  C   UNL A   1      36.492  32.485  30.525  1.00  0.00     0.126 C 
ATOM      8  C   UNL A   1      36.342  31.930  31.937  1.00  0.00     0.025 C 
BRANCH   7   9
ATOM      9  C   UNL A   1      35.685  31.665  29.516  1.00  0.00    -0.034 A 
ATOM     10  C   UNL A   1      34.115  30.246  27.575  1.00  0.00    -0.018 A 
ATOM     11  C   UNL A   1      35.166  29.625  28.274  1.00  0.00     0.009 A 
ATOM     12  C   UNL A   1      33.864  31.592  27.865  1.00  0.00     0.009 A 
ATOM     13  C   UNL A   1      35.936  30.318  29.231  1.00  0.00     0.005 A 
ATOM     14  C   UNL A   1      34.623  32.284  28.823  1.00  0.00     0.005 A 
BRANCH  10  15
ATOM     15  C   UNL A   1      33.267  29.497  26.621  1.00  0.00    -0.015 A 
ATOM     16  C   UNL A   1      32.521  27.434  25.558  1.00  0.00     0.133 A 
ATOM     17  C   UNL A   1      31.671  28.144  24.710  1.00  0.00     0.047 A 
ATOM     18  C   UNL A   1      33.325  28.095  26.497  1.00  0.00     0.056 A 
ATOM     19  C   UNL A   1      31.604  29.529  24.821  1.00  0.00     0.004 A 
ATOM     20  C   UNL A   1      32.393  30.195  25.765  1.00  0.00     0.009 A 
BRANCH  16  21
ATOM     21  O   UNL A   1      32.608  26.046  25.335  1.00  0.00    -0.410 OA
BRANCH  21  22
ATOM     22  C   UNL A   1      31.821  25.222  26.125  1.00  0.00     0.412 C 
ATOM     23  N   UNL A   1      32.411  24.024  26.430  1.00  0.00    -0.321 N 
ATOM     24  H   UNL A   1      31.916  23.441  27.051  1.00  0.00     0.167 HD
ATOM     25  O   UNL A   1      30.697  25.485  26.536  1.00  0.00    -0.224 OA
BRANCH  23  26
ATOM     26  C   UNL A   1      33.680  23.516  25.948  1.00  0.00     0.119 C 
BRANCH  26  27
ATOM     27  C   UNL A   1      33.516  22.592  24.740  1.00  0.00     0.021 C 
BRANCH  27  28
ATOM     28  C   UNL A   1      34.553  21.464  24.637  1.00  0.00     0.002 C 
BRANCH  28  29
ATOM     29  C   UNL A   1      34.147  20.126  25.267  1.00  0.00    -0.000 C 
BRANCH  29  30
ATOM     30  C   UNL A   1      33.917  18.975  24.285  1.00  0.00    -0.003 C 
ATOM     31  C   UNL A   1      32.528  18.977  23.664  1.00  0.00     0.004 C 
ENDBRANCH  29  30
ENDBRANCH  28  29
ENDBRANCH  27  28
ENDBRANCH  26  27
ENDBRANCH  23  26
ENDBRANCH  21  22
ENDBRANCH  16  21
ENDBRANCH  10  15
ENDBRANCH   7   9
ENDBRANCH   5   7
ENDBRANCH   4   5
ENDBRANCH   3   4
ENDBRANCH   2   3
ENDBRANCH   1   2
BRANCH   1  32
ATOM     32  C   UNL A   1      41.327  35.006  34.186  1.00  0.00     0.188 C 
BRANCH  32  33
ATOM     33  C   UNL A   1      41.101  36.190  35.137  1.00  0.00     0.188 C 
BRANCH  33  34
ATOM     34  O   UNL A   1      39.813  36.269  35.708  1.00  0.00    -0.377 OA
BRANCH  34  35
ATOM     35  C   UNL A   1      39.758  36.456  37.112  1.00  0.00     0.188 C 
BRANCH  35  36
ATOM     36  C   UNL A   1      40.476  35.401  37.975  1.00  0.00     0.188 C 
BRANCH  36  37
ATOM     37  O   UNL A   1      39.604  34.644  38.812  1.00  0.00    -0.376 OA
BRANCH  37  38
ATOM     38  C   UNL A   1      39.420  33.265  38.516  1.00  0.00     0.202 C 
BRANCH  38  39
ATOM     39  C   UNL A   1      38.093  32.836  37.866  1.00  0.00     0.261 C 
BRANCH  39  40
ATOM     40  O   UNL A   1      38.160  32.418  36.498  1.00  0.00    -0.460 OA
BRANCH  40  41
ATOM     41  C   UNL A   1      38.404  31.113  36.245  1.00  0.00     0.338 C 
ATOM     42  O   UNL A   1      37.788  30.163  36.672  1.00  0.00    -0.246 OA
BRANCH  41  43
ATOM     43  C   UNL A   1      39.407  31.054  35.154  1.00  0.00     0.060 A 
ATOM     44  C   UNL A   1      39.032  30.488  33.929  1.00  0.00     0.016 A 
ATOM     45  C   UNL A   1      40.701  31.547  35.336  1.00  0.00     0.016 A 
ATOM     46  C   UNL A   1      39.965  30.365  32.898  1.00  0.00     0.010 A 
ATOM     47  C   UNL A   1      41.643  31.402  34.309  1.00  0.00     0.010 A 
ATOM     48  C   UNL A   1      41.290  30.772  33.101  1.00  0.00    -0.014 A 
BRANCH  48  49
ATOM     49  C   UNL A   1      42.339  30.326  32.147  1.00  0.00     0.031 A 
ATOM     50  C   UNL A   1      42.952  28.966  32.351  1.00  0.00     0.074 A 
ATOM     51  C   UNL A   1      42.703  31.077  31.092  1.00  0.00     0.049 A 
ATOM     52  N   UNL A   1      43.888  28.358  31.669  1.00  0.00    -0.248 NA
ATOM     53  C   UNL A   1      42.434  28.188  33.488  1.00  0.00     0.031 C 
ATOM     54  C   UNL A   1      42.141  32.381  30.750  1.00  0.00     0.029 A 
ATOM     55  N   UNL A   1      43.635  30.844  30.110  1.00  0.00    -0.354 N 
ATOM     56  C   UNL A   1      44.074  27.129  32.294  1.00  0.00     0.074 A 
ATOM     57  C   UNL A   1      43.187  27.101  33.438  1.00  0.00     0.031 C 
ATOM     58  C   UNL A   1      42.742  32.835  29.636  1.00  0.00     0.029 A 
ATOM     59  C   UNL A   1      43.758  31.873  29.207  1.00  0.00     0.049 A 
ATOM     60  H   UNL A   1      44.166  30.016  30.058  1.00  0.00     0.167 HD
ATOM     61  C   UNL A   1      44.897  26.111  31.941  1.00  0.00     0.034 A 
ATOM     62  C   UNL A   1      44.607  32.029  28.169  1.00  0.00     0.034 A 
ATOM     63  C   UNL A   1      45.792  26.162  30.810  1.00  0.00     0.049 A 
ATOM     64  C   UNL A   1      45.598  30.931  27.859  1.00  0.00     0.074 A 
ATOM     65  C   UNL A   1      46.668  25.190  30.358  1.00  0.00     0.029 A 
ATOM     66  N   UNL A   1      45.940  27.253  29.960  1.00  0.00    -0.354 N 
ATOM     67  N   UNL A   1      45.765  29.772  28.454  1.00  0.00    -0.248 NA
ATOM     68  C   UNL A   1      46.512  31.163  26.732  1.00  0.00     0.031 C 
ATOM     69  C   UNL A   1      47.403  25.723  29.294  1.00  0.00     0.029 A 
ATOM     70  C   UNL A   1      46.921  26.992  29.016  1.00  0.00     0.049 A 
ATOM     71  H   UNL A   1      45.423  28.089  30.021  1.00  0.00     0.167 HD
ATOM     72  C   UNL A   1      46.777  29.122  27.749  1.00  0.00     0.074 A 
ATOM     73  C   UNL A   1      47.173  30.016  26.680  1.00  0.00     0.031 C 
ATOM     74  C   UNL A   1      47.320  27.894  27.959  1.00  0.00     0.034 A 
BRANCH  61  75
ATOM     75  C   UNL A   1      44.905  24.889  32.831  1.00  0.00     0.023 A 
ATOM     76  C   UNL A   1      45.669  24.834  34.010  1.00  0.00     0.031 A 
ATOM     77  C   UNL A   1      44.180  23.740  32.465  1.00  0.00     0.131 A 
ATOM     78  C   UNL A   1      45.762  23.633  34.730  1.00  0.00     0.055 A 
ATOM     79  C   UNL A   1      44.202  22.578  33.238  1.00  0.00     0.041 A 
ATOM     80  F   UNL A   1      43.452  23.720  31.338  1.00  0.00    -0.206 F 
ATOM     81  C   UNL A   1      45.012  22.512  34.368  1.00  0.00     0.022 A 
BRANCH  78  82
ATOM     82  S   UNL A   1      47.012  23.502  36.038  1.00  0.00     0.124 S 
ATOM     83  O   UNL A   1      48.185  23.069  35.283  1.00  0.00    -0.237 OA
ATOM     84  O   UNL A   1      47.058  24.860  36.568  1.00  0.00    -0.237 OA
ATOM     85  O   UNL A   1      46.458  22.497  36.943  1.00  0.00    -0.744 OA
ENDBRANCH  78  82
ENDBRANCH  61  75
BRANCH  62  86
ATOM     86  C   UNL A   1      44.589  33.284  27.361  1.00  0.00     0.023 A 
ATOM     87  C   UNL A   1      45.148  34.475  27.852  1.00  0.00     0.031 A 
ATOM     88  C   UNL A   1      43.964  33.322  26.101  1.00  0.00     0.131 A 
ATOM     89  C   UNL A   1      45.036  35.661  27.108  1.00  0.00     0.055 A 
ATOM     90  C   UNL A   1      43.905  34.491  25.340  1.00  0.00     0.041 A 
ATOM     91  F   UNL A   1      43.405  32.215  25.587  1.00  0.00    -0.206 F 
ATOM     92  C   UNL A   1      44.432  35.673  25.848  1.00  0.00     0.022 A 
BRANCH  89  93
ATOM     93  S   UNL A   1      45.617  37.211  27.848  1.00  0.00     0.124 S 
ATOM     94  O   UNL A   1      46.259  36.735  29.067  1.00  0.00    -0.237 OA
ATOM     95  O   UNL A   1      46.506  37.728  26.812  1.00  0.00    -0.237 OA
ATOM     96  O   UNL A   1      44.387  37.976  28.047  1.00  0.00    -0.744 OA
ENDBRANCH  89  93
ENDBRANCH  62  86
BRANCH  74  97
ATOM     97  C   UNL A   1      48.369  27.420  26.976  1.00  0.00     0.023 A 
ATOM     98  C   UNL A   1      49.740  27.653  27.178  1.00  0.00     0.031 A 
ATOM     99  C   UNL A   1      47.983  26.723  25.817  1.00  0.00     0.131 A 
ATOM    100  C   UNL A   1      50.670  27.245  26.208  1.00  0.00     0.055 A 
ATOM    101  C   UNL A   1      48.917  26.258  24.891  1.00  0.00     0.041 A 
ATOM    102  F   UNL A   1      46.687  26.475  25.567  1.00  0.00    -0.206 F 
ATOM    103  C   UNL A   1      50.269  26.530  25.076  1.00  0.00     0.022 A 
BRANCH 100 104
ATOM    104  S   UNL A   1      52.403  27.749  26.392  1.00  0.00     0.124 S 
ATOM    105  O   UNL A   1      52.386  28.425  27.684  1.00  0.00    -0.237 OA
ATOM    106  O   UNL A   1      53.106  26.471  26.349  1.00  0.00    -0.237 OA
ATOM    107  O   UNL A   1      52.632  28.620  25.240  1.00  0.00    -0.744 OA
ENDBRANCH 100 104
ENDBRANCH  74  97
ENDBRANCH  48  49
ENDBRANCH  41  43
ENDBRANCH  40  41
ENDBRANCH  39  40
ENDBRANCH  38  39
ENDBRANCH  37  38
ENDBRANCH  36  37
ENDBRANCH  35  36
ENDBRANCH  34  35
ENDBRANCH  33  34
ENDBRANCH  32  33
ENDBRANCH   1  32
TORSDOF 32
ENDMDL
MODEL 2
REMARK VINA RESULT:      -7.0      4.836     11.529
REMARK SMILES CCCCCCNC(=O)Oc1cccc(-c2ccc([C@@H](C)C(=O)OCCOCCOCCOCCOC(=O)c3ccc(-c4c5nc(c(-c6cc(S(=O)(=O)[O-])ccc6F)c6ccc([nH]6)c(-c6cc(S(=O)(=O)[O-])ccc6F)c6nc(c(-c7cc(S(=O)(=O)[O-])ccc7F)c7ccc4[nH]7)C=C6)C=C5)cc3)cc2)c1
REMARK SMILES IDX 27 1 26 2 25 3 24 4 22 5 23 6 20 7 21 8 19 9 16 10 17 11
REMARK SMILES IDX 103 12 18 13 102 14 15 15 11 16 12 17 104 18 13 19 14 20
REMARK SMILES IDX 10 21 8 22 7 23 9 25 6 26 5 27 4 28 3 29 2 30 1 31 28 32
REMARK SMILES IDX 29 33 30 34 31 35 32 36 33 37 34 38 35 39 36 40 37 41 38 42
REMARK SMILES IDX 39 43 40 44 101 45 41 46 100 47 42 48 43 49 44 50 94 51
REMARK SMILES IDX 45 52 99 53 93 54 95 55 46 56 98 57 92 58 91 59 47 61 79 62
REMARK SMILES IDX 59 63 78 64 60 65 63 66 77 67 96 68 61 69 62 70 76 72 97 73
REMARK SMILES IDX 64 74 48 75 49 76 57 77 50 78 56 79 58 80 55 81 51 82 52 83
REMARK SMILES IDX 53 84 54 85 80 86 81 87 89 88 82 89 88 90 90 91 87 92 83 93
REMARK SMILES IDX 84 94 85 95 86 96 65 97 66 98 74 99 67 100 73 101 75 102
REMARK SMILES IDX 72 103 68 104 69 105 70 106 71 107
REMARK H PARENT 7 24 95 60 63 71
REMARK Flexibility Score: inf
ROOT
ATOM      1  O   UNL A   1      41.052  26.785  26.254  1.00  0.00    -0.376 OA
ENDROOT
BRANCH   1   2
ATOM      2  C   UNL A   1      41.816  27.473  27.234  1.00  0.00     0.202 C 
BRANCH   2   3
ATOM      3  C   UNL A   1      42.437  28.845  26.910  1.00  0.00     0.261 C 
BRANCH   3   4
ATOM      4  O   UNL A   1      43.766  29.098  27.414  1.00  0.00    -0.463 OA
BRANCH   4   5
ATOM      5  C   UNL A   1      43.849  29.780  28.579  1.00  0.00     0.313 C 
ATOM      6  O   UNL A   1      44.133  29.252  29.654  1.00  0.00    -0.252 OA
BRANCH   5   7
ATOM      7  C   UNL A   1      43.532  31.274  28.511  1.00  0.00     0.126 C 
ATOM      8  C   UNL A   1      44.772  32.009  28.015  1.00  0.00     0.025 C 
BRANCH   7   9
ATOM      9  C   UNL A   1      42.881  32.010  29.685  1.00  0.00    -0.034 A 
ATOM     10  C   UNL A   1      41.571  33.285  31.899  1.00  0.00    -0.018 A 
ATOM     11  C   UNL A   1      42.816  33.730  31.420  1.00  0.00     0.009 A 
ATOM     12  C   UNL A   1      40.992  32.189  31.249  1.00  0.00     0.009 A 
ATOM     13  C   UNL A   1      43.461  33.109  30.330  1.00  0.00     0.005 A 
ATOM     14  C   UNL A   1      41.627  31.571  30.158  1.00  0.00     0.005 A 
BRANCH  10  15
ATOM     15  C   UNL A   1      40.868  33.981  32.999  1.00  0.00    -0.015 A 
ATOM     16  C   UNL A   1      38.863  34.517  34.279  1.00  0.00     0.133 A 
ATOM     17  C   UNL A   1      39.575  35.416  35.073  1.00  0.00     0.047 A 
ATOM     18  C   UNL A   1      39.490  33.812  33.242  1.00  0.00     0.056 A 
ATOM     19  C   UNL A   1      40.935  35.593  34.844  1.00  0.00     0.004 A 
ATOM     20  C   UNL A   1      41.572  34.884  33.820  1.00  0.00     0.009 A 
BRANCH  16  21
ATOM     21  O   UNL A   1      37.474  34.450  34.504  1.00  0.00    -0.410 OA
BRANCH  21  22
ATOM     22  C   UNL A   1      36.647  34.465  33.391  1.00  0.00     0.412 C 
ATOM     23  N   UNL A   1      36.187  33.226  33.030  1.00  0.00    -0.321 N 
ATOM     24  H   UNL A   1      35.537  33.201  32.291  1.00  0.00     0.167 HD
ATOM     25  O   UNL A   1      36.327  35.458  32.749  1.00  0.00    -0.224 OA
BRANCH  23  26
ATOM     26  C   UNL A   1      36.544  31.946  33.612  1.00  0.00     0.119 C 
BRANCH  26  27
ATOM     27  C   UNL A   1      37.305  31.052  32.631  1.00  0.00     0.021 C 
BRANCH  27  28
ATOM     28  C   UNL A   1      37.833  29.738  33.224  1.00  0.00     0.002 C 
BRANCH  28  29
ATOM     29  C   UNL A   1      39.343  29.507  33.091  1.00  0.00    -0.000 C 
BRANCH  29  30
ATOM     30  C   UNL A   1      39.755  28.171  32.467  1.00  0.00    -0.003 C 
ATOM     31  C   UNL A   1      38.987  27.833  31.198  1.00  0.00     0.004 C 
ENDBRANCH  29  30
ENDBRANCH  28  29
ENDBRANCH  27  28
ENDBRANCH  26  27
ENDBRANCH  23  26
ENDBRANCH  21  22
ENDBRANCH  16  21
ENDBRANCH  10  15
ENDBRANCH   7   9
ENDBRANCH   5   7
ENDBRANCH   4   5
ENDBRANCH   3   4
ENDBRANCH   2   3
ENDBRANCH   1   2
BRANCH   1  32
ATOM     32  C   UNL A   1      40.961  25.365  26.270  1.00  0.00     0.188 C 
BRANCH  32  33
ATOM     33  C   UNL A   1      40.898  24.574  27.585  1.00  0.00     0.188 C 
BRANCH  33  34
ATOM     34  O   UNL A   1      42.104  23.954  27.975  1.00  0.00    -0.377 OA
BRANCH  34  35
ATOM     35  C   UNL A   1      42.007  22.609  28.412  1.00  0.00     0.188 C 
BRANCH  35  36
ATOM     36  C   UNL A   1      40.860  21.773  27.815  1.00  0.00     0.188 C 
BRANCH  36  37
ATOM     37  O   UNL A   1      41.115  21.298  26.494  1.00  0.00    -0.376 OA
BRANCH  37  38
ATOM     38  C   UNL A   1      42.238  20.447  26.293  1.00  0.00     0.202 C 
BRANCH  38  39
ATOM     39  C   UNL A   1      43.360  20.940  25.363  1.00  0.00     0.261 C 
BRANCH  39  40
ATOM     40  O   UNL A   1      43.250  22.287  24.890  1.00  0.00    -0.460 OA
BRANCH  40  41
ATOM     41  C   UNL A   1      44.311  22.821  24.246  1.00  0.00     0.338 C 
ATOM     42  O   UNL A   1      44.625  22.641  23.090  1.00  0.00    -0.246 OA
BRANCH  41  43
ATOM     43  C   UNL A   1      44.887  23.863  25.130  1.00  0.00     0.060 A 
ATOM     44  C   UNL A   1      46.012  23.541  25.900  1.00  0.00     0.016 A 
ATOM     45  C   UNL A   1      44.325  25.140  25.202  1.00  0.00     0.016 A 
ATOM     46  C   UNL A   1      46.547  24.478  26.786  1.00  0.00     0.010 A 
ATOM     47  C   UNL A   1      44.849  26.071  26.108  1.00  0.00     0.010 A 
ATOM     48  C   UNL A   1      45.936  25.729  26.934  1.00  0.00    -0.014 A 
BRANCH  48  49
ATOM     49  C   UNL A   1      46.289  26.574  28.105  1.00  0.00     0.031 A 
ATOM     50  C   UNL A   1      47.155  27.783  27.873  1.00  0.00     0.074 A 
ATOM     51  C   UNL A   1      45.811  26.314  29.336  1.00  0.00     0.049 A 
ATOM     52  N   UNL A   1      47.610  28.664  28.727  1.00  0.00    -0.248 NA
ATOM     53  C   UNL A   1      47.565  28.026  26.481  1.00  0.00     0.031 C 
ATOM     54  C   UNL A   1      44.916  25.212  29.679  1.00  0.00     0.029 A 
ATOM     55  N   UNL A   1      46.014  26.966  30.527  1.00  0.00    -0.354 N 
ATOM     56  C   UNL A   1      48.361  29.564  27.977  1.00  0.00     0.074 A 
ATOM     57  C   UNL A   1      48.339  29.092  26.608  1.00  0.00     0.031 C 
ATOM     58  C   UNL A   1      44.647  25.263  30.995  1.00  0.00     0.029 A 
ATOM     59  C   UNL A   1      45.382  26.377  31.596  1.00  0.00     0.049 A 
ATOM     60  H   UNL A   1      46.562  27.780  30.609  1.00  0.00     0.167 HD
ATOM     61  C   UNL A   1      48.999  30.688  28.387  1.00  0.00     0.034 A 
ATOM     62  C   UNL A   1      45.411  26.688  32.910  1.00  0.00     0.034 A 
ATOM     63  C   UNL A   1      49.030  31.134  29.759  1.00  0.00     0.049 A 
ATOM     64  C   UNL A   1      46.223  27.879  33.366  1.00  0.00     0.074 A 
ATOM     65  C   UNL A   1      49.644  32.257  30.288  1.00  0.00     0.029 A 
ATOM     66  N   UNL A   1      48.437  30.469  30.826  1.00  0.00    -0.354 N 
ATOM     67  N   UNL A   1      46.928  28.724  32.650  1.00  0.00    -0.248 NA
ATOM     68  C   UNL A   1      46.236  28.159  34.808  1.00  0.00     0.031 C 
ATOM     69  C   UNL A   1      49.496  32.224  31.678  1.00  0.00     0.029 A 
ATOM     70  C   UNL A   1      48.706  31.135  32.013  1.00  0.00     0.049 A 
ATOM     71  H   UNL A   1      47.904  29.645  30.750  1.00  0.00     0.167 HD
ATOM     72  C   UNL A   1      47.437  29.658  33.552  1.00  0.00     0.074 A 
ATOM     73  C   UNL A   1      46.949  29.275  34.860  1.00  0.00     0.031 C 
ATOM     74  C   UNL A   1      48.226  30.739  33.318  1.00  0.00     0.034 A 
BRANCH  61  75
ATOM     75  C   UNL A   1      49.765  31.467  27.342  1.00  0.00     0.023 A 
ATOM     76  C   UNL A   1      51.039  31.066  26.902  1.00  0.00     0.031 A 
ATOM     77  C   UNL A   1      49.235  32.661  26.818  1.00  0.00     0.131 A 
ATOM     78  C   UNL A   1      51.775  31.894  26.040  1.00  0.00     0.055 A 
ATOM     79  C   UNL A   1      49.935  33.431  25.888  1.00  0.00     0.041 A 
ATOM     80  F   UNL A   1      48.036  33.110  27.218  1.00  0.00    -0.206 F 
ATOM     81  C   UNL A   1      51.221  33.060  25.507  1.00  0.00     0.022 A 
BRANCH  78  82
ATOM     82  S   UNL A   1      53.529  31.518  25.766  1.00  0.00     0.124 S 
ATOM     83  O   UNL A   1      53.961  31.134  27.108  1.00  0.00    -0.237 OA
ATOM     84  O   UNL A   1      53.471  30.444  24.781  1.00  0.00    -0.237 OA
ATOM     85  O   UNL A   1      54.079  32.782  25.282  1.00  0.00    -0.744 OA
ENDBRANCH  78  82
ENDBRANCH  61  75
BRANCH  62  86
ATOM     86  C   UNL A   1      44.679  25.845  33.902  1.00  0.00     0.023 A 
ATOM     87  C   UNL A   1      43.501  26.300  34.515  1.00  0.00     0.031 A 
ATOM     88  C   UNL A   1      45.180  24.589  34.290  1.00  0.00     0.131 A 
ATOM     89  C   UNL A   1      42.885  25.524  35.511  1.00  0.00     0.055 A 
ATOM     90  C   UNL A   1      44.532  23.797  35.239  1.00  0.00     0.041 A 
ATOM     91  F   UNL A   1      46.308  24.109  33.742  1.00  0.00    -0.206 F 
ATOM     92  C   UNL A   1      43.384  24.268  35.865  1.00  0.00     0.022 A 
BRANCH  89  93
ATOM     93  S   UNL A   1      41.465  26.218  36.401  1.00  0.00     0.124 S 
ATOM     94  O   UNL A   1      41.958  26.244  37.772  1.00  0.00    -0.237 OA
ATOM     95  O   UNL A   1      41.302  27.514  35.750  1.00  0.00    -0.237 OA
ATOM     96  O   UNL A   1      40.396  25.255  36.140  1.00  0.00    -0.744 OA
ENDBRANCH  89  93
ENDBRANCH  62  86
BRANCH  74  97
ATOM     97  C   UNL A   1      48.567  31.620  34.499  1.00  0.00     0.023 A 
ATOM     98  C   UNL A   1      49.726  31.420  35.270  1.00  0.00     0.031 A 
ATOM     99  C   UNL A   1      47.713  32.679  34.858  1.00  0.00     0.131 A 
ATOM    100  C   UNL A   1      49.968  32.227  36.392  1.00  0.00     0.055 A 
ATOM    101  C   UNL A   1      47.995  33.523  35.932  1.00  0.00     0.041 A 
ATOM    102  F   UNL A   1      46.589  32.917  34.162  1.00  0.00    -0.206 F 
ATOM    103  C   UNL A   1      49.121  33.291  36.715  1.00  0.00     0.022 A 
BRANCH 100 104
ATOM    104  S   UNL A   1      51.352  31.808  37.488  1.00  0.00     0.124 S 
ATOM    105  O   UNL A   1      51.927  33.120  37.764  1.00  0.00    -0.237 OA
ATOM    106  O   UNL A   1      50.678  31.158  38.607  1.00  0.00    -0.237 OA
ATOM    107  O   UNL A   1      52.184  30.926  36.670  1.00  0.00    -0.744 OA
ENDBRANCH 100 104
ENDBRANCH  74  97
ENDBRANCH  48  49
ENDBRANCH  41  43
ENDBRANCH  40  41
ENDBRANCH  39  40
ENDBRANCH  38  39
ENDBRANCH  37  38
ENDBRANCH  36  37
ENDBRANCH  35  36
ENDBRANCH  34  35
ENDBRANCH  33  34
ENDBRANCH  32  33
ENDBRANCH   1  32
TORSDOF 32
ENDMDL
MODEL 3
REMARK VINA RESULT:      -6.4      8.202     13.771
REMARK SMILES CCCCCCNC(=O)Oc1cccc(-c2ccc([C@@H](C)C(=O)OCCOCCOCCOCCOC(=O)c3ccc(-c4c5nc(c(-c6cc(S(=O)(=O)[O-])ccc6F)c6ccc([nH]6)c(-c6cc(S(=O)(=O)[O-])ccc6F)c6nc(c(-c7cc(S(=O)(=O)[O-])ccc7F)c7ccc4[nH]7)C=C6)C=C5)cc3)cc2)c1
REMARK SMILES IDX 27 1 26 2 25 3 24 4 22 5 23 6 20 7 21 8 19 9 16 10 17 11
REMARK SMILES IDX 103 12 18 13 102 14 15 15 11 16 12 17 104 18 13 19 14 20
REMARK SMILES IDX 10 21 8 22 7 23 9 25 6 26 5 27 4 28 3 29 2 30 1 31 28 32
REMARK SMILES IDX 29 33 30 34 31 35 32 36 33 37 34 38 35 39 36 40 37 41 38 42
REMARK SMILES IDX 39 43 40 44 101 45 41 46 100 47 42 48 43 49 44 50 94 51
REMARK SMILES IDX 45 52 99 53 93 54 95 55 46 56 98 57 92 58 91 59 47 61 79 62
REMARK SMILES IDX 59 63 78 64 60 65 63 66 77 67 96 68 61 69 62 70 76 72 97 73
REMARK SMILES IDX 64 74 48 75 49 76 57 77 50 78 56 79 58 80 55 81 51 82 52 83
REMARK SMILES IDX 53 84 54 85 80 86 81 87 89 88 82 89 88 90 90 91 87 92 83 93
REMARK SMILES IDX 84 94 85 95 86 96 65 97 66 98 74 99 67 100 73 101 75 102
REMARK SMILES IDX 72 103 68 104 69 105 70 106 71 107
REMARK H PARENT 7 24 95 60 63 71
REMARK Flexibility Score: inf
ROOT
ATOM      1  O   UNL A   1      42.390  25.129  27.506  1.00  0.00    -0.376 OA
ENDROOT
BRANCH   1   2
ATOM      2  C   UNL A   1      42.024  24.475  28.713  1.00  0.00     0.202 C 
BRANCH   2   3
ATOM      3  C   UNL A   1      42.546  23.057  29.015  1.00  0.00     0.261 C 
BRANCH   3   4
ATOM      4  O   UNL A   1      42.630  22.139  27.904  1.00  0.00    -0.463 OA
BRANCH   4   5
ATOM      5  C   UNL A   1      41.531  21.392  27.654  1.00  0.00     0.313 C 
ATOM      6  O   UNL A   1      40.986  20.685  28.502  1.00  0.00    -0.252 OA
BRANCH   5   7
ATOM      7  C   UNL A   1      40.999  21.432  26.222  1.00  0.00     0.126 C 
ATOM      8  C   UNL A   1      41.723  22.543  25.469  1.00  0.00     0.025 C 
BRANCH   7   9
ATOM      9  C   UNL A   1      39.498  21.444  25.924  1.00  0.00    -0.034 A 
ATOM     10  C   UNL A   1      36.686  21.330  25.354  1.00  0.00    -0.018 A 
ATOM     11  C   UNL A   1      37.290  22.492  25.865  1.00  0.00     0.009 A 
ATOM     12  C   UNL A   1      37.515  20.224  25.132  1.00  0.00     0.009 A 
ATOM     13  C   UNL A   1      38.672  22.553  26.143  1.00  0.00     0.005 A 
ATOM     14  C   UNL A   1      38.893  20.282  25.400  1.00  0.00     0.005 A 
BRANCH  10  15
ATOM     15  C   UNL A   1      35.249  21.292  25.001  1.00  0.00    -0.015 A 
ATOM     16  C   UNL A   1      33.090  22.362  24.631  1.00  0.00     0.133 A 
ATOM     17  C   UNL A   1      32.484  21.127  24.403  1.00  0.00     0.047 A 
ATOM     18  C   UNL A   1      34.454  22.453  24.941  1.00  0.00     0.056 A 
ATOM     19  C   UNL A   1      33.257  19.972  24.459  1.00  0.00     0.004 A 
ATOM     20  C   UNL A   1      34.621  20.055  24.755  1.00  0.00     0.009 A 
BRANCH  16  21
ATOM     21  O   UNL A   1      32.237  23.482  24.647  1.00  0.00    -0.410 OA
BRANCH  21  22
ATOM     22  C   UNL A   1      31.660  23.863  23.445  1.00  0.00     0.412 C 
ATOM     23  N   UNL A   1      32.313  24.894  22.823  1.00  0.00    -0.321 N 
ATOM     24  H   UNL A   1      31.980  25.145  21.931  1.00  0.00     0.167 HD
ATOM     25  O   UNL A   1      30.662  23.364  22.940  1.00  0.00    -0.224 OA
BRANCH  23  26
ATOM     26  C   UNL A   1      33.438  25.659  23.325  1.00  0.00     0.119 C 
BRANCH  26  27
ATOM     27  C   UNL A   1      33.017  27.023  23.874  1.00  0.00     0.021 C 
BRANCH  27  28
ATOM     28  C   UNL A   1      31.501  27.256  23.947  1.00  0.00     0.002 C 
BRANCH  28  29
ATOM     29  C   UNL A   1      30.936  27.530  25.346  1.00  0.00    -0.000 C 
BRANCH  29  30
ATOM     30  C   UNL A   1      31.672  28.598  26.159  1.00  0.00    -0.003 C 
ATOM     31  C   UNL A   1      31.791  28.258  27.637  1.00  0.00     0.004 C 
ENDBRANCH  29  30
ENDBRANCH  28  29
ENDBRANCH  27  28
ENDBRANCH  26  27
ENDBRANCH  23  26
ENDBRANCH  21  22
ENDBRANCH  16  21
ENDBRANCH  10  15
ENDBRANCH   7   9
ENDBRANCH   5   7
ENDBRANCH   4   5
ENDBRANCH   3   4
ENDBRANCH   2   3
ENDBRANCH   1   2
BRANCH   1  32
ATOM     32  C   UNL A   1      43.551  25.950  27.448  1.00  0.00     0.188 C 
BRANCH  32  33
ATOM     33  C   UNL A   1      44.958  25.349  27.312  1.00  0.00     0.188 C 
BRANCH  33  34
ATOM     34  O   UNL A   1      45.994  26.282  27.093  1.00  0.00    -0.377 OA
BRANCH  34  35
ATOM     35  C   UNL A   1      45.622  27.650  27.104  1.00  0.00     0.188 C 
BRANCH  35  36
ATOM     36  C   UNL A   1      46.240  28.522  28.213  1.00  0.00     0.188 C 
BRANCH  36  37
ATOM     37  O   UNL A   1      46.434  29.885  27.839  1.00  0.00    -0.376 OA
BRANCH  37  38
ATOM     38  C   UNL A   1      45.313  30.612  27.350  1.00  0.00     0.202 C 
BRANCH  38  39
ATOM     39  C   UNL A   1      44.666  31.653  28.278  1.00  0.00     0.261 C 
BRANCH  39  40
ATOM     40  O   UNL A   1      44.670  33.009  27.816  1.00  0.00    -0.460 OA
BRANCH  40  41
ATOM     41  C   UNL A   1      43.911  33.908  28.481  1.00  0.00     0.338 C 
ATOM     42  O   UNL A   1      42.837  33.707  29.002  1.00  0.00    -0.246 OA
BRANCH  41  43
ATOM     43  C   UNL A   1      44.736  35.125  28.675  1.00  0.00     0.060 A 
ATOM     44  C   UNL A   1      44.220  36.167  29.456  1.00  0.00     0.016 A 
ATOM     45  C   UNL A   1      46.001  35.240  28.094  1.00  0.00     0.016 A 
ATOM     46  C   UNL A   1      44.943  37.350  29.614  1.00  0.00     0.010 A 
ATOM     47  C   UNL A   1      46.716  36.436  28.235  1.00  0.00     0.010 A 
ATOM     48  C   UNL A   1      46.172  37.511  28.960  1.00  0.00    -0.014 A 
BRANCH  48  49
ATOM     49  C   UNL A   1      46.759  38.872  28.848  1.00  0.00     0.031 A 
ATOM     50  C   UNL A   1      47.604  39.377  29.988  1.00  0.00     0.074 A 
ATOM     51  C   UNL A   1      46.599  39.624  27.744  1.00  0.00     0.049 A 
ATOM     52  N   UNL A   1      48.211  40.526  30.136  1.00  0.00    -0.248 NA
ATOM     53  C   UNL A   1      47.782  38.451  31.118  1.00  0.00     0.031 C 
ATOM     54  C   UNL A   1      45.858  39.225  26.551  1.00  0.00     0.029 A 
ATOM     55  N   UNL A   1      47.058  40.885  27.450  1.00  0.00    -0.354 N 
ATOM     56  C   UNL A   1      48.842  40.464  31.375  1.00  0.00     0.074 A 
ATOM     57  C   UNL A   1      48.500  39.182  31.955  1.00  0.00     0.031 C 
ATOM     58  C   UNL A   1      45.911  40.224  25.651  1.00  0.00     0.029 A 
ATOM     59  C   UNL A   1      46.655  41.348  26.220  1.00  0.00     0.049 A 
ATOM     60  H   UNL A   1      47.623  41.410  28.063  1.00  0.00     0.167 HD
ATOM     61  C   UNL A   1      49.643  41.383  31.968  1.00  0.00     0.034 A 
ATOM     62  C   UNL A   1      46.847  42.548  25.631  1.00  0.00     0.034 A 
ATOM     63  C   UNL A   1      49.956  42.665  31.386  1.00  0.00     0.049 A 
ATOM     64  C   UNL A   1      47.647  43.604  26.358  1.00  0.00     0.074 A 
ATOM     65  C   UNL A   1      50.757  43.672  31.897  1.00  0.00     0.029 A 
ATOM     66  N   UNL A   1      49.469  43.127  30.169  1.00  0.00    -0.354 N 
ATOM     67  N   UNL A   1      48.240  43.536  27.528  1.00  0.00    -0.248 NA
ATOM     68  C   UNL A   1      47.807  44.898  25.681  1.00  0.00     0.031 C 
ATOM     69  C   UNL A   1      50.684  44.770  31.034  1.00  0.00     0.029 A 
ATOM     70  C   UNL A   1      49.918  44.418  29.934  1.00  0.00     0.049 A 
ATOM     71  H   UNL A   1      48.889  42.612  29.562  1.00  0.00     0.167 HD
ATOM     72  C   UNL A   1      48.875  44.764  27.708  1.00  0.00     0.074 A 
ATOM     73  C   UNL A   1      48.599  45.548  26.521  1.00  0.00     0.031 C 
ATOM     74  C   UNL A   1      49.627  45.200  28.753  1.00  0.00     0.034 A 
BRANCH  61  75
ATOM     75  C   UNL A   1      50.175  41.049  33.343  1.00  0.00     0.023 A 
ATOM     76  C   UNL A   1      49.514  41.457  34.515  1.00  0.00     0.031 A 
ATOM     77  C   UNL A   1      51.393  40.358  33.484  1.00  0.00     0.131 A 
ATOM     78  C   UNL A   1      50.116  41.252  35.767  1.00  0.00     0.055 A 
ATOM     79  C   UNL A   1      51.939  40.074  34.736  1.00  0.00     0.041 A 
ATOM     80  F   UNL A   1      52.085  39.965  32.403  1.00  0.00    -0.206 F 
ATOM     81  C   UNL A   1      51.310  40.539  35.888  1.00  0.00     0.022 A 
BRANCH  78  82
ATOM     82  S   UNL A   1      49.408  42.085  37.215  1.00  0.00     0.124 S 
ATOM     83  O   UNL A   1      50.497  41.973  38.181  1.00  0.00    -0.237 OA
ATOM     84  O   UNL A   1      49.139  43.426  36.707  1.00  0.00    -0.237 OA
ATOM     85  O   UNL A   1      48.225  41.285  37.526  1.00  0.00    -0.744 OA
ENDBRANCH  78  82
ENDBRANCH  61  75
BRANCH  62  86
ATOM     86  C   UNL A   1      46.247  42.838  24.295  1.00  0.00     0.023 A 
ATOM     87  C   UNL A   1      46.984  42.664  23.113  1.00  0.00     0.031 A 
ATOM     88  C   UNL A   1      44.940  43.345  24.186  1.00  0.00     0.131 A 
ATOM     89  C   UNL A   1      46.424  43.031  21.877  1.00  0.00     0.055 A 
ATOM     90  C   UNL A   1      44.368  43.655  22.951  1.00  0.00     0.041 A 
ATOM     91  F   UNL A   1      44.193  43.540  25.286  1.00  0.00    -0.206 F 
ATOM     92  C   UNL A   1      45.115  43.510  21.788  1.00  0.00     0.022 A 
BRANCH  89  93
ATOM     93  S   UNL A   1      47.463  42.953  20.393  1.00  0.00     0.124 S 
ATOM     94  O   UNL A   1      48.057  41.627  20.516  1.00  0.00    -0.237 OA
ATOM     95  O   UNL A   1      46.482  43.122  19.326  1.00  0.00    -0.237 OA
ATOM     96  O   UNL A   1      48.389  44.071  20.566  1.00  0.00    -0.744 OA
ENDBRANCH  89  93
ENDBRANCH  62  86
BRANCH  74  97
ATOM     97  C   UNL A   1      50.252  46.572  28.635  1.00  0.00     0.023 A 
ATOM     98  C   UNL A   1      49.643  47.719  29.174  1.00  0.00     0.031 A 
ATOM     99  C   UNL A   1      51.482  46.732  27.970  1.00  0.00     0.131 A 
ATOM    100  C   UNL A   1      50.233  48.979  28.988  1.00  0.00     0.055 A 
ATOM    101  C   UNL A   1      52.099  47.977  27.849  1.00  0.00     0.041 A 
ATOM    102  F   UNL A   1      52.110  45.674  27.430  1.00  0.00    -0.206 F 
ATOM    103  C   UNL A   1      51.469  49.112  28.347  1.00  0.00     0.022 A 
BRANCH 100 104
ATOM    104  S   UNL A   1      49.319  50.457  29.504  1.00  0.00     0.124 S 
ATOM    105  O   UNL A   1      47.942  49.975  29.511  1.00  0.00    -0.237 OA
ATOM    106  O   UNL A   1      49.901  50.745  30.811  1.00  0.00    -0.237 OA
ATOM    107  O   UNL A   1      49.628  51.435  28.461  1.00  0.00    -0.744 OA
ENDBRANCH 100 104
ENDBRANCH  74  97
ENDBRANCH  48  49
ENDBRANCH  41  43
ENDBRANCH  40  41
ENDBRANCH  39  40
ENDBRANCH  38  39
ENDBRANCH  37  38
ENDBRANCH  36  37
ENDBRANCH  35  36
ENDBRANCH  34  35
ENDBRANCH  33  34
ENDBRANCH  32  33
ENDBRANCH   1  32
TORSDOF 32
ENDMDL
