MODEL 1
REMARK VINA RESULT:     -10.0      0.000      0.000
REMARK SMILES Cc1cc(Br)cc2c1O[C@H](C(F)(F)F)C(C(=O)OCCOCCOCCOCCOC(=O)c1ccc(-c3c4nc(c(-c5cc(S(=O)(=O)[O-])ccc5F)c5ccc([nH]5)c(-c5cc(S(=O)(=O)[O-])ccc5F)c5nc(c(-c6cc(S(=O)(=O)[O-])ccc6F)c6ccc3[nH]6)C=C5)C=C4)cc1)=C2
REMARK SMILES IDX 25 1 24 2 23 3 22 4 21 5 20 6 19 7 18 8 16 9 17 10 15 11
REMARK SMILES IDX 1 12 2 13 3 14 8 15 4 16 7 17 9 18 5 19 6 20 96 21 10 22
REMARK SMILES IDX 11 23 12 24 13 25 14 26 26 27 27 28 28 29 29 30 30 31 31 32
REMARK SMILES IDX 32 33 33 34 34 35 95 36 35 37 94 38 36 39 37 40 38 41 88 42
REMARK SMILES IDX 39 43 93 44 87 45 89 46 40 47 92 48 86 49 85 50 41 52 73 53
REMARK SMILES IDX 53 54 72 55 54 56 57 57 71 58 90 59 55 60 56 61 70 63 91 64
REMARK SMILES IDX 58 65 42 66 43 67 51 68 44 69 50 70 52 71 49 72 45 73 46 74
REMARK SMILES IDX 47 75 48 76 74 77 75 78 83 79 76 80 82 81 84 82 81 83 77 84
REMARK SMILES IDX 78 85 79 86 80 87 59 88 60 89 68 90 61 91 67 92 69 93 66 94
REMARK SMILES IDX 62 95 63 96 64 97 65 98
REMARK H PARENT 89 51 57 62
REMARK Flexibility Score: inf
ROOT
ATOM      1  C   UNL A   1      33.607  29.326  27.174  1.00  0.00     0.188 C 
ENDROOT
BRANCH   1   2
ATOM      2  O   UNL A   1      33.917  28.102  26.506  1.00  0.00    -0.377 OA
BRANCH   2   3
ATOM      3  C   UNL A   1      32.862  27.173  26.328  1.00  0.00     0.188 C 
BRANCH   3   4
ATOM      4  C   UNL A   1      31.735  27.716  25.431  1.00  0.00     0.188 C 
BRANCH   4   5
ATOM      5  O   UNL A   1      30.864  26.733  24.907  1.00  0.00    -0.376 OA
BRANCH   5   6
ATOM      6  C   UNL A   1      31.090  26.102  23.656  1.00  0.00     0.202 C 
BRANCH   6   7
ATOM      7  C   UNL A   1      31.614  24.670  23.431  1.00  0.00     0.261 C 
BRANCH   7   8
ATOM      8  O   UNL A   1      31.081  23.625  24.241  1.00  0.00    -0.460 OA
BRANCH   8   9
ATOM      9  C   UNL A   1      31.677  23.380  25.420  1.00  0.00     0.338 C 
ATOM     10  O   UNL A   1      31.369  23.830  26.510  1.00  0.00    -0.246 OA
BRANCH   9  11
ATOM     11  C   UNL A   1      32.674  22.311  25.196  1.00  0.00     0.087 C 
ATOM     12  C   UNL A   1      36.949  19.485  24.737  1.00  0.00     0.048 C 
ATOM     13  C   UNL A   1      35.467  19.231  24.765  1.00  0.00    -0.007 A 
ATOM     14  C   UNL A   1      35.015  17.902  24.786  1.00  0.00     0.023 A 
ATOM     15  C   UNL A   1      34.526  20.273  24.823  1.00  0.00     0.130 A 
ATOM     16  C   UNL A   1      33.651  17.623  24.851  1.00  0.00     0.019 A 
ATOM     17  C   UNL A   1      33.163  19.984  24.942  1.00  0.00     0.019 A 
ATOM     18  O   UNL A   1      35.011  21.549  24.771  1.00  0.00    -0.475 OA
ATOM     19  Br  UNL A   1      33.060  15.828  24.885  1.00  0.00    -0.051 Br
ATOM     20  C   UNL A   1      32.722  18.656  24.926  1.00  0.00     0.027 A 
ATOM     21  C   UNL A   1      32.208  21.056  25.159  1.00  0.00     0.027 C 
ATOM     22  C   UNL A   1      34.112  22.678  24.940  1.00  0.00     0.316 C 
BRANCH  22  23
ATOM     23  C   UNL A   1      34.690  23.570  26.047  1.00  0.00     0.430 C 
ATOM     24  F   UNL A   1      36.021  23.363  26.201  1.00  0.00    -0.167 F 
ATOM     25  F   UNL A   1      34.526  24.885  25.783  1.00  0.00    -0.167 F 
ATOM     26  F   UNL A   1      34.103  23.320  27.241  1.00  0.00    -0.167 F 
ENDBRANCH  22  23
ENDBRANCH   9  11
ENDBRANCH   8   9
ENDBRANCH   7   8
ENDBRANCH   6   7
ENDBRANCH   5   6
ENDBRANCH   4   5
ENDBRANCH   3   4
ENDBRANCH   2   3
ENDBRANCH   1   2
BRANCH   1  27
ATOM     27  C   UNL A   1      34.729  30.295  27.615  1.00  0.00     0.188 C 
BRANCH  27  28
ATOM     28  O   UNL A   1      34.315  31.655  27.711  1.00  0.00    -0.376 OA
BRANCH  28  29
ATOM     29  C   UNL A   1      33.002  31.976  27.279  1.00  0.00     0.202 C 
BRANCH  29  30
ATOM     30  C   UNL A   1      32.524  33.391  27.630  1.00  0.00     0.261 C 
BRANCH  30  31
ATOM     31  O   UNL A   1      33.535  34.286  28.117  1.00  0.00    -0.460 OA
BRANCH  31  32
ATOM     32  C   UNL A   1      33.463  34.652  29.416  1.00  0.00     0.338 C 
ATOM     33  O   UNL A   1      32.529  35.206  29.969  1.00  0.00    -0.246 OA
BRANCH  32  34
ATOM     34  C   UNL A   1      34.641  34.083  30.101  1.00  0.00     0.060 A 
ATOM     35  C   UNL A   1      35.917  34.333  29.582  1.00  0.00     0.016 A 
ATOM     36  C   UNL A   1      34.483  33.321  31.261  1.00  0.00     0.016 A 
ATOM     37  C   UNL A   1      37.041  33.793  30.209  1.00  0.00     0.010 A 
ATOM     38  C   UNL A   1      35.606  32.760  31.873  1.00  0.00     0.010 A 
ATOM     39  C   UNL A   1      36.887  32.967  31.331  1.00  0.00    -0.014 A 
BRANCH  39  40
ATOM     40  C   UNL A   1      38.029  32.145  31.798  1.00  0.00     0.031 A 
ATOM     41  C   UNL A   1      38.629  32.474  33.138  1.00  0.00     0.074 A 
ATOM     42  C   UNL A   1      38.497  31.110  31.079  1.00  0.00     0.049 A 
ATOM     43  N   UNL A   1      39.655  31.937  33.742  1.00  0.00    -0.248 NA
ATOM     44  C   UNL A   1      37.979  33.555  33.899  1.00  0.00     0.031 C 
ATOM     45  C   UNL A   1      37.953  30.652  29.801  1.00  0.00     0.029 A 
ATOM     46  N   UNL A   1      39.538  30.251  31.329  1.00  0.00    -0.354 N 
ATOM     47  C   UNL A   1      39.769  32.605  34.956  1.00  0.00     0.074 A 
ATOM     48  C   UNL A   1      38.733  33.614  34.986  1.00  0.00     0.031 C 
ATOM     49  C   UNL A   1      38.666  29.591  29.381  1.00  0.00     0.029 A 
ATOM     50  C   UNL A   1      39.738  29.318  30.337  1.00  0.00     0.049 A 
ATOM     51  H   UNL A   1      40.091  30.298  32.142  1.00  0.00     0.167 HD
ATOM     52  C   UNL A   1      40.650  32.389  35.961  1.00  0.00     0.034 A 
ATOM     53  C   UNL A   1      40.688  28.368  30.212  1.00  0.00     0.034 A 
ATOM     54  C   UNL A   1      41.686  31.391  35.919  1.00  0.00     0.049 A 
ATOM     55  C   UNL A   1      41.736  28.227  31.290  1.00  0.00     0.074 A 
ATOM     56  C   UNL A   1      42.636  31.100  36.880  1.00  0.00     0.029 A 
ATOM     57  N   UNL A   1      41.909  30.524  34.859  1.00  0.00    -0.354 N 
ATOM     58  N   UNL A   1      41.855  28.889  32.417  1.00  0.00    -0.248 NA
ATOM     59  C   UNL A   1      42.781  27.214  31.077  1.00  0.00     0.031 C 
ATOM     60  C   UNL A   1      43.476  30.103  36.375  1.00  0.00     0.029 A 
ATOM     61  C   UNL A   1      43.004  29.721  35.129  1.00  0.00     0.049 A 
ATOM     62  H   UNL A   1      41.370  30.486  34.036  1.00  0.00     0.167 HD
ATOM     63  C   UNL A   1      42.971  28.357  33.057  1.00  0.00     0.074 A 
ATOM     64  C   UNL A   1      43.489  27.315  32.194  1.00  0.00     0.031 C 
ATOM     65  C   UNL A   1      43.515  28.694  34.254  1.00  0.00     0.034 A 
BRANCH  52  66
ATOM     66  C   UNL A   1      40.552  33.271  37.175  1.00  0.00     0.023 A 
ATOM     67  C   UNL A   1      39.887  32.847  38.338  1.00  0.00     0.031 A 
ATOM     68  C   UNL A   1      41.149  34.543  37.176  1.00  0.00     0.131 A 
ATOM     69  C   UNL A   1      39.806  33.704  39.445  1.00  0.00     0.055 A 
ATOM     70  C   UNL A   1      41.118  35.366  38.302  1.00  0.00     0.041 A 
ATOM     71  F   UNL A   1      41.776  35.005  36.082  1.00  0.00    -0.206 F 
ATOM     72  C   UNL A   1      40.438  34.950  39.443  1.00  0.00     0.022 A 
BRANCH  69  73
ATOM     73  S   UNL A   1      38.798  33.198  40.864  1.00  0.00     0.124 S 
ATOM     74  O   UNL A   1      37.700  34.161  40.803  1.00  0.00    -0.237 OA
ATOM     75  O   UNL A   1      38.457  31.819  40.536  1.00  0.00    -0.237 OA
ATOM     76  O   UNL A   1      39.701  33.363  42.002  1.00  0.00    -0.744 OA
ENDBRANCH  69  73
ENDBRANCH  52  66
BRANCH  53  77
ATOM     77  C   UNL A   1      40.721  27.494  29.005  1.00  0.00     0.023 A 
ATOM     78  C   UNL A   1      41.622  27.740  27.956  1.00  0.00     0.031 A 
ATOM     79  C   UNL A   1      39.832  26.413  28.871  1.00  0.00     0.131 A 
ATOM     80  C   UNL A   1      41.599  26.931  26.809  1.00  0.00     0.055 A 
ATOM     81  C   UNL A   1      39.840  25.585  27.746  1.00  0.00     0.041 A 
ATOM     82  F   UNL A   1      38.948  26.137  29.842  1.00  0.00    -0.206 F 
ATOM     83  C   UNL A   1      40.723  25.847  26.703  1.00  0.00     0.022 A 
BRANCH  80  84
ATOM     84  S   UNL A   1      42.708  27.337  25.433  1.00  0.00     0.124 S 
ATOM     85  O   UNL A   1      43.964  27.590  26.128  1.00  0.00    -0.237 OA
ATOM     86  O   UNL A   1      42.652  26.121  24.627  1.00  0.00    -0.237 OA
ATOM     87  O   UNL A   1      42.082  28.511  24.827  1.00  0.00    -0.744 OA
ENDBRANCH  80  84
ENDBRANCH  53  77
BRANCH  65  88
ATOM     88  C   UNL A   1      44.719  27.919  34.722  1.00  0.00     0.023 A 
ATOM     89  C   UNL A   1      44.592  26.655  35.320  1.00  0.00     0.031 A 
ATOM     90  C   UNL A   1      46.014  28.425  34.505  1.00  0.00     0.131 A 
ATOM     91  C   UNL A   1      45.740  25.947  35.704  1.00  0.00     0.055 A 
ATOM     92  C   UNL A   1      47.153  27.695  34.845  1.00  0.00     0.041 A 
ATOM     93  F   UNL A   1      46.190  29.627  33.931  1.00  0.00    -0.206 F 
ATOM     94  C   UNL A   1      47.020  26.451  35.452  1.00  0.00     0.022 A 
BRANCH  91  95
ATOM     95  S   UNL A   1      45.542  24.366  36.569  1.00  0.00     0.124 S 
ATOM     96  O   UNL A   1      44.350  23.819  35.927  1.00  0.00    -0.237 OA
ATOM     97  O   UNL A   1      46.797  23.683  36.273  1.00  0.00    -0.237 OA
ATOM     98  O   UNL A   1      45.368  24.759  37.967  1.00  0.00    -0.744 OA
ENDBRANCH  91  95
ENDBRANCH  65  88
ENDBRANCH  39  40
ENDBRANCH  32  34
ENDBRANCH  31  32
ENDBRANCH  30  31
ENDBRANCH  29  30
ENDBRANCH  28  29
ENDBRANCH  27  28
ENDBRANCH   1  27
TORSDOF 24
ENDMDL
MODEL 2
REMARK VINA RESULT:      -9.8      1.707      2.412
REMARK SMILES Cc1cc(Br)cc2c1O[C@H](C(F)(F)F)C(C(=O)OCCOCCOCCOCCOC(=O)c1ccc(-c3c4nc(c(-c5cc(S(=O)(=O)[O-])ccc5F)c5ccc([nH]5)c(-c5cc(S(=O)(=O)[O-])ccc5F)c5nc(c(-c6cc(S(=O)(=O)[O-])ccc6F)c6ccc3[nH]6)C=C5)C=C4)cc1)=C2
REMARK SMILES IDX 25 1 24 2 23 3 22 4 21 5 20 6 19 7 18 8 16 9 17 10 15 11
REMARK SMILES IDX 1 12 2 13 3 14 8 15 4 16 7 17 9 18 5 19 6 20 96 21 10 22
REMARK SMILES IDX 11 23 12 24 13 25 14 26 26 27 27 28 28 29 29 30 30 31 31 32
REMARK SMILES IDX 32 33 33 34 34 35 95 36 35 37 94 38 36 39 37 40 38 41 88 42
REMARK SMILES IDX 39 43 93 44 87 45 89 46 40 47 92 48 86 49 85 50 41 52 73 53
REMARK SMILES IDX 53 54 72 55 54 56 57 57 71 58 90 59 55 60 56 61 70 63 91 64
REMARK SMILES IDX 58 65 42 66 43 67 51 68 44 69 50 70 52 71 49 72 45 73 46 74
REMARK SMILES IDX 47 75 48 76 74 77 75 78 83 79 76 80 82 81 84 82 81 83 77 84
REMARK SMILES IDX 78 85 79 86 80 87 59 88 60 89 68 90 61 91 67 92 69 93 66 94
REMARK SMILES IDX 62 95 63 96 64 97 65 98
REMARK H PARENT 89 51 57 62
REMARK Flexibility Score: inf
ROOT
ATOM      1  C   UNL A   1      34.680  31.003  27.969  1.00  0.00     0.188 C 
ENDROOT
BRANCH   1   2
ATOM      2  O   UNL A   1      35.008  29.816  27.247  1.00  0.00    -0.377 OA
BRANCH   2   3
ATOM      3  C   UNL A   1      33.959  28.898  26.993  1.00  0.00     0.188 C 
BRANCH   3   4
ATOM      4  C   UNL A   1      32.566  29.503  27.238  1.00  0.00     0.188 C 
BRANCH   4   5
ATOM      5  O   UNL A   1      31.894  29.942  26.073  1.00  0.00    -0.376 OA
BRANCH   5   6
ATOM      6  C   UNL A   1      31.812  29.152  24.897  1.00  0.00     0.202 C 
BRANCH   6   7
ATOM      7  C   UNL A   1      31.150  27.766  24.765  1.00  0.00     0.261 C 
BRANCH   7   8
ATOM      8  O   UNL A   1      31.955  26.613  25.002  1.00  0.00    -0.460 OA
BRANCH   8   9
ATOM      9  C   UNL A   1      32.936  26.343  24.126  1.00  0.00     0.338 C 
ATOM     10  O   UNL A   1      33.425  27.103  23.309  1.00  0.00    -0.246 OA
BRANCH   9  11
ATOM     11  C   UNL A   1      33.459  24.998  24.450  1.00  0.00     0.087 C 
ATOM     12  C   UNL A   1      34.252  19.941  24.974  1.00  0.00     0.048 C 
ATOM     13  C   UNL A   1      35.045  21.201  25.187  1.00  0.00    -0.007 A 
ATOM     14  C   UNL A   1      36.407  21.091  25.511  1.00  0.00     0.023 A 
ATOM     15  C   UNL A   1      34.485  22.479  25.022  1.00  0.00     0.130 A 
ATOM     16  C   UNL A   1      37.186  22.233  25.680  1.00  0.00     0.019 A 
ATOM     17  C   UNL A   1      35.287  23.620  25.140  1.00  0.00     0.019 A 
ATOM     18  O   UNL A   1      33.151  22.539  24.735  1.00  0.00    -0.475 OA
ATOM     19  Br  UNL A   1      39.019  22.066  26.110  1.00  0.00    -0.051 Br
ATOM     20  C   UNL A   1      36.633  23.497  25.499  1.00  0.00     0.027 A 
ATOM     21  C   UNL A   1      34.744  24.927  24.816  1.00  0.00     0.027 C 
ATOM     22  C   UNL A   1      32.524  23.816  24.438  1.00  0.00     0.316 C 
BRANCH  22  23
ATOM     23  C   UNL A   1      31.786  23.672  23.101  1.00  0.00     0.430 C 
ATOM     24  F   UNL A   1      32.345  24.451  22.144  1.00  0.00    -0.167 F 
ATOM     25  F   UNL A   1      31.810  22.402  22.637  1.00  0.00    -0.167 F 
ATOM     26  F   UNL A   1      30.487  24.039  23.211  1.00  0.00    -0.167 F 
ENDBRANCH  22  23
ENDBRANCH   9  11
ENDBRANCH   8   9
ENDBRANCH   7   8
ENDBRANCH   6   7
ENDBRANCH   5   6
ENDBRANCH   4   5
ENDBRANCH   3   4
ENDBRANCH   2   3
ENDBRANCH   1   2
BRANCH   1  27
ATOM     27  C   UNL A   1      35.679  32.180  28.056  1.00  0.00     0.188 C 
BRANCH  27  28
ATOM     28  O   UNL A   1      35.139  33.433  27.644  1.00  0.00    -0.376 OA
BRANCH  28  29
ATOM     29  C   UNL A   1      33.725  33.568  27.635  1.00  0.00     0.202 C 
BRANCH  29  30
ATOM     30  C   UNL A   1      33.180  34.791  28.385  1.00  0.00     0.261 C 
BRANCH  30  31
ATOM     31  O   UNL A   1      34.004  35.283  29.453  1.00  0.00    -0.460 OA
BRANCH  31  32
ATOM     32  C   UNL A   1      33.655  34.939  30.712  1.00  0.00     0.338 C 
ATOM     33  O   UNL A   1      32.552  35.040  31.220  1.00  0.00    -0.246 OA
BRANCH  32  34
ATOM     34  C   UNL A   1      34.803  34.227  31.309  1.00  0.00     0.060 A 
ATOM     35  C   UNL A   1      36.075  34.811  31.243  1.00  0.00     0.016 A 
ATOM     36  C   UNL A   1      34.619  32.997  31.945  1.00  0.00     0.016 A 
ATOM     37  C   UNL A   1      37.174  34.147  31.790  1.00  0.00     0.010 A 
ATOM     38  C   UNL A   1      35.723  32.322  32.469  1.00  0.00     0.010 A 
ATOM     39  C   UNL A   1      37.010  32.879  32.366  1.00  0.00    -0.014 A 
BRANCH  39  40
ATOM     40  C   UNL A   1      38.202  32.045  32.652  1.00  0.00     0.031 A 
ATOM     41  C   UNL A   1      38.921  32.273  33.955  1.00  0.00     0.074 A 
ATOM     42  C   UNL A   1      38.615  31.086  31.805  1.00  0.00     0.049 A 
ATOM     43  N   UNL A   1      40.006  31.709  34.412  1.00  0.00    -0.248 NA
ATOM     44  C   UNL A   1      38.330  33.270  34.864  1.00  0.00     0.031 C 
ATOM     45  C   UNL A   1      37.960  30.727  30.548  1.00  0.00     0.029 A 
ATOM     46  N   UNL A   1      39.687  30.232  31.883  1.00  0.00    -0.354 N 
ATOM     47  C   UNL A   1      40.224  32.273  35.664  1.00  0.00     0.074 A 
ATOM     48  C   UNL A   1      39.181  33.252  35.878  1.00  0.00     0.031 C 
ATOM     49  C   UNL A   1      38.645  29.722  29.974  1.00  0.00     0.029 A 
ATOM     50  C   UNL A   1      39.806  29.392  30.800  1.00  0.00     0.049 A 
ATOM     51  H   UNL A   1      40.313  30.222  32.643  1.00  0.00     0.167 HD
ATOM     52  C   UNL A   1      41.198  31.991  36.561  1.00  0.00     0.034 A 
ATOM     53  C   UNL A   1      40.754  28.477  30.505  1.00  0.00     0.034 A 
ATOM     54  C   UNL A   1      42.239  31.023  36.337  1.00  0.00     0.049 A 
ATOM     55  C   UNL A   1      41.899  28.268  31.466  1.00  0.00     0.074 A 
ATOM     56  C   UNL A   1      43.279  30.672  37.178  1.00  0.00     0.029 A 
ATOM     57  N   UNL A   1      42.374  30.255  35.190  1.00  0.00    -0.354 N 
ATOM     58  N   UNL A   1      42.114  28.834  32.631  1.00  0.00    -0.248 NA
ATOM     59  C   UNL A   1      42.934  27.300  31.071  1.00  0.00     0.031 C 
ATOM     60  C   UNL A   1      44.082  29.741  36.513  1.00  0.00     0.029 A 
ATOM     61  C   UNL A   1      43.500  29.456  35.287  1.00  0.00     0.049 A 
ATOM     62  H   UNL A   1      41.761  30.276  34.420  1.00  0.00     0.167 HD
ATOM     63  C   UNL A   1      43.293  28.273  33.117  1.00  0.00     0.074 A 
ATOM     64  C   UNL A   1      43.741  27.321  32.122  1.00  0.00     0.031 C 
ATOM     65  C   UNL A   1      43.942  28.519  34.283  1.00  0.00     0.034 A 
BRANCH  52  66
ATOM     66  C   UNL A   1      41.202  32.764  37.852  1.00  0.00     0.023 A 
ATOM     67  C   UNL A   1      40.434  32.354  38.954  1.00  0.00     0.031 A 
ATOM     68  C   UNL A   1      41.998  33.914  37.986  1.00  0.00     0.131 A 
ATOM     69  C   UNL A   1      40.454  33.109  40.136  1.00  0.00     0.055 A 
ATOM     70  C   UNL A   1      42.062  34.626  39.184  1.00  0.00     0.041 A 
ATOM     71  F   UNL A   1      42.732  34.361  36.954  1.00  0.00    -0.206 F 
ATOM     72  C   UNL A   1      41.282  34.227  40.266  1.00  0.00     0.022 A 
BRANCH  69  73
ATOM     73  S   UNL A   1      39.326  32.652  41.479  1.00  0.00     0.124 S 
ATOM     74  O   UNL A   1      39.784  33.526  42.558  1.00  0.00    -0.237 OA
ATOM     75  O   UNL A   1      38.018  32.965  40.916  1.00  0.00    -0.237 OA
ATOM     76  O   UNL A   1      39.593  31.229  41.682  1.00  0.00    -0.744 OA
ENDBRANCH  69  73
ENDBRANCH  52  66
BRANCH  53  77
ATOM     77  C   UNL A   1      40.686  27.710  29.229  1.00  0.00     0.023 A 
ATOM     78  C   UNL A   1      41.557  27.995  28.166  1.00  0.00     0.031 A 
ATOM     79  C   UNL A   1      39.728  26.697  29.045  1.00  0.00     0.131 A 
ATOM     80  C   UNL A   1      41.439  27.290  26.957  1.00  0.00     0.055 A 
ATOM     81  C   UNL A   1      39.641  25.970  27.856  1.00  0.00     0.041 A 
ATOM     82  F   UNL A   1      38.869  26.388  30.028  1.00  0.00    -0.206 F 
ATOM     83  C   UNL A   1      40.497  26.271  26.800  1.00  0.00     0.022 A 
BRANCH  80  84
ATOM     84  S   UNL A   1      42.515  27.751  25.570  1.00  0.00     0.124 S 
ATOM     85  O   UNL A   1      41.882  28.977  25.099  1.00  0.00    -0.237 OA
ATOM     86  O   UNL A   1      43.809  27.906  26.227  1.00  0.00    -0.237 OA
ATOM     87  O   UNL A   1      42.412  26.607  24.666  1.00  0.00    -0.744 OA
ENDBRANCH  80  84
ENDBRANCH  53  77
BRANCH  65  88
ATOM     88  C   UNL A   1      45.195  27.734  34.569  1.00  0.00     0.023 A 
ATOM     89  C   UNL A   1      45.145  26.457  35.152  1.00  0.00     0.031 A 
ATOM     90  C   UNL A   1      46.451  28.243  34.191  1.00  0.00     0.131 A 
ATOM     91  C   UNL A   1      46.332  25.741  35.364  1.00  0.00     0.055 A 
ATOM     92  C   UNL A   1      47.623  27.506  34.359  1.00  0.00     0.041 A 
ATOM     93  F   UNL A   1      46.553  29.457  33.624  1.00  0.00    -0.206 F 
ATOM     94  C   UNL A   1      47.568  26.249  34.953  1.00  0.00     0.022 A 
BRANCH  91  95
ATOM     95  S   UNL A   1      46.245  24.142  36.214  1.00  0.00     0.124 S 
ATOM     96  O   UNL A   1      47.398  24.212  37.107  1.00  0.00    -0.237 OA
ATOM     97  O   UNL A   1      44.936  24.196  36.858  1.00  0.00    -0.237 OA
ATOM     98  O   UNL A   1      46.359  23.169  35.129  1.00  0.00    -0.744 OA
ENDBRANCH  91  95
ENDBRANCH  65  88
ENDBRANCH  39  40
ENDBRANCH  32  34
ENDBRANCH  31  32
ENDBRANCH  30  31
ENDBRANCH  29  30
ENDBRANCH  28  29
ENDBRANCH  27  28
ENDBRANCH   1  27
TORSDOF 24
ENDMDL
MODEL 3
REMARK VINA RESULT:      -9.6      3.388      4.286
REMARK SMILES Cc1cc(Br)cc2c1O[C@H](C(F)(F)F)C(C(=O)OCCOCCOCCOCCOC(=O)c1ccc(-c3c4nc(c(-c5cc(S(=O)(=O)[O-])ccc5F)c5ccc([nH]5)c(-c5cc(S(=O)(=O)[O-])ccc5F)c5nc(c(-c6cc(S(=O)(=O)[O-])ccc6F)c6ccc3[nH]6)C=C5)C=C4)cc1)=C2
REMARK SMILES IDX 25 1 24 2 23 3 22 4 21 5 20 6 19 7 18 8 16 9 17 10 15 11
REMARK SMILES IDX 1 12 2 13 3 14 8 15 4 16 7 17 9 18 5 19 6 20 96 21 10 22
REMARK SMILES IDX 11 23 12 24 13 25 14 26 26 27 27 28 28 29 29 30 30 31 31 32
REMARK SMILES IDX 32 33 33 34 34 35 95 36 35 37 94 38 36 39 37 40 38 41 88 42
REMARK SMILES IDX 39 43 93 44 87 45 89 46 40 47 92 48 86 49 85 50 41 52 73 53
REMARK SMILES IDX 53 54 72 55 54 56 57 57 71 58 90 59 55 60 56 61 70 63 91 64
REMARK SMILES IDX 58 65 42 66 43 67 51 68 44 69 50 70 52 71 49 72 45 73 46 74
REMARK SMILES IDX 47 75 48 76 74 77 75 78 83 79 76 80 82 81 84 82 81 83 77 84
REMARK SMILES IDX 78 85 79 86 80 87 59 88 60 89 68 90 61 91 67 92 69 93 66 94
REMARK SMILES IDX 62 95 63 96 64 97 65 98
REMARK H PARENT 89 51 57 62
REMARK Flexibility Score: inf
ROOT
ATOM      1  C   UNL A   1      33.264  30.846  27.472  1.00  0.00     0.188 C 
ENDROOT
BRANCH   1   2
ATOM      2  O   UNL A   1      32.893  29.590  26.904  1.00  0.00    -0.377 OA
BRANCH   2   3
ATOM      3  C   UNL A   1      32.845  29.504  25.490  1.00  0.00     0.188 C 
BRANCH   3   4
ATOM      4  C   UNL A   1      31.553  28.842  24.978  1.00  0.00     0.188 C 
BRANCH   4   5
ATOM      5  O   UNL A   1      31.204  29.169  23.647  1.00  0.00    -0.376 OA
BRANCH   5   6
ATOM      6  C   UNL A   1      31.114  28.194  22.620  1.00  0.00     0.202 C 
BRANCH   6   7
ATOM      7  C   UNL A   1      30.583  26.753  22.766  1.00  0.00     0.261 C 
BRANCH   7   8
ATOM      8  O   UNL A   1      31.509  25.729  23.119  1.00  0.00    -0.460 OA
BRANCH   8   9
ATOM      9  C   UNL A   1      31.314  25.080  24.278  1.00  0.00     0.338 C 
ATOM     10  O   UNL A   1      30.405  25.245  25.072  1.00  0.00    -0.246 OA
BRANCH   9  11
ATOM     11  C   UNL A   1      32.304  23.982  24.341  1.00  0.00     0.087 C 
ATOM     12  C   UNL A   1      36.523  21.088  24.881  1.00  0.00     0.048 C 
ATOM     13  C   UNL A   1      35.047  20.851  24.719  1.00  0.00    -0.007 A 
ATOM     14  C   UNL A   1      34.561  19.540  24.839  1.00  0.00     0.023 A 
ATOM     15  C   UNL A   1      34.136  21.900  24.506  1.00  0.00     0.130 A 
ATOM     16  C   UNL A   1      33.196  19.281  24.733  1.00  0.00     0.019 A 
ATOM     17  C   UNL A   1      32.762  21.638  24.455  1.00  0.00     0.019 A 
ATOM     18  O   UNL A   1      34.656  23.154  24.368  1.00  0.00    -0.475 OA
ATOM     19  Br  UNL A   1      32.558  17.510  24.902  1.00  0.00    -0.051 Br
ATOM     20  C   UNL A   1      32.294  20.323  24.539  1.00  0.00     0.027 A 
ATOM     21  C   UNL A   1      31.815  22.737  24.392  1.00  0.00     0.027 C 
ATOM     22  C   UNL A   1      33.774  24.303  24.259  1.00  0.00     0.316 C 
BRANCH  22  23
ATOM     23  C   UNL A   1      34.206  25.324  25.319  1.00  0.00     0.430 C 
ATOM     24  F   UNL A   1      34.241  26.579  24.809  1.00  0.00    -0.167 F 
ATOM     25  F   UNL A   1      33.364  25.353  26.376  1.00  0.00    -0.167 F 
ATOM     26  F   UNL A   1      35.444  25.049  25.795  1.00  0.00    -0.167 F 
ENDBRANCH  22  23
ENDBRANCH   9  11
ENDBRANCH   8   9
ENDBRANCH   7   8
ENDBRANCH   6   7
ENDBRANCH   5   6
ENDBRANCH   4   5
ENDBRANCH   3   4
ENDBRANCH   2   3
ENDBRANCH   1   2
BRANCH   1  27
ATOM     27  C   UNL A   1      34.751  31.260  27.577  1.00  0.00     0.188 C 
BRANCH  27  28
ATOM     28  O   UNL A   1      34.960  32.669  27.602  1.00  0.00    -0.376 OA
BRANCH  28  29
ATOM     29  C   UNL A   1      33.890  33.486  28.053  1.00  0.00     0.202 C 
BRANCH  29  30
ATOM     30  C   UNL A   1      34.065  34.081  29.456  1.00  0.00     0.261 C 
BRANCH  30  31
ATOM     31  O   UNL A   1      35.253  33.681  30.156  1.00  0.00    -0.460 OA
BRANCH  31  32
ATOM     32  C   UNL A   1      35.138  32.668  31.043  1.00  0.00     0.338 C 
ATOM     33  O   UNL A   1      34.149  32.372  31.691  1.00  0.00    -0.246 OA
BRANCH  32  34
ATOM     34  C   UNL A   1      36.365  31.852  30.945  1.00  0.00     0.060 A 
ATOM     35  C   UNL A   1      36.425  30.628  31.623  1.00  0.00     0.016 A 
ATOM     36  C   UNL A   1      37.443  32.290  30.172  1.00  0.00     0.016 A 
ATOM     37  C   UNL A   1      37.581  29.850  31.551  1.00  0.00     0.010 A 
ATOM     38  C   UNL A   1      38.609  31.522  30.122  1.00  0.00     0.010 A 
ATOM     39  C   UNL A   1      38.694  30.315  30.837  1.00  0.00    -0.014 A 
BRANCH  39  40
ATOM     40  C   UNL A   1      40.010  29.657  31.023  1.00  0.00     0.031 A 
ATOM     41  C   UNL A   1      40.862  30.105  32.179  1.00  0.00     0.074 A 
ATOM     42  C   UNL A   1      40.424  28.664  30.217  1.00  0.00     0.049 A 
ATOM     43  N   UNL A   1      42.061  29.720  32.524  1.00  0.00    -0.248 NA
ATOM     44  C   UNL A   1      40.276  31.122  33.069  1.00  0.00     0.031 C 
ATOM     45  C   UNL A   1      39.658  28.098  29.107  1.00  0.00     0.029 A 
ATOM     46  N   UNL A   1      41.597  27.950  30.215  1.00  0.00    -0.354 N 
ATOM     47  C   UNL A   1      42.371  30.439  33.673  1.00  0.00     0.074 A 
ATOM     48  C   UNL A   1      41.250  31.311  33.946  1.00  0.00     0.031 C 
ATOM     49  C   UNL A   1      40.382  27.119  28.534  1.00  0.00     0.029 A 
ATOM     50  C   UNL A   1      41.676  27.015  29.209  1.00  0.00     0.049 A 
ATOM     51  H   UNL A   1      42.315  28.093  30.873  1.00  0.00     0.167 HD
ATOM     52  C   UNL A   1      43.484  30.368  34.440  1.00  0.00     0.034 A 
ATOM     53  C   UNL A   1      42.684  26.187  28.864  1.00  0.00     0.034 A 
ATOM     54  C   UNL A   1      44.600  29.505  34.157  1.00  0.00     0.049 A 
ATOM     55  C   UNL A   1      43.965  26.214  29.663  1.00  0.00     0.074 A 
ATOM     56  C   UNL A   1      45.780  29.368  34.866  1.00  0.00     0.029 A 
ATOM     57  N   UNL A   1      44.677  28.637  33.078  1.00  0.00    -0.354 N 
ATOM     58  N   UNL A   1      44.260  26.924  30.726  1.00  0.00    -0.248 NA
ATOM     59  C   UNL A   1      45.052  25.331  29.212  1.00  0.00     0.031 C 
ATOM     60  C   UNL A   1      46.598  28.466  34.179  1.00  0.00     0.029 A 
ATOM     61  C   UNL A   1      45.899  27.985  33.083  1.00  0.00     0.049 A 
ATOM     62  H   UNL A   1      43.969  28.504  32.408  1.00  0.00     0.167 HD
ATOM     63  C   UNL A   1      45.555  26.557  31.085  1.00  0.00     0.074 A 
ATOM     64  C   UNL A   1      45.984  25.558  30.127  1.00  0.00     0.031 C 
ATOM     65  C   UNL A   1      46.318  27.000  32.116  1.00  0.00     0.034 A 
BRANCH  52  66
ATOM     66  C   UNL A   1      43.562  31.273  35.640  1.00  0.00     0.023 A 
ATOM     67  C   UNL A   1      44.140  32.551  35.557  1.00  0.00     0.031 A 
ATOM     68  C   UNL A   1      43.034  30.860  36.874  1.00  0.00     0.131 A 
ATOM     69  C   UNL A   1      44.206  33.361  36.700  1.00  0.00     0.055 A 
ATOM     70  C   UNL A   1      43.047  31.694  37.993  1.00  0.00     0.041 A 
ATOM     71  F   UNL A   1      42.492  29.639  37.011  1.00  0.00    -0.206 F 
ATOM     72  C   UNL A   1      43.641  32.950  37.911  1.00  0.00     0.022 A 
BRANCH  69  73
ATOM     73  S   UNL A   1      45.107  34.930  36.604  1.00  0.00     0.124 S 
ATOM     74  O   UNL A   1      46.340  34.606  37.318  1.00  0.00    -0.237 OA
ATOM     75  O   UNL A   1      45.237  35.134  35.166  1.00  0.00    -0.237 OA
ATOM     76  O   UNL A   1      44.226  35.874  37.290  1.00  0.00    -0.744 OA
ENDBRANCH  69  73
ENDBRANCH  52  66
BRANCH  53  77
ATOM     77  C   UNL A   1      42.544  25.282  27.688  1.00  0.00     0.023 A 
ATOM     78  C   UNL A   1      41.921  24.030  27.808  1.00  0.00     0.031 A 
ATOM     79  C   UNL A   1      43.056  25.647  26.430  1.00  0.00     0.131 A 
ATOM     80  C   UNL A   1      41.845  23.176  26.695  1.00  0.00     0.055 A 
ATOM     81  C   UNL A   1      42.943  24.813  25.316  1.00  0.00     0.041 A 
ATOM     82  F   UNL A   1      43.664  26.832  26.263  1.00  0.00    -0.206 F 
ATOM     83  C   UNL A   1      42.340  23.565  25.448  1.00  0.00     0.022 A 
BRANCH  80  84
ATOM     84  S   UNL A   1      41.123  21.526  26.908  1.00  0.00     0.124 S 
ATOM     85  O   UNL A   1      40.753  21.544  28.318  1.00  0.00    -0.237 OA
ATOM     86  O   UNL A   1      40.019  21.551  25.954  1.00  0.00    -0.237 OA
ATOM     87  O   UNL A   1      42.222  20.627  26.561  1.00  0.00    -0.744 OA
ENDBRANCH  80  84
ENDBRANCH  53  77
BRANCH  65  88
ATOM     88  C   UNL A   1      47.687  26.397  32.287  1.00  0.00     0.023 A 
ATOM     89  C   UNL A   1      48.825  26.980  31.706  1.00  0.00     0.031 A 
ATOM     90  C   UNL A   1      47.863  25.260  33.098  1.00  0.00     0.131 A 
ATOM     91  C   UNL A   1      50.088  26.410  31.923  1.00  0.00     0.055 A 
ATOM     92  C   UNL A   1      49.127  24.727  33.350  1.00  0.00     0.041 A 
ATOM     93  F   UNL A   1      46.808  24.668  33.681  1.00  0.00    -0.206 F 
ATOM     94  C   UNL A   1      50.248  25.299  32.757  1.00  0.00     0.022 A 
BRANCH  91  95
ATOM     95  S   UNL A   1      51.523  27.122  31.074  1.00  0.00     0.124 S 
ATOM     96  O   UNL A   1      52.118  25.945  30.449  1.00  0.00    -0.237 OA
ATOM     97  O   UNL A   1      50.908  28.085  30.166  1.00  0.00    -0.237 OA
ATOM     98  O   UNL A   1      52.306  27.711  32.159  1.00  0.00    -0.744 OA
ENDBRANCH  91  95
ENDBRANCH  65  88
ENDBRANCH  39  40
ENDBRANCH  32  34
ENDBRANCH  31  32
ENDBRANCH  30  31
ENDBRANCH  29  30
ENDBRANCH  28  29
ENDBRANCH  27  28
ENDBRANCH   1  27
TORSDOF 24
ENDMDL
