MODEL 1
REMARK VINA RESULT:     -10.8      0.000      0.000
REMARK SMILES CC(=O)NS(=O)(=O)c1cc(-c2ccn(C(F)F)c(=O)c2)ccc1C(=O)OCCOCCOCCOCCOC(=O)c1ccc(-c2c3nc(c(-c4cc(S(=O)(=O)[O-])ccc4F)c4ccc([nH]4)c(-c4cc(S(=O)(=O)[O-])ccc4F)c4nc(c(-c5cc(S(=O)(=O)[O-])ccc5F)c5ccc2[nH]5)C=C4)C=C3)cc1
REMARK SMILES IDX 33 1 32 2 31 3 30 4 29 5 28 6 27 7 26 8 24 9 25 10 23 11
REMARK SMILES IDX 8 12 9 13 10 14 22 15 21 16 5 17 6 18 7 19 4 20 1 21 2 22
REMARK SMILES IDX 3 23 11 25 12 26 20 27 13 28 18 29 14 30 19 31 15 32 16 33
REMARK SMILES IDX 17 34 34 35 35 36 36 37 37 38 38 39 39 40 40 41 41 42 42 43
REMARK SMILES IDX 103 44 43 45 102 46 44 47 45 48 46 49 96 50 47 51 101 52
REMARK SMILES IDX 95 53 97 54 48 55 100 56 94 57 93 58 49 60 81 61 61 62 80 63
REMARK SMILES IDX 62 64 65 65 79 66 98 67 63 68 64 69 78 71 99 72 66 73 50 74
REMARK SMILES IDX 51 75 59 76 52 77 58 78 60 79 57 80 53 81 54 82 55 83 56 84
REMARK SMILES IDX 82 85 83 86 91 87 84 88 90 89 92 90 89 91 85 92 86 93 87 94
REMARK SMILES IDX 88 95 67 96 68 97 76 98 69 99 75 100 77 101 74 102 70 103
REMARK SMILES IDX 71 104 72 105 73 106
REMARK H PARENT 4 24 97 59 65 70
REMARK Flexibility Score: inf
ROOT
ATOM      1  C   UNL A   1      35.656  21.741  24.511  1.00  0.00     0.188 C 
ENDROOT
BRANCH   1   2
ATOM      2  O   UNL A   1      35.136  20.635  25.238  1.00  0.00    -0.377 OA
BRANCH   2   3
ATOM      3  C   UNL A   1      34.020  19.987  24.652  1.00  0.00     0.188 C 
BRANCH   3   4
ATOM      4  C   UNL A   1      32.639  20.480  25.092  1.00  0.00     0.188 C 
BRANCH   4   5
ATOM      5  O   UNL A   1      32.237  21.672  24.420  1.00  0.00    -0.376 OA
BRANCH   5   6
ATOM      6  C   UNL A   1      32.231  22.874  25.186  1.00  0.00     0.202 C 
BRANCH   6   7
ATOM      7  C   UNL A   1      31.006  23.756  24.916  1.00  0.00     0.261 C 
BRANCH   7   8
ATOM      8  O   UNL A   1      30.963  24.940  25.730  1.00  0.00    -0.460 OA
BRANCH   8   9
ATOM      9  C   UNL A   1      30.371  26.023  25.207  1.00  0.00     0.339 C 
ATOM     10  O   UNL A   1      29.287  26.045  24.647  1.00  0.00    -0.246 OA
BRANCH   9  11
ATOM     11  C   UNL A   1      31.086  27.268  25.593  1.00  0.00     0.080 A 
ATOM     12  C   UNL A   1      31.447  28.330  24.754  1.00  0.00     0.103 A 
ATOM     13  C   UNL A   1      31.928  29.521  25.319  1.00  0.00     0.032 A 
ATOM     14  C   UNL A   1      32.246  29.601  26.678  1.00  0.00    -0.017 A 
ATOM     15  C   UNL A   1      31.384  27.366  26.969  1.00  0.00     0.018 A 
ATOM     16  C   UNL A   1      31.999  28.503  27.499  1.00  0.00     0.010 A 
BRANCH  12  17
ATOM     17  S   UNL A   1      31.479  28.168  22.985  1.00  0.00     0.264 S 
ATOM     18  O   UNL A   1      31.882  26.815  22.703  1.00  0.00    -0.201 OA
ATOM     19  O   UNL A   1      32.140  29.331  22.434  1.00  0.00    -0.201 OA
BRANCH  17  20
ATOM     20  N   UNL A   1      29.874  28.291  22.496  1.00  0.00    -0.249 N 
ATOM     21  C   UNL A   1      29.060  30.444  23.478  1.00  0.00     0.115 C 
ATOM     22  C   UNL A   1      29.226  29.532  22.288  1.00  0.00     0.230 C 
ATOM     23  O   UNL A   1      28.625  29.729  21.242  1.00  0.00    -0.274 OA
ATOM     24  H   UNL A   1      29.362  27.463  22.348  1.00  0.00     0.183 HD
ENDBRANCH  17  20
ENDBRANCH  12  17
BRANCH  14  25
ATOM     25  C   UNL A   1      32.919  30.802  27.194  1.00  0.00    -0.011 A 
ATOM     26  C   UNL A   1      34.314  30.798  27.592  1.00  0.00     0.027 A 
ATOM     27  C   UNL A   1      32.226  31.952  27.241  1.00  0.00     0.080 A 
ATOM     28  C   UNL A   1      34.904  31.925  28.006  1.00  0.00     0.095 A 
ATOM     29  C   UNL A   1      32.866  33.212  27.709  1.00  0.00     0.255 A 
ATOM     30  N   UNL A   1      34.202  33.115  28.068  1.00  0.00    -0.258 N 
ATOM     31  O   UNL A   1      32.189  34.234  27.745  1.00  0.00    -0.269 OA
BRANCH  30  32
ATOM     32  C   UNL A   1      34.840  34.318  28.533  1.00  0.00     0.451 C 
ATOM     33  F   UNL A   1      36.103  34.073  28.960  1.00  0.00    -0.185 F 
ATOM     34  F   UNL A   1      34.903  35.245  27.545  1.00  0.00    -0.185 F 
ENDBRANCH  30  32
ENDBRANCH  14  25
ENDBRANCH   9  11
ENDBRANCH   8   9
ENDBRANCH   7   8
ENDBRANCH   6   7
ENDBRANCH   5   6
ENDBRANCH   4   5
ENDBRANCH   3   4
ENDBRANCH   2   3
ENDBRANCH   1   2
BRANCH   1  35
ATOM     35  C   UNL A   1      37.178  21.938  24.678  1.00  0.00     0.188 C 
BRANCH  35  36
ATOM     36  O   UNL A   1      37.833  21.812  25.940  1.00  0.00    -0.376 OA
BRANCH  36  37
ATOM     37  C   UNL A   1      39.217  21.527  26.015  1.00  0.00     0.202 C 
BRANCH  37  38
ATOM     38  C   UNL A   1      39.658  20.074  25.790  1.00  0.00     0.261 C 
BRANCH  38  39
ATOM     39  O   UNL A   1      40.641  19.580  26.705  1.00  0.00    -0.460 OA
BRANCH  39  40
ATOM     40  C   UNL A   1      41.905  19.542  26.216  1.00  0.00     0.338 C 
ATOM     41  O   UNL A   1      42.416  18.639  25.577  1.00  0.00    -0.246 OA
BRANCH  40  42
ATOM     42  C   UNL A   1      42.562  20.845  26.463  1.00  0.00     0.060 A 
ATOM     43  C   UNL A   1      42.645  21.302  27.785  1.00  0.00     0.016 A 
ATOM     44  C   UNL A   1      43.056  21.625  25.414  1.00  0.00     0.016 A 
ATOM     45  C   UNL A   1      43.200  22.551  28.060  1.00  0.00     0.010 A 
ATOM     46  C   UNL A   1      43.587  22.890  25.688  1.00  0.00     0.010 A 
ATOM     47  C   UNL A   1      43.632  23.370  27.009  1.00  0.00    -0.014 A 
BRANCH  47  48
ATOM     48  C   UNL A   1      43.918  24.801  27.273  1.00  0.00     0.031 A 
ATOM     49  C   UNL A   1      45.337  25.277  27.116  1.00  0.00     0.074 A 
ATOM     50  C   UNL A   1      42.944  25.661  27.619  1.00  0.00     0.049 A 
ATOM     51  N   UNL A   1      45.845  26.465  27.318  1.00  0.00    -0.248 NA
ATOM     52  C   UNL A   1      46.314  24.269  26.672  1.00  0.00     0.031 C 
ATOM     53  C   UNL A   1      41.528  25.325  27.753  1.00  0.00     0.029 A 
ATOM     54  N   UNL A   1      43.005  26.997  27.925  1.00  0.00    -0.354 N 
ATOM     55  C   UNL A   1      47.198  26.351  27.019  1.00  0.00     0.074 A 
ATOM     56  C   UNL A   1      47.436  24.970  26.658  1.00  0.00     0.031 C 
ATOM     57  C   UNL A   1      40.855  26.425  28.134  1.00  0.00     0.029 A 
ATOM     58  C   UNL A   1      41.795  27.533  28.301  1.00  0.00     0.049 A 
ATOM     59  H   UNL A   1      43.836  27.523  27.882  1.00  0.00     0.167 HD
ATOM     60  C   UNL A   1      48.154  27.312  27.039  1.00  0.00     0.034 A 
ATOM     61  C   UNL A   1      41.492  28.767  28.752  1.00  0.00     0.034 A 
ATOM     62  C   UNL A   1      47.910  28.675  27.433  1.00  0.00     0.049 A 
ATOM     63  C   UNL A   1      42.594  29.796  28.868  1.00  0.00     0.074 A 
ATOM     64  C   UNL A   1      48.802  29.731  27.491  1.00  0.00     0.029 A 
ATOM     65  N   UNL A   1      46.682  29.169  27.858  1.00  0.00    -0.354 N 
ATOM     66  N   UNL A   1      43.869  29.680  28.572  1.00  0.00    -0.248 NA
ATOM     67  C   UNL A   1      42.215  31.121  29.377  1.00  0.00     0.031 C 
ATOM     68  C   UNL A   1      48.131  30.843  28.015  1.00  0.00     0.029 A 
ATOM     69  C   UNL A   1      46.802  30.503  28.214  1.00  0.00     0.049 A 
ATOM     70  H   UNL A   1      45.849  28.647  27.901  1.00  0.00     0.167 HD
ATOM     71  C   UNL A   1      44.435  30.927  28.832  1.00  0.00     0.074 A 
ATOM     72  C   UNL A   1      43.362  31.780  29.299  1.00  0.00     0.031 C 
ATOM     73  C   UNL A   1      45.722  31.335  28.691  1.00  0.00     0.034 A 
BRANCH  60  74
ATOM     74  C   UNL A   1      49.557  26.889  26.680  1.00  0.00     0.023 A 
ATOM     75  C   UNL A   1      50.559  26.748  27.658  1.00  0.00     0.031 A 
ATOM     76  C   UNL A   1      49.910  26.674  25.338  1.00  0.00     0.131 A 
ATOM     77  C   UNL A   1      51.878  26.471  27.270  1.00  0.00     0.055 A 
ATOM     78  C   UNL A   1      51.210  26.327  24.965  1.00  0.00     0.041 A 
ATOM     79  F   UNL A   1      49.001  26.821  24.360  1.00  0.00    -0.206 F 
ATOM     80  C   UNL A   1      52.207  26.237  25.933  1.00  0.00     0.022 A 
BRANCH  77  81
ATOM     81  S   UNL A   1      53.189  26.560  28.522  1.00  0.00     0.124 S 
ATOM     82  O   UNL A   1      54.170  25.617  27.989  1.00  0.00    -0.237 OA
ATOM     83  O   UNL A   1      53.568  27.967  28.484  1.00  0.00    -0.237 OA
ATOM     84  O   UNL A   1      52.521  26.126  29.748  1.00  0.00    -0.744 OA
ENDBRANCH  77  81
ENDBRANCH  60  74
BRANCH  61  85
ATOM     85  C   UNL A   1      40.103  29.099  29.183  1.00  0.00     0.023 A 
ATOM     86  C   UNL A   1      39.722  29.036  30.534  1.00  0.00     0.031 A 
ATOM     87  C   UNL A   1      39.117  29.422  28.235  1.00  0.00     0.131 A 
ATOM     88  C   UNL A   1      38.382  29.249  30.893  1.00  0.00     0.055 A 
ATOM     89  C   UNL A   1      37.795  29.681  28.602  1.00  0.00     0.041 A 
ATOM     90  F   UNL A   1      39.425  29.491  26.930  1.00  0.00    -0.206 F 
ATOM     91  C   UNL A   1      37.419  29.583  29.937  1.00  0.00     0.022 A 
BRANCH  88  92
ATOM     92  S   UNL A   1      37.893  29.003  32.623  1.00  0.00     0.124 S 
ATOM     93  O   UNL A   1      38.895  29.792  33.330  1.00  0.00    -0.237 OA
ATOM     94  O   UNL A   1      36.534  29.534  32.632  1.00  0.00    -0.237 OA
ATOM     95  O   UNL A   1      37.996  27.556  32.803  1.00  0.00    -0.744 OA
ENDBRANCH  88  92
ENDBRANCH  61  85
BRANCH  73  96
ATOM     96  C   UNL A   1      46.026  32.780  29.003  1.00  0.00     0.023 A 
ATOM     97  C   UNL A   1      45.918  33.787  28.029  1.00  0.00     0.031 A 
ATOM     98  C   UNL A   1      46.427  33.150  30.298  1.00  0.00     0.131 A 
ATOM     99  C   UNL A   1      46.252  35.111  28.353  1.00  0.00     0.055 A 
ATOM    100  C   UNL A   1      46.706  34.477  30.630  1.00  0.00     0.041 A 
ATOM    101  F   UNL A   1      46.546  32.228  31.267  1.00  0.00    -0.206 F 
ATOM    102  C   UNL A   1      46.630  35.464  29.651  1.00  0.00     0.022 A 
BRANCH  99 103
ATOM    103  S   UNL A   1      46.256  36.359  27.037  1.00  0.00     0.124 S 
ATOM    104  O   UNL A   1      46.006  37.587  27.783  1.00  0.00    -0.237 OA
ATOM    105  O   UNL A   1      47.594  36.216  26.473  1.00  0.00    -0.237 OA
ATOM    106  O   UNL A   1      45.167  35.935  26.158  1.00  0.00    -0.744 OA
ENDBRANCH  99 103
ENDBRANCH  73  96
ENDBRANCH  47  48
ENDBRANCH  40  42
ENDBRANCH  39  40
ENDBRANCH  38  39
ENDBRANCH  37  38
ENDBRANCH  36  37
ENDBRANCH  35  36
ENDBRANCH   1  35
TORSDOF 27
ENDMDL
MODEL 2
REMARK VINA RESULT:     -10.7      2.158      2.861
REMARK SMILES CC(=O)NS(=O)(=O)c1cc(-c2ccn(C(F)F)c(=O)c2)ccc1C(=O)OCCOCCOCCOCCOC(=O)c1ccc(-c2c3nc(c(-c4cc(S(=O)(=O)[O-])ccc4F)c4ccc([nH]4)c(-c4cc(S(=O)(=O)[O-])ccc4F)c4nc(c(-c5cc(S(=O)(=O)[O-])ccc5F)c5ccc2[nH]5)C=C4)C=C3)cc1
REMARK SMILES IDX 33 1 32 2 31 3 30 4 29 5 28 6 27 7 26 8 24 9 25 10 23 11
REMARK SMILES IDX 8 12 9 13 10 14 22 15 21 16 5 17 6 18 7 19 4 20 1 21 2 22
REMARK SMILES IDX 3 23 11 25 12 26 20 27 13 28 18 29 14 30 19 31 15 32 16 33
REMARK SMILES IDX 17 34 34 35 35 36 36 37 37 38 38 39 39 40 40 41 41 42 42 43
REMARK SMILES IDX 103 44 43 45 102 46 44 47 45 48 46 49 96 50 47 51 101 52
REMARK SMILES IDX 95 53 97 54 48 55 100 56 94 57 93 58 49 60 81 61 61 62 80 63
REMARK SMILES IDX 62 64 65 65 79 66 98 67 63 68 64 69 78 71 99 72 66 73 50 74
REMARK SMILES IDX 51 75 59 76 52 77 58 78 60 79 57 80 53 81 54 82 55 83 56 84
REMARK SMILES IDX 82 85 83 86 91 87 84 88 90 89 92 90 89 91 85 92 86 93 87 94
REMARK SMILES IDX 88 95 67 96 68 97 76 98 69 99 75 100 77 101 74 102 70 103
REMARK SMILES IDX 71 104 72 105 73 106
REMARK H PARENT 4 24 97 59 65 70
REMARK Flexibility Score: inf
ROOT
ATOM      1  C   UNL A   1      34.203  23.332  26.278  1.00  0.00     0.188 C 
ENDROOT
BRANCH   1   2
ATOM      2  O   UNL A   1      33.189  22.793  27.117  1.00  0.00    -0.377 OA
BRANCH   2   3
ATOM      3  C   UNL A   1      31.985  22.430  26.465  1.00  0.00     0.188 C 
BRANCH   3   4
ATOM      4  C   UNL A   1      30.726  23.190  26.892  1.00  0.00     0.188 C 
BRANCH   4   5
ATOM      5  O   UNL A   1      30.842  24.599  26.712  1.00  0.00    -0.376 OA
BRANCH   5   6
ATOM      6  C   UNL A   1      30.007  25.195  25.724  1.00  0.00     0.202 C 
BRANCH   6   7
ATOM      7  C   UNL A   1      30.441  24.870  24.290  1.00  0.00     0.261 C 
BRANCH   7   8
ATOM      8  O   UNL A   1      30.292  25.976  23.382  1.00  0.00    -0.460 OA
BRANCH   8   9
ATOM      9  C   UNL A   1      31.413  26.568  22.947  1.00  0.00     0.339 C 
ATOM     10  O   UNL A   1      31.971  26.349  21.884  1.00  0.00    -0.246 OA
BRANCH   9  11
ATOM     11  C   UNL A   1      31.789  27.715  23.815  1.00  0.00     0.080 A 
ATOM     12  C   UNL A   1      31.065  28.899  24.010  1.00  0.00     0.103 A 
ATOM     13  C   UNL A   1      31.457  29.786  25.024  1.00  0.00     0.032 A 
ATOM     14  C   UNL A   1      32.666  29.618  25.705  1.00  0.00    -0.017 A 
ATOM     15  C   UNL A   1      32.994  27.538  24.526  1.00  0.00     0.018 A 
ATOM     16  C   UNL A   1      33.452  28.501  25.429  1.00  0.00     0.010 A 
BRANCH  12  17
ATOM     17  S   UNL A   1      29.764  29.404  22.911  1.00  0.00     0.264 S 
ATOM     18  O   UNL A   1      28.684  28.470  23.095  1.00  0.00    -0.201 OA
ATOM     19  O   UNL A   1      30.349  29.708  21.623  1.00  0.00    -0.201 OA
BRANCH  17  20
ATOM     20  N   UNL A   1      29.217  30.878  23.513  1.00  0.00    -0.249 N 
ATOM     21  C   UNL A   1      28.423  32.144  21.508  1.00  0.00     0.115 C 
ATOM     22  C   UNL A   1      28.181  31.622  22.901  1.00  0.00     0.230 C 
ATOM     23  O   UNL A   1      27.242  32.015  23.579  1.00  0.00    -0.274 OA
ATOM     24  H   UNL A   1      29.637  31.238  24.328  1.00  0.00     0.183 HD
ENDBRANCH  17  20
ENDBRANCH  12  17
BRANCH  14  25
ATOM     25  C   UNL A   1      33.129  30.666  26.627  1.00  0.00    -0.011 A 
ATOM     26  C   UNL A   1      34.393  30.575  27.332  1.00  0.00     0.027 A 
ATOM     27  C   UNL A   1      32.375  31.769  26.770  1.00  0.00     0.080 A 
ATOM     28  C   UNL A   1      34.804  31.575  28.120  1.00  0.00     0.095 A 
ATOM     29  C   UNL A   1      32.813  32.885  27.652  1.00  0.00     0.255 A 
ATOM     30  N   UNL A   1      34.035  32.712  28.285  1.00  0.00    -0.258 N 
ATOM     31  O   UNL A   1      32.085  33.866  27.760  1.00  0.00    -0.269 OA
BRANCH  30  32
ATOM     32  C   UNL A   1      34.476  33.775  29.151  1.00  0.00     0.451 C 
ATOM     33  F   UNL A   1      34.940  34.830  28.439  1.00  0.00    -0.185 F 
ATOM     34  F   UNL A   1      33.461  34.211  29.935  1.00  0.00    -0.185 F 
ENDBRANCH  30  32
ENDBRANCH  14  25
ENDBRANCH   9  11
ENDBRANCH   8   9
ENDBRANCH   7   8
ENDBRANCH   6   7
ENDBRANCH   5   6
ENDBRANCH   4   5
ENDBRANCH   3   4
ENDBRANCH   2   3
ENDBRANCH   1   2
BRANCH   1  35
ATOM     35  C   UNL A   1      34.974  22.269  25.467  1.00  0.00     0.188 C 
BRANCH  35  36
ATOM     36  O   UNL A   1      36.398  22.165  25.498  1.00  0.00    -0.376 OA
BRANCH  36  37
ATOM     37  C   UNL A   1      37.070  21.169  24.751  1.00  0.00     0.202 C 
BRANCH  37  38
ATOM     38  C   UNL A   1      38.233  20.433  25.430  1.00  0.00     0.261 C 
BRANCH  38  39
ATOM     39  O   UNL A   1      39.459  21.167  25.518  1.00  0.00    -0.460 OA
BRANCH  39  40
ATOM     40  C   UNL A   1      40.098  21.065  26.710  1.00  0.00     0.338 C 
ATOM     41  O   UNL A   1      40.432  20.039  27.276  1.00  0.00    -0.246 OA
BRANCH  40  42
ATOM     42  C   UNL A   1      40.461  22.419  27.185  1.00  0.00     0.060 A 
ATOM     43  C   UNL A   1      39.835  23.519  26.584  1.00  0.00     0.016 A 
ATOM     44  C   UNL A   1      41.426  22.610  28.178  1.00  0.00     0.016 A 
ATOM     45  C   UNL A   1      40.190  24.814  26.956  1.00  0.00     0.010 A 
ATOM     46  C   UNL A   1      41.801  23.912  28.530  1.00  0.00     0.010 A 
ATOM     47  C   UNL A   1      41.206  25.018  27.898  1.00  0.00    -0.014 A 
BRANCH  47  48
ATOM     48  C   UNL A   1      41.795  26.370  28.052  1.00  0.00     0.031 A 
ATOM     49  C   UNL A   1      43.174  26.606  27.496  1.00  0.00     0.074 A 
ATOM     50  C   UNL A   1      41.119  27.368  28.647  1.00  0.00     0.049 A 
ATOM     51  N   UNL A   1      43.913  27.684  27.532  1.00  0.00    -0.248 NA
ATOM     52  C   UNL A   1      43.799  25.466  26.808  1.00  0.00     0.031 C 
ATOM     53  C   UNL A   1      39.762  27.270  29.179  1.00  0.00     0.029 A 
ATOM     54  N   UNL A   1      41.491  28.663  28.908  1.00  0.00    -0.354 N 
ATOM     55  C   UNL A   1      45.089  27.355  26.865  1.00  0.00     0.074 A 
ATOM     56  C   UNL A   1      44.976  25.968  26.469  1.00  0.00     0.031 C 
ATOM     57  C   UNL A   1      39.420  28.454  29.720  1.00  0.00     0.029 A 
ATOM     58  C   UNL A   1      40.545  29.381  29.602  1.00  0.00     0.049 A 
ATOM     59  H   UNL A   1      42.354  29.043  28.625  1.00  0.00     0.167 HD
ATOM     60  C   UNL A   1      46.162  28.141  26.603  1.00  0.00     0.034 A 
ATOM     61  C   UNL A   1      40.597  30.631  30.105  1.00  0.00     0.034 A 
ATOM     62  C   UNL A   1      46.275  29.510  27.033  1.00  0.00     0.049 A 
ATOM     63  C   UNL A   1      41.847  31.455  29.892  1.00  0.00     0.074 A 
ATOM     64  C   UNL A   1      47.316  30.398  26.824  1.00  0.00     0.029 A 
ATOM     65  N   UNL A   1      45.319  30.187  27.781  1.00  0.00    -0.354 N 
ATOM     66  N   UNL A   1      42.948  31.138  29.251  1.00  0.00    -0.248 NA
ATOM     67  C   UNL A   1      41.858  32.806  30.471  1.00  0.00     0.031 C 
ATOM     68  C   UNL A   1      47.019  31.587  27.501  1.00  0.00     0.029 A 
ATOM     69  C   UNL A   1      45.761  31.469  28.071  1.00  0.00     0.049 A 
ATOM     70  H   UNL A   1      44.454  29.811  28.062  1.00  0.00     0.167 HD
ATOM     71  C   UNL A   1      43.769  32.262  29.325  1.00  0.00     0.074 A 
ATOM     72  C   UNL A   1      43.032  33.265  30.065  1.00  0.00     0.031 C 
ATOM     73  C   UNL A   1      45.016  32.452  28.822  1.00  0.00     0.034 A 
BRANCH  60  74
ATOM     74  C   UNL A   1      47.314  27.501  25.869  1.00  0.00     0.023 A 
ATOM     75  C   UNL A   1      48.342  26.826  26.552  1.00  0.00     0.031 A 
ATOM     76  C   UNL A   1      47.414  27.613  24.472  1.00  0.00     0.131 A 
ATOM     77  C   UNL A   1      49.457  26.351  25.844  1.00  0.00     0.055 A 
ATOM     78  C   UNL A   1      48.490  27.074  23.765  1.00  0.00     0.041 A 
ATOM     79  F   UNL A   1      46.475  28.270  23.771  1.00  0.00    -0.206 F 
ATOM     80  C   UNL A   1      49.527  26.450  24.453  1.00  0.00     0.022 A 
BRANCH  77  81
ATOM     81  S   UNL A   1      50.879  25.727  26.781  1.00  0.00     0.124 S 
ATOM     82  O   UNL A   1      51.880  25.569  25.728  1.00  0.00    -0.237 OA
ATOM     83  O   UNL A   1      51.122  26.799  27.739  1.00  0.00    -0.237 OA
ATOM     84  O   UNL A   1      50.389  24.475  27.356  1.00  0.00    -0.744 OA
ENDBRANCH  77  81
ENDBRANCH  60  74
BRANCH  61  85
ATOM     85  C   UNL A   1      39.462  31.175  30.905  1.00  0.00     0.023 A 
ATOM     86  C   UNL A   1      39.505  31.204  32.309  1.00  0.00     0.031 A 
ATOM     87  C   UNL A   1      38.286  31.617  30.273  1.00  0.00     0.131 A 
ATOM     88  C   UNL A   1      38.379  31.622  33.034  1.00  0.00     0.055 A 
ATOM     89  C   UNL A   1      37.186  32.078  30.998  1.00  0.00     0.041 A 
ATOM     90  F   UNL A   1      38.190  31.607  28.934  1.00  0.00    -0.206 F 
ATOM     91  C   UNL A   1      37.224  32.070  32.388  1.00  0.00     0.022 A 
BRANCH  88  92
ATOM     92  S   UNL A   1      38.411  31.494  34.845  1.00  0.00     0.124 S 
ATOM     93  O   UNL A   1      38.385  30.050  35.042  1.00  0.00    -0.237 OA
ATOM     94  O   UNL A   1      39.666  32.165  35.173  1.00  0.00    -0.237 OA
ATOM     95  O   UNL A   1      37.202  32.204  35.258  1.00  0.00    -0.744 OA
ENDBRANCH  88  92
ENDBRANCH  61  85
BRANCH  73  96
ATOM     96  C   UNL A   1      45.638  33.813  29.018  1.00  0.00     0.023 A 
ATOM     97  C   UNL A   1      46.299  34.161  30.209  1.00  0.00     0.031 A 
ATOM     98  C   UNL A   1      45.567  34.773  27.994  1.00  0.00     0.131 A 
ATOM     99  C   UNL A   1      46.825  35.453  30.363  1.00  0.00     0.055 A 
ATOM    100  C   UNL A   1      46.139  36.038  28.132  1.00  0.00     0.041 A 
ATOM    101  F   UNL A   1      44.948  34.493  26.836  1.00  0.00    -0.206 F 
ATOM    102  C   UNL A   1      46.762  36.388  29.326  1.00  0.00     0.022 A 
BRANCH  99 103
ATOM    103  S   UNL A   1      47.530  35.923  31.967  1.00  0.00     0.124 S 
ATOM    104  O   UNL A   1      46.524  36.845  32.483  1.00  0.00    -0.237 OA
ATOM    105  O   UNL A   1      47.632  34.640  32.654  1.00  0.00    -0.237 OA
ATOM    106  O   UNL A   1      48.809  36.537  31.612  1.00  0.00    -0.744 OA
ENDBRANCH  99 103
ENDBRANCH  73  96
ENDBRANCH  47  48
ENDBRANCH  40  42
ENDBRANCH  39  40
ENDBRANCH  38  39
ENDBRANCH  37  38
ENDBRANCH  36  37
ENDBRANCH  35  36
ENDBRANCH   1  35
TORSDOF 27
ENDMDL
MODEL 3
REMARK VINA RESULT:     -10.0      2.459      3.112
REMARK SMILES CC(=O)NS(=O)(=O)c1cc(-c2ccn(C(F)F)c(=O)c2)ccc1C(=O)OCCOCCOCCOCCOC(=O)c1ccc(-c2c3nc(c(-c4cc(S(=O)(=O)[O-])ccc4F)c4ccc([nH]4)c(-c4cc(S(=O)(=O)[O-])ccc4F)c4nc(c(-c5cc(S(=O)(=O)[O-])ccc5F)c5ccc2[nH]5)C=C4)C=C3)cc1
REMARK SMILES IDX 33 1 32 2 31 3 30 4 29 5 28 6 27 7 26 8 24 9 25 10 23 11
REMARK SMILES IDX 8 12 9 13 10 14 22 15 21 16 5 17 6 18 7 19 4 20 1 21 2 22
REMARK SMILES IDX 3 23 11 25 12 26 20 27 13 28 18 29 14 30 19 31 15 32 16 33
REMARK SMILES IDX 17 34 34 35 35 36 36 37 37 38 38 39 39 40 40 41 41 42 42 43
REMARK SMILES IDX 103 44 43 45 102 46 44 47 45 48 46 49 96 50 47 51 101 52
REMARK SMILES IDX 95 53 97 54 48 55 100 56 94 57 93 58 49 60 81 61 61 62 80 63
REMARK SMILES IDX 62 64 65 65 79 66 98 67 63 68 64 69 78 71 99 72 66 73 50 74
REMARK SMILES IDX 51 75 59 76 52 77 58 78 60 79 57 80 53 81 54 82 55 83 56 84
REMARK SMILES IDX 82 85 83 86 91 87 84 88 90 89 92 90 89 91 85 92 86 93 87 94
REMARK SMILES IDX 88 95 67 96 68 97 76 98 69 99 75 100 77 101 74 102 70 103
REMARK SMILES IDX 71 104 72 105 73 106
REMARK H PARENT 4 24 97 59 65 70
REMARK Flexibility Score: inf
ROOT
ATOM      1  C   UNL A   1      33.877  23.241  26.300  1.00  0.00     0.188 C 
ENDROOT
BRANCH   1   2
ATOM      2  O   UNL A   1      32.846  22.545  26.989  1.00  0.00    -0.377 OA
BRANCH   2   3
ATOM      3  C   UNL A   1      31.775  22.084  26.184  1.00  0.00     0.188 C 
BRANCH   3   4
ATOM      4  C   UNL A   1      30.384  22.620  26.533  1.00  0.00     0.188 C 
BRANCH   4   5
ATOM      5  O   UNL A   1      30.362  24.037  26.693  1.00  0.00    -0.376 OA
BRANCH   5   6
ATOM      6  C   UNL A   1      29.927  24.807  25.576  1.00  0.00     0.202 C 
BRANCH   6   7
ATOM      7  C   UNL A   1      30.884  24.729  24.380  1.00  0.00     0.261 C 
BRANCH   7   8
ATOM      8  O   UNL A   1      30.784  25.856  23.493  1.00  0.00    -0.460 OA
BRANCH   8   9
ATOM      9  C   UNL A   1      31.926  26.465  23.144  1.00  0.00     0.339 C 
ATOM     10  O   UNL A   1      32.594  26.219  22.152  1.00  0.00    -0.246 OA
BRANCH   9  11
ATOM     11  C   UNL A   1      32.181  27.660  23.991  1.00  0.00     0.080 A 
ATOM     12  C   UNL A   1      31.340  28.767  24.165  1.00  0.00     0.103 A 
ATOM     13  C   UNL A   1      31.638  29.707  25.164  1.00  0.00     0.032 A 
ATOM     14  C   UNL A   1      32.856  29.675  25.848  1.00  0.00    -0.017 A 
ATOM     15  C   UNL A   1      33.397  27.619  24.706  1.00  0.00     0.018 A 
ATOM     16  C   UNL A   1      33.752  28.639  25.592  1.00  0.00     0.010 A 
BRANCH  12  17
ATOM     17  S   UNL A   1      29.997  29.118  23.057  1.00  0.00     0.264 S 
ATOM     18  O   UNL A   1      28.790  28.721  23.734  1.00  0.00    -0.201 OA
ATOM     19  O   UNL A   1      30.364  28.654  21.737  1.00  0.00    -0.201 OA
BRANCH  17  20
ATOM     20  N   UNL A   1      29.939  30.796  22.942  1.00  0.00    -0.249 N 
ATOM     21  C   UNL A   1      28.101  31.272  21.314  1.00  0.00     0.115 C 
ATOM     22  C   UNL A   1      28.750  31.507  22.654  1.00  0.00     0.230 C 
ATOM     23  O   UNL A   1      28.417  32.438  23.373  1.00  0.00    -0.274 OA
ATOM     24  H   UNL A   1      30.769  31.306  23.083  1.00  0.00     0.183 HD
ENDBRANCH  17  20
ENDBRANCH  12  17
BRANCH  14  25
ATOM     25  C   UNL A   1      33.208  30.781  26.751  1.00  0.00    -0.011 A 
ATOM     26  C   UNL A   1      34.385  30.746  27.598  1.00  0.00     0.027 A 
ATOM     27  C   UNL A   1      32.438  31.883  26.741  1.00  0.00     0.080 A 
ATOM     28  C   UNL A   1      34.700  31.795  28.366  1.00  0.00     0.095 A 
ATOM     29  C   UNL A   1      32.770  33.054  27.598  1.00  0.00     0.255 A 
ATOM     30  N   UNL A   1      33.913  32.932  28.374  1.00  0.00    -0.258 N 
ATOM     31  O   UNL A   1      32.031  34.032  27.564  1.00  0.00    -0.269 OA
BRANCH  30  32
ATOM     32  C   UNL A   1      34.249  34.049  29.218  1.00  0.00     0.451 C 
ATOM     33  F   UNL A   1      35.200  33.713  30.123  1.00  0.00    -0.185 F 
ATOM     34  F   UNL A   1      34.716  35.087  28.483  1.00  0.00    -0.185 F 
ENDBRANCH  30  32
ENDBRANCH  14  25
ENDBRANCH   9  11
ENDBRANCH   8   9
ENDBRANCH   7   8
ENDBRANCH   6   7
ENDBRANCH   5   6
ENDBRANCH   4   5
ENDBRANCH   3   4
ENDBRANCH   2   3
ENDBRANCH   1   2
BRANCH   1  35
ATOM     35  C   UNL A   1      34.785  22.329  25.448  1.00  0.00     0.188 C 
BRANCH  35  36
ATOM     36  O   UNL A   1      36.209  22.341  25.565  1.00  0.00    -0.376 OA
BRANCH  36  37
ATOM     37  C   UNL A   1      37.006  21.447  24.812  1.00  0.00     0.202 C 
BRANCH  37  38
ATOM     38  C   UNL A   1      38.200  20.791  25.519  1.00  0.00     0.261 C 
BRANCH  38  39
ATOM     39  O   UNL A   1      39.388  21.587  25.586  1.00  0.00    -0.460 OA
BRANCH  39  40
ATOM     40  C   UNL A   1      40.111  21.434  26.724  1.00  0.00     0.338 C 
ATOM     41  O   UNL A   1      40.488  20.385  27.216  1.00  0.00    -0.246 OA
BRANCH  40  42
ATOM     42  C   UNL A   1      40.501  22.766  27.236  1.00  0.00     0.060 A 
ATOM     43  C   UNL A   1      39.934  23.897  26.633  1.00  0.00     0.016 A 
ATOM     44  C   UNL A   1      41.435  22.908  28.265  1.00  0.00     0.016 A 
ATOM     45  C   UNL A   1      40.317  25.173  27.041  1.00  0.00     0.010 A 
ATOM     46  C   UNL A   1      41.841  24.190  28.654  1.00  0.00     0.010 A 
ATOM     47  C   UNL A   1      41.305  25.326  28.021  1.00  0.00    -0.014 A 
BRANCH  47  48
ATOM     48  C   UNL A   1      41.933  26.655  28.221  1.00  0.00     0.031 A 
ATOM     49  C   UNL A   1      43.291  26.891  27.617  1.00  0.00     0.074 A 
ATOM     50  C   UNL A   1      41.308  27.634  28.898  1.00  0.00     0.049 A 
ATOM     51  N   UNL A   1      44.057  27.949  27.676  1.00  0.00    -0.248 NA
ATOM     52  C   UNL A   1      43.858  25.777  26.841  1.00  0.00     0.031 C 
ATOM     53  C   UNL A   1      39.973  27.537  29.484  1.00  0.00     0.029 A 
ATOM     54  N   UNL A   1      41.722  28.904  29.210  1.00  0.00    -0.354 N 
ATOM     55  C   UNL A   1      45.194  27.632  26.941  1.00  0.00     0.074 A 
ATOM     56  C   UNL A   1      45.031  26.271  26.477  1.00  0.00     0.031 C 
ATOM     57  C   UNL A   1      39.684  28.696  30.102  1.00  0.00     0.029 A 
ATOM     58  C   UNL A   1      40.824  29.604  29.983  1.00  0.00     0.049 A 
ATOM     59  H   UNL A   1      42.580  29.281  28.909  1.00  0.00     0.167 HD
ATOM     60  C   UNL A   1      46.273  28.407  26.673  1.00  0.00     0.034 A 
ATOM     61  C   UNL A   1      40.928  30.823  30.549  1.00  0.00     0.034 A 
ATOM     62  C   UNL A   1      46.438  29.749  27.170  1.00  0.00     0.049 A 
ATOM     63  C   UNL A   1      42.186  31.631  30.324  1.00  0.00     0.074 A 
ATOM     64  C   UNL A   1      47.489  30.623  26.962  1.00  0.00     0.029 A 
ATOM     65  N   UNL A   1      45.531  30.404  27.995  1.00  0.00    -0.354 N 
ATOM     66  N   UNL A   1      43.251  31.325  29.619  1.00  0.00    -0.248 NA
ATOM     67  C   UNL A   1      42.255  32.948  30.973  1.00  0.00     0.031 C 
ATOM     68  C   UNL A   1      47.251  31.780  27.714  1.00  0.00     0.029 A 
ATOM     69  C   UNL A   1      46.016  31.659  28.333  1.00  0.00     0.049 A 
ATOM     70  H   UNL A   1      44.671  30.033  28.295  1.00  0.00     0.167 HD
ATOM     71  C   UNL A   1      44.101  32.425  29.716  1.00  0.00     0.074 A 
ATOM     72  C   UNL A   1      43.422  33.403  30.540  1.00  0.00     0.031 C 
ATOM     73  C   UNL A   1      45.329  32.616  29.168  1.00  0.00     0.034 A 
BRANCH  60  74
ATOM     74  C   UNL A   1      47.377  27.784  25.855  1.00  0.00     0.023 A 
ATOM     75  C   UNL A   1      47.529  28.064  24.484  1.00  0.00     0.031 A 
ATOM     76  C   UNL A   1      48.257  26.859  26.441  1.00  0.00     0.131 A 
ATOM     77  C   UNL A   1      48.491  27.373  23.733  1.00  0.00     0.055 A 
ATOM     78  C   UNL A   1      49.261  26.228  25.703  1.00  0.00     0.041 A 
ATOM     79  F   UNL A   1      48.141  26.533  27.739  1.00  0.00    -0.206 F 
ATOM     80  C   UNL A   1      49.373  26.473  24.337  1.00  0.00     0.022 A 
BRANCH  77  81
ATOM     81  S   UNL A   1      48.483  27.559  21.929  1.00  0.00     0.124 S 
ATOM     82  O   UNL A   1      48.684  26.181  21.488  1.00  0.00    -0.237 OA
ATOM     83  O   UNL A   1      47.163  28.126  21.675  1.00  0.00    -0.237 OA
ATOM     84  O   UNL A   1      49.607  28.457  21.672  1.00  0.00    -0.744 OA
ENDBRANCH  77  81
ENDBRANCH  60  74
BRANCH  61  85
ATOM     85  C   UNL A   1      39.842  31.348  31.427  1.00  0.00     0.023 A 
ATOM     86  C   UNL A   1      39.911  31.228  32.825  1.00  0.00     0.031 A 
ATOM     87  C   UNL A   1      38.685  31.921  30.871  1.00  0.00     0.131 A 
ATOM     88  C   UNL A   1      38.825  31.635  33.616  1.00  0.00     0.055 A 
ATOM     89  C   UNL A   1      37.628  32.369  31.665  1.00  0.00     0.041 A 
ATOM     90  F   UNL A   1      38.565  32.056  29.541  1.00  0.00    -0.206 F 
ATOM     91  C   UNL A   1      37.689  32.215  33.046  1.00  0.00     0.022 A 
BRANCH  88  92
ATOM     92  S   UNL A   1      38.881  31.319  35.402  1.00  0.00     0.124 S 
ATOM     93  O   UNL A   1      40.317  31.258  35.649  1.00  0.00    -0.237 OA
ATOM     94  O   UNL A   1      38.186  32.485  35.938  1.00  0.00    -0.237 OA
ATOM     95  O   UNL A   1      38.168  30.051  35.546  1.00  0.00    -0.744 OA
ENDBRANCH  88  92
ENDBRANCH  61  85
BRANCH  73  96
ATOM     96  C   UNL A   1      45.991  33.950  29.408  1.00  0.00     0.023 A 
ATOM     97  C   UNL A   1      45.747  35.058  28.578  1.00  0.00     0.031 A 
ATOM     98  C   UNL A   1      46.878  34.112  30.486  1.00  0.00     0.131 A 
ATOM     99  C   UNL A   1      46.419  36.267  28.814  1.00  0.00     0.055 A 
ATOM    100  C   UNL A   1      47.501  35.332  30.749  1.00  0.00     0.041 A 
ATOM    101  F   UNL A   1      47.146  33.086  31.310  1.00  0.00    -0.206 F 
ATOM    102  C   UNL A   1      47.282  36.415  29.903  1.00  0.00     0.022 A 
BRANCH  99 103
ATOM    103  S   UNL A   1      46.206  37.629  27.634  1.00  0.00     0.124 S 
ATOM    104  O   UNL A   1      44.917  38.181  28.038  1.00  0.00    -0.237 OA
ATOM    105  O   UNL A   1      47.371  38.464  27.905  1.00  0.00    -0.237 OA
ATOM    106  O   UNL A   1      46.214  36.962  26.334  1.00  0.00    -0.744 OA
ENDBRANCH  99 103
ENDBRANCH  73  96
ENDBRANCH  47  48
ENDBRANCH  40  42
ENDBRANCH  39  40
ENDBRANCH  38  39
ENDBRANCH  37  38
ENDBRANCH  36  37
ENDBRANCH  35  36
ENDBRANCH   1  35
TORSDOF 27
ENDMDL
