MODEL 1
REMARK VINA RESULT:      -7.9      0.000      0.000
REMARK SMILES Cc1c(Br)c(C)c2c(c1Br)O[C@H](C(F)(F)F)C(C(=O)OCCOCCOCCOCCOC(=O)c1ccc(-c3c4nc(c(-c5cc(S(=O)(=O)[O-])ccc5F)c5ccc([nH]5)c(-c5cc(S(=O)(=O)[O-])ccc5F)c5nc(c(-c6cc(S(=O)(=O)[O-])ccc6F)c6ccc3[nH]6)C=C5)C=C4)cc1)=C2
REMARK SMILES IDX 27 1 26 2 25 3 24 4 23 5 22 6 21 7 20 8 18 9 19 10 17 11
REMARK SMILES IDX 1 12 2 13 3 14 9 15 4 16 5 17 8 18 10 19 6 20 7 21 11 22
REMARK SMILES IDX 98 23 12 24 13 25 14 26 15 27 16 28 28 29 29 30 30 31 31 32
REMARK SMILES IDX 32 33 33 34 34 35 35 36 36 37 97 38 37 39 96 40 38 41 39 42
REMARK SMILES IDX 40 43 90 44 41 45 95 46 89 47 91 48 42 49 94 50 88 51 87 52
REMARK SMILES IDX 43 54 75 55 55 56 74 57 56 58 59 59 73 60 92 61 57 62 58 63
REMARK SMILES IDX 72 65 93 66 60 67 44 68 45 69 53 70 46 71 52 72 54 73 51 74
REMARK SMILES IDX 47 75 48 76 49 77 50 78 76 79 77 80 85 81 78 82 84 83 86 84
REMARK SMILES IDX 83 85 79 86 80 87 81 88 82 89 61 90 62 91 70 92 63 93 69 94
REMARK SMILES IDX 71 95 68 96 64 97 65 98 66 99 67 100
REMARK H PARENT 91 53 59 64
REMARK Flexibility Score: inf
ROOT
ATOM      1  C   UNL A   1      42.593  18.343  26.263  1.00  0.00     0.188 C 
ENDROOT
BRANCH   1   2
ATOM      2  O   UNL A   1      41.578  19.221  25.776  1.00  0.00    -0.377 OA
BRANCH   2   3
ATOM      3  C   UNL A   1      40.882  20.003  26.731  1.00  0.00     0.188 C 
BRANCH   3   4
ATOM      4  C   UNL A   1      40.493  21.392  26.192  1.00  0.00     0.188 C 
BRANCH   4   5
ATOM      5  O   UNL A   1      40.477  22.429  27.152  1.00  0.00    -0.376 OA
BRANCH   5   6
ATOM      6  C   UNL A   1      41.606  23.251  27.415  1.00  0.00     0.202 C 
BRANCH   6   7
ATOM      7  C   UNL A   1      41.678  24.438  28.397  1.00  0.00     0.261 C 
BRANCH   7   8
ATOM      8  O   UNL A   1      41.796  25.752  27.856  1.00  0.00    -0.460 OA
BRANCH   8   9
ATOM      9  C   UNL A   1      40.664  26.436  27.632  1.00  0.00     0.338 C 
ATOM     10  O   UNL A   1      39.677  26.056  27.028  1.00  0.00    -0.246 OA
BRANCH   9  11
ATOM     11  C   UNL A   1      40.744  27.685  28.422  1.00  0.00     0.087 C 
ATOM     12  C   UNL A   1      39.499  33.055  31.875  1.00  0.00     0.047 C 
ATOM     13  C   UNL A   1      39.666  31.641  31.370  1.00  0.00    -0.019 A 
ATOM     14  C   UNL A   1      38.736  30.625  31.703  1.00  0.00     0.025 A 
ATOM     15  C   UNL A   1      40.702  31.322  30.466  1.00  0.00     0.064 A 
ATOM     16  Br  UNL A   1      37.265  31.046  32.866  1.00  0.00    -0.050 Br
ATOM     17  C   UNL A   1      38.830  29.325  31.148  1.00  0.00    -0.026 A 
ATOM     18  C   UNL A   1      40.780  30.052  29.869  1.00  0.00     0.142 A 
ATOM     19  Br  UNL A   1      42.002  32.636  29.948  1.00  0.00    -0.046 Br
ATOM     20  C   UNL A   1      37.916  28.192  31.567  1.00  0.00     0.046 C 
ATOM     21  C   UNL A   1      39.817  29.078  30.163  1.00  0.00     0.022 A 
ATOM     22  O   UNL A   1      41.819  29.835  29.005  1.00  0.00    -0.474 OA
ATOM     23  C   UNL A   1      39.808  27.855  29.363  1.00  0.00     0.027 C 
ATOM     24  C   UNL A   1      41.882  28.635  28.197  1.00  0.00     0.316 C 
BRANCH  24  25
ATOM     25  C   UNL A   1      42.011  29.056  26.727  1.00  0.00     0.430 C 
ATOM     26  F   UNL A   1      40.798  29.197  26.146  1.00  0.00    -0.167 F 
ATOM     27  F   UNL A   1      42.653  30.238  26.591  1.00  0.00    -0.167 F 
ATOM     28  F   UNL A   1      42.701  28.137  26.010  1.00  0.00    -0.167 F 
ENDBRANCH  24  25
ENDBRANCH   9  11
ENDBRANCH   8   9
ENDBRANCH   7   8
ENDBRANCH   6   7
ENDBRANCH   5   6
ENDBRANCH   4   5
ENDBRANCH   3   4
ENDBRANCH   2   3
ENDBRANCH   1   2
BRANCH   1  29
ATOM     29  C   UNL A   1      44.024  18.389  25.679  1.00  0.00     0.188 C 
BRANCH  29  30
ATOM     30  O   UNL A   1      44.118  19.056  24.423  1.00  0.00    -0.376 OA
BRANCH  30  31
ATOM     31  C   UNL A   1      45.402  19.159  23.827  1.00  0.00     0.202 C 
BRANCH  31  32
ATOM     32  C   UNL A   1      46.274  20.316  24.335  1.00  0.00     0.261 C 
BRANCH  32  33
ATOM     33  O   UNL A   1      45.581  21.344  25.058  1.00  0.00    -0.460 OA
BRANCH  33  34
ATOM     34  C   UNL A   1      45.059  22.363  24.337  1.00  0.00     0.338 C 
ATOM     35  O   UNL A   1      44.446  22.275  23.288  1.00  0.00    -0.246 OA
BRANCH  34  36
ATOM     36  C   UNL A   1      45.186  23.590  25.149  1.00  0.00     0.060 A 
ATOM     37  C   UNL A   1      46.317  23.757  25.959  1.00  0.00     0.016 A 
ATOM     38  C   UNL A   1      44.200  24.578  25.096  1.00  0.00     0.016 A 
ATOM     39  C   UNL A   1      46.449  24.904  26.741  1.00  0.00     0.010 A 
ATOM     40  C   UNL A   1      44.321  25.713  25.900  1.00  0.00     0.010 A 
ATOM     41  C   UNL A   1      45.430  25.867  26.749  1.00  0.00    -0.014 A 
BRANCH  41  42
ATOM     42  C   UNL A   1      45.415  26.910  27.803  1.00  0.00     0.031 A 
ATOM     43  C   UNL A   1      45.189  26.469  29.226  1.00  0.00     0.074 A 
ATOM     44  C   UNL A   1      45.637  28.207  27.521  1.00  0.00     0.049 A 
ATOM     45  N   UNL A   1      45.080  27.189  30.309  1.00  0.00    -0.248 NA
ATOM     46  C   UNL A   1      45.074  25.018  29.451  1.00  0.00     0.031 C 
ATOM     47  C   UNL A   1      45.940  28.744  26.196  1.00  0.00     0.029 A 
ATOM     48  N   UNL A   1      45.650  29.308  28.341  1.00  0.00    -0.354 N 
ATOM     49  C   UNL A   1      44.898  26.281  31.346  1.00  0.00     0.074 A 
ATOM     50  C   UNL A   1      44.870  24.960  30.758  1.00  0.00     0.031 C 
ATOM     51  C   UNL A   1      46.112  30.076  26.295  1.00  0.00     0.029 A 
ATOM     52  C   UNL A   1      45.894  30.490  27.682  1.00  0.00     0.049 A 
ATOM     53  H   UNL A   1      45.497  29.256  29.313  1.00  0.00     0.167 HD
ATOM     54  C   UNL A   1      44.780  26.525  32.672  1.00  0.00     0.034 A 
ATOM     55  C   UNL A   1      45.918  31.758  28.142  1.00  0.00     0.034 A 
ATOM     56  C   UNL A   1      44.800  27.842  33.251  1.00  0.00     0.049 A 
ATOM     57  C   UNL A   1      45.656  32.014  29.608  1.00  0.00     0.074 A 
ATOM     58  C   UNL A   1      44.668  28.195  34.582  1.00  0.00     0.029 A 
ATOM     59  N   UNL A   1      44.961  29.019  32.537  1.00  0.00    -0.354 N 
ATOM     60  N   UNL A   1      45.443  31.148  30.573  1.00  0.00    -0.248 NA
ATOM     61  C   UNL A   1      45.631  33.416  30.048  1.00  0.00     0.031 C 
ATOM     62  C   UNL A   1      44.687  29.590  34.667  1.00  0.00     0.029 A 
ATOM     63  C   UNL A   1      44.904  30.103  33.397  1.00  0.00     0.049 A 
ATOM     64  H   UNL A   1      45.096  29.077  31.563  1.00  0.00     0.167 HD
ATOM     65  C   UNL A   1      45.288  31.901  31.733  1.00  0.00     0.074 A 
ATOM     66  C   UNL A   1      45.436  33.290  31.354  1.00  0.00     0.031 C 
ATOM     67  C   UNL A   1      45.048  31.482  33.002  1.00  0.00     0.034 A 
BRANCH  54  68
ATOM     68  C   UNL A   1      44.591  25.347  33.586  1.00  0.00     0.023 A 
ATOM     69  C   UNL A   1      45.642  24.454  33.854  1.00  0.00     0.031 A 
ATOM     70  C   UNL A   1      43.358  25.136  34.228  1.00  0.00     0.131 A 
ATOM     71  C   UNL A   1      45.434  23.374  34.723  1.00  0.00     0.055 A 
ATOM     72  C   UNL A   1      43.174  24.094  35.136  1.00  0.00     0.041 A 
ATOM     73  F   UNL A   1      42.317  25.948  33.988  1.00  0.00    -0.206 F 
ATOM     74  C   UNL A   1      44.214  23.203  35.385  1.00  0.00     0.022 A 
BRANCH  71  75
ATOM     75  S   UNL A   1      46.761  22.158  34.933  1.00  0.00     0.124 S 
ATOM     76  O   UNL A   1      47.936  22.934  34.547  1.00  0.00    -0.237 OA
ATOM     77  O   UNL A   1      46.658  21.817  36.347  1.00  0.00    -0.237 OA
ATOM     78  O   UNL A   1      46.395  21.088  34.007  1.00  0.00    -0.744 OA
ENDBRANCH  71  75
ENDBRANCH  54  68
BRANCH  55  79
ATOM     79  C   UNL A   1      46.167  32.897  27.213  1.00  0.00     0.023 A 
ATOM     80  C   UNL A   1      47.472  33.337  26.941  1.00  0.00     0.031 A 
ATOM     81  C   UNL A   1      45.100  33.595  26.620  1.00  0.00     0.131 A 
ATOM     82  C   UNL A   1      47.677  34.462  26.125  1.00  0.00     0.055 A 
ATOM     83  C   UNL A   1      45.310  34.685  25.773  1.00  0.00     0.041 A 
ATOM     84  F   UNL A   1      43.832  33.220  26.852  1.00  0.00    -0.206 F 
ATOM     85  C   UNL A   1      46.605  35.130  25.529  1.00  0.00     0.022 A 
BRANCH  82  86
ATOM     86  S   UNL A   1      49.368  35.076  25.897  1.00  0.00     0.124 S 
ATOM     87  O   UNL A   1      49.513  35.976  27.036  1.00  0.00    -0.237 OA
ATOM     88  O   UNL A   1      50.149  33.844  25.948  1.00  0.00    -0.237 OA
ATOM     89  O   UNL A   1      49.321  35.726  24.589  1.00  0.00    -0.744 OA
ENDBRANCH  82  86
ENDBRANCH  55  79
BRANCH  67  90
ATOM     90  C   UNL A   1      44.963  32.527  34.084  1.00  0.00     0.023 A 
ATOM     91  C   UNL A   1      46.105  32.962  34.775  1.00  0.00     0.031 A 
ATOM     92  C   UNL A   1      43.732  33.139  34.379  1.00  0.00     0.131 A 
ATOM     93  C   UNL A   1      45.989  33.966  35.748  1.00  0.00     0.055 A 
ATOM     94  C   UNL A   1      43.630  34.171  35.312  1.00  0.00     0.041 A 
ATOM     95  F   UNL A   1      42.612  32.763  33.740  1.00  0.00    -0.206 F 
ATOM     96  C   UNL A   1      44.763  34.587  36.007  1.00  0.00     0.022 A 
BRANCH  93  97
ATOM     97  S   UNL A   1      47.461  34.433  36.697  1.00  0.00     0.124 S 
ATOM     98  O   UNL A   1      47.067  35.724  37.251  1.00  0.00    -0.237 OA
ATOM     99  O   UNL A   1      47.580  33.338  37.655  1.00  0.00    -0.237 OA
ATOM    100  O   UNL A   1      48.518  34.487  35.689  1.00  0.00    -0.744 OA
ENDBRANCH  93  97
ENDBRANCH  67  90
ENDBRANCH  41  42
ENDBRANCH  34  36
ENDBRANCH  33  34
ENDBRANCH  32  33
ENDBRANCH  31  32
ENDBRANCH  30  31
ENDBRANCH  29  30
ENDBRANCH   1  29
TORSDOF 24
ENDMDL
MODEL 2
REMARK VINA RESULT:      -7.6      3.868      8.665
REMARK SMILES Cc1c(Br)c(C)c2c(c1Br)O[C@H](C(F)(F)F)C(C(=O)OCCOCCOCCOCCOC(=O)c1ccc(-c3c4nc(c(-c5cc(S(=O)(=O)[O-])ccc5F)c5ccc([nH]5)c(-c5cc(S(=O)(=O)[O-])ccc5F)c5nc(c(-c6cc(S(=O)(=O)[O-])ccc6F)c6ccc3[nH]6)C=C5)C=C4)cc1)=C2
REMARK SMILES IDX 27 1 26 2 25 3 24 4 23 5 22 6 21 7 20 8 18 9 19 10 17 11
REMARK SMILES IDX 1 12 2 13 3 14 9 15 4 16 5 17 8 18 10 19 6 20 7 21 11 22
REMARK SMILES IDX 98 23 12 24 13 25 14 26 15 27 16 28 28 29 29 30 30 31 31 32
REMARK SMILES IDX 32 33 33 34 34 35 35 36 36 37 97 38 37 39 96 40 38 41 39 42
REMARK SMILES IDX 40 43 90 44 41 45 95 46 89 47 91 48 42 49 94 50 88 51 87 52
REMARK SMILES IDX 43 54 75 55 55 56 74 57 56 58 59 59 73 60 92 61 57 62 58 63
REMARK SMILES IDX 72 65 93 66 60 67 44 68 45 69 53 70 46 71 52 72 54 73 51 74
REMARK SMILES IDX 47 75 48 76 49 77 50 78 76 79 77 80 85 81 78 82 84 83 86 84
REMARK SMILES IDX 83 85 79 86 80 87 81 88 82 89 61 90 62 91 70 92 63 93 69 94
REMARK SMILES IDX 71 95 68 96 64 97 65 98 66 99 67 100
REMARK H PARENT 91 53 59 64
REMARK Flexibility Score: inf
ROOT
ATOM      1  C   UNL A   1      33.659  33.628  29.089  1.00  0.00     0.188 C 
ENDROOT
BRANCH   1   2
ATOM      2  O   UNL A   1      34.475  32.682  28.399  1.00  0.00    -0.377 OA
BRANCH   2   3
ATOM      3  C   UNL A   1      35.825  33.042  28.160  1.00  0.00     0.188 C 
BRANCH   3   4
ATOM      4  C   UNL A   1      36.824  32.039  28.764  1.00  0.00     0.188 C 
BRANCH   4   5
ATOM      5  O   UNL A   1      36.284  30.779  29.105  1.00  0.00    -0.376 OA
BRANCH   5   6
ATOM      6  C   UNL A   1      36.851  29.553  28.664  1.00  0.00     0.202 C 
BRANCH   6   7
ATOM      7  C   UNL A   1      38.345  29.260  28.418  1.00  0.00     0.261 C 
BRANCH   7   8
ATOM      8  O   UNL A   1      38.696  28.014  27.820  1.00  0.00    -0.460 OA
BRANCH   8   9
ATOM      9  C   UNL A   1      39.283  27.093  28.601  1.00  0.00     0.338 C 
ATOM     10  O   UNL A   1      38.938  26.738  29.713  1.00  0.00    -0.246 OA
BRANCH   9  11
ATOM     11  C   UNL A   1      40.327  26.431  27.788  1.00  0.00     0.087 C 
ATOM     12  C   UNL A   1      44.681  22.322  25.243  1.00  0.00     0.047 C 
ATOM     13  C   UNL A   1      43.432  23.038  25.703  1.00  0.00    -0.019 A 
ATOM     14  C   UNL A   1      42.297  22.320  26.158  1.00  0.00     0.025 A 
ATOM     15  C   UNL A   1      43.404  24.446  25.788  1.00  0.00     0.064 A 
ATOM     16  Br  UNL A   1      42.333  20.399  26.133  1.00  0.00    -0.050 Br
ATOM     17  C   UNL A   1      41.164  22.985  26.687  1.00  0.00    -0.026 A 
ATOM     18  C   UNL A   1      42.308  25.118  26.357  1.00  0.00     0.142 A 
ATOM     19  Br  UNL A   1      44.898  25.501  25.206  1.00  0.00    -0.046 Br
ATOM     20  C   UNL A   1      39.899  22.253  27.080  1.00  0.00     0.046 C 
ATOM     21  C   UNL A   1      41.221  24.391  26.856  1.00  0.00     0.022 A 
ATOM     22  O   UNL A   1      42.372  26.485  26.396  1.00  0.00    -0.474 OA
ATOM     23  C   UNL A   1      40.210  25.108  27.629  1.00  0.00     0.027 C 
ATOM     24  C   UNL A   1      41.389  27.258  27.127  1.00  0.00     0.316 C 
BRANCH  24  25
ATOM     25  C   UNL A   1      42.136  28.156  28.124  1.00  0.00     0.430 C 
ATOM     26  F   UNL A   1      41.563  29.379  28.210  1.00  0.00    -0.167 F 
ATOM     27  F   UNL A   1      42.144  27.635  29.371  1.00  0.00    -0.167 F 
ATOM     28  F   UNL A   1      43.425  28.337  27.753  1.00  0.00    -0.167 F 
ENDBRANCH  24  25
ENDBRANCH   9  11
ENDBRANCH   8   9
ENDBRANCH   7   8
ENDBRANCH   6   7
ENDBRANCH   5   6
ENDBRANCH   4   5
ENDBRANCH   3   4
ENDBRANCH   2   3
ENDBRANCH   1   2
BRANCH   1  29
ATOM     29  C   UNL A   1      34.298  34.749  29.943  1.00  0.00     0.188 C 
BRANCH  29  30
ATOM     30  O   UNL A   1      35.079  34.273  31.037  1.00  0.00    -0.376 OA
BRANCH  30  31
ATOM     31  C   UNL A   1      34.543  33.213  31.814  1.00  0.00     0.202 C 
BRANCH  31  32
ATOM     32  C   UNL A   1      35.125  33.074  33.228  1.00  0.00     0.261 C 
BRANCH  32  33
ATOM     33  O   UNL A   1      36.110  32.044  33.396  1.00  0.00    -0.460 OA
BRANCH  33  34
ATOM     34  C   UNL A   1      37.084  32.261  34.309  1.00  0.00     0.338 C 
ATOM     35  O   UNL A   1      36.953  32.766  35.410  1.00  0.00    -0.246 OA
BRANCH  34  36
ATOM     36  C   UNL A   1      38.308  31.595  33.818  1.00  0.00     0.060 A 
ATOM     37  C   UNL A   1      39.547  31.965  34.356  1.00  0.00     0.016 A 
ATOM     38  C   UNL A   1      38.226  30.598  32.844  1.00  0.00     0.016 A 
ATOM     39  C   UNL A   1      40.714  31.355  33.897  1.00  0.00     0.010 A 
ATOM     40  C   UNL A   1      39.398  30.007  32.366  1.00  0.00     0.010 A 
ATOM     41  C   UNL A   1      40.650  30.404  32.868  1.00  0.00    -0.014 A 
BRANCH  41  42
ATOM     42  C   UNL A   1      41.891  29.998  32.166  1.00  0.00     0.031 A 
ATOM     43  C   UNL A   1      42.574  28.735  32.619  1.00  0.00     0.074 A 
ATOM     44  C   UNL A   1      42.380  30.700  31.127  1.00  0.00     0.049 A 
ATOM     45  N   UNL A   1      43.691  28.202  32.204  1.00  0.00    -0.248 NA
ATOM     46  C   UNL A   1      41.901  27.972  33.684  1.00  0.00     0.031 C 
ATOM     47  C   UNL A   1      41.767  31.896  30.550  1.00  0.00     0.029 A 
ATOM     48  N   UNL A   1      43.504  30.499  30.366  1.00  0.00    -0.354 N 
ATOM     49  C   UNL A   1      43.848  27.036  32.944  1.00  0.00     0.074 A 
ATOM     50  C   UNL A   1      42.735  26.959  33.863  1.00  0.00     0.031 C 
ATOM     51  C   UNL A   1      42.525  32.320  29.522  1.00  0.00     0.029 A 
ATOM     52  C   UNL A   1      43.695  31.451  29.392  1.00  0.00     0.049 A 
ATOM     53  H   UNL A   1      44.120  29.742  30.506  1.00  0.00     0.167 HD
ATOM     54  C   UNL A   1      44.826  26.104  32.855  1.00  0.00     0.034 A 
ATOM     55  C   UNL A   1      44.705  31.611  28.512  1.00  0.00     0.034 A 
ATOM     56  C   UNL A   1      45.937  26.190  31.945  1.00  0.00     0.049 A 
ATOM     57  C   UNL A   1      45.851  30.626  28.521  1.00  0.00     0.074 A 
ATOM     58  C   UNL A   1      46.990  25.306  31.793  1.00  0.00     0.029 A 
ATOM     59  N   UNL A   1      46.139  27.216  31.035  1.00  0.00    -0.354 N 
ATOM     60  N   UNL A   1      46.009  29.548  29.256  1.00  0.00    -0.248 NA
ATOM     61  C   UNL A   1      46.958  30.879  27.587  1.00  0.00     0.031 C 
ATOM     62  C   UNL A   1      47.862  25.829  30.834  1.00  0.00     0.029 A 
ATOM     63  C   UNL A   1      47.316  27.002  30.338  1.00  0.00     0.049 A 
ATOM     64  H   UNL A   1      45.536  27.983  30.904  1.00  0.00     0.167 HD
ATOM     65  C   UNL A   1      47.216  28.984  28.851  1.00  0.00     0.074 A 
ATOM     66  C   UNL A   1      47.745  29.834  27.806  1.00  0.00     0.031 C 
ATOM     67  C   UNL A   1      47.832  27.861  29.301  1.00  0.00     0.034 A 
BRANCH  54  68
ATOM     68  C   UNL A   1      44.755  24.924  33.785  1.00  0.00     0.023 A 
ATOM     69  C   UNL A   1      45.119  25.037  35.137  1.00  0.00     0.031 A 
ATOM     70  C   UNL A   1      44.281  23.685  33.323  1.00  0.00     0.131 A 
ATOM     71  C   UNL A   1      45.028  23.919  35.977  1.00  0.00     0.055 A 
ATOM     72  C   UNL A   1      44.137  22.592  34.178  1.00  0.00     0.041 A 
ATOM     73  F   UNL A   1      43.941  23.521  32.035  1.00  0.00    -0.206 F 
ATOM     74  C   UNL A   1      44.515  22.704  35.513  1.00  0.00     0.022 A 
BRANCH  71  75
ATOM     75  S   UNL A   1      45.644  24.055  37.677  1.00  0.00     0.124 S 
ATOM     76  O   UNL A   1      44.566  24.801  38.321  1.00  0.00    -0.237 OA
ATOM     77  O   UNL A   1      45.782  22.660  38.077  1.00  0.00    -0.237 OA
ATOM     78  O   UNL A   1      46.900  24.788  37.528  1.00  0.00    -0.744 OA
ENDBRANCH  71  75
ENDBRANCH  54  68
BRANCH  55  79
ATOM     79  C   UNL A   1      44.712  32.763  27.566  1.00  0.00     0.023 A 
ATOM     80  C   UNL A   1      45.230  34.010  27.949  1.00  0.00     0.031 A 
ATOM     81  C   UNL A   1      44.157  32.647  26.279  1.00  0.00     0.131 A 
ATOM     82  C   UNL A   1      45.153  35.101  27.067  1.00  0.00     0.055 A 
ATOM     83  C   UNL A   1      44.124  33.722  25.390  1.00  0.00     0.041 A 
ATOM     84  F   UNL A   1      43.642  31.478  25.865  1.00  0.00    -0.206 F 
ATOM     85  C   UNL A   1      44.616  34.962  25.786  1.00  0.00     0.022 A 
BRANCH  82  86
ATOM     86  S   UNL A   1      45.718  36.727  27.642  1.00  0.00     0.124 S 
ATOM     87  O   UNL A   1      46.533  37.172  26.517  1.00  0.00    -0.237 OA
ATOM     88  O   UNL A   1      44.457  37.434  27.842  1.00  0.00    -0.237 OA
ATOM     89  O   UNL A   1      46.456  36.417  28.865  1.00  0.00    -0.744 OA
ENDBRANCH  82  86
ENDBRANCH  55  79
BRANCH  67  90
ATOM     90  C   UNL A   1      49.129  27.460  28.648  1.00  0.00     0.023 A 
ATOM     91  C   UNL A   1      50.368  27.859  29.175  1.00  0.00     0.031 A 
ATOM     92  C   UNL A   1      49.123  26.616  27.524  1.00  0.00     0.131 A 
ATOM     93  C   UNL A   1      51.555  27.431  28.561  1.00  0.00     0.055 A 
ATOM     94  C   UNL A   1      50.306  26.154  26.947  1.00  0.00     0.041 A 
ATOM     95  F   UNL A   1      47.963  26.202  26.987  1.00  0.00    -0.206 F 
ATOM     96  C   UNL A   1      51.532  26.566  27.463  1.00  0.00     0.022 A 
BRANCH  93  97
ATOM     97  S   UNL A   1      53.136  28.046  29.199  1.00  0.00     0.124 S 
ATOM     98  O   UNL A   1      54.010  26.895  29.004  1.00  0.00    -0.237 OA
ATOM     99  O   UNL A   1      53.397  29.197  28.340  1.00  0.00    -0.237 OA
ATOM    100  O   UNL A   1      52.841  28.371  30.593  1.00  0.00    -0.744 OA
ENDBRANCH  93  97
ENDBRANCH  67  90
ENDBRANCH  41  42
ENDBRANCH  34  36
ENDBRANCH  33  34
ENDBRANCH  32  33
ENDBRANCH  31  32
ENDBRANCH  30  31
ENDBRANCH  29  30
ENDBRANCH   1  29
TORSDOF 24
ENDMDL
MODEL 3
REMARK VINA RESULT:      -7.6      4.430     11.308
REMARK SMILES Cc1c(Br)c(C)c2c(c1Br)O[C@H](C(F)(F)F)C(C(=O)OCCOCCOCCOCCOC(=O)c1ccc(-c3c4nc(c(-c5cc(S(=O)(=O)[O-])ccc5F)c5ccc([nH]5)c(-c5cc(S(=O)(=O)[O-])ccc5F)c5nc(c(-c6cc(S(=O)(=O)[O-])ccc6F)c6ccc3[nH]6)C=C5)C=C4)cc1)=C2
REMARK SMILES IDX 27 1 26 2 25 3 24 4 23 5 22 6 21 7 20 8 18 9 19 10 17 11
REMARK SMILES IDX 1 12 2 13 3 14 9 15 4 16 5 17 8 18 10 19 6 20 7 21 11 22
REMARK SMILES IDX 98 23 12 24 13 25 14 26 15 27 16 28 28 29 29 30 30 31 31 32
REMARK SMILES IDX 32 33 33 34 34 35 35 36 36 37 97 38 37 39 96 40 38 41 39 42
REMARK SMILES IDX 40 43 90 44 41 45 95 46 89 47 91 48 42 49 94 50 88 51 87 52
REMARK SMILES IDX 43 54 75 55 55 56 74 57 56 58 59 59 73 60 92 61 57 62 58 63
REMARK SMILES IDX 72 65 93 66 60 67 44 68 45 69 53 70 46 71 52 72 54 73 51 74
REMARK SMILES IDX 47 75 48 76 49 77 50 78 76 79 77 80 85 81 78 82 84 83 86 84
REMARK SMILES IDX 83 85 79 86 80 87 81 88 82 89 61 90 62 91 70 92 63 93 69 94
REMARK SMILES IDX 71 95 68 96 64 97 65 98 66 99 67 100
REMARK H PARENT 91 53 59 64
REMARK Flexibility Score: inf
ROOT
ATOM      1  C   UNL A   1      34.172  33.745  28.037  1.00  0.00     0.188 C 
ENDROOT
BRANCH   1   2
ATOM      2  O   UNL A   1      33.166  32.741  27.897  1.00  0.00    -0.377 OA
BRANCH   2   3
ATOM      3  C   UNL A   1      33.592  31.445  27.515  1.00  0.00     0.188 C 
BRANCH   3   4
ATOM      4  C   UNL A   1      35.098  31.221  27.745  1.00  0.00     0.188 C 
BRANCH   4   5
ATOM      5  O   UNL A   1      35.573  29.931  27.420  1.00  0.00    -0.376 OA
BRANCH   5   6
ATOM      6  C   UNL A   1      36.802  29.417  27.912  1.00  0.00     0.202 C 
BRANCH   6   7
ATOM      7  C   UNL A   1      37.208  29.244  29.390  1.00  0.00     0.261 C 
BRANCH   7   8
ATOM      8  O   UNL A   1      38.383  28.490  29.681  1.00  0.00    -0.460 OA
BRANCH   8   9
ATOM      9  C   UNL A   1      39.548  28.938  29.188  1.00  0.00     0.338 C 
ATOM     10  O   UNL A   1      39.935  30.092  29.139  1.00  0.00    -0.246 OA
BRANCH   9  11
ATOM     11  C   UNL A   1      40.380  27.753  28.884  1.00  0.00     0.087 C 
ATOM     12  C   UNL A   1      42.667  21.760  27.806  1.00  0.00     0.047 C 
ATOM     13  C   UNL A   1      41.958  23.093  27.747  1.00  0.00    -0.019 A 
ATOM     14  C   UNL A   1      40.635  23.203  27.251  1.00  0.00     0.025 A 
ATOM     15  C   UNL A   1      42.565  24.250  28.282  1.00  0.00     0.064 A 
ATOM     16  Br  UNL A   1      39.750  21.630  26.590  1.00  0.00    -0.050 Br
ATOM     17  C   UNL A   1      39.930  24.430  27.290  1.00  0.00    -0.026 A 
ATOM     18  C   UNL A   1      41.860  25.463  28.374  1.00  0.00     0.142 A 
ATOM     19  Br  UNL A   1      44.349  24.195  28.986  1.00  0.00    -0.046 Br
ATOM     20  C   UNL A   1      38.558  24.602  26.672  1.00  0.00     0.046 C 
ATOM     21  C   UNL A   1      40.532  25.539  27.934  1.00  0.00     0.022 A 
ATOM     22  O   UNL A   1      42.530  26.530  28.908  1.00  0.00    -0.474 OA
ATOM     23  C   UNL A   1      39.773  26.747  28.244  1.00  0.00     0.027 C 
ATOM     24  C   UNL A   1      41.841  27.765  29.220  1.00  0.00     0.316 C 
BRANCH  24  25
ATOM     25  C   UNL A   1      42.100  28.095  30.697  1.00  0.00     0.430 C 
ATOM     26  F   UNL A   1      42.461  29.389  30.857  1.00  0.00    -0.167 F 
ATOM     27  F   UNL A   1      41.005  27.893  31.462  1.00  0.00    -0.167 F 
ATOM     28  F   UNL A   1      43.095  27.330  31.204  1.00  0.00    -0.167 F 
ENDBRANCH  24  25
ENDBRANCH   9  11
ENDBRANCH   8   9
ENDBRANCH   7   8
ENDBRANCH   6   7
ENDBRANCH   5   6
ENDBRANCH   4   5
ENDBRANCH   3   4
ENDBRANCH   2   3
ENDBRANCH   1   2
BRANCH   1  29
ATOM     29  C   UNL A   1      34.466  34.381  29.416  1.00  0.00     0.188 C 
BRANCH  29  30
ATOM     30  O   UNL A   1      33.299  34.707  30.166  1.00  0.00    -0.376 OA
BRANCH  30  31
ATOM     31  C   UNL A   1      33.341  35.873  30.974  1.00  0.00     0.202 C 
BRANCH  31  32
ATOM     32  C   UNL A   1      33.381  35.624  32.488  1.00  0.00     0.261 C 
BRANCH  32  33
ATOM     33  O   UNL A   1      34.557  34.964  32.979  1.00  0.00    -0.460 OA
BRANCH  33  34
ATOM     34  C   UNL A   1      34.532  33.613  33.029  1.00  0.00     0.338 C 
ATOM     35  O   UNL A   1      33.549  32.897  32.954  1.00  0.00    -0.246 OA
BRANCH  34  36
ATOM     36  C   UNL A   1      35.932  33.143  32.990  1.00  0.00     0.060 A 
ATOM     37  C   UNL A   1      36.861  33.695  33.882  1.00  0.00     0.016 A 
ATOM     38  C   UNL A   1      36.319  32.149  32.089  1.00  0.00     0.016 A 
ATOM     39  C   UNL A   1      38.190  33.273  33.852  1.00  0.00     0.010 A 
ATOM     40  C   UNL A   1      37.655  31.746  32.042  1.00  0.00     0.010 A 
ATOM     41  C   UNL A   1      38.603  32.328  32.902  1.00  0.00    -0.014 A 
BRANCH  41  42
ATOM     42  C   UNL A   1      40.051  32.119  32.657  1.00  0.00     0.031 A 
ATOM     43  C   UNL A   1      40.738  33.038  31.681  1.00  0.00     0.074 A 
ATOM     44  C   UNL A   1      40.751  31.173  33.309  1.00  0.00     0.049 A 
ATOM     45  N   UNL A   1      41.973  33.025  31.260  1.00  0.00    -0.248 NA
ATOM     46  C   UNL A   1      39.916  34.117  31.107  1.00  0.00     0.031 C 
ATOM     47  C   UNL A   1      40.214  30.275  34.329  1.00  0.00     0.029 A 
ATOM     48  N   UNL A   1      42.074  30.820  33.213  1.00  0.00    -0.354 N 
ATOM     49  C   UNL A   1      42.083  34.099  30.384  1.00  0.00     0.074 A 
ATOM     50  C   UNL A   1      40.778  34.718  30.301  1.00  0.00     0.031 C 
ATOM     51  C   UNL A   1      41.202  29.473  34.767  1.00  0.00     0.029 A 
ATOM     52  C   UNL A   1      42.431  29.775  34.033  1.00  0.00     0.049 A 
ATOM     53  H   UNL A   1      42.709  31.272  32.611  1.00  0.00     0.167 HD
ATOM     54  C   UNL A   1      43.176  34.539  29.720  1.00  0.00     0.034 A 
ATOM     55  C   UNL A   1      43.608  29.126  34.160  1.00  0.00     0.034 A 
ATOM     56  C   UNL A   1      44.470  33.915  29.798  1.00  0.00     0.049 A 
ATOM     57  C   UNL A   1      44.780  29.558  33.310  1.00  0.00     0.074 A 
ATOM     58  C   UNL A   1      45.636  34.274  29.148  1.00  0.00     0.029 A 
ATOM     59  N   UNL A   1      44.768  32.804  30.573  1.00  0.00    -0.354 N 
ATOM     60  N   UNL A   1      44.859  30.550  32.452  1.00  0.00    -0.248 NA
ATOM     61  C   UNL A   1      46.021  28.780  33.439  1.00  0.00     0.031 C 
ATOM     62  C   UNL A   1      46.625  33.344  29.480  1.00  0.00     0.029 A 
ATOM     63  C   UNL A   1      46.094  32.448  30.394  1.00  0.00     0.049 A 
ATOM     64  H   UNL A   1      44.131  32.338  31.163  1.00  0.00     0.167 HD
ATOM     65  C   UNL A   1      46.163  30.530  31.965  1.00  0.00     0.074 A 
ATOM     66  C   UNL A   1      46.839  29.433  32.624  1.00  0.00     0.031 C 
ATOM     67  C   UNL A   1      46.752  31.348  31.056  1.00  0.00     0.034 A 
BRANCH  54  68
ATOM     68  C   UNL A   1      43.016  35.738  28.826  1.00  0.00     0.023 A 
ATOM     69  C   UNL A   1      43.104  37.045  29.336  1.00  0.00     0.031 A 
ATOM     70  C   UNL A   1      42.815  35.573  27.445  1.00  0.00     0.131 A 
ATOM     71  C   UNL A   1      42.963  38.139  28.471  1.00  0.00     0.055 A 
ATOM     72  C   UNL A   1      42.734  36.665  26.581  1.00  0.00     0.041 A 
ATOM     73  F   UNL A   1      42.703  34.346  26.914  1.00  0.00    -0.206 F 
ATOM     74  C   UNL A   1      42.805  37.958  27.093  1.00  0.00     0.022 A 
BRANCH  71  75
ATOM     75  S   UNL A   1      42.932  39.808  29.178  1.00  0.00     0.124 S 
ATOM     76  O   UNL A   1      43.940  40.489  28.369  1.00  0.00    -0.237 OA
ATOM     77  O   UNL A   1      41.551  40.221  28.956  1.00  0.00    -0.237 OA
ATOM     78  O   UNL A   1      43.301  39.595  30.576  1.00  0.00    -0.744 OA
ENDBRANCH  71  75
ENDBRANCH  54  68
BRANCH  55  79
ATOM     79  C   UNL A   1      43.743  27.977  35.099  1.00  0.00     0.023 A 
ATOM     80  C   UNL A   1      43.598  26.655  34.651  1.00  0.00     0.031 A 
ATOM     81  C   UNL A   1      43.973  28.186  36.471  1.00  0.00     0.131 A 
ATOM     82  C   UNL A   1      43.651  25.593  35.569  1.00  0.00     0.055 A 
ATOM     83  C   UNL A   1      44.071  27.125  37.373  1.00  0.00     0.041 A 
ATOM     84  F   UNL A   1      44.114  29.430  36.954  1.00  0.00    -0.206 F 
ATOM     85  C   UNL A   1      43.900  25.818  36.924  1.00  0.00     0.022 A 
BRANCH  82  86
ATOM     86  S   UNL A   1      43.334  23.909  34.972  1.00  0.00     0.124 S 
ATOM     87  O   UNL A   1      43.707  24.018  33.567  1.00  0.00    -0.237 OA
ATOM     88  O   UNL A   1      44.224  23.116  35.814  1.00  0.00    -0.237 OA
ATOM     89  O   UNL A   1      41.908  23.721  35.228  1.00  0.00    -0.744 OA
ENDBRANCH  82  86
ENDBRANCH  55  79
BRANCH  67  90
ATOM     90  C   UNL A   1      48.206  31.117  30.738  1.00  0.00     0.023 A 
ATOM     91  C   UNL A   1      49.226  31.702  31.505  1.00  0.00     0.031 A 
ATOM     92  C   UNL A   1      48.572  30.248  29.695  1.00  0.00     0.131 A 
ATOM     93  C   UNL A   1      50.568  31.430  31.202  1.00  0.00     0.055 A 
ATOM     94  C   UNL A   1      49.907  29.942  29.429  1.00  0.00     0.041 A 
ATOM     95  F   UNL A   1      47.634  29.658  28.937  1.00  0.00    -0.206 F 
ATOM     96  C   UNL A   1      50.915  30.539  30.182  1.00  0.00     0.022 A 
BRANCH  93  97
ATOM     97  S   UNL A   1      51.863  32.283  32.142  1.00  0.00     0.124 S 
ATOM     98  O   UNL A   1      52.200  33.392  31.256  1.00  0.00    -0.237 OA
ATOM     99  O   UNL A   1      51.174  32.640  33.377  1.00  0.00    -0.237 OA
ATOM    100  O   UNL A   1      52.906  31.268  32.288  1.00  0.00    -0.744 OA
ENDBRANCH  93  97
ENDBRANCH  67  90
ENDBRANCH  41  42
ENDBRANCH  34  36
ENDBRANCH  33  34
ENDBRANCH  32  33
ENDBRANCH  31  32
ENDBRANCH  30  31
ENDBRANCH  29  30
ENDBRANCH   1  29
TORSDOF 24
ENDMDL
