MODEL 1
REMARK VINA RESULT:      -8.3      0.000      0.000
REMARK SMILES COc1cc(NS(=O)(=O)c2cc(C)c(C(=O)OCCOCCOCCOCCOC(=O)c3ccc(-c4c5nc(c(-c6cc(S(=O)(=O)[O-])ccc6F)c6ccc([nH]6)c(-c6cc(S(=O)(=O)[O-])ccc6F)c6nc(c(-c7cc(S(=O)(=O)[O-])ccc7F)c7ccc4[nH]7)C=C6)C=C5)cc3)s2)cc(OC)c1
REMARK SMILES IDX 22 1 21 2 20 3 19 4 18 5 17 6 15 7 16 8 14 9 10 10 11 11
REMARK SMILES IDX 95 12 12 13 13 14 7 15 8 16 9 17 6 18 5 20 3 21 4 22 100 23
REMARK SMILES IDX 97 24 96 25 2 26 1 27 98 28 99 29 23 30 24 31 25 32 26 33
REMARK SMILES IDX 27 34 28 35 29 36 30 37 31 38 32 39 33 40 94 41 34 42 93 43
REMARK SMILES IDX 35 44 36 45 37 46 87 47 38 48 92 49 86 50 88 51 39 52 91 53
REMARK SMILES IDX 85 54 84 55 40 57 72 58 52 59 71 60 53 61 56 62 70 63 89 64
REMARK SMILES IDX 54 65 55 66 69 68 90 69 57 70 41 71 42 72 50 73 43 74 49 75
REMARK SMILES IDX 51 76 48 77 44 78 45 79 46 80 47 81 73 82 74 83 82 84 75 85
REMARK SMILES IDX 81 86 83 87 80 88 76 89 77 90 78 91 79 92 58 93 59 94 67 95
REMARK SMILES IDX 60 96 66 97 68 98 65 99 61 100 62 101 63 102 64 103
REMARK H PARENT 6 19 88 56 56 67
REMARK Flexibility Score: inf
ROOT
ATOM      1  C   UNL A   1      39.522  28.555  28.643  1.00  0.00     0.188 C 
ENDROOT
BRANCH   1   2
ATOM      2  C   UNL A   1      39.231  27.196  27.974  1.00  0.00     0.188 C 
BRANCH   2   3
ATOM      3  O   UNL A   1      40.035  26.057  28.244  1.00  0.00    -0.376 OA
BRANCH   3   4
ATOM      4  C   UNL A   1      40.862  25.540  27.213  1.00  0.00     0.202 C 
BRANCH   4   5
ATOM      5  C   UNL A   1      40.781  24.044  26.859  1.00  0.00     0.261 C 
BRANCH   5   6
ATOM      6  O   UNL A   1      39.475  23.447  26.990  1.00  0.00    -0.459 OA
BRANCH   6   7
ATOM      7  C   UNL A   1      39.259  22.239  26.383  1.00  0.00     0.348 C 
ATOM      8  O   UNL A   1      40.015  21.280  26.483  1.00  0.00    -0.245 OA
BRANCH   7   9
ATOM      9  C   UNL A   1      37.937  22.217  25.746  1.00  0.00     0.116 A 
ATOM     10  C   UNL A   1      35.795  23.051  24.762  1.00  0.00     0.141 A 
ATOM     11  C   UNL A   1      36.056  21.730  24.456  1.00  0.00     0.038 A 
ATOM     12  S   UNL A   1      36.971  23.658  25.841  1.00  0.00    -0.115 S 
ATOM     13  C   UNL A   1      37.291  21.235  24.997  1.00  0.00    -0.024 A 
ATOM     14  C   UNL A   1      37.768  19.840  24.723  1.00  0.00     0.046 C 
BRANCH  10  15
ATOM     15  S   UNL A   1      34.437  24.100  24.277  1.00  0.00     0.271 S 
ATOM     16  O   UNL A   1      33.244  23.420  24.739  1.00  0.00    -0.200 OA
ATOM     17  O   UNL A   1      34.638  24.314  22.858  1.00  0.00    -0.200 OA
BRANCH  15  18
ATOM     18  N   UNL A   1      34.401  25.637  24.994  1.00  0.00    -0.279 N 
ATOM     19  H   UNL A   1      35.075  25.849  25.680  1.00  0.00     0.180 HD
BRANCH  18  20
ATOM     20  C   UNL A   1      33.435  26.646  24.650  1.00  0.00     0.056 A 
ATOM     21  C   UNL A   1      32.338  28.714  25.194  1.00  0.00     0.124 A 
ATOM     22  C   UNL A   1      33.450  27.884  25.276  1.00  0.00     0.073 A 
ATOM     23  C   UNL A   1      31.257  28.403  24.389  1.00  0.00     0.093 A 
ATOM     24  C   UNL A   1      31.188  27.153  23.797  1.00  0.00     0.124 A 
ATOM     25  C   UNL A   1      32.276  26.271  23.937  1.00  0.00     0.073 A 
BRANCH  21  26
ATOM     26  O   UNL A   1      32.308  29.829  25.972  1.00  0.00    -0.497 OA
ATOM     27  C   UNL A   1      33.494  29.947  26.773  1.00  0.00     0.278 C 
ENDBRANCH  21  26
BRANCH  24  28
ATOM     28  O   UNL A   1      30.082  26.694  23.127  1.00  0.00    -0.497 OA
ATOM     29  C   UNL A   1      28.858  26.709  23.872  1.00  0.00     0.278 C 
ENDBRANCH  24  28
ENDBRANCH  18  20
ENDBRANCH  15  18
ENDBRANCH  10  15
ENDBRANCH   7   9
ENDBRANCH   6   7
ENDBRANCH   5   6
ENDBRANCH   4   5
ENDBRANCH   3   4
ENDBRANCH   2   3
ENDBRANCH   1   2
BRANCH   1  30
ATOM     30  O   UNL A   1      38.536  29.544  28.409  1.00  0.00    -0.377 OA
BRANCH  30  31
ATOM     31  C   UNL A   1      37.289  29.343  29.080  1.00  0.00     0.188 C 
BRANCH  31  32
ATOM     32  C   UNL A   1      36.622  30.589  29.696  1.00  0.00     0.188 C 
BRANCH  32  33
ATOM     33  O   UNL A   1      37.395  31.765  29.504  1.00  0.00    -0.376 OA
BRANCH  33  34
ATOM     34  C   UNL A   1      36.853  32.946  28.939  1.00  0.00     0.202 C 
BRANCH  34  35
ATOM     35  C   UNL A   1      35.557  33.606  29.431  1.00  0.00     0.261 C 
BRANCH  35  36
ATOM     36  O   UNL A   1      35.515  34.011  30.791  1.00  0.00    -0.460 OA
BRANCH  36  37
ATOM     37  C   UNL A   1      34.924  33.153  31.644  1.00  0.00     0.338 C 
ATOM     38  O   UNL A   1      34.029  32.363  31.387  1.00  0.00    -0.246 OA
BRANCH  37  39
ATOM     39  C   UNL A   1      35.702  33.195  32.890  1.00  0.00     0.060 A 
ATOM     40  C   UNL A   1      35.304  34.089  33.886  1.00  0.00     0.016 A 
ATOM     41  C   UNL A   1      36.802  32.346  33.074  1.00  0.00     0.016 A 
ATOM     42  C   UNL A   1      36.055  34.192  35.048  1.00  0.00     0.010 A 
ATOM     43  C   UNL A   1      37.556  32.453  34.239  1.00  0.00     0.010 A 
ATOM     44  C   UNL A   1      37.212  33.415  35.201  1.00  0.00    -0.014 A 
BRANCH  44  45
ATOM     45  C   UNL A   1      38.164  33.781  36.267  1.00  0.00     0.031 A 
ATOM     46  C   UNL A   1      39.374  34.588  35.887  1.00  0.00     0.074 A 
ATOM     47  C   UNL A   1      37.892  33.477  37.546  1.00  0.00     0.049 A 
ATOM     48  N   UNL A   1      40.311  35.085  36.648  1.00  0.00    -0.248 NA
ATOM     49  C   UNL A   1      39.547  34.871  34.453  1.00  0.00     0.031 C 
ATOM     50  C   UNL A   1      36.718  32.732  38.004  1.00  0.00     0.029 A 
ATOM     51  N   UNL A   1      38.575  33.772  38.694  1.00  0.00    -0.354 N 
ATOM     52  C   UNL A   1      41.184  35.743  35.787  1.00  0.00     0.074 A 
ATOM     53  C   UNL A   1      40.692  35.535  34.444  1.00  0.00     0.031 C 
ATOM     54  C   UNL A   1      36.758  32.641  39.343  1.00  0.00     0.029 A 
ATOM     55  C   UNL A   1      37.974  33.287  39.830  1.00  0.00     0.049 A 
ATOM     56  H   UNL A   1      39.417  34.282  38.705  1.00  0.00     0.167 HD
ATOM     57  C   UNL A   1      42.285  36.469  36.097  1.00  0.00     0.034 A 
ATOM     58  C   UNL A   1      38.374  33.355  41.114  1.00  0.00     0.034 A 
ATOM     59  C   UNL A   1      42.758  36.641  37.448  1.00  0.00     0.049 A 
ATOM     60  C   UNL A   1      39.646  34.105  41.426  1.00  0.00     0.074 A 
ATOM     61  C   UNL A   1      43.861  37.345  37.894  1.00  0.00     0.029 A 
ATOM     62  N   UNL A   1      42.157  36.089  38.576  1.00  0.00    -0.354 N 
ATOM     63  N   UNL A   1      40.461  34.734  40.607  1.00  0.00    -0.248 NA
ATOM     64  C   UNL A   1      40.037  34.175  42.838  1.00  0.00     0.031 C 
ATOM     65  C   UNL A   1      43.975  37.150  39.275  1.00  0.00     0.029 A 
ATOM     66  C   UNL A   1      42.886  36.410  39.710  1.00  0.00     0.049 A 
ATOM     67  H   UNL A   1      41.334  35.549  38.569  1.00  0.00     0.167 HD
ATOM     68  C   UNL A   1      41.444  35.304  41.413  1.00  0.00     0.074 A 
ATOM     69  C   UNL A   1      41.098  34.964  42.780  1.00  0.00     0.031 C 
ATOM     70  C   UNL A   1      42.531  36.042  41.063  1.00  0.00     0.034 A 
BRANCH  57  71
ATOM     71  C   UNL A   1      43.070  37.065  34.952  1.00  0.00     0.023 A 
ATOM     72  C   UNL A   1      43.032  38.440  34.658  1.00  0.00     0.031 A 
ATOM     73  C   UNL A   1      43.836  36.237  34.114  1.00  0.00     0.131 A 
ATOM     74  C   UNL A   1      43.686  38.931  33.516  1.00  0.00     0.055 A 
ATOM     75  C   UNL A   1      44.556  36.745  33.031  1.00  0.00     0.041 A 
ATOM     76  F   UNL A   1      43.885  34.911  34.322  1.00  0.00    -0.206 F 
ATOM     77  C   UNL A   1      44.471  38.098  32.718  1.00  0.00     0.022 A 
BRANCH  74  78
ATOM     78  S   UNL A   1      43.369  40.643  33.001  1.00  0.00     0.124 S 
ATOM     79  O   UNL A   1      43.362  40.516  31.546  1.00  0.00    -0.237 OA
ATOM     80  O   UNL A   1      42.081  40.927  33.624  1.00  0.00    -0.237 OA
ATOM     81  O   UNL A   1      44.505  41.382  33.550  1.00  0.00    -0.744 OA
ENDBRANCH  74  78
ENDBRANCH  57  71
BRANCH  58  82
ATOM     82  C   UNL A   1      37.588  32.685  42.189  1.00  0.00     0.023 A 
ATOM     83  C   UNL A   1      36.527  33.339  42.832  1.00  0.00     0.031 A 
ATOM     84  C   UNL A   1      37.921  31.389  42.622  1.00  0.00     0.131 A 
ATOM     85  C   UNL A   1      35.872  32.720  43.909  1.00  0.00     0.055 A 
ATOM     86  C   UNL A   1      37.227  30.752  43.653  1.00  0.00     0.041 A 
ATOM     87  F   UNL A   1      38.927  30.716  42.042  1.00  0.00    -0.206 F 
ATOM     88  C   UNL A   1      36.206  31.425  44.312  1.00  0.00     0.022 A 
BRANCH  85  89
ATOM     89  S   UNL A   1      34.642  33.673  44.841  1.00  0.00     0.124 S 
ATOM     90  O   UNL A   1      33.410  33.332  44.140  1.00  0.00    -0.237 OA
ATOM     91  O   UNL A   1      34.790  33.122  46.185  1.00  0.00    -0.237 OA
ATOM     92  O   UNL A   1      35.091  35.054  44.683  1.00  0.00    -0.744 OA
ENDBRANCH  85  89
ENDBRANCH  58  82
BRANCH  70  93
ATOM     93  C   UNL A   1      43.388  36.566  42.193  1.00  0.00     0.023 A 
ATOM     94  C   UNL A   1      43.132  37.808  42.800  1.00  0.00     0.031 A 
ATOM     95  C   UNL A   1      44.507  35.836  42.630  1.00  0.00     0.131 A 
ATOM     96  C   UNL A   1      44.039  38.326  43.736  1.00  0.00     0.055 A 
ATOM     97  C   UNL A   1      45.355  36.319  43.628  1.00  0.00     0.041 A 
ATOM     98  F   UNL A   1      44.804  34.645  42.086  1.00  0.00    -0.206 F 
ATOM     99  C   UNL A   1      45.138  37.581  44.169  1.00  0.00     0.022 A 
BRANCH  96 100
ATOM    100  S   UNL A   1      43.852  40.055  44.252  1.00  0.00     0.124 S 
ATOM    101  O   UNL A   1      42.404  40.233  44.191  1.00  0.00    -0.237 OA
ATOM    102  O   UNL A   1      44.436  40.046  45.589  1.00  0.00    -0.237 OA
ATOM    103  O   UNL A   1      44.612  40.796  43.248  1.00  0.00    -0.744 OA
ENDBRANCH  96 100
ENDBRANCH  70  93
ENDBRANCH  44  45
ENDBRANCH  37  39
ENDBRANCH  36  37
ENDBRANCH  35  36
ENDBRANCH  34  35
ENDBRANCH  33  34
ENDBRANCH  32  33
ENDBRANCH  31  32
ENDBRANCH  30  31
ENDBRANCH   1  30
TORSDOF 28
ENDMDL
MODEL 2
REMARK VINA RESULT:      -8.2      7.970     11.384
REMARK SMILES COc1cc(NS(=O)(=O)c2cc(C)c(C(=O)OCCOCCOCCOCCOC(=O)c3ccc(-c4c5nc(c(-c6cc(S(=O)(=O)[O-])ccc6F)c6ccc([nH]6)c(-c6cc(S(=O)(=O)[O-])ccc6F)c6nc(c(-c7cc(S(=O)(=O)[O-])ccc7F)c7ccc4[nH]7)C=C6)C=C5)cc3)s2)cc(OC)c1
REMARK SMILES IDX 22 1 21 2 20 3 19 4 18 5 17 6 15 7 16 8 14 9 10 10 11 11
REMARK SMILES IDX 95 12 12 13 13 14 7 15 8 16 9 17 6 18 5 20 3 21 4 22 100 23
REMARK SMILES IDX 97 24 96 25 2 26 1 27 98 28 99 29 23 30 24 31 25 32 26 33
REMARK SMILES IDX 27 34 28 35 29 36 30 37 31 38 32 39 33 40 94 41 34 42 93 43
REMARK SMILES IDX 35 44 36 45 37 46 87 47 38 48 92 49 86 50 88 51 39 52 91 53
REMARK SMILES IDX 85 54 84 55 40 57 72 58 52 59 71 60 53 61 56 62 70 63 89 64
REMARK SMILES IDX 54 65 55 66 69 68 90 69 57 70 41 71 42 72 50 73 43 74 49 75
REMARK SMILES IDX 51 76 48 77 44 78 45 79 46 80 47 81 73 82 74 83 82 84 75 85
REMARK SMILES IDX 81 86 83 87 80 88 76 89 77 90 78 91 79 92 58 93 59 94 67 95
REMARK SMILES IDX 60 96 66 97 68 98 65 99 61 100 62 101 63 102 64 103
REMARK H PARENT 6 19 88 56 56 67
REMARK Flexibility Score: inf
ROOT
ATOM      1  C   UNL A   1      41.747  29.908  30.576  1.00  0.00     0.188 C 
ENDROOT
BRANCH   1   2
ATOM      2  C   UNL A   1      41.335  31.180  31.345  1.00  0.00     0.188 C 
BRANCH   2   3
ATOM      3  O   UNL A   1      39.990  31.391  31.748  1.00  0.00    -0.376 OA
BRANCH   3   4
ATOM      4  C   UNL A   1      39.138  32.167  30.919  1.00  0.00     0.202 C 
BRANCH   4   5
ATOM      5  C   UNL A   1      37.893  32.836  31.530  1.00  0.00     0.261 C 
BRANCH   5   6
ATOM      6  O   UNL A   1      36.646  32.542  30.871  1.00  0.00    -0.459 OA
BRANCH   6   7
ATOM      7  C   UNL A   1      36.535  32.850  29.541  1.00  0.00     0.348 C 
ATOM      8  O   UNL A   1      36.985  33.873  29.038  1.00  0.00    -0.245 OA
BRANCH   7   9
ATOM      9  C   UNL A   1      35.954  31.723  28.803  1.00  0.00     0.116 A 
ATOM     10  C   UNL A   1      34.373  30.431  27.359  1.00  0.00     0.141 A 
ATOM     11  C   UNL A   1      35.583  29.793  27.546  1.00  0.00     0.038 A 
ATOM     12  S   UNL A   1      34.297  31.856  28.298  1.00  0.00    -0.115 S 
ATOM     13  C   UNL A   1      36.513  30.526  28.359  1.00  0.00    -0.024 A 
ATOM     14  C   UNL A   1      37.898  30.016  28.625  1.00  0.00     0.046 C 
BRANCH  10  15
ATOM     15  S   UNL A   1      32.950  29.947  26.400  1.00  0.00     0.271 S 
ATOM     16  O   UNL A   1      32.019  31.052  26.511  1.00  0.00    -0.200 OA
ATOM     17  O   UNL A   1      32.588  28.646  26.927  1.00  0.00    -0.200 OA
BRANCH  15  18
ATOM     18  N   UNL A   1      33.219  29.733  24.739  1.00  0.00    -0.279 N 
ATOM     19  H   UNL A   1      33.836  30.350  24.282  1.00  0.00     0.180 HD
BRANCH  18  20
ATOM     20  C   UNL A   1      32.591  28.696  23.965  1.00  0.00     0.056 A 
ATOM     21  C   UNL A   1      32.805  26.854  22.435  1.00  0.00     0.124 A 
ATOM     22  C   UNL A   1      33.338  27.650  23.443  1.00  0.00     0.073 A 
ATOM     23  C   UNL A   1      31.491  26.987  22.024  1.00  0.00     0.093 A 
ATOM     24  C   UNL A   1      30.739  28.053  22.484  1.00  0.00     0.124 A 
ATOM     25  C   UNL A   1      31.295  28.914  23.449  1.00  0.00     0.073 A 
BRANCH  21  26
ATOM     26  O   UNL A   1      33.627  25.965  21.814  1.00  0.00    -0.497 OA
ATOM     27  C   UNL A   1      33.189  24.613  22.012  1.00  0.00     0.278 C 
ENDBRANCH  21  26
BRANCH  24  28
ATOM     28  O   UNL A   1      29.492  28.363  22.003  1.00  0.00    -0.497 OA
ATOM     29  C   UNL A   1      28.915  29.572  22.513  1.00  0.00     0.278 C 
ENDBRANCH  24  28
ENDBRANCH  18  20
ENDBRANCH  15  18
ENDBRANCH  10  15
ENDBRANCH   7   9
ENDBRANCH   6   7
ENDBRANCH   5   6
ENDBRANCH   4   5
ENDBRANCH   3   4
ENDBRANCH   2   3
ENDBRANCH   1   2
BRANCH   1  30
ATOM     30  O   UNL A   1      42.034  30.121  29.206  1.00  0.00    -0.377 OA
BRANCH  30  31
ATOM     31  C   UNL A   1      41.415  29.207  28.297  1.00  0.00     0.188 C 
BRANCH  31  32
ATOM     32  C   UNL A   1      42.283  28.039  27.786  1.00  0.00     0.188 C 
BRANCH  32  33
ATOM     33  O   UNL A   1      41.677  27.350  26.702  1.00  0.00    -0.376 OA
BRANCH  33  34
ATOM     34  C   UNL A   1      41.180  26.028  26.824  1.00  0.00     0.202 C 
BRANCH  34  35
ATOM     35  C   UNL A   1      42.048  24.776  26.638  1.00  0.00     0.261 C 
BRANCH  35  36
ATOM     36  O   UNL A   1      43.210  24.669  27.448  1.00  0.00    -0.460 OA
BRANCH  36  37
ATOM     37  C   UNL A   1      43.385  23.490  28.074  1.00  0.00     0.338 C 
ATOM     38  O   UNL A   1      43.281  22.376  27.584  1.00  0.00    -0.246 OA
BRANCH  37  39
ATOM     39  C   UNL A   1      43.930  23.796  29.404  1.00  0.00     0.060 A 
ATOM     40  C   UNL A   1      43.395  23.125  30.507  1.00  0.00     0.016 A 
ATOM     41  C   UNL A   1      44.968  24.725  29.554  1.00  0.00     0.016 A 
ATOM     42  C   UNL A   1      43.850  23.438  31.780  1.00  0.00     0.010 A 
ATOM     43  C   UNL A   1      45.421  25.039  30.831  1.00  0.00     0.010 A 
ATOM     44  C   UNL A   1      44.822  24.435  31.947  1.00  0.00    -0.014 A 
BRANCH  44  45
ATOM     45  C   UNL A   1      45.036  24.981  33.301  1.00  0.00     0.031 A 
ATOM     46  C   UNL A   1      45.893  24.195  34.252  1.00  0.00     0.074 A 
ATOM     47  C   UNL A   1      44.551  26.191  33.623  1.00  0.00     0.049 A 
ATOM     48  N   UNL A   1      46.280  24.496  35.462  1.00  0.00    -0.248 NA
ATOM     49  C   UNL A   1      46.379  22.891  33.771  1.00  0.00     0.031 C 
ATOM     50  C   UNL A   1      43.744  27.036  32.743  1.00  0.00     0.029 A 
ATOM     51  N   UNL A   1      44.681  26.923  34.772  1.00  0.00    -0.354 N 
ATOM     52  C   UNL A   1      47.058  23.422  35.886  1.00  0.00     0.074 A 
ATOM     53  C   UNL A   1      47.041  22.442  34.824  1.00  0.00     0.031 C 
ATOM     54  C   UNL A   1      43.462  28.183  33.382  1.00  0.00     0.029 A 
ATOM     55  C   UNL A   1      44.037  28.135  34.725  1.00  0.00     0.049 A 
ATOM     56  H   UNL A   1      45.188  26.611  35.556  1.00  0.00     0.167 HD
ATOM     57  C   UNL A   1      47.735  23.282  37.050  1.00  0.00     0.034 A 
ATOM     58  C   UNL A   1      43.922  29.088  35.669  1.00  0.00     0.034 A 
ATOM     59  C   UNL A   1      47.715  24.274  38.097  1.00  0.00     0.049 A 
ATOM     60  C   UNL A   1      44.625  28.874  36.988  1.00  0.00     0.074 A 
ATOM     61  C   UNL A   1      48.352  24.249  39.324  1.00  0.00     0.029 A 
ATOM     62  N   UNL A   1      47.005  25.470  38.043  1.00  0.00    -0.354 N 
ATOM     63  N   UNL A   1      45.367  27.860  37.378  1.00  0.00    -0.248 NA
ATOM     64  C   UNL A   1      44.494  29.944  37.982  1.00  0.00     0.031 C 
ATOM     65  C   UNL A   1      47.962  25.385  40.041  1.00  0.00     0.029 A 
ATOM     66  C   UNL A   1      47.163  26.173  39.226  1.00  0.00     0.049 A 
ATOM     67  H   UNL A   1      46.469  25.773  37.274  1.00  0.00     0.167 HD
ATOM     68  C   UNL A   1      45.820  28.190  38.653  1.00  0.00     0.074 A 
ATOM     69  C   UNL A   1      45.287  29.507  38.947  1.00  0.00     0.031 C 
ATOM     70  C   UNL A   1      46.605  27.477  39.505  1.00  0.00     0.034 A 
BRANCH  57  71
ATOM     71  C   UNL A   1      48.492  21.992  37.263  1.00  0.00     0.023 A 
ATOM     72  C   UNL A   1      49.752  21.761  36.682  1.00  0.00     0.031 A 
ATOM     73  C   UNL A   1      47.924  20.957  38.026  1.00  0.00     0.131 A 
ATOM     74  C   UNL A   1      50.366  20.505  36.813  1.00  0.00     0.055 A 
ATOM     75  C   UNL A   1      48.579  19.741  38.225  1.00  0.00     0.041 A 
ATOM     76  F   UNL A   1      46.709  21.103  38.578  1.00  0.00    -0.206 F 
ATOM     77  C   UNL A   1      49.802  19.504  37.605  1.00  0.00     0.022 A 
BRANCH  74  78
ATOM     78  S   UNL A   1      51.834  20.145  35.807  1.00  0.00     0.124 S 
ATOM     79  O   UNL A   1      52.744  21.209  36.223  1.00  0.00    -0.237 OA
ATOM     80  O   UNL A   1      52.188  18.797  36.236  1.00  0.00    -0.237 OA
ATOM     81  O   UNL A   1      51.344  20.256  34.434  1.00  0.00    -0.744 OA
ENDBRANCH  74  78
ENDBRANCH  57  71
BRANCH  58  82
ATOM     82  C   UNL A   1      43.102  30.308  35.419  1.00  0.00     0.023 A 
ATOM     83  C   UNL A   1      41.728  30.334  35.697  1.00  0.00     0.031 A 
ATOM     84  C   UNL A   1      43.679  31.456  34.847  1.00  0.00     0.131 A 
ATOM     85  C   UNL A   1      40.965  31.462  35.355  1.00  0.00     0.055 A 
ATOM     86  C   UNL A   1      42.929  32.599  34.565  1.00  0.00     0.041 A 
ATOM     87  F   UNL A   1      44.991  31.486  34.560  1.00  0.00    -0.206 F 
ATOM     88  C   UNL A   1      41.561  32.600  34.806  1.00  0.00     0.022 A 
BRANCH  85  89
ATOM     89  S   UNL A   1      39.163  31.383  35.548  1.00  0.00     0.124 S 
ATOM     90  O   UNL A   1      38.838  30.177  34.797  1.00  0.00    -0.237 OA
ATOM     91  O   UNL A   1      39.018  31.296  36.997  1.00  0.00    -0.237 OA
ATOM     92  O   UNL A   1      38.703  32.635  34.951  1.00  0.00    -0.744 OA
ENDBRANCH  85  89
ENDBRANCH  58  82
BRANCH  70  93
ATOM     93  C   UNL A   1      46.965  28.144  40.813  1.00  0.00     0.023 A 
ATOM     94  C   UNL A   1      48.112  28.946  40.943  1.00  0.00     0.031 A 
ATOM     95  C   UNL A   1      46.178  27.928  41.958  1.00  0.00     0.131 A 
ATOM     96  C   UNL A   1      48.494  29.417  42.207  1.00  0.00     0.055 A 
ATOM     97  C   UNL A   1      46.516  28.476  43.196  1.00  0.00     0.041 A 
ATOM     98  F   UNL A   1      45.073  27.169  41.897  1.00  0.00    -0.206 F 
ATOM     99  C   UNL A   1      47.692  29.206  43.331  1.00  0.00     0.022 A 
BRANCH  96 100
ATOM    100  S   UNL A   1      50.136  30.167  42.390  1.00  0.00     0.124 S 
ATOM    101  O   UNL A   1      50.982  28.993  42.584  1.00  0.00    -0.237 OA
ATOM    102  O   UNL A   1      50.301  30.867  41.121  1.00  0.00    -0.237 OA
ATOM    103  O   UNL A   1      49.991  31.028  43.560  1.00  0.00    -0.744 OA
ENDBRANCH  96 100
ENDBRANCH  70  93
ENDBRANCH  44  45
ENDBRANCH  37  39
ENDBRANCH  36  37
ENDBRANCH  35  36
ENDBRANCH  34  35
ENDBRANCH  33  34
ENDBRANCH  32  33
ENDBRANCH  31  32
ENDBRANCH  30  31
ENDBRANCH   1  30
TORSDOF 28
ENDMDL
MODEL 3
REMARK VINA RESULT:      -7.9      2.310      7.689
REMARK SMILES COc1cc(NS(=O)(=O)c2cc(C)c(C(=O)OCCOCCOCCOCCOC(=O)c3ccc(-c4c5nc(c(-c6cc(S(=O)(=O)[O-])ccc6F)c6ccc([nH]6)c(-c6cc(S(=O)(=O)[O-])ccc6F)c6nc(c(-c7cc(S(=O)(=O)[O-])ccc7F)c7ccc4[nH]7)C=C6)C=C5)cc3)s2)cc(OC)c1
REMARK SMILES IDX 22 1 21 2 20 3 19 4 18 5 17 6 15 7 16 8 14 9 10 10 11 11
REMARK SMILES IDX 95 12 12 13 13 14 7 15 8 16 9 17 6 18 5 20 3 21 4 22 100 23
REMARK SMILES IDX 97 24 96 25 2 26 1 27 98 28 99 29 23 30 24 31 25 32 26 33
REMARK SMILES IDX 27 34 28 35 29 36 30 37 31 38 32 39 33 40 94 41 34 42 93 43
REMARK SMILES IDX 35 44 36 45 37 46 87 47 38 48 92 49 86 50 88 51 39 52 91 53
REMARK SMILES IDX 85 54 84 55 40 57 72 58 52 59 71 60 53 61 56 62 70 63 89 64
REMARK SMILES IDX 54 65 55 66 69 68 90 69 57 70 41 71 42 72 50 73 43 74 49 75
REMARK SMILES IDX 51 76 48 77 44 78 45 79 46 80 47 81 73 82 74 83 82 84 75 85
REMARK SMILES IDX 81 86 83 87 80 88 76 89 77 90 78 91 79 92 58 93 59 94 67 95
REMARK SMILES IDX 60 96 66 97 68 98 65 99 61 100 62 101 63 102 64 103
REMARK H PARENT 6 19 88 56 56 67
REMARK Flexibility Score: inf
ROOT
ATOM      1  C   UNL A   1      39.861  27.083  27.623  1.00  0.00     0.188 C 
ENDROOT
BRANCH   1   2
ATOM      2  C   UNL A   1      40.922  26.134  27.029  1.00  0.00     0.188 C 
BRANCH   2   3
ATOM      3  O   UNL A   1      42.294  26.261  27.371  1.00  0.00    -0.376 OA
BRANCH   3   4
ATOM      4  C   UNL A   1      43.246  25.445  26.706  1.00  0.00     0.202 C 
BRANCH   4   5
ATOM      5  C   UNL A   1      42.758  24.317  25.779  1.00  0.00     0.261 C 
BRANCH   5   6
ATOM      6  O   UNL A   1      42.999  22.977  26.255  1.00  0.00    -0.459 OA
BRANCH   6   7
ATOM      7  C   UNL A   1      42.217  22.509  27.277  1.00  0.00     0.348 C 
ATOM      8  O   UNL A   1      42.310  22.891  28.437  1.00  0.00    -0.245 OA
BRANCH   7   9
ATOM      9  C   UNL A   1      41.170  21.623  26.753  1.00  0.00     0.116 A 
ATOM     10  C   UNL A   1      39.002  20.901  25.739  1.00  0.00     0.141 A 
ATOM     11  C   UNL A   1      39.957  19.904  25.749  1.00  0.00     0.038 A 
ATOM     12  S   UNL A   1      39.576  22.286  26.558  1.00  0.00    -0.115 S 
ATOM     13  C   UNL A   1      41.217  20.303  26.311  1.00  0.00    -0.024 A 
ATOM     14  C   UNL A   1      42.391  19.371  26.355  1.00  0.00     0.046 C 
BRANCH  10  15
ATOM     15  S   UNL A   1      37.336  20.896  25.105  1.00  0.00     0.271 S 
ATOM     16  O   UNL A   1      37.015  19.500  24.880  1.00  0.00    -0.200 OA
ATOM     17  O   UNL A   1      37.376  21.813  23.983  1.00  0.00    -0.200 OA
BRANCH  15  18
ATOM     18  N   UNL A   1      36.144  21.481  26.160  1.00  0.00    -0.279 N 
ATOM     19  H   UNL A   1      36.356  21.536  27.120  1.00  0.00     0.180 HD
BRANCH  18  20
ATOM     20  C   UNL A   1      34.839  21.900  25.722  1.00  0.00     0.056 A 
ATOM     21  C   UNL A   1      32.726  22.923  26.237  1.00  0.00     0.124 A 
ATOM     22  C   UNL A   1      34.089  22.787  26.480  1.00  0.00     0.073 A 
ATOM     23  C   UNL A   1      32.112  22.298  25.168  1.00  0.00     0.093 A 
ATOM     24  C   UNL A   1      32.820  21.366  24.428  1.00  0.00     0.124 A 
ATOM     25  C   UNL A   1      34.183  21.161  24.714  1.00  0.00     0.073 A 
BRANCH  21  26
ATOM     26  O   UNL A   1      31.986  23.651  27.117  1.00  0.00    -0.497 OA
ATOM     27  C   UNL A   1      30.782  24.146  26.512  1.00  0.00     0.278 C 
ENDBRANCH  21  26
BRANCH  24  28
ATOM     28  O   UNL A   1      32.249  20.574  23.464  1.00  0.00    -0.497 OA
ATOM     29  C   UNL A   1      32.523  19.172  23.575  1.00  0.00     0.278 C 
ENDBRANCH  24  28
ENDBRANCH  18  20
ENDBRANCH  15  18
ENDBRANCH  10  15
ENDBRANCH   7   9
ENDBRANCH   6   7
ENDBRANCH   5   6
ENDBRANCH   4   5
ENDBRANCH   3   4
ENDBRANCH   2   3
ENDBRANCH   1   2
BRANCH   1  30
ATOM     30  O   UNL A   1      40.131  28.458  27.428  1.00  0.00    -0.377 OA
BRANCH  30  31
ATOM     31  C   UNL A   1      38.995  29.274  27.131  1.00  0.00     0.188 C 
BRANCH  31  32
ATOM     32  C   UNL A   1      38.184  29.802  28.332  1.00  0.00     0.188 C 
BRANCH  32  33
ATOM     33  O   UNL A   1      39.007  30.087  29.454  1.00  0.00    -0.376 OA
BRANCH  33  34
ATOM     34  C   UNL A   1      38.812  31.230  30.269  1.00  0.00     0.202 C 
BRANCH  34  35
ATOM     35  C   UNL A   1      37.655  32.221  30.077  1.00  0.00     0.261 C 
BRANCH  35  36
ATOM     36  O   UNL A   1      36.402  31.869  30.644  1.00  0.00    -0.460 OA
BRANCH  36  37
ATOM     37  C   UNL A   1      36.428  30.891  31.570  1.00  0.00     0.338 C 
ATOM     38  O   UNL A   1      36.241  29.699  31.383  1.00  0.00    -0.246 OA
BRANCH  37  39
ATOM     39  C   UNL A   1      36.930  31.499  32.810  1.00  0.00     0.060 A 
ATOM     40  C   UNL A   1      36.416  32.740  33.192  1.00  0.00     0.016 A 
ATOM     41  C   UNL A   1      37.887  30.838  33.593  1.00  0.00     0.016 A 
ATOM     42  C   UNL A   1      36.916  33.364  34.326  1.00  0.00     0.010 A 
ATOM     43  C   UNL A   1      38.389  31.466  34.728  1.00  0.00     0.010 A 
ATOM     44  C   UNL A   1      37.941  32.754  35.062  1.00  0.00    -0.014 A 
BRANCH  44  45
ATOM     45  C   UNL A   1      38.679  33.573  36.043  1.00  0.00     0.031 A 
ATOM     46  C   UNL A   1      38.323  33.426  37.496  1.00  0.00     0.074 A 
ATOM     47  C   UNL A   1      39.699  34.348  35.642  1.00  0.00     0.049 A 
ATOM     48  N   UNL A   1      38.869  33.981  38.543  1.00  0.00    -0.248 NA
ATOM     49  C   UNL A   1      37.197  32.530  37.806  1.00  0.00     0.031 C 
ATOM     50  C   UNL A   1      40.135  34.514  34.254  1.00  0.00     0.029 A 
ATOM     51  N   UNL A   1      40.562  35.127  36.364  1.00  0.00    -0.354 N 
ATOM     52  C   UNL A   1      38.157  33.500  39.638  1.00  0.00     0.074 A 
ATOM     53  C   UNL A   1      37.108  32.652  39.121  1.00  0.00     0.031 C 
ATOM     54  C   UNL A   1      41.197  35.335  34.229  1.00  0.00     0.029 A 
ATOM     55  C   UNL A   1      41.490  35.779  35.590  1.00  0.00     0.049 A 
ATOM     56  H   UNL A   1      40.521  35.211  37.344  1.00  0.00     0.167 HD
ATOM     57  C   UNL A   1      38.377  33.736  40.954  1.00  0.00     0.034 A 
ATOM     58  C   UNL A   1      42.458  36.643  35.949  1.00  0.00     0.034 A 
ATOM     59  C   UNL A   1      39.423  34.604  41.434  1.00  0.00     0.049 A 
ATOM     60  C   UNL A   1      42.634  36.948  37.417  1.00  0.00     0.074 A 
ATOM     61  C   UNL A   1      39.745  34.930  42.739  1.00  0.00     0.029 A 
ATOM     62  N   UNL A   1      40.315  35.297  40.621  1.00  0.00    -0.354 N 
ATOM     63  N   UNL A   1      41.962  36.481  38.448  1.00  0.00    -0.248 NA
ATOM     64  C   UNL A   1      43.712  37.876  37.770  1.00  0.00     0.031 C 
ATOM     65  C   UNL A   1      40.771  35.880  42.711  1.00  0.00     0.029 A 
ATOM     66  C   UNL A   1      41.163  36.073  41.395  1.00  0.00     0.049 A 
ATOM     67  H   UNL A   1      40.340  35.243  39.638  1.00  0.00     0.167 HD
ATOM     68  C   UNL A   1      42.564  37.035  39.575  1.00  0.00     0.074 A 
ATOM     69  C   UNL A   1      43.666  37.846  39.092  1.00  0.00     0.031 C 
ATOM     70  C   UNL A   1      42.243  36.890  40.888  1.00  0.00     0.034 A 
BRANCH  57  71
ATOM     71  C   UNL A   1      37.429  33.095  41.942  1.00  0.00     0.023 A 
ATOM     72  C   UNL A   1      36.321  33.784  42.467  1.00  0.00     0.031 A 
ATOM     73  C   UNL A   1      37.663  31.787  42.398  1.00  0.00     0.131 A 
ATOM     74  C   UNL A   1      35.535  33.189  43.467  1.00  0.00     0.055 A 
ATOM     75  C   UNL A   1      36.826  31.168  43.328  1.00  0.00     0.041 A 
ATOM     76  F   UNL A   1      38.724  31.089  41.960  1.00  0.00    -0.206 F 
ATOM     77  C   UNL A   1      35.763  31.875  43.880  1.00  0.00     0.022 A 
BRANCH  74  78
ATOM     78  S   UNL A   1      34.309  34.211  44.332  1.00  0.00     0.124 S 
ATOM     79  O   UNL A   1      35.141  35.291  44.854  1.00  0.00    -0.237 OA
ATOM     80  O   UNL A   1      33.387  34.573  43.261  1.00  0.00    -0.237 OA
ATOM     81  O   UNL A   1      33.764  33.308  45.345  1.00  0.00    -0.744 OA
ENDBRANCH  74  78
ENDBRANCH  57  71
BRANCH  58  82
ATOM     82  C   UNL A   1      43.315  37.293  34.916  1.00  0.00     0.023 A 
ATOM     83  C   UNL A   1      43.137  38.639  34.563  1.00  0.00     0.031 A 
ATOM     84  C   UNL A   1      44.297  36.557  34.230  1.00  0.00     0.131 A 
ATOM     85  C   UNL A   1      43.891  39.192  33.516  1.00  0.00     0.055 A 
ATOM     86  C   UNL A   1      45.088  37.128  33.232  1.00  0.00     0.041 A 
ATOM     87  F   UNL A   1      44.509  35.264  34.528  1.00  0.00    -0.206 F 
ATOM     88  C   UNL A   1      44.875  38.450  32.859  1.00  0.00     0.022 A 
BRANCH  85  89
ATOM     89  S   UNL A   1      43.497  40.872  32.956  1.00  0.00     0.124 S 
ATOM     90  O   UNL A   1      44.282  41.683  33.878  1.00  0.00    -0.237 OA
ATOM     91  O   UNL A   1      43.959  40.845  31.572  1.00  0.00    -0.237 OA
ATOM     92  O   UNL A   1      42.048  40.956  33.126  1.00  0.00    -0.744 OA
ENDBRANCH  85  89
ENDBRANCH  58  82
BRANCH  70  93
ATOM     93  C   UNL A   1      43.135  37.591  41.887  1.00  0.00     0.023 A 
ATOM     94  C   UNL A   1      44.258  36.958  42.448  1.00  0.00     0.031 A 
ATOM     95  C   UNL A   1      42.827  38.893  42.321  1.00  0.00     0.131 A 
ATOM     96  C   UNL A   1      44.967  37.585  43.483  1.00  0.00     0.055 A 
ATOM     97  C   UNL A   1      43.592  39.546  43.287  1.00  0.00     0.041 A 
ATOM     98  F   UNL A   1      41.766  39.548  41.823  1.00  0.00    -0.206 F 
ATOM     99  C   UNL A   1      44.655  38.884  43.892  1.00  0.00     0.022 A 
BRANCH  96 100
ATOM    100  S   UNL A   1      46.196  36.614  44.399  1.00  0.00     0.124 S 
ATOM    101  O   UNL A   1      45.492  36.341  45.648  1.00  0.00    -0.237 OA
ATOM    102  O   UNL A   1      46.404  35.468  43.521  1.00  0.00    -0.237 OA
ATOM    103  O   UNL A   1      47.334  37.523  44.513  1.00  0.00    -0.744 OA
ENDBRANCH  96 100
ENDBRANCH  70  93
ENDBRANCH  44  45
ENDBRANCH  37  39
ENDBRANCH  36  37
ENDBRANCH  35  36
ENDBRANCH  34  35
ENDBRANCH  33  34
ENDBRANCH  32  33
ENDBRANCH  31  32
ENDBRANCH  30  31
ENDBRANCH   1  30
TORSDOF 28
ENDMDL
