MODEL 1
REMARK VINA RESULT:      -8.5      0.000      0.000
REMARK SMILES COC(=O)[C@H]1CCN(C(=O)N2CCC[C@@H]2C(=O)OCCOCCOCCOCCOC(=O)c2ccc(-c3c4nc(c(-c5cc(S(=O)(=O)[O-])ccc5F)c5ccc([nH]5)c(-c5cc(S(=O)(=O)[O-])ccc5F)c5nc(c(-c6cc(S(=O)(=O)[O-])ccc6F)c6ccc3[nH]6)C=C5)C=C4)cc2)C1
REMARK SMILES IDX 23 1 22 2 21 3 20 4 19 5 18 6 16 7 17 8 15 9 11 10 12 11
REMARK SMILES IDX 13 12 14 13 9 14 10 15 8 16 5 17 6 18 96 19 7 20 3 21 4 22
REMARK SMILES IDX 2 23 1 24 24 25 25 26 26 27 27 28 28 29 29 30 30 31 31 32
REMARK SMILES IDX 32 33 33 34 34 35 95 36 35 37 94 38 36 39 37 40 38 41 88 42
REMARK SMILES IDX 39 43 93 44 87 45 89 46 40 47 92 48 86 49 85 50 41 52 73 53
REMARK SMILES IDX 53 54 72 55 54 56 57 57 71 58 90 59 55 60 56 61 70 63 91 64
REMARK SMILES IDX 58 65 42 66 43 67 51 68 44 69 50 70 52 71 49 72 45 73 46 74
REMARK SMILES IDX 47 75 48 76 74 77 75 78 83 79 76 80 82 81 84 82 81 83 77 84
REMARK SMILES IDX 78 85 79 86 80 87 59 88 60 89 68 90 61 91 67 92 69 93 66 94
REMARK SMILES IDX 62 95 63 96 64 97 65 98
REMARK H PARENT 89 51 57 62
REMARK Flexibility Score: inf
ROOT
ATOM      1  C   UNL A   1      33.800  27.645  23.736  1.00  0.00     0.188 C 
ENDROOT
BRANCH   1   2
ATOM      2  C   UNL A   1      33.403  27.621  22.254  1.00  0.00     0.188 C 
BRANCH   2   3
ATOM      3  O   UNL A   1      32.498  26.666  21.726  1.00  0.00    -0.376 OA
BRANCH   3   4
ATOM      4  C   UNL A   1      31.190  26.468  22.243  1.00  0.00     0.202 C 
BRANCH   4   5
ATOM      5  C   UNL A   1      30.810  25.290  23.157  1.00  0.00     0.261 C 
BRANCH   5   6
ATOM      6  O   UNL A   1      31.809  24.835  24.080  1.00  0.00    -0.462 OA
BRANCH   6   7
ATOM      7  C   UNL A   1      32.565  23.807  23.629  1.00  0.00     0.329 C 
ATOM      8  O   UNL A   1      33.690  23.952  23.158  1.00  0.00    -0.250 OA
BRANCH   7   9
ATOM      9  C   UNL A   1      31.865  22.436  23.680  1.00  0.00     0.197 C 
ATOM     10  N   UNL A   1      32.314  21.686  24.829  1.00  0.00    -0.311 N 
ATOM     11  C   UNL A   1      32.128  20.273  24.639  1.00  0.00     0.122 C 
ATOM     12  C   UNL A   1      32.507  20.109  23.185  1.00  0.00     0.024 C 
ATOM     13  C   UNL A   1      32.054  21.423  22.534  1.00  0.00     0.039 C 
BRANCH  10  14
ATOM     14  C   UNL A   1      32.539  22.285  26.032  1.00  0.00     0.320 C 
ATOM     15  O   UNL A   1      31.638  22.730  26.733  1.00  0.00    -0.248 OA
BRANCH  14  16
ATOM     16  N   UNL A   1      33.880  22.469  26.277  1.00  0.00    -0.324 N 
ATOM     17  C   UNL A   1      36.194  22.073  26.166  1.00  0.00     0.120 C 
ATOM     18  C   UNL A   1      35.889  23.575  26.077  1.00  0.00     0.039 C 
ATOM     19  C   UNL A   1      34.830  21.384  26.202  1.00  0.00     0.136 C 
ATOM     20  C   UNL A   1      34.533  23.680  26.738  1.00  0.00     0.122 C 
BRANCH  17  21
ATOM     21  C   UNL A   1      36.982  21.503  25.020  1.00  0.00     0.310 C 
ATOM     22  O   UNL A   1      37.084  20.302  24.808  1.00  0.00    -0.252 OA
BRANCH  21  23
ATOM     23  O   UNL A   1      37.470  22.477  24.206  1.00  0.00    -0.469 OA
ATOM     24  C   UNL A   1      36.680  22.714  23.045  1.00  0.00     0.282 C 
ENDBRANCH  21  23
ENDBRANCH  17  21
ENDBRANCH  14  16
ENDBRANCH  10  14
ENDBRANCH   7   9
ENDBRANCH   6   7
ENDBRANCH   5   6
ENDBRANCH   4   5
ENDBRANCH   3   4
ENDBRANCH   2   3
ENDBRANCH   1   2
BRANCH   1  25
ATOM     25  O   UNL A   1      33.447  28.816  24.437  1.00  0.00    -0.377 OA
BRANCH  25  26
ATOM     26  C   UNL A   1      32.114  28.917  24.928  1.00  0.00     0.188 C 
BRANCH  26  27
ATOM     27  C   UNL A   1      31.905  29.104  26.444  1.00  0.00     0.188 C 
BRANCH  27  28
ATOM     28  O   UNL A   1      33.016  28.706  27.238  1.00  0.00    -0.376 OA
BRANCH  28  29
ATOM     29  C   UNL A   1      33.982  29.684  27.597  1.00  0.00     0.202 C 
BRANCH  29  30
ATOM     30  C   UNL A   1      33.581  31.168  27.497  1.00  0.00     0.261 C 
BRANCH  30  31
ATOM     31  O   UNL A   1      34.076  32.044  28.523  1.00  0.00    -0.460 OA
BRANCH  31  32
ATOM     32  C   UNL A   1      35.167  32.789  28.233  1.00  0.00     0.338 C 
ATOM     33  O   UNL A   1      35.188  33.831  27.613  1.00  0.00    -0.246 OA
BRANCH  32  34
ATOM     34  C   UNL A   1      36.316  32.238  28.989  1.00  0.00     0.060 A 
ATOM     35  C   UNL A   1      37.577  32.814  28.789  1.00  0.00     0.016 A 
ATOM     36  C   UNL A   1      36.165  31.158  29.862  1.00  0.00     0.016 A 
ATOM     37  C   UNL A   1      38.698  32.273  29.413  1.00  0.00     0.010 A 
ATOM     38  C   UNL A   1      37.295  30.605  30.475  1.00  0.00     0.010 A 
ATOM     39  C   UNL A   1      38.574  31.131  30.215  1.00  0.00    -0.014 A 
BRANCH  39  40
ATOM     40  C   UNL A   1      39.806  30.395  30.600  1.00  0.00     0.031 A 
ATOM     41  C   UNL A   1      40.477  30.745  31.902  1.00  0.00     0.074 A 
ATOM     42  C   UNL A   1      40.267  29.375  29.854  1.00  0.00     0.049 A 
ATOM     43  N   UNL A   1      41.509  30.190  32.484  1.00  0.00    -0.248 NA
ATOM     44  C   UNL A   1      39.902  31.876  32.645  1.00  0.00     0.031 C 
ATOM     45  C   UNL A   1      39.673  28.910  28.602  1.00  0.00     0.029 A 
ATOM     46  N   UNL A   1      41.331  28.533  30.057  1.00  0.00    -0.354 N 
ATOM     47  C   UNL A   1      41.711  30.906  33.661  1.00  0.00     0.074 A 
ATOM     48  C   UNL A   1      40.722  31.963  33.681  1.00  0.00     0.031 C 
ATOM     49  C   UNL A   1      40.370  27.849  28.158  1.00  0.00     0.029 A 
ATOM     50  C   UNL A   1      41.478  27.581  29.074  1.00  0.00     0.049 A 
ATOM     51  H   UNL A   1      41.934  28.602  30.833  1.00  0.00     0.167 HD
ATOM     52  C   UNL A   1      42.627  30.694  34.640  1.00  0.00     0.034 A 
ATOM     53  C   UNL A   1      42.401  26.610  28.931  1.00  0.00     0.034 A 
ATOM     54  C   UNL A   1      43.616  29.643  34.597  1.00  0.00     0.049 A 
ATOM     55  C   UNL A   1      43.467  26.449  29.990  1.00  0.00     0.074 A 
ATOM     56  C   UNL A   1      44.577  29.324  35.541  1.00  0.00     0.029 A 
ATOM     57  N   UNL A   1      43.788  28.751  33.545  1.00  0.00    -0.354 N 
ATOM     58  N   UNL A   1      43.634  27.116  31.110  1.00  0.00    -0.248 NA
ATOM     59  C   UNL A   1      44.457  25.389  29.767  1.00  0.00     0.031 C 
ATOM     60  C   UNL A   1      45.386  28.307  35.020  1.00  0.00     0.029 A 
ATOM     61  C   UNL A   1      44.869  27.916  33.796  1.00  0.00     0.049 A 
ATOM     62  H   UNL A   1      43.226  28.717  32.738  1.00  0.00     0.167 HD
ATOM     63  C   UNL A   1      44.728  26.527  31.742  1.00  0.00     0.074 A 
ATOM     64  C   UNL A   1      45.161  25.441  30.887  1.00  0.00     0.031 C 
ATOM     65  C   UNL A   1      45.315  26.850  32.926  1.00  0.00     0.034 A 
BRANCH  52  66
ATOM     66  C   UNL A   1      42.640  31.669  35.797  1.00  0.00     0.023 A 
ATOM     67  C   UNL A   1      41.621  31.696  36.766  1.00  0.00     0.031 A 
ATOM     68  C   UNL A   1      43.666  32.627  35.901  1.00  0.00     0.131 A 
ATOM     69  C   UNL A   1      41.599  32.712  37.734  1.00  0.00     0.055 A 
ATOM     70  C   UNL A   1      43.690  33.575  36.925  1.00  0.00     0.041 A 
ATOM     71  F   UNL A   1      44.653  32.673  34.993  1.00  0.00    -0.206 F 
ATOM     72  C   UNL A   1      42.642  33.635  37.837  1.00  0.00     0.022 A 
BRANCH  69  73
ATOM     73  S   UNL A   1      40.099  32.926  38.733  1.00  0.00     0.124 S 
ATOM     74  O   UNL A   1      39.870  34.365  38.618  1.00  0.00    -0.237 OA
ATOM     75  O   UNL A   1      39.139  32.069  38.047  1.00  0.00    -0.237 OA
ATOM     76  O   UNL A   1      40.505  32.473  40.061  1.00  0.00    -0.744 OA
ENDBRANCH  69  73
ENDBRANCH  52  66
BRANCH  53  77
ATOM     77  C   UNL A   1      42.376  25.710  27.741  1.00  0.00     0.023 A 
ATOM     78  C   UNL A   1      41.809  24.427  27.815  1.00  0.00     0.031 A 
ATOM     79  C   UNL A   1      42.968  26.100  26.526  1.00  0.00     0.131 A 
ATOM     80  C   UNL A   1      41.886  23.564  26.711  1.00  0.00     0.055 A 
ATOM     81  C   UNL A   1      42.991  25.258  25.412  1.00  0.00     0.041 A 
ATOM     82  F   UNL A   1      43.527  27.314  26.402  1.00  0.00    -0.206 F 
ATOM     83  C   UNL A   1      42.458  23.976  25.506  1.00  0.00     0.022 A 
BRANCH  80  84
ATOM     84  S   UNL A   1      41.297  21.858  26.899  1.00  0.00     0.124 S 
ATOM     85  O   UNL A   1      41.782  21.241  25.669  1.00  0.00    -0.237 OA
ATOM     86  O   UNL A   1      41.961  21.444  28.130  1.00  0.00    -0.237 OA
ATOM     87  O   UNL A   1      39.846  22.008  26.995  1.00  0.00    -0.744 OA
ENDBRANCH  80  84
ENDBRANCH  53  77
BRANCH  65  88
ATOM     88  C   UNL A   1      46.466  25.977  33.380  1.00  0.00     0.023 A 
ATOM     89  C   UNL A   1      47.772  26.154  32.890  1.00  0.00     0.031 A 
ATOM     90  C   UNL A   1      46.242  24.914  34.275  1.00  0.00     0.131 A 
ATOM     91  C   UNL A   1      48.776  25.228  33.216  1.00  0.00     0.055 A 
ATOM     92  C   UNL A   1      47.266  24.049  34.666  1.00  0.00     0.041 A 
ATOM     93  F   UNL A   1      45.018  24.687  34.778  1.00  0.00    -0.206 F 
ATOM     94  C   UNL A   1      48.537  24.189  34.117  1.00  0.00     0.022 A 
BRANCH  91  95
ATOM     95  S   UNL A   1      50.351  25.306  32.318  1.00  0.00     0.124 S 
ATOM     96  O   UNL A   1      50.873  26.603  32.735  1.00  0.00    -0.237 OA
ATOM     97  O   UNL A   1      51.060  24.139  32.832  1.00  0.00    -0.237 OA
ATOM     98  O   UNL A   1      49.950  25.221  30.915  1.00  0.00    -0.744 OA
ENDBRANCH  91  95
ENDBRANCH  65  88
ENDBRANCH  39  40
ENDBRANCH  32  34
ENDBRANCH  31  32
ENDBRANCH  30  31
ENDBRANCH  29  30
ENDBRANCH  28  29
ENDBRANCH  27  28
ENDBRANCH  26  27
ENDBRANCH  25  26
ENDBRANCH   1  25
TORSDOF 27
ENDMDL
MODEL 2
REMARK VINA RESULT:      -8.1      2.580      8.170
REMARK SMILES COC(=O)[C@H]1CCN(C(=O)N2CCC[C@@H]2C(=O)OCCOCCOCCOCCOC(=O)c2ccc(-c3c4nc(c(-c5cc(S(=O)(=O)[O-])ccc5F)c5ccc([nH]5)c(-c5cc(S(=O)(=O)[O-])ccc5F)c5nc(c(-c6cc(S(=O)(=O)[O-])ccc6F)c6ccc3[nH]6)C=C5)C=C4)cc2)C1
REMARK SMILES IDX 23 1 22 2 21 3 20 4 19 5 18 6 16 7 17 8 15 9 11 10 12 11
REMARK SMILES IDX 13 12 14 13 9 14 10 15 8 16 5 17 6 18 96 19 7 20 3 21 4 22
REMARK SMILES IDX 2 23 1 24 24 25 25 26 26 27 27 28 28 29 29 30 30 31 31 32
REMARK SMILES IDX 32 33 33 34 34 35 95 36 35 37 94 38 36 39 37 40 38 41 88 42
REMARK SMILES IDX 39 43 93 44 87 45 89 46 40 47 92 48 86 49 85 50 41 52 73 53
REMARK SMILES IDX 53 54 72 55 54 56 57 57 71 58 90 59 55 60 56 61 70 63 91 64
REMARK SMILES IDX 58 65 42 66 43 67 51 68 44 69 50 70 52 71 49 72 45 73 46 74
REMARK SMILES IDX 47 75 48 76 74 77 75 78 83 79 76 80 82 81 84 82 81 83 77 84
REMARK SMILES IDX 78 85 79 86 80 87 59 88 60 89 68 90 61 91 67 92 69 93 66 94
REMARK SMILES IDX 62 95 63 96 64 97 65 98
REMARK H PARENT 89 51 57 62
REMARK Flexibility Score: inf
ROOT
ATOM      1  C   UNL A   1      33.746  31.657  27.971  1.00  0.00     0.188 C 
ENDROOT
BRANCH   1   2
ATOM      2  C   UNL A   1      33.590  30.535  26.936  1.00  0.00     0.188 C 
BRANCH   2   3
ATOM      3  O   UNL A   1      32.764  29.405  27.159  1.00  0.00    -0.376 OA
BRANCH   3   4
ATOM      4  C   UNL A   1      33.254  28.073  27.149  1.00  0.00     0.202 C 
BRANCH   4   5
ATOM      5  C   UNL A   1      33.233  27.171  25.903  1.00  0.00     0.261 C 
BRANCH   5   6
ATOM      6  O   UNL A   1      33.972  27.623  24.761  1.00  0.00    -0.462 OA
BRANCH   6   7
ATOM      7  C   UNL A   1      33.211  28.097  23.748  1.00  0.00     0.329 C 
ATOM      8  O   UNL A   1      33.677  28.631  22.745  1.00  0.00    -0.250 OA
BRANCH   7   9
ATOM      9  C   UNL A   1      31.694  27.988  23.993  1.00  0.00     0.197 C 
ATOM     10  N   UNL A   1      31.057  27.303  22.893  1.00  0.00    -0.311 N 
ATOM     11  C   UNL A   1      29.662  27.639  22.803  1.00  0.00     0.122 C 
ATOM     12  C   UNL A   1      29.682  29.116  23.124  1.00  0.00     0.024 C 
ATOM     13  C   UNL A   1      30.834  29.260  24.128  1.00  0.00     0.039 C 
BRANCH  10  14
ATOM     14  C   UNL A   1      31.640  26.235  22.281  1.00  0.00     0.320 C 
ATOM     15  O   UNL A   1      32.016  26.258  21.115  1.00  0.00    -0.248 OA
BRANCH  14  16
ATOM     16  N   UNL A   1      31.605  25.106  23.065  1.00  0.00    -0.324 N 
ATOM     17  C   UNL A   1      32.369  23.465  24.566  1.00  0.00     0.120 C 
ATOM     18  C   UNL A   1      30.920  23.865  24.880  1.00  0.00     0.039 C 
ATOM     19  C   UNL A   1      32.802  24.381  23.421  1.00  0.00     0.136 C 
ATOM     20  C   UNL A   1      30.430  24.410  23.557  1.00  0.00     0.122 C 
BRANCH  17  21
ATOM     21  C   UNL A   1      33.345  23.628  25.697  1.00  0.00     0.310 C 
ATOM     22  O   UNL A   1      34.530  23.886  25.529  1.00  0.00    -0.252 OA
BRANCH  21  23
ATOM     23  O   UNL A   1      32.734  23.556  26.910  1.00  0.00    -0.469 OA
ATOM     24  C   UNL A   1      33.047  22.380  27.651  1.00  0.00     0.282 C 
ENDBRANCH  21  23
ENDBRANCH  17  21
ENDBRANCH  14  16
ENDBRANCH  10  14
ENDBRANCH   7   9
ENDBRANCH   6   7
ENDBRANCH   5   6
ENDBRANCH   4   5
ENDBRANCH   3   4
ENDBRANCH   2   3
ENDBRANCH   1   2
BRANCH   1  25
ATOM     25  O   UNL A   1      34.998  31.712  28.618  1.00  0.00    -0.377 OA
BRANCH  25  26
ATOM     26  C   UNL A   1      35.152  32.643  29.684  1.00  0.00     0.188 C 
BRANCH  26  27
ATOM     27  C   UNL A   1      34.224  33.874  29.720  1.00  0.00     0.188 C 
BRANCH  27  28
ATOM     28  O   UNL A   1      33.598  34.095  30.978  1.00  0.00    -0.376 OA
BRANCH  28  29
ATOM     29  C   UNL A   1      34.413  34.407  32.099  1.00  0.00     0.202 C 
BRANCH  29  30
ATOM     30  C   UNL A   1      34.207  33.597  33.393  1.00  0.00     0.261 C 
BRANCH  30  31
ATOM     31  O   UNL A   1      35.336  32.855  33.881  1.00  0.00    -0.460 OA
BRANCH  31  32
ATOM     32  C   UNL A   1      36.505  33.521  34.019  1.00  0.00     0.338 C 
ATOM     33  O   UNL A   1      36.664  34.603  34.544  1.00  0.00    -0.246 OA
BRANCH  32  34
ATOM     34  C   UNL A   1      37.605  32.612  33.619  1.00  0.00     0.060 A 
ATOM     35  C   UNL A   1      37.636  31.326  34.174  1.00  0.00     0.016 A 
ATOM     36  C   UNL A   1      38.605  33.021  32.733  1.00  0.00     0.016 A 
ATOM     37  C   UNL A   1      38.697  30.470  33.893  1.00  0.00     0.010 A 
ATOM     38  C   UNL A   1      39.680  32.165  32.466  1.00  0.00     0.010 A 
ATOM     39  C   UNL A   1      39.754  30.903  33.082  1.00  0.00    -0.014 A 
BRANCH  39  40
ATOM     40  C   UNL A   1      41.007  30.105  33.062  1.00  0.00     0.031 A 
ATOM     41  C   UNL A   1      41.273  29.212  31.877  1.00  0.00     0.074 A 
ATOM     42  C   UNL A   1      41.933  30.238  34.028  1.00  0.00     0.049 A 
ATOM     43  N   UNL A   1      42.326  28.487  31.598  1.00  0.00    -0.248 NA
ATOM     44  C   UNL A   1      40.202  29.129  30.874  1.00  0.00     0.031 C 
ATOM     45  C   UNL A   1      41.812  31.109  35.196  1.00  0.00     0.029 A 
ATOM     46  N   UNL A   1      43.168  29.657  34.167  1.00  0.00    -0.354 N 
ATOM     47  C   UNL A   1      42.044  27.859  30.389  1.00  0.00     0.074 A 
ATOM     48  C   UNL A   1      40.702  28.253  30.017  1.00  0.00     0.031 C 
ATOM     49  C   UNL A   1      42.940  31.021  35.922  1.00  0.00     0.029 A 
ATOM     50  C   UNL A   1      43.847  30.064  35.292  1.00  0.00     0.049 A 
ATOM     51  H   UNL A   1      43.533  29.008  33.522  1.00  0.00     0.167 HD
ATOM     52  C   UNL A   1      42.835  27.038  29.651  1.00  0.00     0.034 A 
ATOM     53  C   UNL A   1      45.059  29.701  35.757  1.00  0.00     0.034 A 
ATOM     54  C   UNL A   1      44.166  26.643  30.045  1.00  0.00     0.049 A 
ATOM     55  C   UNL A   1      45.886  28.718  34.963  1.00  0.00     0.074 A 
ATOM     56  C   UNL A   1      45.063  25.836  29.366  1.00  0.00     0.029 A 
ATOM     57  N   UNL A   1      44.790  27.008  31.233  1.00  0.00    -0.354 N 
ATOM     58  N   UNL A   1      45.619  28.147  33.810  1.00  0.00    -0.248 NA
ATOM     59  C   UNL A   1      47.186  28.345  35.533  1.00  0.00     0.031 C 
ATOM     60  C   UNL A   1      46.182  25.637  30.182  1.00  0.00     0.029 A 
ATOM     61  C   UNL A   1      46.036  26.403  31.327  1.00  0.00     0.049 A 
ATOM     62  H   UNL A   1      44.402  27.608  31.910  1.00  0.00     0.167 HD
ATOM     63  C   UNL A   1      46.740  27.377  33.499  1.00  0.00     0.074 A 
ATOM     64  C   UNL A   1      47.687  27.578  34.577  1.00  0.00     0.031 C 
ATOM     65  C   UNL A   1      46.968  26.585  32.418  1.00  0.00     0.034 A 
BRANCH  52  66
ATOM     66  C   UNL A   1      42.241  26.461  28.385  1.00  0.00     0.023 A 
ATOM     67  C   UNL A   1      41.683  25.170  28.340  1.00  0.00     0.031 A 
ATOM     68  C   UNL A   1      42.285  27.195  27.186  1.00  0.00     0.131 A 
ATOM     69  C   UNL A   1      41.280  24.622  27.112  1.00  0.00     0.055 A 
ATOM     70  C   UNL A   1      41.793  26.680  25.985  1.00  0.00     0.041 A 
ATOM     71  F   UNL A   1      42.831  28.421  27.155  1.00  0.00    -0.206 F 
ATOM     72  C   UNL A   1      41.305  25.379  25.939  1.00  0.00     0.022 A 
BRANCH  69  73
ATOM     73  S   UNL A   1      40.902  22.848  27.037  1.00  0.00     0.124 S 
ATOM     74  O   UNL A   1      39.446  22.862  26.915  1.00  0.00    -0.237 OA
ATOM     75  O   UNL A   1      41.638  22.419  25.855  1.00  0.00    -0.237 OA
ATOM     76  O   UNL A   1      41.407  22.337  28.310  1.00  0.00    -0.744 OA
ENDBRANCH  69  73
ENDBRANCH  52  66
BRANCH  53  77
ATOM     77  C   UNL A   1      45.574  30.259  37.042  1.00  0.00     0.023 A 
ATOM     78  C   UNL A   1      45.362  29.591  38.259  1.00  0.00     0.031 A 
ATOM     79  C   UNL A   1      46.239  31.498  37.078  1.00  0.00     0.131 A 
ATOM     80  C   UNL A   1      45.770  30.184  39.463  1.00  0.00     0.055 A 
ATOM     81  C   UNL A   1      46.694  32.057  38.274  1.00  0.00     0.041 A 
ATOM     82  F   UNL A   1      46.466  32.181  35.945  1.00  0.00    -0.206 F 
ATOM     83  C   UNL A   1      46.448  31.405  39.478  1.00  0.00     0.022 A 
BRANCH  80  84
ATOM     84  S   UNL A   1      45.326  29.374  41.025  1.00  0.00     0.124 S 
ATOM     85  O   UNL A   1      46.586  29.436  41.758  1.00  0.00    -0.237 OA
ATOM     86  O   UNL A   1      44.254  30.232  41.516  1.00  0.00    -0.237 OA
ATOM     87  O   UNL A   1      44.909  28.037  40.608  1.00  0.00    -0.744 OA
ENDBRANCH  80  84
ENDBRANCH  53  77
BRANCH  65  88
ATOM     88  C   UNL A   1      48.322  25.913  32.335  1.00  0.00     0.023 A 
ATOM     89  C   UNL A   1      48.634  24.772  33.095  1.00  0.00     0.031 A 
ATOM     90  C   UNL A   1      49.336  26.456  31.524  1.00  0.00     0.131 A 
ATOM     91  C   UNL A   1      49.946  24.273  33.107  1.00  0.00     0.055 A 
ATOM     92  C   UNL A   1      50.616  25.900  31.471  1.00  0.00     0.041 A 
ATOM     93  F   UNL A   1      49.105  27.546  30.774  1.00  0.00    -0.206 F 
ATOM     94  C   UNL A   1      50.934  24.817  32.284  1.00  0.00     0.022 A 
BRANCH  91  95
ATOM     95  S   UNL A   1      50.382  23.010  34.335  1.00  0.00     0.124 S 
ATOM     96  O   UNL A   1      51.826  22.897  34.153  1.00  0.00    -0.237 OA
ATOM     97  O   UNL A   1      49.944  23.625  35.583  1.00  0.00    -0.237 OA
ATOM     98  O   UNL A   1      49.611  21.842  33.913  1.00  0.00    -0.744 OA
ENDBRANCH  91  95
ENDBRANCH  65  88
ENDBRANCH  39  40
ENDBRANCH  32  34
ENDBRANCH  31  32
ENDBRANCH  30  31
ENDBRANCH  29  30
ENDBRANCH  28  29
ENDBRANCH  27  28
ENDBRANCH  26  27
ENDBRANCH  25  26
ENDBRANCH   1  25
TORSDOF 27
ENDMDL
MODEL 3
REMARK VINA RESULT:      -8.0      4.116      6.353
REMARK SMILES COC(=O)[C@H]1CCN(C(=O)N2CCC[C@@H]2C(=O)OCCOCCOCCOCCOC(=O)c2ccc(-c3c4nc(c(-c5cc(S(=O)(=O)[O-])ccc5F)c5ccc([nH]5)c(-c5cc(S(=O)(=O)[O-])ccc5F)c5nc(c(-c6cc(S(=O)(=O)[O-])ccc6F)c6ccc3[nH]6)C=C5)C=C4)cc2)C1
REMARK SMILES IDX 23 1 22 2 21 3 20 4 19 5 18 6 16 7 17 8 15 9 11 10 12 11
REMARK SMILES IDX 13 12 14 13 9 14 10 15 8 16 5 17 6 18 96 19 7 20 3 21 4 22
REMARK SMILES IDX 2 23 1 24 24 25 25 26 26 27 27 28 28 29 29 30 30 31 31 32
REMARK SMILES IDX 32 33 33 34 34 35 95 36 35 37 94 38 36 39 37 40 38 41 88 42
REMARK SMILES IDX 39 43 93 44 87 45 89 46 40 47 92 48 86 49 85 50 41 52 73 53
REMARK SMILES IDX 53 54 72 55 54 56 57 57 71 58 90 59 55 60 56 61 70 63 91 64
REMARK SMILES IDX 58 65 42 66 43 67 51 68 44 69 50 70 52 71 49 72 45 73 46 74
REMARK SMILES IDX 47 75 48 76 74 77 75 78 83 79 76 80 82 81 84 82 81 83 77 84
REMARK SMILES IDX 78 85 79 86 80 87 59 88 60 89 68 90 61 91 67 92 69 93 66 94
REMARK SMILES IDX 62 95 63 96 64 97 65 98
REMARK H PARENT 89 51 57 62
REMARK Flexibility Score: inf
ROOT
ATOM      1  C   UNL A   1      32.886  30.630  27.115  1.00  0.00     0.188 C 
ENDROOT
BRANCH   1   2
ATOM      2  C   UNL A   1      32.369  29.934  25.849  1.00  0.00     0.188 C 
BRANCH   2   3
ATOM      3  O   UNL A   1      31.942  28.582  25.847  1.00  0.00    -0.376 OA
BRANCH   3   4
ATOM      4  C   UNL A   1      32.844  27.486  25.879  1.00  0.00     0.202 C 
BRANCH   4   5
ATOM      5  C   UNL A   1      33.009  26.490  24.718  1.00  0.00     0.261 C 
BRANCH   5   6
ATOM      6  O   UNL A   1      31.914  26.374  23.801  1.00  0.00    -0.462 OA
BRANCH   6   7
ATOM      7  C   UNL A   1      31.150  25.271  23.972  1.00  0.00     0.329 C 
ATOM      8  O   UNL A   1      30.224  24.967  23.225  1.00  0.00    -0.250 OA
BRANCH   7   9
ATOM      9  C   UNL A   1      31.484  24.460  25.238  1.00  0.00     0.197 C 
ATOM     10  N   UNL A   1      31.706  23.074  24.902  1.00  0.00    -0.311 N 
ATOM     11  C   UNL A   1      31.489  22.217  26.037  1.00  0.00     0.122 C 
ATOM     12  C   UNL A   1      30.282  22.862  26.678  1.00  0.00     0.024 C 
ATOM     13  C   UNL A   1      30.464  24.358  26.389  1.00  0.00     0.039 C 
BRANCH  10  14
ATOM     14  C   UNL A   1      32.369  22.709  23.770  1.00  0.00     0.320 C 
ATOM     15  O   UNL A   1      31.846  22.065  22.868  1.00  0.00    -0.248 OA
BRANCH  14  16
ATOM     16  N   UNL A   1      33.711  23.006  23.836  1.00  0.00    -0.324 N 
ATOM     17  C   UNL A   1      35.937  22.896  24.583  1.00  0.00     0.120 C 
ATOM     18  C   UNL A   1      35.875  22.994  23.051  1.00  0.00     0.039 C 
ATOM     19  C   UNL A   1      34.482  22.813  25.042  1.00  0.00     0.136 C 
ATOM     20  C   UNL A   1      34.526  23.633  22.812  1.00  0.00     0.122 C 
BRANCH  17  21
ATOM     21  C   UNL A   1      36.674  21.704  25.127  1.00  0.00     0.310 C 
ATOM     22  O   UNL A   1      36.114  20.679  25.491  1.00  0.00    -0.252 OA
BRANCH  21  23
ATOM     23  O   UNL A   1      38.022  21.869  25.064  1.00  0.00    -0.469 OA
ATOM     24  C   UNL A   1      38.582  22.525  26.198  1.00  0.00     0.282 C 
ENDBRANCH  21  23
ENDBRANCH  17  21
ENDBRANCH  14  16
ENDBRANCH  10  14
ENDBRANCH   7   9
ENDBRANCH   6   7
ENDBRANCH   5   6
ENDBRANCH   4   5
ENDBRANCH   3   4
ENDBRANCH   2   3
ENDBRANCH   1   2
BRANCH   1  25
ATOM     25  O   UNL A   1      34.221  30.338  27.463  1.00  0.00    -0.377 OA
BRANCH  25  26
ATOM     26  C   UNL A   1      34.876  31.216  28.372  1.00  0.00     0.188 C 
BRANCH  26  27
ATOM     27  C   UNL A   1      34.451  32.699  28.391  1.00  0.00     0.188 C 
BRANCH  27  28
ATOM     28  O   UNL A   1      34.030  33.167  29.666  1.00  0.00    -0.376 OA
BRANCH  28  29
ATOM     29  C   UNL A   1      35.017  33.591  30.596  1.00  0.00     0.202 C 
BRANCH  29  30
ATOM     30  C   UNL A   1      34.745  33.363  32.095  1.00  0.00     0.261 C 
BRANCH  30  31
ATOM     31  O   UNL A   1      35.388  32.233  32.707  1.00  0.00    -0.460 OA
BRANCH  31  32
ATOM     32  C   UNL A   1      36.282  32.483  33.690  1.00  0.00     0.338 C 
ATOM     33  O   UNL A   1      36.075  33.086  34.721  1.00  0.00    -0.246 OA
BRANCH  32  34
ATOM     34  C   UNL A   1      37.512  31.706  33.404  1.00  0.00     0.060 A 
ATOM     35  C   UNL A   1      38.705  32.105  34.019  1.00  0.00     0.016 A 
ATOM     36  C   UNL A   1      37.500  30.619  32.527  1.00  0.00     0.016 A 
ATOM     37  C   UNL A   1      39.899  31.458  33.712  1.00  0.00     0.010 A 
ATOM     38  C   UNL A   1      38.704  29.980  32.206  1.00  0.00     0.010 A 
ATOM     39  C   UNL A   1      39.916  30.428  32.762  1.00  0.00    -0.014 A 
BRANCH  39  40
ATOM     40  C   UNL A   1      41.226  29.981  32.222  1.00  0.00     0.031 A 
ATOM     41  C   UNL A   1      41.909  30.838  31.187  1.00  0.00     0.074 A 
ATOM     42  C   UNL A   1      41.841  28.887  32.705  1.00  0.00     0.049 A 
ATOM     43  N   UNL A   1      43.086  30.697  30.632  1.00  0.00    -0.248 NA
ATOM     44  C   UNL A   1      41.158  32.011  30.718  1.00  0.00     0.031 C 
ATOM     45  C   UNL A   1      41.304  28.008  33.743  1.00  0.00     0.029 A 
ATOM     46  N   UNL A   1      43.063  28.343  32.401  1.00  0.00    -0.354 N 
ATOM     47  C   UNL A   1      43.216  31.762  29.745  1.00  0.00     0.074 A 
ATOM     48  C   UNL A   1      41.977  32.508  29.805  1.00  0.00     0.031 C 
ATOM     49  C   UNL A   1      42.204  27.045  34.005  1.00  0.00     0.029 A 
ATOM     50  C   UNL A   1      43.364  27.217  33.132  1.00  0.00     0.049 A 
ATOM     51  H   UNL A   1      43.668  28.722  31.722  1.00  0.00     0.167 HD
ATOM     52  C   UNL A   1      44.274  32.093  28.963  1.00  0.00     0.034 A 
ATOM     53  C   UNL A   1      44.450  26.419  33.096  1.00  0.00     0.034 A 
ATOM     54  C   UNL A   1      45.497  31.329  28.904  1.00  0.00     0.049 A 
ATOM     55  C   UNL A   1      45.579  26.758  32.152  1.00  0.00     0.074 A 
ATOM     56  C   UNL A   1      46.640  31.584  28.165  1.00  0.00     0.029 A 
ATOM     57  N   UNL A   1      45.734  30.146  29.596  1.00  0.00    -0.354 N 
ATOM     58  N   UNL A   1      45.702  27.780  31.335  1.00  0.00    -0.248 NA
ATOM     59  C   UNL A   1      46.723  25.838  32.143  1.00  0.00     0.031 C 
ATOM     60  C   UNL A   1      47.523  30.512  28.335  1.00  0.00     0.029 A 
ATOM     61  C   UNL A   1      46.982  29.637  29.263  1.00  0.00     0.049 A 
ATOM     62  H   UNL A   1      45.106  29.730  30.230  1.00  0.00     0.167 HD
ATOM     63  C   UNL A   1      46.957  27.643  30.743  1.00  0.00     0.074 A 
ATOM     64  C   UNL A   1      47.554  26.454  31.316  1.00  0.00     0.031 C 
ATOM     65  C   UNL A   1      47.563  28.434  29.818  1.00  0.00     0.034 A 
BRANCH  52  66
ATOM     66  C   UNL A   1      44.115  33.294  28.056  1.00  0.00     0.023 A 
ATOM     67  C   UNL A   1      44.106  34.611  28.551  1.00  0.00     0.031 A 
ATOM     68  C   UNL A   1      43.911  33.114  26.675  1.00  0.00     0.131 A 
ATOM     69  C   UNL A   1      43.807  35.682  27.694  1.00  0.00     0.055 A 
ATOM     70  C   UNL A   1      43.711  34.193  25.812  1.00  0.00     0.041 A 
ATOM     71  F   UNL A   1      43.880  31.882  26.145  1.00  0.00    -0.206 F 
ATOM     72  C   UNL A   1      43.638  35.484  26.322  1.00  0.00     0.022 A 
BRANCH  69  73
ATOM     73  S   UNL A   1      43.457  37.306  28.424  1.00  0.00     0.124 S 
ATOM     74  O   UNL A   1      41.999  37.358  28.343  1.00  0.00    -0.237 OA
ATOM     75  O   UNL A   1      44.018  37.176  29.764  1.00  0.00    -0.237 OA
ATOM     76  O   UNL A   1      44.156  38.236  27.541  1.00  0.00    -0.744 OA
ENDBRANCH  69  73
ENDBRANCH  52  66
BRANCH  53  77
ATOM     77  C   UNL A   1      44.532  25.213  33.973  1.00  0.00     0.023 A 
ATOM     78  C   UNL A   1      44.980  25.313  35.300  1.00  0.00     0.031 A 
ATOM     79  C   UNL A   1      44.217  23.936  33.477  1.00  0.00     0.131 A 
ATOM     80  C   UNL A   1      45.142  24.152  36.072  1.00  0.00     0.055 A 
ATOM     81  C   UNL A   1      44.325  22.790  34.268  1.00  0.00     0.041 A 
ATOM     82  F   UNL A   1      43.788  23.783  32.215  1.00  0.00    -0.206 F 
ATOM     83  C   UNL A   1      44.803  22.894  35.570  1.00  0.00     0.022 A 
BRANCH  80  84
ATOM     84  S   UNL A   1      45.884  24.301  37.721  1.00  0.00     0.124 S 
ATOM     85  O   UNL A   1      44.711  24.548  38.552  1.00  0.00    -0.237 OA
ATOM     86  O   UNL A   1      46.525  23.000  37.883  1.00  0.00    -0.237 OA
ATOM     87  O   UNL A   1      46.800  25.431  37.580  1.00  0.00    -0.744 OA
ENDBRANCH  80  84
ENDBRANCH  53  77
BRANCH  65  88
ATOM     88  C   UNL A   1      48.970  28.052  29.406  1.00  0.00     0.023 A 
ATOM     89  C   UNL A   1      49.221  27.228  28.296  1.00  0.00     0.031 A 
ATOM     90  C   UNL A   1      50.073  28.474  30.172  1.00  0.00     0.131 A 
ATOM     91  C   UNL A   1      50.525  26.771  28.041  1.00  0.00     0.055 A 
ATOM     92  C   UNL A   1      51.379  28.089  29.860  1.00  0.00     0.041 A 
ATOM     93  F   UNL A   1      49.902  29.261  31.246  1.00  0.00    -0.206 F 
ATOM     94  C   UNL A   1      51.607  27.213  28.803  1.00  0.00     0.022 A 
BRANCH  91  95
ATOM     95  S   UNL A   1      50.759  25.464  26.803  1.00  0.00     0.124 S 
ATOM     96  O   UNL A   1      52.090  24.968  27.136  1.00  0.00    -0.237 OA
ATOM     97  O   UNL A   1      49.651  24.560  27.093  1.00  0.00    -0.237 OA
ATOM     98  O   UNL A   1      50.662  26.177  25.530  1.00  0.00    -0.744 OA
ENDBRANCH  91  95
ENDBRANCH  65  88
ENDBRANCH  39  40
ENDBRANCH  32  34
ENDBRANCH  31  32
ENDBRANCH  30  31
ENDBRANCH  29  30
ENDBRANCH  28  29
ENDBRANCH  27  28
ENDBRANCH  26  27
ENDBRANCH  25  26
ENDBRANCH   1  25
TORSDOF 27
ENDMDL
