MODEL 1
REMARK VINA RESULT:     -11.0      0.000      0.000
REMARK SMILES O=C(OCCOCCOCCOCCOC(=O)c1ccc(-c2c3nc(c(-c4cc(S(=O)(=O)[O-])ccc4F)c4ccc([nH]4)c(-c4cc(S(=O)(=O)[O-])ccc4F)c4nc(c(-c5cc(S(=O)(=O)[O-])ccc5F)c5ccc2[nH]5)C=C4)C=C3)cc1)C1=Cc2cc(Cl)cc(Cl)c2O[C@@H]1C(F)(F)F
REMARK SMILES IDX 10 1 9 2 8 3 7 4 6 5 5 6 4 7 3 8 2 9 1 10 81 11 82 12 92 13
REMARK SMILES IDX 83 14 91 15 84 16 90 17 85 18 88 19 86 20 87 21 89 22 93 23
REMARK SMILES IDX 94 24 95 25 96 26 11 27 12 28 13 29 14 30 15 31 16 32 17 33
REMARK SMILES IDX 18 34 19 35 80 36 20 37 79 38 21 39 22 40 23 41 73 42 24 43
REMARK SMILES IDX 78 44 72 45 74 46 25 47 77 48 71 49 70 50 26 52 58 53 38 54
REMARK SMILES IDX 57 55 39 56 42 57 56 58 75 59 40 60 41 61 55 63 76 64 43 65
REMARK SMILES IDX 27 66 28 67 36 68 29 69 35 70 37 71 34 72 30 73 31 74 32 75
REMARK SMILES IDX 33 76 59 77 60 78 68 79 61 80 67 81 69 82 66 83 62 84 63 85
REMARK SMILES IDX 64 86 65 87 44 88 45 89 53 90 46 91 52 92 54 93 51 94 47 95
REMARK SMILES IDX 48 96 49 97 50 98
REMARK H PARENT 74 51 42 62
REMARK Flexibility Score: inf
ROOT
ATOM      1  C   UNL A   1      36.711  20.256  25.011  1.00  0.00     0.188 C 
ENDROOT
BRANCH   1   2
ATOM      2  O   UNL A   1      35.340  19.954  25.124  1.00  0.00    -0.377 OA
BRANCH   2   3
ATOM      3  C   UNL A   1      34.534  21.011  24.665  1.00  0.00     0.188 C 
BRANCH   3   4
ATOM      4  C   UNL A   1      33.059  20.645  24.463  1.00  0.00     0.188 C 
BRANCH   4   5
ATOM      5  O   UNL A   1      32.164  21.290  23.495  1.00  0.00    -0.376 OA
BRANCH   5   6
ATOM      6  C   UNL A   1      32.264  22.669  22.586  1.00  0.00     0.202 C 
BRANCH   6   7
ATOM      7  C   UNL A   1      33.732  24.274  22.771  1.00  0.00     0.261 C 
BRANCH   7   8
ATOM      8  O   UNL A   1      34.016  25.099  24.013  1.00  0.00    -0.460 OA
BRANCH   8   9
ATOM      9  C   UNL A   1      33.494  26.330  23.938  1.00  0.00     0.338 C 
ATOM     10  O   UNL A   1      33.688  27.176  23.101  1.00  0.00    -0.246 OA
BRANCH   9  11
ATOM     11  C   UNL A   1      33.091  26.432  25.330  1.00  0.00     0.087 C 
ATOM     12  C   UNL A   1      34.001  27.234  26.159  1.00  0.00     0.027 C 
ATOM     13  C   UNL A   1      31.284  26.919  24.897  1.00  0.00     0.316 C 
ATOM     14  C   UNL A   1      33.651  28.916  26.706  1.00  0.00     0.020 A 
ATOM     15  O   UNL A   1      30.925  28.780  25.352  1.00  0.00    -0.474 OA
ATOM     16  C   UNL A   1      34.610  29.595  27.410  1.00  0.00     0.032 A 
ATOM     17  C   UNL A   1      32.206  29.755  26.245  1.00  0.00     0.146 A 
ATOM     18  C   UNL A   1      34.300  30.934  27.705  1.00  0.00     0.043 A 
ATOM     19  C   UNL A   1      32.033  31.089  26.530  1.00  0.00     0.085 A 
ATOM     20  Cl  UNL A   1      35.491  31.819  28.609  1.00  0.00    -0.084 Cl
ATOM     21  C   UNL A   1      33.097  31.641  27.292  1.00  0.00     0.045 A 
ATOM     22  Cl  UNL A   1      30.776  32.082  25.960  1.00  0.00    -0.080 Cl
BRANCH  13  23
ATOM     23  C   UNL A   1      30.671  25.479  25.472  1.00  0.00     0.430 C 
ATOM     24  F   UNL A   1      31.229  24.934  26.567  1.00  0.00    -0.167 F 
ATOM     25  F   UNL A   1      29.381  25.737  25.859  1.00  0.00    -0.167 F 
ATOM     26  F   UNL A   1      30.543  24.497  24.544  1.00  0.00    -0.167 F 
ENDBRANCH  13  23
ENDBRANCH   9  11
ENDBRANCH   8   9
ENDBRANCH   7   8
ENDBRANCH   6   7
ENDBRANCH   5   6
ENDBRANCH   4   5
ENDBRANCH   3   4
ENDBRANCH   2   3
ENDBRANCH   1   2
BRANCH   1  27
ATOM     27  C   UNL A   1      37.061  21.702  24.643  1.00  0.00     0.188 C 
BRANCH  27  28
ATOM     28  O   UNL A   1      37.969  22.484  25.398  1.00  0.00    -0.376 OA
BRANCH  28  29
ATOM     29  C   UNL A   1      38.998  21.885  26.162  1.00  0.00     0.202 C 
BRANCH  29  30
ATOM     30  C   UNL A   1      39.625  20.529  25.792  1.00  0.00     0.261 C 
BRANCH  30  31
ATOM     31  O   UNL A   1      40.562  19.969  26.720  1.00  0.00    -0.460 OA
BRANCH  31  32
ATOM     32  C   UNL A   1      41.823  19.828  26.254  1.00  0.00     0.338 C 
ATOM     33  O   UNL A   1      42.258  18.883  25.618  1.00  0.00    -0.246 OA
BRANCH  32  34
ATOM     34  C   UNL A   1      42.566  21.097  26.441  1.00  0.00     0.060 A 
ATOM     35  C   UNL A   1      42.801  21.534  27.755  1.00  0.00     0.016 A 
ATOM     36  C   UNL A   1      43.020  21.855  25.359  1.00  0.00     0.016 A 
ATOM     37  C   UNL A   1      43.446  22.743  27.995  1.00  0.00     0.010 A 
ATOM     38  C   UNL A   1      43.623  23.095  25.599  1.00  0.00     0.010 A 
ATOM     39  C   UNL A   1      43.795  23.561  26.917  1.00  0.00    -0.014 A 
BRANCH  39  40
ATOM     40  C   UNL A   1      44.073  24.995  27.175  1.00  0.00     0.031 A 
ATOM     41  C   UNL A   1      45.459  25.500  26.879  1.00  0.00     0.074 A 
ATOM     42  C   UNL A   1      43.116  25.837  27.598  1.00  0.00     0.049 A 
ATOM     43  N   UNL A   1      45.971  26.687  27.070  1.00  0.00    -0.248 NA
ATOM     44  C   UNL A   1      46.393  24.527  26.290  1.00  0.00     0.031 C 
ATOM     45  C   UNL A   1      41.723  25.474  27.841  1.00  0.00     0.029 A 
ATOM     46  N   UNL A   1      43.174  27.174  27.900  1.00  0.00    -0.354 N 
ATOM     47  C   UNL A   1      47.292  26.599  26.642  1.00  0.00     0.074 A 
ATOM     48  C   UNL A   1      47.509  25.234  26.217  1.00  0.00     0.031 C 
ATOM     49  C   UNL A   1      41.058  26.562  28.266  1.00  0.00     0.029 A 
ATOM     50  C   UNL A   1      41.989  27.684  28.375  1.00  0.00     0.049 A 
ATOM     51  H   UNL A   1      43.989  27.717  27.789  1.00  0.00     0.167 HD
ATOM     52  C   UNL A   1      48.233  27.573  26.604  1.00  0.00     0.034 A 
ATOM     53  C   UNL A   1      41.704  28.905  28.874  1.00  0.00     0.034 A 
ATOM     54  C   UNL A   1      47.998  28.924  27.049  1.00  0.00     0.049 A 
ATOM     55  C   UNL A   1      42.802  29.942  28.933  1.00  0.00     0.074 A 
ATOM     56  C   UNL A   1      48.875  29.993  27.052  1.00  0.00     0.029 A 
ATOM     57  N   UNL A   1      46.803  29.387  27.588  1.00  0.00    -0.354 N 
ATOM     58  N   UNL A   1      44.050  29.851  28.533  1.00  0.00    -0.248 NA
ATOM     59  C   UNL A   1      42.450  31.248  29.507  1.00  0.00     0.031 C 
ATOM     60  C   UNL A   1      48.246  31.070  27.682  1.00  0.00     0.029 A 
ATOM     61  C   UNL A   1      46.938  30.713  27.970  1.00  0.00     0.049 A 
ATOM     62  H   UNL A   1      45.983  28.853  27.684  1.00  0.00     0.167 HD
ATOM     63  C   UNL A   1      44.621  31.099  28.776  1.00  0.00     0.074 A 
ATOM     64  C   UNL A   1      43.576  31.927  29.342  1.00  0.00     0.031 C 
ATOM     65  C   UNL A   1      45.890  31.525  28.544  1.00  0.00     0.034 A 
BRANCH  52  66
ATOM     66  C   UNL A   1      49.615  27.186  26.132  1.00  0.00     0.023 A 
ATOM     67  C   UNL A   1      50.650  26.875  27.031  1.00  0.00     0.031 A 
ATOM     68  C   UNL A   1      49.912  27.169  24.757  1.00  0.00     0.131 A 
ATOM     69  C   UNL A   1      51.946  26.640  26.550  1.00  0.00     0.055 A 
ATOM     70  C   UNL A   1      51.181  26.839  24.281  1.00  0.00     0.041 A 
ATOM     71  F   UNL A   1      48.974  27.487  23.850  1.00  0.00    -0.206 F 
ATOM     72  C   UNL A   1      52.213  26.589  25.180  1.00  0.00     0.022 A 
BRANCH  69  73
ATOM     73  S   UNL A   1      53.311  26.573  27.743  1.00  0.00     0.124 S 
ATOM     74  O   UNL A   1      52.607  26.239  28.978  1.00  0.00    -0.237 OA
ATOM     75  O   UNL A   1      54.163  25.527  27.190  1.00  0.00    -0.237 OA
ATOM     76  O   UNL A   1      53.871  27.923  27.699  1.00  0.00    -0.744 OA
ENDBRANCH  69  73
ENDBRANCH  52  66
BRANCH  53  77
ATOM     77  C   UNL A   1      40.342  29.206  29.407  1.00  0.00     0.023 A 
ATOM     78  C   UNL A   1      40.096  29.250  30.788  1.00  0.00     0.031 A 
ATOM     79  C   UNL A   1      39.252  29.397  28.538  1.00  0.00     0.131 A 
ATOM     80  C   UNL A   1      38.786  29.433  31.260  1.00  0.00     0.055 A 
ATOM     81  C   UNL A   1      37.964  29.646  29.012  1.00  0.00     0.041 A 
ATOM     82  F   UNL A   1      39.426  29.352  27.208  1.00  0.00    -0.206 F 
ATOM     83  C   UNL A   1      37.721  29.652  30.382  1.00  0.00     0.022 A 
BRANCH  80  84
ATOM     84  S   UNL A   1      38.474  29.275  33.039  1.00  0.00     0.124 S 
ATOM     85  O   UNL A   1      37.353  28.344  33.061  1.00  0.00    -0.237 OA
ATOM     86  O   UNL A   1      39.748  28.760  33.525  1.00  0.00    -0.237 OA
ATOM     87  O   UNL A   1      38.159  30.642  33.451  1.00  0.00    -0.744 OA
ENDBRANCH  80  84
ENDBRANCH  53  77
BRANCH  65  88
ATOM     88  C   UNL A   1      46.205  32.971  28.852  1.00  0.00     0.023 A 
ATOM     89  C   UNL A   1      45.997  33.996  27.912  1.00  0.00     0.031 A 
ATOM     90  C   UNL A   1      46.724  33.328  30.111  1.00  0.00     0.131 A 
ATOM     91  C   UNL A   1      46.366  35.314  28.222  1.00  0.00     0.055 A 
ATOM     92  C   UNL A   1      47.012  34.653  30.442  1.00  0.00     0.041 A 
ATOM     93  F   UNL A   1      46.952  32.392  31.046  1.00  0.00    -0.206 F 
ATOM     94  C   UNL A   1      46.848  35.653  29.489  1.00  0.00     0.022 A 
BRANCH  91  95
ATOM     95  S   UNL A   1      46.324  36.561  26.906  1.00  0.00     0.124 S 
ATOM     96  O   UNL A   1      44.929  36.990  26.943  1.00  0.00    -0.237 OA
ATOM     97  O   UNL A   1      47.303  37.538  27.370  1.00  0.00    -0.237 OA
ATOM     98  O   UNL A   1      46.712  35.813  25.712  1.00  0.00    -0.744 OA
ENDBRANCH  91  95
ENDBRANCH  65  88
ENDBRANCH  39  40
ENDBRANCH  32  34
ENDBRANCH  31  32
ENDBRANCH  30  31
ENDBRANCH  29  30
ENDBRANCH  28  29
ENDBRANCH  27  28
ENDBRANCH   1  27
TORSDOF 24
ENDMDL
MODEL 2
REMARK VINA RESULT:     -10.9      2.799      7.805
REMARK SMILES O=C(OCCOCCOCCOCCOC(=O)c1ccc(-c2c3nc(c(-c4cc(S(=O)(=O)[O-])ccc4F)c4ccc([nH]4)c(-c4cc(S(=O)(=O)[O-])ccc4F)c4nc(c(-c5cc(S(=O)(=O)[O-])ccc5F)c5ccc2[nH]5)C=C4)C=C3)cc1)C1=Cc2cc(Cl)cc(Cl)c2O[C@@H]1C(F)(F)F
REMARK SMILES IDX 10 1 9 2 8 3 7 4 6 5 5 6 4 7 3 8 2 9 1 10 81 11 82 12 92 13
REMARK SMILES IDX 83 14 91 15 84 16 90 17 85 18 88 19 86 20 87 21 89 22 93 23
REMARK SMILES IDX 94 24 95 25 96 26 11 27 12 28 13 29 14 30 15 31 16 32 17 33
REMARK SMILES IDX 18 34 19 35 80 36 20 37 79 38 21 39 22 40 23 41 73 42 24 43
REMARK SMILES IDX 78 44 72 45 74 46 25 47 77 48 71 49 70 50 26 52 58 53 38 54
REMARK SMILES IDX 57 55 39 56 42 57 56 58 75 59 40 60 41 61 55 63 76 64 43 65
REMARK SMILES IDX 27 66 28 67 36 68 29 69 35 70 37 71 34 72 30 73 31 74 32 75
REMARK SMILES IDX 33 76 59 77 60 78 68 79 61 80 67 81 69 82 66 83 62 84 63 85
REMARK SMILES IDX 64 86 65 87 44 88 45 89 53 90 46 91 52 92 54 93 51 94 47 95
REMARK SMILES IDX 48 96 49 97 50 98
REMARK H PARENT 74 51 42 62
REMARK Flexibility Score: inf
ROOT
ATOM      1  C   UNL A   1      34.095  20.965  25.751  1.00  0.00     0.188 C 
ENDROOT
BRANCH   1   2
ATOM      2  O   UNL A   1      33.765  19.633  25.431  1.00  0.00    -0.377 OA
BRANCH   2   3
ATOM      3  C   UNL A   1      32.480  19.537  24.868  1.00  0.00     0.188 C 
BRANCH   3   4
ATOM      4  C   UNL A   1      32.419  19.847  23.367  1.00  0.00     0.188 C 
BRANCH   4   5
ATOM      5  O   UNL A   1      31.955  21.116  22.795  1.00  0.00    -0.376 OA
BRANCH   5   6
ATOM      6  C   UNL A   1      31.903  22.673  23.356  1.00  0.00     0.202 C 
BRANCH   6   7
ATOM      7  C   UNL A   1      32.600  24.472  22.336  1.00  0.00     0.261 C 
BRANCH   7   8
ATOM      8  O   UNL A   1      31.803  25.742  22.100  1.00  0.00    -0.460 OA
BRANCH   8   9
ATOM      9  C   UNL A   1      32.408  26.825  22.603  1.00  0.00     0.338 C 
ATOM     10  O   UNL A   1      33.277  27.497  22.106  1.00  0.00    -0.246 OA
BRANCH   9  11
ATOM     11  C   UNL A   1      32.054  26.590  23.992  1.00  0.00     0.087 C 
ATOM     12  C   UNL A   1      33.156  26.814  24.937  1.00  0.00     0.027 C 
ATOM     13  C   UNL A   1      30.460  27.659  23.893  1.00  0.00     0.316 C 
ATOM     14  C   UNL A   1      33.303  28.267  25.994  1.00  0.00     0.020 A 
ATOM     15  O   UNL A   1      30.649  29.307  24.916  1.00  0.00    -0.474 OA
ATOM     16  C   UNL A   1      34.416  28.405  26.778  1.00  0.00     0.032 A 
ATOM     17  C   UNL A   1      32.156  29.567  25.940  1.00  0.00     0.146 A 
ATOM     18  C   UNL A   1      34.503  29.615  27.489  1.00  0.00     0.043 A 
ATOM     19  C   UNL A   1      32.373  30.739  26.627  1.00  0.00     0.085 A 
ATOM     20  Cl  UNL A   1      35.898  29.814  28.504  1.00  0.00    -0.084 Cl
ATOM     21  C   UNL A   1      33.551  30.714  27.419  1.00  0.00     0.045 A 
ATOM     22  Cl  UNL A   1      31.450  32.162  26.498  1.00  0.00    -0.080 Cl
BRANCH  13  23
ATOM     23  C   UNL A   1      29.462  26.334  24.062  1.00  0.00     0.430 C 
ATOM     24  F   UNL A   1      29.463  25.674  25.233  1.00  0.00    -0.167 F 
ATOM     25  F   UNL A   1      28.179  26.804  23.955  1.00  0.00    -0.167 F 
ATOM     26  F   UNL A   1      29.556  25.413  23.071  1.00  0.00    -0.167 F 
ENDBRANCH  13  23
ENDBRANCH   9  11
ENDBRANCH   8   9
ENDBRANCH   7   8
ENDBRANCH   6   7
ENDBRANCH   5   6
ENDBRANCH   4   5
ENDBRANCH   3   4
ENDBRANCH   2   3
ENDBRANCH   1   2
BRANCH   1  27
ATOM     27  C   UNL A   1      35.123  21.647  24.842  1.00  0.00     0.188 C 
BRANCH  27  28
ATOM     28  O   UNL A   1      36.128  22.512  25.340  1.00  0.00    -0.376 OA
BRANCH  28  29
ATOM     29  C   UNL A   1      37.494  22.305  25.036  1.00  0.00     0.202 C 
BRANCH  29  30
ATOM     30  C   UNL A   1      38.321  21.169  25.663  1.00  0.00     0.261 C 
BRANCH  30  31
ATOM     31  O   UNL A   1      39.745  21.322  25.662  1.00  0.00    -0.460 OA
BRANCH  31  32
ATOM     32  C   UNL A   1      40.340  21.204  26.870  1.00  0.00     0.338 C 
ATOM     33  O   UNL A   1      40.693  20.166  27.405  1.00  0.00    -0.246 OA
BRANCH  32  34
ATOM     34  C   UNL A   1      40.704  22.548  27.378  1.00  0.00     0.060 A 
ATOM     35  C   UNL A   1      40.142  23.666  26.740  1.00  0.00     0.016 A 
ATOM     36  C   UNL A   1      41.584  22.721  28.449  1.00  0.00     0.016 A 
ATOM     37  C   UNL A   1      40.487  24.954  27.136  1.00  0.00     0.010 A 
ATOM     38  C   UNL A   1      41.970  24.015  28.814  1.00  0.00     0.010 A 
ATOM     39  C   UNL A   1      41.457  25.132  28.126  1.00  0.00    -0.014 A 
BRANCH  39  40
ATOM     40  C   UNL A   1      42.123  26.452  28.239  1.00  0.00     0.031 A 
ATOM     41  C   UNL A   1      41.391  27.543  28.971  1.00  0.00     0.074 A 
ATOM     42  C   UNL A   1      43.361  26.664  27.763  1.00  0.00     0.049 A 
ATOM     43  N   UNL A   1      41.725  28.793  29.156  1.00  0.00    -0.248 NA
ATOM     44  C   UNL A   1      40.100  27.169  29.573  1.00  0.00     0.031 C 
ATOM     45  C   UNL A   1      44.193  25.659  27.106  1.00  0.00     0.029 A 
ATOM     46  N   UNL A   1      44.134  27.797  27.758  1.00  0.00    -0.354 N 
ATOM     47  C   UNL A   1      40.680  29.359  29.879  1.00  0.00     0.074 A 
ATOM     48  C   UNL A   1      39.686  28.325  30.065  1.00  0.00     0.031 C 
ATOM     49  C   UNL A   1      45.359  26.224  26.751  1.00  0.00     0.029 A 
ATOM     50  C   UNL A   1      45.336  27.642  27.109  1.00  0.00     0.049 A 
ATOM     51  H   UNL A   1      43.853  28.643  28.178  1.00  0.00     0.167 HD
ATOM     52  C   UNL A   1      40.567  30.625  30.348  1.00  0.00     0.034 A 
ATOM     53  C   UNL A   1      46.287  28.551  26.806  1.00  0.00     0.034 A 
ATOM     54  C   UNL A   1      41.565  31.643  30.136  1.00  0.00     0.049 A 
ATOM     55  C   UNL A   1      46.084  29.986  27.236  1.00  0.00     0.074 A 
ATOM     56  C   UNL A   1      41.557  32.956  30.569  1.00  0.00     0.029 A 
ATOM     57  N   UNL A   1      42.739  31.468  29.415  1.00  0.00    -0.354 N 
ATOM     58  N   UNL A   1      45.091  30.516  27.913  1.00  0.00    -0.248 NA
ATOM     59  C   UNL A   1      47.134  30.944  26.863  1.00  0.00     0.031 C 
ATOM     60  C   UNL A   1      42.674  33.600  30.027  1.00  0.00     0.029 A 
ATOM     61  C   UNL A   1      43.440  32.663  29.351  1.00  0.00     0.049 A 
ATOM     62  H   UNL A   1      43.031  30.621  29.009  1.00  0.00     0.167 HD
ATOM     63  C   UNL A   1      45.415  31.862  28.077  1.00  0.00     0.074 A 
ATOM     64  C   UNL A   1      46.702  32.056  27.440  1.00  0.00     0.031 C 
ATOM     65  C   UNL A   1      44.718  32.846  28.703  1.00  0.00     0.034 A 
BRANCH  52  66
ATOM     66  C   UNL A   1      39.290  30.987  31.069  1.00  0.00     0.023 A 
ATOM     67  C   UNL A   1      38.247  31.683  30.433  1.00  0.00     0.031 A 
ATOM     68  C   UNL A   1      39.132  30.666  32.429  1.00  0.00     0.131 A 
ATOM     69  C   UNL A   1      37.133  32.103  31.175  1.00  0.00     0.055 A 
ATOM     70  C   UNL A   1      37.978  31.002  33.137  1.00  0.00     0.041 A 
ATOM     71  F   UNL A   1      40.106  30.030  33.100  1.00  0.00    -0.206 F 
ATOM     72  C   UNL A   1      36.976  31.741  32.515  1.00  0.00     0.022 A 
BRANCH  69  73
ATOM     73  S   UNL A   1      35.978  33.274  30.411  1.00  0.00     0.124 S 
ATOM     74  O   UNL A   1      35.877  34.304  31.443  1.00  0.00    -0.237 OA
ATOM     75  O   UNL A   1      36.677  33.658  29.191  1.00  0.00    -0.237 OA
ATOM     76  O   UNL A   1      34.766  32.481  30.213  1.00  0.00    -0.744 OA
ENDBRANCH  69  73
ENDBRANCH  52  66
BRANCH  53  77
ATOM     77  C   UNL A   1      47.489  28.155  26.016  1.00  0.00     0.023 A 
ATOM     78  C   UNL A   1      47.491  28.219  24.614  1.00  0.00     0.031 A 
ATOM     79  C   UNL A   1      48.638  27.650  26.652  1.00  0.00     0.131 A 
ATOM     80  C   UNL A   1      48.598  27.743  23.893  1.00  0.00     0.055 A 
ATOM     81  C   UNL A   1      49.762  27.241  25.934  1.00  0.00     0.041 A 
ATOM     82  F   UNL A   1      48.688  27.553  27.990  1.00  0.00    -0.206 F 
ATOM     83  C   UNL A   1      49.742  27.274  24.544  1.00  0.00     0.022 A 
BRANCH  80  84
ATOM     84  S   UNL A   1      48.481  27.647  22.086  1.00  0.00     0.124 S 
ATOM     85  O   UNL A   1      47.148  28.185  21.847  1.00  0.00    -0.237 OA
ATOM     86  O   UNL A   1      49.598  28.487  21.665  1.00  0.00    -0.237 OA
ATOM     87  O   UNL A   1      48.639  26.221  21.810  1.00  0.00    -0.744 OA
ENDBRANCH  80  84
ENDBRANCH  53  77
BRANCH  65  88
ATOM     88  C   UNL A   1      45.360  34.212  28.780  1.00  0.00     0.023 A 
ATOM     89  C   UNL A   1      46.205  34.580  29.841  1.00  0.00     0.031 A 
ATOM     90  C   UNL A   1      45.120  35.162  27.769  1.00  0.00     0.131 A 
ATOM     91  C   UNL A   1      46.725  35.883  29.901  1.00  0.00     0.055 A 
ATOM     92  C   UNL A   1      45.706  36.428  27.793  1.00  0.00     0.041 A 
ATOM     93  F   UNL A   1      44.315  34.872  26.735  1.00  0.00    -0.206 F 
ATOM     94  C   UNL A   1      46.502  36.800  28.871  1.00  0.00     0.022 A 
BRANCH  91  95
ATOM     95  S   UNL A   1      47.597  36.403  31.404  1.00  0.00     0.124 S 
ATOM     96  O   UNL A   1      48.079  35.129  31.928  1.00  0.00    -0.237 OA
ATOM     97  O   UNL A   1      48.618  37.302  30.877  1.00  0.00    -0.237 OA
ATOM     98  O   UNL A   1      46.554  37.047  32.200  1.00  0.00    -0.744 OA
ENDBRANCH  91  95
ENDBRANCH  65  88
ENDBRANCH  39  40
ENDBRANCH  32  34
ENDBRANCH  31  32
ENDBRANCH  30  31
ENDBRANCH  29  30
ENDBRANCH  28  29
ENDBRANCH  27  28
ENDBRANCH   1  27
TORSDOF 24
ENDMDL
MODEL 3
REMARK VINA RESULT:     -10.8      2.667      3.485
REMARK SMILES O=C(OCCOCCOCCOCCOC(=O)c1ccc(-c2c3nc(c(-c4cc(S(=O)(=O)[O-])ccc4F)c4ccc([nH]4)c(-c4cc(S(=O)(=O)[O-])ccc4F)c4nc(c(-c5cc(S(=O)(=O)[O-])ccc5F)c5ccc2[nH]5)C=C4)C=C3)cc1)C1=Cc2cc(Cl)cc(Cl)c2O[C@@H]1C(F)(F)F
REMARK SMILES IDX 10 1 9 2 8 3 7 4 6 5 5 6 4 7 3 8 2 9 1 10 81 11 82 12 92 13
REMARK SMILES IDX 83 14 91 15 84 16 90 17 85 18 88 19 86 20 87 21 89 22 93 23
REMARK SMILES IDX 94 24 95 25 96 26 11 27 12 28 13 29 14 30 15 31 16 32 17 33
REMARK SMILES IDX 18 34 19 35 80 36 20 37 79 38 21 39 22 40 23 41 73 42 24 43
REMARK SMILES IDX 78 44 72 45 74 46 25 47 77 48 71 49 70 50 26 52 58 53 38 54
REMARK SMILES IDX 57 55 39 56 42 57 56 58 75 59 40 60 41 61 55 63 76 64 43 65
REMARK SMILES IDX 27 66 28 67 36 68 29 69 35 70 37 71 34 72 30 73 31 74 32 75
REMARK SMILES IDX 33 76 59 77 60 78 68 79 61 80 67 81 69 82 66 83 62 84 63 85
REMARK SMILES IDX 64 86 65 87 44 88 45 89 53 90 46 91 52 92 54 93 51 94 47 95
REMARK SMILES IDX 48 96 49 97 50 98
REMARK H PARENT 74 51 42 62
REMARK Flexibility Score: inf
ROOT
ATOM      1  C   UNL A   1      34.690  19.777  24.996  1.00  0.00     0.188 C 
ENDROOT
BRANCH   1   2
ATOM      2  O   UNL A   1      33.614  18.868  25.019  1.00  0.00    -0.377 OA
BRANCH   2   3
ATOM      3  C   UNL A   1      32.558  19.289  24.192  1.00  0.00     0.188 C 
BRANCH   3   4
ATOM      4  C   UNL A   1      32.549  20.793  23.889  1.00  0.00     0.188 C 
BRANCH   4   5
ATOM      5  O   UNL A   1      32.160  21.835  24.846  1.00  0.00    -0.376 OA
BRANCH   5   6
ATOM      6  C   UNL A   1      30.705  22.433  25.357  1.00  0.00     0.202 C 
BRANCH   6   7
ATOM      7  C   UNL A   1      30.361  23.984  26.854  1.00  0.00     0.261 C 
BRANCH   7   8
ATOM      8  O   UNL A   1      30.821  25.429  26.778  1.00  0.00    -0.460 OA
BRANCH   8   9
ATOM      9  C   UNL A   1      30.129  26.137  25.876  1.00  0.00     0.338 C 
ATOM     10  O   UNL A   1      29.019  25.930  25.452  1.00  0.00    -0.246 OA
BRANCH   9  11
ATOM     11  C   UNL A   1      31.265  26.828  25.291  1.00  0.00     0.087 C 
ATOM     12  C   UNL A   1      32.569  26.319  25.735  1.00  0.00     0.027 C 
ATOM     13  C   UNL A   1      30.583  26.686  23.500  1.00  0.00     0.316 C 
ATOM     14  C   UNL A   1      33.639  25.269  24.733  1.00  0.00     0.020 A 
ATOM     15  O   UNL A   1      31.644  25.444  22.437  1.00  0.00    -0.474 OA
ATOM     16  C   UNL A   1      34.797  24.790  25.283  1.00  0.00     0.032 A 
ATOM     17  C   UNL A   1      33.179  24.724  23.153  1.00  0.00     0.146 A 
ATOM     18  C   UNL A   1      35.519  23.894  24.474  1.00  0.00     0.043 A 
ATOM     19  C   UNL A   1      33.928  23.792  22.474  1.00  0.00     0.085 A 
ATOM     20  Cl  UNL A   1      37.000  23.278  25.138  1.00  0.00    -0.084 Cl
ATOM     21  C   UNL A   1      35.114  23.419  23.159  1.00  0.00     0.045 A 
ATOM     22  Cl  UNL A   1      33.490  23.016  21.024  1.00  0.00    -0.080 Cl
BRANCH  13  23
ATOM     23  C   UNL A   1      30.316  28.327  23.384  1.00  0.00     0.430 C 
ATOM     24  F   UNL A   1      31.085  29.158  24.110  1.00  0.00    -0.167 F 
ATOM     25  F   UNL A   1      30.600  28.672  22.088  1.00  0.00    -0.167 F 
ATOM     26  F   UNL A   1      29.025  28.713  23.548  1.00  0.00    -0.167 F 
ENDBRANCH  13  23
ENDBRANCH   9  11
ENDBRANCH   8   9
ENDBRANCH   7   8
ENDBRANCH   6   7
ENDBRANCH   5   6
ENDBRANCH   4   5
ENDBRANCH   3   4
ENDBRANCH   2   3
ENDBRANCH   1   2
BRANCH   1  27
ATOM     27  C   UNL A   1      36.079  19.181  24.739  1.00  0.00     0.188 C 
BRANCH  27  28
ATOM     28  O   UNL A   1      37.269  19.938  24.861  1.00  0.00    -0.376 OA
BRANCH  28  29
ATOM     29  C   UNL A   1      38.516  19.316  25.104  1.00  0.00     0.202 C 
BRANCH  29  30
ATOM     30  C   UNL A   1      39.571  19.912  26.053  1.00  0.00     0.261 C 
BRANCH  30  31
ATOM     31  O   UNL A   1      40.681  19.077  26.401  1.00  0.00    -0.460 OA
BRANCH  31  32
ATOM     32  C   UNL A   1      41.897  19.658  26.293  1.00  0.00     0.338 C 
ATOM     33  O   UNL A   1      42.879  19.185  25.747  1.00  0.00    -0.246 OA
BRANCH  32  34
ATOM     34  C   UNL A   1      41.818  21.066  26.753  1.00  0.00     0.060 A 
ATOM     35  C   UNL A   1      41.425  22.041  25.822  1.00  0.00     0.016 A 
ATOM     36  C   UNL A   1      42.128  21.433  28.064  1.00  0.00     0.016 A 
ATOM     37  C   UNL A   1      41.384  23.384  26.179  1.00  0.00     0.010 A 
ATOM     38  C   UNL A   1      42.136  22.789  28.410  1.00  0.00     0.010 A 
ATOM     39  C   UNL A   1      41.808  23.770  27.453  1.00  0.00    -0.014 A 
BRANCH  39  40
ATOM     40  C   UNL A   1      42.170  25.190  27.682  1.00  0.00     0.031 A 
ATOM     41  C   UNL A   1      43.526  25.647  27.218  1.00  0.00     0.074 A 
ATOM     42  C   UNL A   1      41.306  26.063  28.225  1.00  0.00     0.049 A 
ATOM     43  N   UNL A   1      44.103  26.812  27.350  1.00  0.00    -0.248 NA
ATOM     44  C   UNL A   1      44.343  24.646  26.512  1.00  0.00     0.031 C 
ATOM     45  C   UNL A   1      39.941  25.749  28.639  1.00  0.00     0.029 A 
ATOM     46  N   UNL A   1      41.452  27.393  28.525  1.00  0.00    -0.354 N 
ATOM     47  C   UNL A   1      45.356  26.680  26.760  1.00  0.00     0.074 A 
ATOM     48  C   UNL A   1      45.467  25.312  26.304  1.00  0.00     0.031 C 
ATOM     49  C   UNL A   1      39.376  26.856  29.150  1.00  0.00     0.029 A 
ATOM     50  C   UNL A   1      40.355  27.942  29.147  1.00  0.00     0.049 A 
ATOM     51  H   UNL A   1      42.266  27.907  28.316  1.00  0.00     0.167 HD
ATOM     52  C   UNL A   1      46.321  27.619  26.610  1.00  0.00     0.034 A 
ATOM     53  C   UNL A   1      40.180  29.167  29.684  1.00  0.00     0.034 A 
ATOM     54  C   UNL A   1      46.194  28.973  27.087  1.00  0.00     0.049 A 
ATOM     55  C   UNL A   1      41.316  30.163  29.611  1.00  0.00     0.074 A 
ATOM     56  C   UNL A   1      47.104  30.009  26.986  1.00  0.00     0.029 A 
ATOM     57  N   UNL A   1      45.094  29.474  27.774  1.00  0.00    -0.354 N 
ATOM     58  N   UNL A   1      42.500  30.030  29.058  1.00  0.00    -0.248 NA
ATOM     59  C   UNL A   1      41.088  31.475  30.232  1.00  0.00     0.031 C 
ATOM     60  C   UNL A   1      46.600  31.103  27.696  1.00  0.00     0.029 A 
ATOM     61  C   UNL A   1      45.326  30.791  28.143  1.00  0.00     0.049 A 
ATOM     62  H   UNL A   1      44.273  28.970  27.969  1.00  0.00     0.167 HD
ATOM     63  C   UNL A   1      43.144  31.254  29.234  1.00  0.00     0.074 A 
ATOM     64  C   UNL A   1      42.209  32.114  29.931  1.00  0.00     0.031 C 
ATOM     65  C   UNL A   1      44.389  31.635  28.848  1.00  0.00     0.034 A 
BRANCH  52  66
ATOM     66  C   UNL A   1      47.617  27.186  25.967  1.00  0.00     0.023 A 
ATOM     67  C   UNL A   1      48.592  26.457  26.671  1.00  0.00     0.031 A 
ATOM     68  C   UNL A   1      47.901  27.547  24.637  1.00  0.00     0.131 A 
ATOM     69  C   UNL A   1      49.829  26.182  26.070  1.00  0.00     0.055 A 
ATOM     70  C   UNL A   1      49.095  27.186  24.013  1.00  0.00     0.041 A 
ATOM     71  F   UNL A   1      47.024  28.270  23.922  1.00  0.00    -0.206 F 
ATOM     72  C   UNL A   1      50.076  26.515  24.736  1.00  0.00     0.022 A 
BRANCH  69  73
ATOM     73  S   UNL A   1      51.170  25.541  27.109  1.00  0.00     0.124 S 
ATOM     74  O   UNL A   1      50.427  24.793  28.120  1.00  0.00    -0.237 OA
ATOM     75  O   UNL A   1      51.946  24.743  26.167  1.00  0.00    -0.237 OA
ATOM     76  O   UNL A   1      51.832  26.749  27.598  1.00  0.00    -0.744 OA
ENDBRANCH  69  73
ENDBRANCH  52  66
BRANCH  53  77
ATOM     77  C   UNL A   1      38.908  29.513  30.384  1.00  0.00     0.023 A 
ATOM     78  C   UNL A   1      37.928  30.302  29.763  1.00  0.00     0.031 A 
ATOM     79  C   UNL A   1      38.680  29.105  31.712  1.00  0.00     0.131 A 
ATOM     80  C   UNL A   1      36.788  30.697  30.482  1.00  0.00     0.055 A 
ATOM     81  C   UNL A   1      37.514  29.444  32.399  1.00  0.00     0.041 A 
ATOM     82  F   UNL A   1      39.589  28.360  32.361  1.00  0.00    -0.206 F 
ATOM     83  C   UNL A   1      36.564  30.256  31.789  1.00  0.00     0.022 A 
BRANCH  80  84
ATOM     84  S   UNL A   1      35.649  31.884  29.720  1.00  0.00     0.124 S 
ATOM     85  O   UNL A   1      34.810  32.257  30.852  1.00  0.00    -0.237 OA
ATOM     86  O   UNL A   1      36.563  32.910  29.231  1.00  0.00    -0.237 OA
ATOM     87  O   UNL A   1      34.984  31.099  28.681  1.00  0.00    -0.744 OA
ENDBRANCH  80  84
ENDBRANCH  53  77
BRANCH  65  88
ATOM     88  C   UNL A   1      44.794  33.066  29.121  1.00  0.00     0.023 A 
ATOM     89  C   UNL A   1      44.380  34.128  28.299  1.00  0.00     0.031 A 
ATOM     90  C   UNL A   1      45.610  33.368  30.227  1.00  0.00     0.131 A 
ATOM     91  C   UNL A   1      44.836  35.430  28.557  1.00  0.00     0.055 A 
ATOM     92  C   UNL A   1      45.993  34.677  30.525  1.00  0.00     0.041 A 
ATOM     93  F   UNL A   1      46.045  32.395  31.044  1.00  0.00    -0.206 F 
ATOM     94  C   UNL A   1      45.619  35.715  29.678  1.00  0.00     0.022 A 
BRANCH  91  95
ATOM     95  S   UNL A   1      44.495  36.728  27.337  1.00  0.00     0.124 S 
ATOM     96  O   UNL A   1      43.498  36.087  26.486  1.00  0.00    -0.237 OA
ATOM     97  O   UNL A   1      44.010  37.822  28.172  1.00  0.00    -0.237 OA
ATOM     98  O   UNL A   1      45.794  36.957  26.708  1.00  0.00    -0.744 OA
ENDBRANCH  91  95
ENDBRANCH  65  88
ENDBRANCH  39  40
ENDBRANCH  32  34
ENDBRANCH  31  32
ENDBRANCH  30  31
ENDBRANCH  29  30
ENDBRANCH  28  29
ENDBRANCH  27  28
ENDBRANCH   1  27
TORSDOF 24
ENDMDL
