MODEL 1
REMARK VINA RESULT:     -10.1      0.000      0.000
REMARK SMILES Cc1ccccc1OCC(=O)N[C@@H](Cc1c[nH]c2ccccc12)C(=O)OCCOCCOCCOCCOC(=O)c1ccc(-c2c3nc(c(-c4cc(S(=O)(=O)[O-])ccc4F)c4ccc([nH]4)c(-c4cc(S(=O)(=O)[O-])ccc4F)c4nc(c(-c5cc(S(=O)(=O)[O-])ccc5F)c5ccc2[nH]5)C=C4)C=C3)cc1
REMARK SMILES IDX 31 1 30 2 29 3 28 4 27 5 26 6 24 7 25 8 13 9 12 10 10 11
REMARK SMILES IDX 11 12 9 14 8 15 7 16 1 17 2 18 3 19 4 20 6 21 5 22 14 23
REMARK SMILES IDX 15 24 16 25 23 26 17 27 18 28 22 29 19 31 21 32 20 33 32 34
REMARK SMILES IDX 33 35 34 36 35 37 36 38 37 39 38 40 39 41 40 42 41 43 42 44
REMARK SMILES IDX 103 45 43 46 102 47 44 48 45 49 46 50 96 51 47 52 101 53
REMARK SMILES IDX 95 54 97 55 48 56 100 57 94 58 93 59 49 61 81 62 61 63 80 64
REMARK SMILES IDX 62 65 65 66 79 67 98 68 63 69 64 70 78 72 99 73 66 74 50 75
REMARK SMILES IDX 51 76 59 77 52 78 58 79 60 80 57 81 53 82 54 83 55 84 56 85
REMARK SMILES IDX 82 86 83 87 91 88 84 89 90 90 92 91 89 92 85 93 86 94 87 95
REMARK SMILES IDX 88 96 67 97 68 98 76 99 69 100 75 101 77 102 74 103 70 104
REMARK SMILES IDX 71 105 72 106 73 107
REMARK H PARENT 12 13 17 30 97 60 65 71
REMARK Flexibility Score: inf
ROOT
ATOM      1  C   UNL A   1      32.218  29.654  26.381  1.00  0.00     0.188 C 
ENDROOT
BRANCH   1   2
ATOM      2  C   UNL A   1      31.409  28.684  27.222  1.00  0.00     0.188 C 
BRANCH   2   3
ATOM      3  O   UNL A   1      31.808  27.346  27.025  1.00  0.00    -0.376 OA
BRANCH   3   4
ATOM      4  C   UNL A   1      30.782  26.443  26.642  1.00  0.00     0.202 C 
BRANCH   4   5
ATOM      5  C   UNL A   1      31.016  24.945  26.336  1.00  0.00     0.261 C 
BRANCH   5   6
ATOM      6  O   UNL A   1      32.298  24.369  26.616  1.00  0.00    -0.462 OA
BRANCH   6   7
ATOM      7  C   UNL A   1      33.140  24.263  25.564  1.00  0.00     0.329 C 
ATOM      8  O   UNL A   1      34.298  24.677  25.558  1.00  0.00    -0.250 OA
BRANCH   7   9
ATOM      9  C   UNL A   1      32.557  23.505  24.362  1.00  0.00     0.196 C 
BRANCH   9  10
ATOM     10  N   UNL A   1      33.256  23.657  23.093  1.00  0.00    -0.339 N 
ATOM     11  C   UNL A   1      32.852  24.393  22.018  1.00  0.00     0.258 C 
ATOM     12  O   UNL A   1      33.371  24.190  20.922  1.00  0.00    -0.271 OA
ATOM     13  H   UNL A   1      34.111  23.178  23.003  1.00  0.00     0.164 HD
BRANCH  11  14
ATOM     14  C   UNL A   1      31.773  25.495  22.213  1.00  0.00     0.329 C 
BRANCH  14  15
ATOM     15  O   UNL A   1      31.604  26.313  23.350  1.00  0.00    -0.484 OA
BRANCH  15  16
ATOM     16  C   UNL A   1      30.826  27.402  23.110  1.00  0.00     0.122 A 
ATOM     17  C   UNL A   1      32.800  28.960  22.591  1.00  0.00     0.048 C 
ATOM     18  C   UNL A   1      31.335  28.655  22.750  1.00  0.00    -0.009 A 
ATOM     19  C   UNL A   1      30.416  29.683  22.502  1.00  0.00     0.007 A 
ATOM     20  C   UNL A   1      29.041  29.467  22.641  1.00  0.00     0.001 A 
ATOM     21  C   UNL A   1      29.457  27.193  23.286  1.00  0.00     0.047 A 
ATOM     22  C   UNL A   1      28.561  28.224  23.040  1.00  0.00     0.004 A 
ENDBRANCH  15  16
ENDBRANCH  14  15
ENDBRANCH  11  14
ENDBRANCH   9  10
BRANCH   9  23
ATOM     23  C   UNL A   1      32.145  22.059  24.671  1.00  0.00     0.074 C 
BRANCH  23  24
ATOM     24  C   UNL A   1      33.215  21.003  24.725  1.00  0.00    -0.020 A 
ATOM     25  C   UNL A   1      34.377  21.082  25.457  1.00  0.00     0.087 A 
ATOM     26  C   UNL A   1      33.223  19.697  24.120  1.00  0.00     0.003 A 
ATOM     27  N   UNL A   1      35.056  19.903  25.368  1.00  0.00    -0.361 N 
ATOM     28  C   UNL A   1      34.363  19.026  24.572  1.00  0.00     0.046 A 
ATOM     29  C   UNL A   1      32.365  19.015  23.231  1.00  0.00     0.010 A 
ATOM     30  H   UNL A   1      35.915  19.709  25.807  1.00  0.00     0.166 HD
ATOM     31  C   UNL A   1      34.667  17.706  24.221  1.00  0.00     0.026 A 
ATOM     32  C   UNL A   1      32.672  17.703  22.845  1.00  0.00     0.001 A 
ATOM     33  C   UNL A   1      33.798  17.054  23.344  1.00  0.00     0.002 A 
ENDBRANCH  23  24
ENDBRANCH   9  23
ENDBRANCH   7   9
ENDBRANCH   6   7
ENDBRANCH   5   6
ENDBRANCH   4   5
ENDBRANCH   3   4
ENDBRANCH   2   3
ENDBRANCH   1   2
BRANCH   1  34
ATOM     34  O   UNL A   1      31.386  30.647  25.798  1.00  0.00    -0.377 OA
BRANCH  34  35
ATOM     35  C   UNL A   1      31.385  31.901  26.473  1.00  0.00     0.188 C 
BRANCH  35  36
ATOM     36  C   UNL A   1      32.547  31.975  27.444  1.00  0.00     0.188 C 
BRANCH  36  37
ATOM     37  O   UNL A   1      32.879  33.358  27.635  1.00  0.00    -0.376 OA
BRANCH  37  38
ATOM     38  C   UNL A   1      33.951  33.587  28.535  1.00  0.00     0.202 C 
BRANCH  38  39
ATOM     39  C   UNL A   1      35.266  33.019  28.007  1.00  0.00     0.261 C 
BRANCH  39  40
ATOM     40  O   UNL A   1      35.508  31.745  28.643  1.00  0.00    -0.460 OA
BRANCH  40  41
ATOM     41  C   UNL A   1      35.644  30.702  27.777  1.00  0.00     0.338 C 
ATOM     42  O   UNL A   1      34.918  30.497  26.825  1.00  0.00    -0.246 OA
BRANCH  41  43
ATOM     43  C   UNL A   1      36.755  29.799  28.206  1.00  0.00     0.060 A 
ATOM     44  C   UNL A   1      36.767  29.286  29.515  1.00  0.00     0.016 A 
ATOM     45  C   UNL A   1      37.890  29.674  27.409  1.00  0.00     0.016 A 
ATOM     46  C   UNL A   1      37.955  28.782  30.065  1.00  0.00     0.010 A 
ATOM     47  C   UNL A   1      39.083  29.284  27.991  1.00  0.00     0.010 A 
ATOM     48  C   UNL A   1      39.140  28.864  29.328  1.00  0.00    -0.014 A 
BRANCH  48  49
ATOM     49  C   UNL A   1      40.499  28.799  29.898  1.00  0.00     0.031 A 
ATOM     50  C   UNL A   1      41.404  27.635  29.619  1.00  0.00     0.074 A 
ATOM     51  C   UNL A   1      41.026  29.982  30.296  1.00  0.00     0.049 A 
ATOM     52  N   UNL A   1      42.625  27.517  30.026  1.00  0.00    -0.248 NA
ATOM     53  C   UNL A   1      40.986  26.471  28.840  1.00  0.00     0.031 C 
ATOM     54  C   UNL A   1      42.429  30.372  30.249  1.00  0.00     0.029 A 
ATOM     55  N   UNL A   1      40.424  31.136  30.755  1.00  0.00    -0.354 N 
ATOM     56  C   UNL A   1      43.235  26.482  29.334  1.00  0.00     0.074 A 
ATOM     57  C   UNL A   1      42.136  25.802  28.698  1.00  0.00     0.031 C 
ATOM     58  C   UNL A   1      42.591  31.607  30.743  1.00  0.00     0.029 A 
ATOM     59  C   UNL A   1      41.363  31.939  31.406  1.00  0.00     0.049 A 
ATOM     60  H   UNL A   1      39.472  31.361  30.640  1.00  0.00     0.167 HD
ATOM     61  C   UNL A   1      44.604  26.404  29.289  1.00  0.00     0.034 A 
ATOM     62  C   UNL A   1      41.293  32.184  32.745  1.00  0.00     0.034 A 
ATOM     63  C   UNL A   1      45.244  27.334  30.253  1.00  0.00     0.049 A 
ATOM     64  C   UNL A   1      42.362  31.374  33.503  1.00  0.00     0.074 A 
ATOM     65  C   UNL A   1      46.329  28.195  30.213  1.00  0.00     0.029 A 
ATOM     66  N   UNL A   1      44.647  27.559  31.504  1.00  0.00    -0.354 N 
ATOM     67  N   UNL A   1      43.067  30.397  32.966  1.00  0.00    -0.248 NA
ATOM     68  C   UNL A   1      42.808  31.653  34.865  1.00  0.00     0.031 C 
ATOM     69  C   UNL A   1      46.328  28.964  31.407  1.00  0.00     0.029 A 
ATOM     70  C   UNL A   1      45.233  28.605  32.179  1.00  0.00     0.049 A 
ATOM     71  H   UNL A   1      43.896  27.029  31.856  1.00  0.00     0.167 HD
ATOM     72  C   UNL A   1      44.007  29.923  33.840  1.00  0.00     0.074 A 
ATOM     73  C   UNL A   1      43.809  30.763  35.015  1.00  0.00     0.031 C 
ATOM     74  C   UNL A   1      44.877  28.893  33.566  1.00  0.00     0.034 A 
BRANCH  61  75
ATOM     75  C   UNL A   1      45.437  25.620  28.242  1.00  0.00     0.023 A 
ATOM     76  C   UNL A   1      46.096  26.317  27.195  1.00  0.00     0.031 A 
ATOM     77  C   UNL A   1      45.524  24.213  28.124  1.00  0.00     0.131 A 
ATOM     78  C   UNL A   1      46.718  25.652  26.110  1.00  0.00     0.055 A 
ATOM     79  C   UNL A   1      46.214  23.552  27.090  1.00  0.00     0.041 A 
ATOM     80  F   UNL A   1      44.906  23.378  28.964  1.00  0.00    -0.206 F 
ATOM     81  C   UNL A   1      46.801  24.268  26.064  1.00  0.00     0.022 A 
BRANCH  78  82
ATOM     82  S   UNL A   1      47.371  26.617  24.711  1.00  0.00     0.124 S 
ATOM     83  O   UNL A   1      46.199  27.387  24.304  1.00  0.00    -0.237 OA
ATOM     84  O   UNL A   1      48.457  27.370  25.325  1.00  0.00    -0.237 OA
ATOM     85  O   UNL A   1      47.795  25.591  23.758  1.00  0.00    -0.744 OA
ENDBRANCH  78  82
ENDBRANCH  61  75
BRANCH  62  86
ATOM     86  C   UNL A   1      39.914  32.679  33.092  1.00  0.00     0.023 A 
ATOM     87  C   UNL A   1      39.304  31.922  34.133  1.00  0.00     0.031 A 
ATOM     88  C   UNL A   1      39.620  34.053  33.047  1.00  0.00     0.131 A 
ATOM     89  C   UNL A   1      38.731  32.575  35.241  1.00  0.00     0.055 A 
ATOM     90  C   UNL A   1      38.983  34.692  34.127  1.00  0.00     0.041 A 
ATOM     91  F   UNL A   1      40.138  34.830  32.085  1.00  0.00    -0.206 F 
ATOM     92  C   UNL A   1      38.608  33.964  35.260  1.00  0.00     0.022 A 
BRANCH  89  93
ATOM     93  S   UNL A   1      38.476  31.639  36.792  1.00  0.00     0.124 S 
ATOM     94  O   UNL A   1      37.129  32.049  37.173  1.00  0.00    -0.237 OA
ATOM     95  O   UNL A   1      38.621  30.255  36.365  1.00  0.00    -0.237 OA
ATOM     96  O   UNL A   1      39.554  32.128  37.653  1.00  0.00    -0.744 OA
ENDBRANCH  89  93
ENDBRANCH  62  86
BRANCH  74  97
ATOM     97  C   UNL A   1      45.566  28.050  34.624  1.00  0.00     0.023 A 
ATOM     98  C   UNL A   1      44.981  26.896  35.147  1.00  0.00     0.031 A 
ATOM     99  C   UNL A   1      46.898  28.298  35.050  1.00  0.00     0.131 A 
ATOM    100  C   UNL A   1      45.628  26.127  36.124  1.00  0.00     0.055 A 
ATOM    101  C   UNL A   1      47.580  27.478  35.953  1.00  0.00     0.041 A 
ATOM    102  F   UNL A   1      47.622  29.328  34.589  1.00  0.00    -0.206 F 
ATOM    103  C   UNL A   1      46.934  26.393  36.517  1.00  0.00     0.022 A 
BRANCH 100 104
ATOM    104  S   UNL A   1      44.658  24.829  36.919  1.00  0.00     0.124 S 
ATOM    105  O   UNL A   1      44.728  23.762  35.922  1.00  0.00    -0.237 OA
ATOM    106  O   UNL A   1      45.404  24.589  38.149  1.00  0.00    -0.237 OA
ATOM    107  O   UNL A   1      43.343  25.439  37.091  1.00  0.00    -0.744 OA
ENDBRANCH 100 104
ENDBRANCH  74  97
ENDBRANCH  48  49
ENDBRANCH  41  43
ENDBRANCH  40  41
ENDBRANCH  39  40
ENDBRANCH  38  39
ENDBRANCH  37  38
ENDBRANCH  36  37
ENDBRANCH  35  36
ENDBRANCH  34  35
ENDBRANCH   1  34
TORSDOF 29
ENDMDL
MODEL 2
REMARK VINA RESULT:      -9.7      3.029      7.968
REMARK SMILES Cc1ccccc1OCC(=O)N[C@@H](Cc1c[nH]c2ccccc12)C(=O)OCCOCCOCCOCCOC(=O)c1ccc(-c2c3nc(c(-c4cc(S(=O)(=O)[O-])ccc4F)c4ccc([nH]4)c(-c4cc(S(=O)(=O)[O-])ccc4F)c4nc(c(-c5cc(S(=O)(=O)[O-])ccc5F)c5ccc2[nH]5)C=C4)C=C3)cc1
REMARK SMILES IDX 31 1 30 2 29 3 28 4 27 5 26 6 24 7 25 8 13 9 12 10 10 11
REMARK SMILES IDX 11 12 9 14 8 15 7 16 1 17 2 18 3 19 4 20 6 21 5 22 14 23
REMARK SMILES IDX 15 24 16 25 23 26 17 27 18 28 22 29 19 31 21 32 20 33 32 34
REMARK SMILES IDX 33 35 34 36 35 37 36 38 37 39 38 40 39 41 40 42 41 43 42 44
REMARK SMILES IDX 103 45 43 46 102 47 44 48 45 49 46 50 96 51 47 52 101 53
REMARK SMILES IDX 95 54 97 55 48 56 100 57 94 58 93 59 49 61 81 62 61 63 80 64
REMARK SMILES IDX 62 65 65 66 79 67 98 68 63 69 64 70 78 72 99 73 66 74 50 75
REMARK SMILES IDX 51 76 59 77 52 78 58 79 60 80 57 81 53 82 54 83 55 84 56 85
REMARK SMILES IDX 82 86 83 87 91 88 84 89 90 90 92 91 89 92 85 93 86 94 87 95
REMARK SMILES IDX 88 96 67 97 68 98 76 99 69 100 75 101 77 102 74 103 70 104
REMARK SMILES IDX 71 105 72 106 73 107
REMARK H PARENT 12 13 17 30 97 60 65 71
REMARK Flexibility Score: inf
ROOT
ATOM      1  C   UNL A   1      32.238  29.276  27.098  1.00  0.00     0.188 C 
ENDROOT
BRANCH   1   2
ATOM      2  C   UNL A   1      31.333  28.144  27.545  1.00  0.00     0.188 C 
BRANCH   2   3
ATOM      3  O   UNL A   1      31.690  26.912  26.960  1.00  0.00    -0.376 OA
BRANCH   3   4
ATOM      4  C   UNL A   1      30.619  26.019  26.693  1.00  0.00     0.202 C 
BRANCH   4   5
ATOM      5  C   UNL A   1      30.798  24.504  26.440  1.00  0.00     0.261 C 
BRANCH   5   6
ATOM      6  O   UNL A   1      32.080  23.905  26.671  1.00  0.00    -0.462 OA
BRANCH   6   7
ATOM      7  C   UNL A   1      32.942  23.934  25.631  1.00  0.00     0.329 C 
ATOM      8  O   UNL A   1      34.046  24.473  25.660  1.00  0.00    -0.250 OA
BRANCH   7   9
ATOM      9  C   UNL A   1      32.462  23.162  24.392  1.00  0.00     0.196 C 
BRANCH   9  10
ATOM     10  N   UNL A   1      33.209  23.378  23.160  1.00  0.00    -0.339 N 
ATOM     11  C   UNL A   1      32.892  24.238  22.150  1.00  0.00     0.258 C 
ATOM     12  O   UNL A   1      33.428  24.099  21.052  1.00  0.00    -0.271 OA
ATOM     13  H   UNL A   1      34.029  22.846  23.045  1.00  0.00     0.164 HD
BRANCH  11  14
ATOM     14  C   UNL A   1      31.891  25.396  22.423  1.00  0.00     0.329 C 
BRANCH  14  15
ATOM     15  O   UNL A   1      31.923  26.296  23.509  1.00  0.00    -0.484 OA
BRANCH  15  16
ATOM     16  C   UNL A   1      31.033  27.316  23.379  1.00  0.00     0.122 A 
ATOM     17  C   UNL A   1      32.824  29.155  23.346  1.00  0.00     0.048 C 
ATOM     18  C   UNL A   1      31.403  28.663  23.296  1.00  0.00    -0.009 A 
ATOM     19  C   UNL A   1      30.382  29.608  23.134  1.00  0.00     0.007 A 
ATOM     20  C   UNL A   1      29.040  29.217  23.090  1.00  0.00     0.001 A 
ATOM     21  C   UNL A   1      29.693  26.925  23.373  1.00  0.00     0.047 A 
ATOM     22  C   UNL A   1      28.694  27.875  23.216  1.00  0.00     0.004 A 
ENDBRANCH  15  16
ENDBRANCH  14  15
ENDBRANCH  11  14
ENDBRANCH   9  10
BRANCH   9  23
ATOM     23  C   UNL A   1      32.125  21.689  24.661  1.00  0.00     0.074 C 
BRANCH  23  24
ATOM     24  C   UNL A   1      33.247  20.688  24.684  1.00  0.00    -0.020 A 
ATOM     25  C   UNL A   1      34.433  20.836  25.366  1.00  0.00     0.087 A 
ATOM     26  C   UNL A   1      33.295  19.375  24.097  1.00  0.00     0.003 A 
ATOM     27  N   UNL A   1      35.165  19.690  25.264  1.00  0.00    -0.361 N 
ATOM     28  C   UNL A   1      34.485  18.767  24.510  1.00  0.00     0.046 A 
ATOM     29  C   UNL A   1      32.436  18.637  23.255  1.00  0.00     0.010 A 
ATOM     30  H   UNL A   1      36.051  19.546  25.670  1.00  0.00     0.166 HD
ATOM     31  C   UNL A   1      34.840  17.458  24.165  1.00  0.00     0.026 A 
ATOM     32  C   UNL A   1      32.792  17.335  22.874  1.00  0.00     0.001 A 
ATOM     33  C   UNL A   1      33.969  16.751  23.335  1.00  0.00     0.002 A 
ENDBRANCH  23  24
ENDBRANCH   9  23
ENDBRANCH   7   9
ENDBRANCH   6   7
ENDBRANCH   5   6
ENDBRANCH   4   5
ENDBRANCH   3   4
ENDBRANCH   2   3
ENDBRANCH   1   2
BRANCH   1  34
ATOM     34  O   UNL A   1      31.492  30.327  26.501  1.00  0.00    -0.377 OA
BRANCH  34  35
ATOM     35  C   UNL A   1      31.953  31.640  26.806  1.00  0.00     0.188 C 
BRANCH  35  36
ATOM     36  C   UNL A   1      33.281  31.572  27.533  1.00  0.00     0.188 C 
BRANCH  36  37
ATOM     37  O   UNL A   1      33.679  32.913  27.856  1.00  0.00    -0.376 OA
BRANCH  37  38
ATOM     38  C   UNL A   1      34.891  33.007  28.588  1.00  0.00     0.202 C 
BRANCH  38  39
ATOM     39  C   UNL A   1      35.919  31.981  28.119  1.00  0.00     0.261 C 
BRANCH  39  40
ATOM     40  O   UNL A   1      35.879  30.845  29.008  1.00  0.00    -0.460 OA
BRANCH  40  41
ATOM     41  C   UNL A   1      36.298  29.676  28.446  1.00  0.00     0.338 C 
ATOM     42  O   UNL A   1      35.629  28.992  27.698  1.00  0.00    -0.246 OA
BRANCH  41  43
ATOM     43  C   UNL A   1      37.659  29.308  28.943  1.00  0.00     0.060 A 
ATOM     44  C   UNL A   1      37.901  29.250  30.326  1.00  0.00     0.016 A 
ATOM     45  C   UNL A   1      38.731  29.274  28.056  1.00  0.00     0.016 A 
ATOM     46  C   UNL A   1      39.215  29.303  30.816  1.00  0.00     0.010 A 
ATOM     47  C   UNL A   1      40.015  29.441  28.543  1.00  0.00     0.010 A 
ATOM     48  C   UNL A   1      40.273  29.489  29.921  1.00  0.00    -0.014 A 
BRANCH  48  49
ATOM     49  C   UNL A   1      41.610  29.996  30.283  1.00  0.00     0.031 A 
ATOM     50  C   UNL A   1      41.846  31.457  30.527  1.00  0.00     0.074 A 
ATOM     51  C   UNL A   1      42.467  29.080  30.794  1.00  0.00     0.049 A 
ATOM     52  N   UNL A   1      42.965  31.986  30.902  1.00  0.00    -0.248 NA
ATOM     53  C   UNL A   1      40.808  32.471  30.354  1.00  0.00     0.031 C 
ATOM     54  C   UNL A   1      43.493  29.312  31.803  1.00  0.00     0.029 A 
ATOM     55  N   UNL A   1      42.564  27.717  30.596  1.00  0.00    -0.354 N 
ATOM     56  C   UNL A   1      42.733  33.288  31.318  1.00  0.00     0.074 A 
ATOM     57  C   UNL A   1      41.401  33.565  30.848  1.00  0.00     0.031 C 
ATOM     58  C   UNL A   1      44.167  28.183  32.057  1.00  0.00     0.029 A 
ATOM     59  C   UNL A   1      43.817  27.262  31.014  1.00  0.00     0.049 A 
ATOM     60  H   UNL A   1      41.856  27.149  30.216  1.00  0.00     0.167 HD
ATOM     61  C   UNL A   1      43.653  33.924  32.112  1.00  0.00     0.034 A 
ATOM     62  C   UNL A   1      44.732  26.767  30.131  1.00  0.00     0.034 A 
ATOM     63  C   UNL A   1      44.932  33.176  32.188  1.00  0.00     0.049 A 
ATOM     64  C   UNL A   1      45.859  27.787  29.888  1.00  0.00     0.074 A 
ATOM     65  C   UNL A   1      45.823  32.856  33.201  1.00  0.00     0.029 A 
ATOM     66  N   UNL A   1      45.412  32.500  31.055  1.00  0.00    -0.354 N 
ATOM     67  N   UNL A   1      45.812  29.048  30.274  1.00  0.00    -0.248 NA
ATOM     68  C   UNL A   1      47.159  27.468  29.304  1.00  0.00     0.031 C 
ATOM     69  C   UNL A   1      46.781  31.947  32.677  1.00  0.00     0.029 A 
ATOM     70  C   UNL A   1      46.476  31.679  31.350  1.00  0.00     0.049 A 
ATOM     71  H   UNL A   1      45.030  32.602  30.154  1.00  0.00     0.167 HD
ATOM     72  C   UNL A   1      46.989  29.694  30.011  1.00  0.00     0.074 A 
ATOM     73  C   UNL A   1      47.808  28.644  29.415  1.00  0.00     0.031 C 
ATOM     74  C   UNL A   1      47.229  31.020  30.287  1.00  0.00     0.034 A 
BRANCH  61  75
ATOM     75  C   UNL A   1      43.379  35.159  33.011  1.00  0.00     0.023 A 
ATOM     76  C   UNL A   1      42.550  35.031  34.157  1.00  0.00     0.031 A 
ATOM     77  C   UNL A   1      43.774  36.491  32.746  1.00  0.00     0.131 A 
ATOM     78  C   UNL A   1      42.116  36.148  34.912  1.00  0.00     0.055 A 
ATOM     79  C   UNL A   1      43.411  37.592  33.546  1.00  0.00     0.041 A 
ATOM     80  F   UNL A   1      44.491  36.832  31.672  1.00  0.00    -0.206 F 
ATOM     81  C   UNL A   1      42.563  37.430  34.626  1.00  0.00     0.022 A 
BRANCH  78  82
ATOM     82  S   UNL A   1      40.901  35.921  36.248  1.00  0.00     0.124 S 
ATOM     83  O   UNL A   1      39.792  36.752  35.791  1.00  0.00    -0.237 OA
ATOM     84  O   UNL A   1      40.678  34.480  36.231  1.00  0.00    -0.237 OA
ATOM     85  O   UNL A   1      41.599  36.421  37.432  1.00  0.00    -0.744 OA
ENDBRANCH  78  82
ENDBRANCH  61  75
BRANCH  62  86
ATOM     86  C   UNL A   1      44.088  25.697  29.290  1.00  0.00     0.023 A 
ATOM     87  C   UNL A   1      44.190  25.961  27.894  1.00  0.00     0.031 A 
ATOM     88  C   UNL A   1      44.139  24.351  29.690  1.00  0.00     0.131 A 
ATOM     89  C   UNL A   1      44.663  24.965  27.019  1.00  0.00     0.055 A 
ATOM     90  C   UNL A   1      44.545  23.345  28.793  1.00  0.00     0.041 A 
ATOM     91  F   UNL A   1      44.028  24.020  30.984  1.00  0.00    -0.206 F 
ATOM     92  C   UNL A   1      44.883  23.665  27.475  1.00  0.00     0.022 A 
BRANCH  89  93
ATOM     93  S   UNL A   1      45.322  25.455  25.384  1.00  0.00     0.124 S 
ATOM     94  O   UNL A   1      44.957  24.312  24.556  1.00  0.00    -0.237 OA
ATOM     95  O   UNL A   1      44.610  26.694  25.105  1.00  0.00    -0.237 OA
ATOM     96  O   UNL A   1      46.753  25.620  25.641  1.00  0.00    -0.744 OA
ENDBRANCH  89  93
ENDBRANCH  62  86
BRANCH  74  97
ATOM     97  C   UNL A   1      48.290  31.859  29.597  1.00  0.00     0.023 A 
ATOM     98  C   UNL A   1      47.976  32.755  28.575  1.00  0.00     0.031 A 
ATOM     99  C   UNL A   1      49.642  31.891  30.033  1.00  0.00     0.131 A 
ATOM    100  C   UNL A   1      48.965  33.524  27.946  1.00  0.00     0.055 A 
ATOM    101  C   UNL A   1      50.610  32.726  29.471  1.00  0.00     0.041 A 
ATOM    102  F   UNL A   1      50.088  31.139  31.050  1.00  0.00    -0.206 F 
ATOM    103  C   UNL A   1      50.278  33.537  28.400  1.00  0.00     0.022 A 
BRANCH 100 104
ATOM    104  S   UNL A   1      48.479  34.429  26.462  1.00  0.00     0.124 S 
ATOM    105  O   UNL A   1      49.749  34.510  25.742  1.00  0.00    -0.237 OA
ATOM    106  O   UNL A   1      47.477  33.548  25.872  1.00  0.00    -0.237 OA
ATOM    107  O   UNL A   1      47.974  35.696  26.983  1.00  0.00    -0.744 OA
ENDBRANCH 100 104
ENDBRANCH  74  97
ENDBRANCH  48  49
ENDBRANCH  41  43
ENDBRANCH  40  41
ENDBRANCH  39  40
ENDBRANCH  38  39
ENDBRANCH  37  38
ENDBRANCH  36  37
ENDBRANCH  35  36
ENDBRANCH  34  35
ENDBRANCH   1  34
TORSDOF 29
ENDMDL
MODEL 3
REMARK VINA RESULT:      -9.3      3.249      8.766
REMARK SMILES Cc1ccccc1OCC(=O)N[C@@H](Cc1c[nH]c2ccccc12)C(=O)OCCOCCOCCOCCOC(=O)c1ccc(-c2c3nc(c(-c4cc(S(=O)(=O)[O-])ccc4F)c4ccc([nH]4)c(-c4cc(S(=O)(=O)[O-])ccc4F)c4nc(c(-c5cc(S(=O)(=O)[O-])ccc5F)c5ccc2[nH]5)C=C4)C=C3)cc1
REMARK SMILES IDX 31 1 30 2 29 3 28 4 27 5 26 6 24 7 25 8 13 9 12 10 10 11
REMARK SMILES IDX 11 12 9 14 8 15 7 16 1 17 2 18 3 19 4 20 6 21 5 22 14 23
REMARK SMILES IDX 15 24 16 25 23 26 17 27 18 28 22 29 19 31 21 32 20 33 32 34
REMARK SMILES IDX 33 35 34 36 35 37 36 38 37 39 38 40 39 41 40 42 41 43 42 44
REMARK SMILES IDX 103 45 43 46 102 47 44 48 45 49 46 50 96 51 47 52 101 53
REMARK SMILES IDX 95 54 97 55 48 56 100 57 94 58 93 59 49 61 81 62 61 63 80 64
REMARK SMILES IDX 62 65 65 66 79 67 98 68 63 69 64 70 78 72 99 73 66 74 50 75
REMARK SMILES IDX 51 76 59 77 52 78 58 79 60 80 57 81 53 82 54 83 55 84 56 85
REMARK SMILES IDX 82 86 83 87 91 88 84 89 90 90 92 91 89 92 85 93 86 94 87 95
REMARK SMILES IDX 88 96 67 97 68 98 76 99 69 100 75 101 77 102 74 103 70 104
REMARK SMILES IDX 71 105 72 106 73 107
REMARK H PARENT 12 13 17 30 97 60 65 71
REMARK Flexibility Score: inf
ROOT
ATOM      1  C   UNL A   1      32.367  30.061  25.860  1.00  0.00     0.188 C 
ENDROOT
BRANCH   1   2
ATOM      2  C   UNL A   1      31.724  28.806  25.300  1.00  0.00     0.188 C 
BRANCH   2   3
ATOM      3  O   UNL A   1      32.655  27.762  25.124  1.00  0.00    -0.376 OA
BRANCH   3   4
ATOM      4  C   UNL A   1      32.384  26.862  24.060  1.00  0.00     0.202 C 
BRANCH   4   5
ATOM      5  C   UNL A   1      32.729  25.355  24.091  1.00  0.00     0.261 C 
BRANCH   5   6
ATOM      6  O   UNL A   1      33.696  24.881  25.036  1.00  0.00    -0.462 OA
BRANCH   6   7
ATOM      7  C   UNL A   1      34.769  24.245  24.516  1.00  0.00     0.329 C 
ATOM      8  O   UNL A   1      34.971  24.096  23.313  1.00  0.00    -0.250 OA
BRANCH   7   9
ATOM      9  C   UNL A   1      35.787  23.764  25.562  1.00  0.00     0.196 C 
BRANCH   9  10
ATOM     10  N   UNL A   1      35.245  23.124  26.753  1.00  0.00    -0.339 N 
ATOM     11  C   UNL A   1      34.581  21.934  26.813  1.00  0.00     0.258 C 
ATOM     12  O   UNL A   1      33.920  21.664  27.814  1.00  0.00    -0.271 OA
ATOM     13  H   UNL A   1      35.373  23.601  27.604  1.00  0.00     0.164 HD
BRANCH  11  14
ATOM     14  C   UNL A   1      34.707  20.932  25.631  1.00  0.00     0.329 C 
BRANCH  14  15
ATOM     15  O   UNL A   1      33.827  19.870  25.332  1.00  0.00    -0.484 OA
BRANCH  15  16
ATOM     16  C   UNL A   1      33.146  20.055  24.170  1.00  0.00     0.122 A 
ATOM     17  C   UNL A   1      33.049  17.558  23.583  1.00  0.00     0.048 C 
ATOM     18  C   UNL A   1      32.758  19.011  23.323  1.00  0.00    -0.009 A 
ATOM     19  C   UNL A   1      32.034  19.345  22.171  1.00  0.00     0.007 A 
ATOM     20  C   UNL A   1      31.741  20.678  21.866  1.00  0.00     0.001 A 
ATOM     21  C   UNL A   1      32.887  21.390  23.851  1.00  0.00     0.047 A 
ATOM     22  C   UNL A   1      32.172  21.702  22.703  1.00  0.00     0.004 A 
ENDBRANCH  15  16
ENDBRANCH  14  15
ENDBRANCH  11  14
ENDBRANCH   9  10
BRANCH   9  23
ATOM     23  C   UNL A   1      37.002  23.038  24.969  1.00  0.00     0.074 C 
BRANCH  23  24
ATOM     24  C   UNL A   1      38.218  22.847  25.833  1.00  0.00    -0.020 A 
ATOM     25  C   UNL A   1      38.968  21.696  25.910  1.00  0.00     0.087 A 
ATOM     26  C   UNL A   1      38.889  23.807  26.669  1.00  0.00     0.003 A 
ATOM     27  N   UNL A   1      40.061  21.914  26.696  1.00  0.00    -0.361 N 
ATOM     28  C   UNL A   1      40.052  23.206  27.159  1.00  0.00     0.046 A 
ATOM     29  C   UNL A   1      38.622  25.138  27.054  1.00  0.00     0.010 A 
ATOM     30  H   UNL A   1      40.753  21.245  26.903  1.00  0.00     0.166 HD
ATOM     31  C   UNL A   1      40.977  23.871  27.972  1.00  0.00     0.026 A 
ATOM     32  C   UNL A   1      39.523  25.809  27.893  1.00  0.00     0.001 A 
ATOM     33  C   UNL A   1      40.690  25.188  28.333  1.00  0.00     0.002 A 
ENDBRANCH  23  24
ENDBRANCH   9  23
ENDBRANCH   7   9
ENDBRANCH   6   7
ENDBRANCH   5   6
ENDBRANCH   4   5
ENDBRANCH   3   4
ENDBRANCH   2   3
ENDBRANCH   1   2
BRANCH   1  34
ATOM     34  O   UNL A   1      31.414  31.104  26.010  1.00  0.00    -0.377 OA
BRANCH  34  35
ATOM     35  C   UNL A   1      31.825  32.175  26.854  1.00  0.00     0.188 C 
BRANCH  35  36
ATOM     36  C   UNL A   1      33.190  31.882  27.445  1.00  0.00     0.188 C 
BRANCH  36  37
ATOM     37  O   UNL A   1      33.613  33.040  28.181  1.00  0.00    -0.376 OA
BRANCH  37  38
ATOM     38  C   UNL A   1      35.006  33.094  28.443  1.00  0.00     0.202 C 
BRANCH  38  39
ATOM     39  C   UNL A   1      35.752  31.934  27.789  1.00  0.00     0.261 C 
BRANCH  39  40
ATOM     40  O   UNL A   1      36.301  31.093  28.827  1.00  0.00    -0.460 OA
BRANCH  40  41
ATOM     41  C   UNL A   1      36.527  29.805  28.445  1.00  0.00     0.338 C 
ATOM     42  O   UNL A   1      35.707  29.094  27.899  1.00  0.00    -0.246 OA
BRANCH  41  43
ATOM     43  C   UNL A   1      37.890  29.359  28.866  1.00  0.00     0.060 A 
ATOM     44  C   UNL A   1      38.146  29.091  30.221  1.00  0.00     0.016 A 
ATOM     45  C   UNL A   1      38.953  29.454  27.972  1.00  0.00     0.016 A 
ATOM     46  C   UNL A   1      39.465  29.064  30.699  1.00  0.00     0.010 A 
ATOM     47  C   UNL A   1      40.243  29.539  28.465  1.00  0.00     0.010 A 
ATOM     48  C   UNL A   1      40.515  29.377  29.831  1.00  0.00    -0.014 A 
BRANCH  48  49
ATOM     49  C   UNL A   1      41.859  29.817  30.251  1.00  0.00     0.031 A 
ATOM     50  C   UNL A   1      42.156  31.264  30.513  1.00  0.00     0.074 A 
ATOM     51  C   UNL A   1      42.648  28.859  30.791  1.00  0.00     0.049 A 
ATOM     52  N   UNL A   1      43.282  31.737  30.937  1.00  0.00    -0.248 NA
ATOM     53  C   UNL A   1      41.175  32.329  30.303  1.00  0.00     0.031 C 
ATOM     54  C   UNL A   1      43.642  29.036  31.843  1.00  0.00     0.029 A 
ATOM     55  N   UNL A   1      42.688  27.493  30.589  1.00  0.00    -0.354 N 
ATOM     56  C   UNL A   1      43.097  33.047  31.351  1.00  0.00     0.074 A 
ATOM     57  C   UNL A   1      41.800  33.390  30.827  1.00  0.00     0.031 C 
ATOM     58  C   UNL A   1      44.250  27.875  32.118  1.00  0.00     0.029 A 
ATOM     59  C   UNL A   1      43.899  26.977  31.056  1.00  0.00     0.049 A 
ATOM     60  H   UNL A   1      41.970  26.962  30.177  1.00  0.00     0.167 HD
ATOM     61  C   UNL A   1      44.012  33.634  32.186  1.00  0.00     0.034 A 
ATOM     62  C   UNL A   1      44.824  26.441  30.209  1.00  0.00     0.034 A 
ATOM     63  C   UNL A   1      45.250  32.825  32.310  1.00  0.00     0.049 A 
ATOM     64  C   UNL A   1      46.009  27.406  30.018  1.00  0.00     0.074 A 
ATOM     65  C   UNL A   1      46.081  32.458  33.356  1.00  0.00     0.029 A 
ATOM     66  N   UNL A   1      45.742  32.131  31.194  1.00  0.00    -0.354 N 
ATOM     67  N   UNL A   1      46.007  28.666  30.409  1.00  0.00    -0.248 NA
ATOM     68  C   UNL A   1      47.315  27.026  29.486  1.00  0.00     0.031 C 
ATOM     69  C   UNL A   1      47.015  31.505  32.867  1.00  0.00     0.029 A 
ATOM     70  C   UNL A   1      46.752  31.258  31.528  1.00  0.00     0.049 A 
ATOM     71  H   UNL A   1      45.403  32.255  30.278  1.00  0.00     0.167 HD
ATOM     72  C   UNL A   1      47.224  29.255  30.199  1.00  0.00     0.074 A 
ATOM     73  C   UNL A   1      48.015  28.170  29.631  1.00  0.00     0.031 C 
ATOM     74  C   UNL A   1      47.516  30.567  30.492  1.00  0.00     0.034 A 
BRANCH  61  75
ATOM     75  C   UNL A   1      43.762  34.877  33.079  1.00  0.00     0.023 A 
ATOM     76  C   UNL A   1      43.564  34.717  34.477  1.00  0.00     0.031 A 
ATOM     77  C   UNL A   1      43.574  36.206  32.632  1.00  0.00     0.131 A 
ATOM     78  C   UNL A   1      43.154  35.783  35.316  1.00  0.00     0.055 A 
ATOM     79  C   UNL A   1      43.248  37.283  33.481  1.00  0.00     0.041 A 
ATOM     80  F   UNL A   1      43.638  36.550  31.344  1.00  0.00    -0.206 F 
ATOM     81  C   UNL A   1      43.017  37.073  34.828  1.00  0.00     0.022 A 
BRANCH  78  82
ATOM     82  S   UNL A   1      42.735  35.454  37.057  1.00  0.00     0.124 S 
ATOM     83  O   UNL A   1      42.467  36.797  37.561  1.00  0.00    -0.237 OA
ATOM     84  O   UNL A   1      41.585  34.565  36.942  1.00  0.00    -0.237 OA
ATOM     85  O   UNL A   1      43.947  34.827  37.585  1.00  0.00    -0.744 OA
ENDBRANCH  78  82
ENDBRANCH  61  75
BRANCH  62  86
ATOM     86  C   UNL A   1      44.165  25.407  29.336  1.00  0.00     0.023 A 
ATOM     87  C   UNL A   1      44.308  25.690  27.947  1.00  0.00     0.031 A 
ATOM     88  C   UNL A   1      44.163  24.054  29.713  1.00  0.00     0.131 A 
ATOM     89  C   UNL A   1      44.767  24.693  27.065  1.00  0.00     0.055 A 
ATOM     90  C   UNL A   1      44.556  23.050  28.808  1.00  0.00     0.041 A 
ATOM     91  F   UNL A   1      44.012  23.705  30.999  1.00  0.00    -0.206 F 
ATOM     92  C   UNL A   1      44.933  23.379  27.504  1.00  0.00     0.022 A 
BRANCH  89  93
ATOM     93  S   UNL A   1      45.478  25.188  25.454  1.00  0.00     0.124 S 
ATOM     94  O   UNL A   1      46.897  24.920  25.654  1.00  0.00    -0.237 OA
ATOM     95  O   UNL A   1      44.793  24.313  24.513  1.00  0.00    -0.237 OA
ATOM     96  O   UNL A   1      45.109  26.601  25.351  1.00  0.00    -0.744 OA
ENDBRANCH  89  93
ENDBRANCH  62  86
BRANCH  74  97
ATOM     97  C   UNL A   1      48.644  31.356  29.851  1.00  0.00     0.023 A 
ATOM     98  C   UNL A   1      48.407  32.331  28.881  1.00  0.00     0.031 A 
ATOM     99  C   UNL A   1      49.992  31.256  30.290  1.00  0.00     0.131 A 
ATOM    100  C   UNL A   1      49.458  33.052  28.297  1.00  0.00     0.055 A 
ATOM    101  C   UNL A   1      51.026  32.042  29.776  1.00  0.00     0.041 A 
ATOM    102  F   UNL A   1      50.372  30.415  31.263  1.00  0.00    -0.206 F 
ATOM    103  C   UNL A   1      50.766  32.934  28.752  1.00  0.00     0.022 A 
BRANCH 100 104
ATOM    104  S   UNL A   1      49.053  34.074  26.866  1.00  0.00     0.124 S 
ATOM    105  O   UNL A   1      48.370  33.111  26.004  1.00  0.00    -0.237 OA
ATOM    106  O   UNL A   1      48.206  35.108  27.449  1.00  0.00    -0.237 OA
ATOM    107  O   UNL A   1      50.357  34.526  26.387  1.00  0.00    -0.744 OA
ENDBRANCH 100 104
ENDBRANCH  74  97
ENDBRANCH  48  49
ENDBRANCH  41  43
ENDBRANCH  40  41
ENDBRANCH  39  40
ENDBRANCH  38  39
ENDBRANCH  37  38
ENDBRANCH  36  37
ENDBRANCH  35  36
ENDBRANCH  34  35
ENDBRANCH   1  34
TORSDOF 29
ENDMDL
