MODEL 1
REMARK VINA RESULT:      -9.5      0.000      0.000
REMARK SMILES O=C(C[C@H](C(=O)OCCOCCOCCOCCOC(=O)c1ccc(-c2c3nc(c(-c4cc(S(=O)(=O)[O-])ccc4F)c4ccc([nH]4)c(-c4cc(S(=O)(=O)[O-])ccc4F)c4nc(c(-c5cc(S(=O)(=O)[O-])ccc5F)c5ccc2[nH]5)C=C4)C=C3)cc1)c1ccccc1)Nc1ccc(Cl)cc1Cl
REMARK SMILES IDX 13 1 12 2 11 3 10 4 9 5 8 6 7 7 5 8 6 9 4 10 3 11 2 12 1 13
REMARK SMILES IDX 91 14 92 16 93 17 98 18 94 19 97 20 99 21 95 22 96 23 85 24
REMARK SMILES IDX 86 25 90 26 87 27 89 28 88 29 14 30 15 31 16 32 17 33 18 34
REMARK SMILES IDX 19 35 20 36 21 37 22 38 23 39 84 40 24 41 83 42 25 43 26 44
REMARK SMILES IDX 27 45 77 46 28 47 82 48 76 49 78 50 29 51 81 52 75 53 74 54
REMARK SMILES IDX 30 56 62 57 42 58 61 59 43 60 46 61 60 62 79 63 44 64 45 65
REMARK SMILES IDX 59 67 80 68 47 69 31 70 32 71 40 72 33 73 39 74 41 75 38 76
REMARK SMILES IDX 34 77 35 78 36 79 37 80 63 81 64 82 72 83 65 84 71 85 73 86
REMARK SMILES IDX 70 87 66 88 67 89 68 90 69 91 48 92 49 93 57 94 50 95 56 96
REMARK SMILES IDX 58 97 55 98 51 99 52 100 53 101 54 102
REMARK H PARENT 91 15 78 55 46 66
REMARK Flexibility Score: inf
ROOT
ATOM      1  O   UNL A   1      34.724  30.825  28.201  1.00  0.00    -0.377 OA
ENDROOT
BRANCH   1   2
ATOM      2  C   UNL A   1      33.454  31.066  27.589  1.00  0.00     0.188 C 
BRANCH   2   3
ATOM      3  C   UNL A   1      32.746  29.803  27.110  1.00  0.00     0.188 C 
BRANCH   3   4
ATOM      4  O   UNL A   1      32.445  29.610  25.742  1.00  0.00    -0.376 OA
BRANCH   4   5
ATOM      5  C   UNL A   1      33.310  28.802  24.929  1.00  0.00     0.202 C 
BRANCH   5   6
ATOM      6  C   UNL A   1      33.522  28.981  23.400  1.00  0.00     0.261 C 
BRANCH   6   7
ATOM      7  O   UNL A   1      32.340  28.975  22.587  1.00  0.00    -0.463 OA
BRANCH   7   8
ATOM      8  C   UNL A   1      31.813  27.738  22.382  1.00  0.00     0.314 C 
ATOM      9  O   UNL A   1      32.491  26.811  21.944  1.00  0.00    -0.252 OA
BRANCH   8  10
ATOM     10  C   UNL A   1      30.417  27.522  23.032  1.00  0.00     0.138 C 
BRANCH  10  11
ATOM     11  C   UNL A   1      30.229  26.930  24.445  1.00  0.00     0.120 C 
BRANCH  11  12
ATOM     12  C   UNL A   1      30.967  25.649  24.753  1.00  0.00     0.225 C 
ATOM     13  O   UNL A   1      32.036  25.696  25.356  1.00  0.00    -0.275 OA
ATOM     14  N   UNL A   1      30.382  24.492  24.237  1.00  0.00    -0.325 N 
ATOM     15  H   UNL A   1      29.504  24.540  23.795  1.00  0.00     0.169 HD
BRANCH  14  16
ATOM     16  C   UNL A   1      31.053  23.248  24.349  1.00  0.00     0.060 A 
ATOM     17  C   UNL A   1      31.779  22.816  23.235  1.00  0.00     0.029 A 
ATOM     18  C   UNL A   1      31.143  22.517  25.543  1.00  0.00     0.066 A 
ATOM     19  C   UNL A   1      32.734  21.809  23.363  1.00  0.00     0.023 A 
ATOM     20  C   UNL A   1      32.084  21.492  25.668  1.00  0.00     0.043 A 
ATOM     21  Cl  UNL A   1      30.048  22.783  26.856  1.00  0.00    -0.082 Cl
ATOM     22  C   UNL A   1      32.929  21.204  24.600  1.00  0.00     0.042 A 
ATOM     23  Cl  UNL A   1      34.267  20.145  24.814  1.00  0.00    -0.084 Cl
ENDBRANCH  14  16
ENDBRANCH  11  12
ENDBRANCH  10  11
BRANCH  10  24
ATOM     24  C   UNL A   1      29.435  28.641  22.663  1.00  0.00    -0.033 A 
ATOM     25  C   UNL A   1      28.092  28.593  23.068  1.00  0.00     0.004 A 
ATOM     26  C   UNL A   1      29.915  29.825  22.079  1.00  0.00     0.004 A 
ATOM     27  C   UNL A   1      27.293  29.733  23.025  1.00  0.00     0.000 A 
ATOM     28  C   UNL A   1      29.098  30.954  21.997  1.00  0.00     0.000 A 
ATOM     29  C   UNL A   1      27.800  30.918  22.502  1.00  0.00     0.000 A 
ENDBRANCH  10  24
ENDBRANCH   8  10
ENDBRANCH   7   8
ENDBRANCH   6   7
ENDBRANCH   5   6
ENDBRANCH   4   5
ENDBRANCH   3   4
ENDBRANCH   2   3
ENDBRANCH   1   2
BRANCH   1  30
ATOM     30  C   UNL A   1      35.787  31.689  27.805  1.00  0.00     0.188 C 
BRANCH  30  31
ATOM     31  C   UNL A   1      35.768  33.146  28.298  1.00  0.00     0.188 C 
BRANCH  31  32
ATOM     32  O   UNL A   1      34.957  34.002  27.518  1.00  0.00    -0.376 OA
BRANCH  32  33
ATOM     33  C   UNL A   1      34.337  35.088  28.198  1.00  0.00     0.202 C 
BRANCH  33  34
ATOM     34  C   UNL A   1      33.260  34.813  29.270  1.00  0.00     0.261 C 
BRANCH  34  35
ATOM     35  O   UNL A   1      33.242  35.656  30.437  1.00  0.00    -0.460 OA
BRANCH  35  36
ATOM     36  C   UNL A   1      33.334  35.063  31.643  1.00  0.00     0.338 C 
ATOM     37  O   UNL A   1      32.447  34.996  32.486  1.00  0.00    -0.246 OA
BRANCH  36  38
ATOM     38  C   UNL A   1      34.612  34.320  31.710  1.00  0.00     0.060 A 
ATOM     39  C   UNL A   1      34.591  32.956  32.036  1.00  0.00     0.016 A 
ATOM     40  C   UNL A   1      35.831  34.964  31.479  1.00  0.00     0.016 A 
ATOM     41  C   UNL A   1      35.786  32.253  32.198  1.00  0.00     0.010 A 
ATOM     42  C   UNL A   1      37.030  34.262  31.664  1.00  0.00     0.010 A 
ATOM     43  C   UNL A   1      37.014  32.917  32.073  1.00  0.00    -0.014 A 
BRANCH  43  44
ATOM     44  C   UNL A   1      38.249  32.262  32.586  1.00  0.00     0.031 A 
ATOM     45  C   UNL A   1      39.004  31.336  31.672  1.00  0.00     0.074 A 
ATOM     46  C   UNL A   1      38.721  32.504  33.820  1.00  0.00     0.049 A 
ATOM     47  N   UNL A   1      40.112  30.676  31.888  1.00  0.00    -0.248 NA
ATOM     48  C   UNL A   1      38.416  31.116  30.344  1.00  0.00     0.031 C 
ATOM     49  C   UNL A   1      38.081  33.374  34.797  1.00  0.00     0.029 A 
ATOM     50  N   UNL A   1      39.846  32.043  34.461  1.00  0.00    -0.354 N 
ATOM     51  C   UNL A   1      40.345  29.942  30.730  1.00  0.00     0.074 A 
ATOM     52  C   UNL A   1      39.241  30.217  29.834  1.00  0.00     0.031 C 
ATOM     53  C   UNL A   1      38.838  33.398  35.906  1.00  0.00     0.029 A 
ATOM     54  C   UNL A   1      40.005  32.545  35.732  1.00  0.00     0.049 A 
ATOM     55  H   UNL A   1      40.480  31.411  34.050  1.00  0.00     0.167 HD
ATOM     56  C   UNL A   1      41.382  29.117  30.442  1.00  0.00     0.034 A 
ATOM     57  C   UNL A   1      40.972  32.348  36.653  1.00  0.00     0.034 A 
ATOM     58  C   UNL A   1      42.466  28.838  31.353  1.00  0.00     0.049 A 
ATOM     59  C   UNL A   1      42.096  31.396  36.326  1.00  0.00     0.074 A 
ATOM     60  C   UNL A   1      43.575  28.034  31.152  1.00  0.00     0.029 A 
ATOM     61  N   UNL A   1      42.571  29.334  32.648  1.00  0.00    -0.354 N 
ATOM     62  N   UNL A   1      42.317  30.727  35.217  1.00  0.00    -0.248 NA
ATOM     63  C   UNL A   1      43.093  31.166  37.377  1.00  0.00     0.031 C 
ATOM     64  C   UNL A   1      44.301  27.976  32.347  1.00  0.00     0.029 A 
ATOM     65  C   UNL A   1      43.702  28.820  33.268  1.00  0.00     0.049 A 
ATOM     66  H   UNL A   1      41.935  29.959  33.064  1.00  0.00     0.167 HD
ATOM     67  C   UNL A   1      43.493  30.012  35.434  1.00  0.00     0.074 A 
ATOM     68  C   UNL A   1      43.947  30.360  36.766  1.00  0.00     0.031 C 
ATOM     69  C   UNL A   1      44.135  29.145  34.609  1.00  0.00     0.034 A 
BRANCH  56  70
ATOM     70  C   UNL A   1      41.338  28.404  29.109  1.00  0.00     0.023 A 
ATOM     71  C   UNL A   1      40.825  27.100  28.979  1.00  0.00     0.031 A 
ATOM     72  C   UNL A   1      41.882  29.012  27.965  1.00  0.00     0.131 A 
ATOM     73  C   UNL A   1      40.961  26.415  27.762  1.00  0.00     0.055 A 
ATOM     74  C   UNL A   1      41.923  28.360  26.731  1.00  0.00     0.041 A 
ATOM     75  F   UNL A   1      42.412  30.244  28.031  1.00  0.00    -0.206 F 
ATOM     76  C   UNL A   1      41.479  27.045  26.629  1.00  0.00     0.022 A 
BRANCH  73  77
ATOM     77  S   UNL A   1      40.627  24.631  27.734  1.00  0.00     0.124 S 
ATOM     78  O   UNL A   1      41.627  24.131  28.676  1.00  0.00    -0.237 OA
ATOM     79  O   UNL A   1      39.240  24.563  28.180  1.00  0.00    -0.237 OA
ATOM     80  O   UNL A   1      40.855  24.260  26.340  1.00  0.00    -0.744 OA
ENDBRANCH  73  77
ENDBRANCH  56  70
BRANCH  57  81
ATOM     81  C   UNL A   1      40.939  33.052  37.972  1.00  0.00     0.023 A 
ATOM     82  C   UNL A   1      40.163  32.556  39.036  1.00  0.00     0.031 A 
ATOM     83  C   UNL A   1      41.636  34.257  38.181  1.00  0.00     0.131 A 
ATOM     84  C   UNL A   1      40.070  33.278  40.237  1.00  0.00     0.055 A 
ATOM     85  C   UNL A   1      41.590  34.938  39.399  1.00  0.00     0.041 A 
ATOM     86  F   UNL A   1      42.387  34.784  37.202  1.00  0.00    -0.206 F 
ATOM     87  C   UNL A   1      40.793  34.455  40.433  1.00  0.00     0.022 A 
BRANCH  84  88
ATOM     88  S   UNL A   1      38.907  32.708  41.510  1.00  0.00     0.124 S 
ATOM     89  O   UNL A   1      39.301  33.518  42.657  1.00  0.00    -0.237 OA
ATOM     90  O   UNL A   1      37.615  33.032  40.911  1.00  0.00    -0.237 OA
ATOM     91  O   UNL A   1      39.198  31.282  41.624  1.00  0.00    -0.744 OA
ENDBRANCH  84  88
ENDBRANCH  57  81
BRANCH  69  92
ATOM     92  C   UNL A   1      45.421  28.539  35.124  1.00  0.00     0.023 A 
ATOM     93  C   UNL A   1      46.670  29.142  34.892  1.00  0.00     0.031 A 
ATOM     94  C   UNL A   1      45.402  27.316  35.820  1.00  0.00     0.131 A 
ATOM     95  C   UNL A   1      47.849  28.483  35.274  1.00  0.00     0.055 A 
ATOM     96  C   UNL A   1      46.574  26.705  36.267  1.00  0.00     0.041 A 
ATOM     97  F   UNL A   1      44.241  26.689  36.068  1.00  0.00    -0.206 F 
ATOM     98  C   UNL A   1      47.808  27.278  35.978  1.00  0.00     0.022 A 
BRANCH  95  99
ATOM     99  S   UNL A   1      49.441  29.155  34.718  1.00  0.00     0.124 S 
ATOM    100  O   UNL A   1      50.321  28.802  35.828  1.00  0.00    -0.237 OA
ATOM    101  O   UNL A   1      49.666  28.433  33.471  1.00  0.00    -0.237 OA
ATOM    102  O   UNL A   1      49.177  30.585  34.567  1.00  0.00    -0.744 OA
ENDBRANCH  95  99
ENDBRANCH  69  92
ENDBRANCH  43  44
ENDBRANCH  36  38
ENDBRANCH  35  36
ENDBRANCH  34  35
ENDBRANCH  33  34
ENDBRANCH  32  33
ENDBRANCH  31  32
ENDBRANCH  30  31
ENDBRANCH   1  30
TORSDOF 27
ENDMDL
MODEL 2
REMARK VINA RESULT:      -9.4      2.277      7.392
REMARK SMILES O=C(C[C@H](C(=O)OCCOCCOCCOCCOC(=O)c1ccc(-c2c3nc(c(-c4cc(S(=O)(=O)[O-])ccc4F)c4ccc([nH]4)c(-c4cc(S(=O)(=O)[O-])ccc4F)c4nc(c(-c5cc(S(=O)(=O)[O-])ccc5F)c5ccc2[nH]5)C=C4)C=C3)cc1)c1ccccc1)Nc1ccc(Cl)cc1Cl
REMARK SMILES IDX 13 1 12 2 11 3 10 4 9 5 8 6 7 7 5 8 6 9 4 10 3 11 2 12 1 13
REMARK SMILES IDX 91 14 92 16 93 17 98 18 94 19 97 20 99 21 95 22 96 23 85 24
REMARK SMILES IDX 86 25 90 26 87 27 89 28 88 29 14 30 15 31 16 32 17 33 18 34
REMARK SMILES IDX 19 35 20 36 21 37 22 38 23 39 84 40 24 41 83 42 25 43 26 44
REMARK SMILES IDX 27 45 77 46 28 47 82 48 76 49 78 50 29 51 81 52 75 53 74 54
REMARK SMILES IDX 30 56 62 57 42 58 61 59 43 60 46 61 60 62 79 63 44 64 45 65
REMARK SMILES IDX 59 67 80 68 47 69 31 70 32 71 40 72 33 73 39 74 41 75 38 76
REMARK SMILES IDX 34 77 35 78 36 79 37 80 63 81 64 82 72 83 65 84 71 85 73 86
REMARK SMILES IDX 70 87 66 88 67 89 68 90 69 91 48 92 49 93 57 94 50 95 56 96
REMARK SMILES IDX 58 97 55 98 51 99 52 100 53 101 54 102
REMARK H PARENT 91 15 78 55 46 66
REMARK Flexibility Score: inf
ROOT
ATOM      1  O   UNL A   1      34.762  30.810  28.224  1.00  0.00    -0.377 OA
ENDROOT
BRANCH   1   2
ATOM      2  C   UNL A   1      33.519  31.090  27.573  1.00  0.00     0.188 C 
BRANCH   2   3
ATOM      3  C   UNL A   1      32.777  29.849  27.090  1.00  0.00     0.188 C 
BRANCH   3   4
ATOM      4  O   UNL A   1      32.494  29.657  25.718  1.00  0.00    -0.376 OA
BRANCH   4   5
ATOM      5  C   UNL A   1      33.344  28.814  24.925  1.00  0.00     0.202 C 
BRANCH   5   6
ATOM      6  C   UNL A   1      33.547  28.942  23.390  1.00  0.00     0.261 C 
BRANCH   6   7
ATOM      7  O   UNL A   1      32.357  28.954  22.588  1.00  0.00    -0.463 OA
BRANCH   7   8
ATOM      8  C   UNL A   1      31.821  27.724  22.371  1.00  0.00     0.314 C 
ATOM      9  O   UNL A   1      32.491  26.796  21.921  1.00  0.00    -0.252 OA
BRANCH   8  10
ATOM     10  C   UNL A   1      30.426  27.510  23.024  1.00  0.00     0.138 C 
BRANCH  10  11
ATOM     11  C   UNL A   1      30.239  26.925  24.440  1.00  0.00     0.120 C 
BRANCH  11  12
ATOM     12  C   UNL A   1      30.967  25.638  24.749  1.00  0.00     0.225 C 
ATOM     13  O   UNL A   1      32.027  25.676  25.369  1.00  0.00    -0.275 OA
ATOM     14  N   UNL A   1      30.386  24.488  24.214  1.00  0.00    -0.325 N 
ATOM     15  H   UNL A   1      29.515  24.544  23.759  1.00  0.00     0.169 HD
BRANCH  14  16
ATOM     16  C   UNL A   1      31.050  23.240  24.326  1.00  0.00     0.060 A 
ATOM     17  C   UNL A   1      31.778  22.807  23.214  1.00  0.00     0.029 A 
ATOM     18  C   UNL A   1      31.130  22.506  25.519  1.00  0.00     0.066 A 
ATOM     19  C   UNL A   1      32.728  21.795  23.345  1.00  0.00     0.023 A 
ATOM     20  C   UNL A   1      32.066  21.476  25.646  1.00  0.00     0.043 A 
ATOM     21  Cl  UNL A   1      30.031  22.775  26.827  1.00  0.00    -0.082 Cl
ATOM     22  C   UNL A   1      32.913  21.186  24.581  1.00  0.00     0.042 A 
ATOM     23  Cl  UNL A   1      34.245  20.120  24.799  1.00  0.00    -0.084 Cl
ENDBRANCH  14  16
ENDBRANCH  11  12
ENDBRANCH  10  11
BRANCH  10  24
ATOM     24  C   UNL A   1      29.443  28.627  22.651  1.00  0.00    -0.033 A 
ATOM     25  C   UNL A   1      28.116  28.612  23.109  1.00  0.00     0.004 A 
ATOM     26  C   UNL A   1      29.914  29.782  22.004  1.00  0.00     0.004 A 
ATOM     27  C   UNL A   1      27.330  29.761  23.054  1.00  0.00     0.000 A 
ATOM     28  C   UNL A   1      29.108  30.919  21.911  1.00  0.00     0.000 A 
ATOM     29  C   UNL A   1      27.830  30.918  22.467  1.00  0.00     0.000 A 
ENDBRANCH  10  24
ENDBRANCH   8  10
ENDBRANCH   7   8
ENDBRANCH   6   7
ENDBRANCH   5   6
ENDBRANCH   4   5
ENDBRANCH   3   4
ENDBRANCH   2   3
ENDBRANCH   1   2
BRANCH   1  30
ATOM     30  C   UNL A   1      35.859  31.652  27.876  1.00  0.00     0.188 C 
BRANCH  30  31
ATOM     31  C   UNL A   1      35.863  33.101  28.395  1.00  0.00     0.188 C 
BRANCH  31  32
ATOM     32  O   UNL A   1      35.090  33.989  27.613  1.00  0.00    -0.376 OA
BRANCH  32  33
ATOM     33  C   UNL A   1      34.422  35.036  28.308  1.00  0.00     0.202 C 
BRANCH  33  34
ATOM     34  C   UNL A   1      33.342  34.698  29.360  1.00  0.00     0.261 C 
BRANCH  34  35
ATOM     35  O   UNL A   1      33.248  35.542  30.522  1.00  0.00    -0.460 OA
BRANCH  35  36
ATOM     36  C   UNL A   1      33.317  34.955  31.732  1.00  0.00     0.338 C 
ATOM     37  O   UNL A   1      32.385  34.787  32.510  1.00  0.00    -0.246 OA
BRANCH  36  38
ATOM     38  C   UNL A   1      34.661  34.354  31.893  1.00  0.00     0.060 A 
ATOM     39  C   UNL A   1      34.764  33.023  32.319  1.00  0.00     0.016 A 
ATOM     40  C   UNL A   1      35.816  35.102  31.651  1.00  0.00     0.016 A 
ATOM     41  C   UNL A   1      36.017  32.460  32.569  1.00  0.00     0.010 A 
ATOM     42  C   UNL A   1      37.072  34.543  31.923  1.00  0.00     0.010 A 
ATOM     43  C   UNL A   1      37.176  33.237  32.431  1.00  0.00    -0.014 A 
BRANCH  43  44
ATOM     44  C   UNL A   1      38.450  32.750  33.029  1.00  0.00     0.031 A 
ATOM     45  C   UNL A   1      38.711  33.019  34.485  1.00  0.00     0.074 A 
ATOM     46  C   UNL A   1      39.348  32.052  32.314  1.00  0.00     0.049 A 
ATOM     47  N   UNL A   1      39.731  32.674  35.226  1.00  0.00    -0.248 NA
ATOM     48  C   UNL A   1      37.686  33.799  35.192  1.00  0.00     0.031 C 
ATOM     49  C   UNL A   1      39.214  31.731  30.900  1.00  0.00     0.029 A 
ATOM     50  N   UNL A   1      40.547  31.485  32.679  1.00  0.00    -0.354 N 
ATOM     51  C   UNL A   1      39.484  33.212  36.483  1.00  0.00     0.074 A 
ATOM     52  C   UNL A   1      38.233  33.935  36.388  1.00  0.00     0.031 C 
ATOM     53  C   UNL A   1      40.280  31.006  30.525  1.00  0.00     0.029 A 
ATOM     54  C   UNL A   1      41.178  30.817  31.657  1.00  0.00     0.049 A 
ATOM     55  H   UNL A   1      40.919  31.552  33.588  1.00  0.00     0.167 HD
ATOM     56  C   UNL A   1      40.231  33.113  37.612  1.00  0.00     0.034 A 
ATOM     57  C   UNL A   1      42.341  30.131  31.624  1.00  0.00     0.034 A 
ATOM     58  C   UNL A   1      41.486  32.404  37.686  1.00  0.00     0.049 A 
ATOM     59  C   UNL A   1      43.174  30.066  32.880  1.00  0.00     0.074 A 
ATOM     60  C   UNL A   1      42.310  32.225  38.784  1.00  0.00     0.029 A 
ATOM     61  N   UNL A   1      42.115  31.774  36.617  1.00  0.00    -0.354 N 
ATOM     62  N   UNL A   1      42.917  30.559  34.070  1.00  0.00    -0.248 NA
ATOM     63  C   UNL A   1      44.457  29.360  32.785  1.00  0.00     0.031 C 
ATOM     64  C   UNL A   1      43.471  31.566  38.362  1.00  0.00     0.029 A 
ATOM     65  C   UNL A   1      43.332  31.244  37.022  1.00  0.00     0.049 A 
ATOM     66  H   UNL A   1      41.748  31.712  35.706  1.00  0.00     0.167 HD
ATOM     67  C   UNL A   1      44.000  30.204  34.870  1.00  0.00     0.074 A 
ATOM     68  C   UNL A   1      44.894  29.428  34.034  1.00  0.00     0.031 C 
ATOM     69  C   UNL A   1      44.236  30.497  36.175  1.00  0.00     0.034 A 
BRANCH  56  70
ATOM     70  C   UNL A   1      39.733  33.858  38.829  1.00  0.00     0.023 A 
ATOM     71  C   UNL A   1      38.864  33.263  39.762  1.00  0.00     0.031 A 
ATOM     72  C   UNL A   1      40.074  35.208  39.019  1.00  0.00     0.131 A 
ATOM     73  C   UNL A   1      38.292  34.042  40.779  1.00  0.00     0.055 A 
ATOM     74  C   UNL A   1      39.579  35.950  40.092  1.00  0.00     0.041 A 
ATOM     75  F   UNL A   1      40.876  35.840  38.148  1.00  0.00    -0.206 F 
ATOM     76  C   UNL A   1      38.665  35.374  40.969  1.00  0.00     0.022 A 
BRANCH  73  77
ATOM     77  S   UNL A   1      36.912  33.343  41.729  1.00  0.00     0.124 S 
ATOM     78  O   UNL A   1      35.966  33.007  40.667  1.00  0.00    -0.237 OA
ATOM     79  O   UNL A   1      37.536  32.213  42.407  1.00  0.00    -0.237 OA
ATOM     80  O   UNL A   1      36.499  34.444  42.596  1.00  0.00    -0.744 OA
ENDBRANCH  73  77
ENDBRANCH  56  70
BRANCH  57  81
ATOM     81  C   UNL A   1      42.801  29.447  30.376  1.00  0.00     0.023 A 
ATOM     82  C   UNL A   1      43.652  30.101  29.468  1.00  0.00     0.031 A 
ATOM     83  C   UNL A   1      42.362  28.153  30.041  1.00  0.00     0.131 A 
ATOM     84  C   UNL A   1      44.002  29.481  28.256  1.00  0.00     0.055 A 
ATOM     85  C   UNL A   1      42.763  27.516  28.865  1.00  0.00     0.041 A 
ATOM     86  F   UNL A   1      41.543  27.480  30.864  1.00  0.00    -0.206 F 
ATOM     87  C   UNL A   1      43.578  28.185  27.958  1.00  0.00     0.022 A 
BRANCH  84  88
ATOM     88  S   UNL A   1      44.938  30.434  27.026  1.00  0.00     0.124 S 
ATOM     89  O   UNL A   1      45.407  29.382  26.130  1.00  0.00    -0.237 OA
ATOM     90  O   UNL A   1      43.916  31.325  26.486  1.00  0.00    -0.237 OA
ATOM     91  O   UNL A   1      45.977  31.086  27.819  1.00  0.00    -0.744 OA
ENDBRANCH  84  88
ENDBRANCH  57  81
BRANCH  69  92
ATOM     92  C   UNL A   1      45.505  29.940  36.780  1.00  0.00     0.023 A 
ATOM     93  C   UNL A   1      45.537  28.683  37.412  1.00  0.00     0.031 A 
ATOM     94  C   UNL A   1      46.691  30.697  36.765  1.00  0.00     0.131 A 
ATOM     95  C   UNL A   1      46.700  28.259  38.073  1.00  0.00     0.055 A 
ATOM     96  C   UNL A   1      47.868  30.234  37.357  1.00  0.00     0.041 A 
ATOM     97  F   UNL A   1      46.724  31.906  36.182  1.00  0.00    -0.206 F 
ATOM     98  C   UNL A   1      47.872  29.018  38.032  1.00  0.00     0.022 A 
BRANCH  95  99
ATOM     99  S   UNL A   1      46.621  26.767  39.103  1.00  0.00     0.124 S 
ATOM    100  O   UNL A   1      47.966  26.221  38.946  1.00  0.00    -0.237 OA
ATOM    101  O   UNL A   1      46.303  27.312  40.418  1.00  0.00    -0.237 OA
ATOM    102  O   UNL A   1      45.557  25.979  38.484  1.00  0.00    -0.744 OA
ENDBRANCH  95  99
ENDBRANCH  69  92
ENDBRANCH  43  44
ENDBRANCH  36  38
ENDBRANCH  35  36
ENDBRANCH  34  35
ENDBRANCH  33  34
ENDBRANCH  32  33
ENDBRANCH  31  32
ENDBRANCH  30  31
ENDBRANCH   1  30
TORSDOF 27
ENDMDL
MODEL 3
REMARK VINA RESULT:      -9.3      5.398     10.540
REMARK SMILES O=C(C[C@H](C(=O)OCCOCCOCCOCCOC(=O)c1ccc(-c2c3nc(c(-c4cc(S(=O)(=O)[O-])ccc4F)c4ccc([nH]4)c(-c4cc(S(=O)(=O)[O-])ccc4F)c4nc(c(-c5cc(S(=O)(=O)[O-])ccc5F)c5ccc2[nH]5)C=C4)C=C3)cc1)c1ccccc1)Nc1ccc(Cl)cc1Cl
REMARK SMILES IDX 13 1 12 2 11 3 10 4 9 5 8 6 7 7 5 8 6 9 4 10 3 11 2 12 1 13
REMARK SMILES IDX 91 14 92 16 93 17 98 18 94 19 97 20 99 21 95 22 96 23 85 24
REMARK SMILES IDX 86 25 90 26 87 27 89 28 88 29 14 30 15 31 16 32 17 33 18 34
REMARK SMILES IDX 19 35 20 36 21 37 22 38 23 39 84 40 24 41 83 42 25 43 26 44
REMARK SMILES IDX 27 45 77 46 28 47 82 48 76 49 78 50 29 51 81 52 75 53 74 54
REMARK SMILES IDX 30 56 62 57 42 58 61 59 43 60 46 61 60 62 79 63 44 64 45 65
REMARK SMILES IDX 59 67 80 68 47 69 31 70 32 71 40 72 33 73 39 74 41 75 38 76
REMARK SMILES IDX 34 77 35 78 36 79 37 80 63 81 64 82 72 83 65 84 71 85 73 86
REMARK SMILES IDX 70 87 66 88 67 89 68 90 69 91 48 92 49 93 57 94 50 95 56 96
REMARK SMILES IDX 58 97 55 98 51 99 52 100 53 101 54 102
REMARK H PARENT 91 15 78 55 46 66
REMARK Flexibility Score: inf
ROOT
ATOM      1  O   UNL A   1      41.617  19.634  27.190  1.00  0.00    -0.377 OA
ENDROOT
BRANCH   1   2
ATOM      2  C   UNL A   1      41.698  21.058  27.304  1.00  0.00     0.188 C 
BRANCH   2   3
ATOM      3  C   UNL A   1      40.347  21.764  27.257  1.00  0.00     0.188 C 
BRANCH   3   4
ATOM      4  O   UNL A   1      40.262  23.166  27.097  1.00  0.00    -0.376 OA
BRANCH   4   5
ATOM      5  C   UNL A   1      39.058  23.753  26.579  1.00  0.00     0.202 C 
BRANCH   5   6
ATOM      6  C   UNL A   1      37.887  22.965  25.931  1.00  0.00     0.261 C 
BRANCH   6   7
ATOM      7  O   UNL A   1      36.699  23.714  25.638  1.00  0.00    -0.463 OA
BRANCH   7   8
ATOM      8  C   UNL A   1      36.255  23.576  24.360  1.00  0.00     0.314 C 
ATOM      9  O   UNL A   1      36.983  23.148  23.465  1.00  0.00    -0.252 OA
BRANCH   8  10
ATOM     10  C   UNL A   1      34.713  23.690  24.202  1.00  0.00     0.138 C 
BRANCH  10  11
ATOM     11  C   UNL A   1      34.024  24.888  23.513  1.00  0.00     0.120 C 
BRANCH  11  12
ATOM     12  C   UNL A   1      33.227  25.818  24.396  1.00  0.00     0.225 C 
ATOM     13  O   UNL A   1      32.311  25.367  25.081  1.00  0.00    -0.275 OA
ATOM     14  N   UNL A   1      33.566  27.167  24.292  1.00  0.00    -0.325 N 
ATOM     15  H   UNL A   1      34.338  27.439  23.745  1.00  0.00     0.169 HD
BRANCH  14  16
ATOM     16  C   UNL A   1      32.800  28.146  24.974  1.00  0.00     0.060 A 
ATOM     17  C   UNL A   1      33.294  28.599  26.201  1.00  0.00     0.029 A 
ATOM     18  C   UNL A   1      31.673  28.775  24.421  1.00  0.00     0.066 A 
ATOM     19  C   UNL A   1      32.813  29.781  26.761  1.00  0.00     0.023 A 
ATOM     20  C   UNL A   1      31.175  29.948  24.993  1.00  0.00     0.043 A 
ATOM     21  Cl  UNL A   1      30.810  28.087  23.089  1.00  0.00    -0.082 Cl
ATOM     22  C   UNL A   1      31.804  30.485  26.112  1.00  0.00     0.042 A 
ATOM     23  Cl  UNL A   1      31.388  32.058  26.670  1.00  0.00    -0.084 Cl
ENDBRANCH  14  16
ENDBRANCH  11  12
ENDBRANCH  10  11
BRANCH  10  24
ATOM     24  C   UNL A   1      34.062  22.328  23.933  1.00  0.00    -0.033 A 
ATOM     25  C   UNL A   1      34.396  21.199  24.698  1.00  0.00     0.004 A 
ATOM     26  C   UNL A   1      32.979  22.236  23.043  1.00  0.00     0.004 A 
ATOM     27  C   UNL A   1      33.589  20.064  24.683  1.00  0.00     0.000 A 
ATOM     28  C   UNL A   1      32.197  21.080  22.999  1.00  0.00     0.000 A 
ATOM     29  C   UNL A   1      32.482  20.009  23.843  1.00  0.00     0.000 A 
ENDBRANCH  10  24
ENDBRANCH   8  10
ENDBRANCH   7   8
ENDBRANCH   6   7
ENDBRANCH   5   6
ENDBRANCH   4   5
ENDBRANCH   3   4
ENDBRANCH   2   3
ENDBRANCH   1   2
BRANCH   1  30
ATOM     30  C   UNL A   1      42.286  19.054  26.073  1.00  0.00     0.188 C 
BRANCH  30  31
ATOM     31  C   UNL A   1      43.639  18.362  26.309  1.00  0.00     0.188 C 
BRANCH  31  32
ATOM     32  O   UNL A   1      44.373  18.124  25.125  1.00  0.00    -0.376 OA
BRANCH  32  33
ATOM     33  C   UNL A   1      44.830  19.270  24.415  1.00  0.00     0.202 C 
BRANCH  33  34
ATOM     34  C   UNL A   1      45.627  20.367  25.154  1.00  0.00     0.261 C 
BRANCH  34  35
ATOM     35  O   UNL A   1      44.904  21.513  25.640  1.00  0.00    -0.460 OA
BRANCH  35  36
ATOM     36  C   UNL A   1      44.614  22.492  24.761  1.00  0.00     0.338 C 
ATOM     37  O   UNL A   1      44.062  22.351  23.676  1.00  0.00    -0.246 OA
BRANCH  36  38
ATOM     38  C   UNL A   1      44.881  23.800  25.402  1.00  0.00     0.060 A 
ATOM     39  C   UNL A   1      45.460  23.827  26.678  1.00  0.00     0.016 A 
ATOM     40  C   UNL A   1      44.540  24.996  24.763  1.00  0.00     0.016 A 
ATOM     41  C   UNL A   1      45.637  25.041  27.345  1.00  0.00     0.010 A 
ATOM     42  C   UNL A   1      44.698  26.212  25.442  1.00  0.00     0.010 A 
ATOM     43  C   UNL A   1      45.200  26.236  26.755  1.00  0.00    -0.014 A 
BRANCH  43  44
ATOM     44  C   UNL A   1      45.067  27.455  27.599  1.00  0.00     0.031 A 
ATOM     45  C   UNL A   1      46.231  28.405  27.678  1.00  0.00     0.074 A 
ATOM     46  C   UNL A   1      43.932  27.744  28.257  1.00  0.00     0.049 A 
ATOM     47  N   UNL A   1      46.339  29.536  28.324  1.00  0.00    -0.248 NA
ATOM     48  C   UNL A   1      47.438  28.011  26.940  1.00  0.00     0.031 C 
ATOM     49  C   UNL A   1      42.741  26.905  28.264  1.00  0.00     0.029 A 
ATOM     50  N   UNL A   1      43.594  28.820  29.043  1.00  0.00    -0.354 N 
ATOM     51  C   UNL A   1      47.635  29.982  28.090  1.00  0.00     0.074 A 
ATOM     52  C   UNL A   1      48.279  28.977  27.270  1.00  0.00     0.031 C 
ATOM     53  C   UNL A   1      41.798  27.512  29.001  1.00  0.00     0.029 A 
ATOM     54  C   UNL A   1      42.309  28.770  29.529  1.00  0.00     0.049 A 
ATOM     55  H   UNL A   1      44.215  29.559  29.240  1.00  0.00     0.167 HD
ATOM     56  C   UNL A   1      48.231  31.123  28.518  1.00  0.00     0.034 A 
ATOM     57  C   UNL A   1      41.616  29.629  30.306  1.00  0.00     0.034 A 
ATOM     58  C   UNL A   1      47.582  32.107  29.350  1.00  0.00     0.049 A 
ATOM     59  C   UNL A   1      42.311  30.873  30.803  1.00  0.00     0.074 A 
ATOM     60  C   UNL A   1      48.089  33.306  29.822  1.00  0.00     0.029 A 
ATOM     61  N   UNL A   1      46.290  32.001  29.857  1.00  0.00    -0.354 N 
ATOM     62  N   UNL A   1      43.530  31.295  30.553  1.00  0.00    -0.248 NA
ATOM     63  C   UNL A   1      41.541  31.749  31.692  1.00  0.00     0.031 C 
ATOM     64  C   UNL A   1      47.141  33.879  30.678  1.00  0.00     0.029 A 
ATOM     65  C   UNL A   1      46.003  33.091  30.667  1.00  0.00     0.049 A 
ATOM     66  H   UNL A   1      45.671  31.260  29.667  1.00  0.00     0.167 HD
ATOM     67  C   UNL A   1      43.663  32.498  31.242  1.00  0.00     0.074 A 
ATOM     68  C   UNL A   1      42.389  32.747  31.887  1.00  0.00     0.031 C 
ATOM     69  C   UNL A   1      44.740  33.319  31.335  1.00  0.00     0.034 A 
BRANCH  56  70
ATOM     70  C   UNL A   1      49.684  31.315  28.147  1.00  0.00     0.023 A 
ATOM     71  C   UNL A   1      50.071  32.023  26.994  1.00  0.00     0.031 A 
ATOM     72  C   UNL A   1      50.695  30.719  28.920  1.00  0.00     0.131 A 
ATOM     73  C   UNL A   1      51.417  32.029  26.597  1.00  0.00     0.055 A 
ATOM     74  C   UNL A   1      52.043  30.815  28.573  1.00  0.00     0.041 A 
ATOM     75  F   UNL A   1      50.388  30.007  30.016  1.00  0.00    -0.206 F 
ATOM     76  C   UNL A   1      52.410  31.455  27.393  1.00  0.00     0.022 A 
BRANCH  73  77
ATOM     77  S   UNL A   1      51.823  32.630  24.933  1.00  0.00     0.124 S 
ATOM     78  O   UNL A   1      50.859  33.717  24.771  1.00  0.00    -0.237 OA
ATOM     79  O   UNL A   1      53.218  33.031  25.074  1.00  0.00    -0.237 OA
ATOM     80  O   UNL A   1      51.588  31.467  24.081  1.00  0.00    -0.744 OA
ENDBRANCH  73  77
ENDBRANCH  56  70
BRANCH  57  81
ATOM     81  C   UNL A   1      40.190  29.363  30.673  1.00  0.00     0.023 A 
ATOM     82  C   UNL A   1      39.137  29.903  29.914  1.00  0.00     0.031 A 
ATOM     83  C   UNL A   1      39.852  28.610  31.813  1.00  0.00     0.131 A 
ATOM     84  C   UNL A   1      37.805  29.721  30.324  1.00  0.00     0.055 A 
ATOM     85  C   UNL A   1      38.526  28.378  32.181  1.00  0.00     0.041 A 
ATOM     86  F   UNL A   1      40.813  28.075  32.582  1.00  0.00    -0.206 F 
ATOM     87  C   UNL A   1      37.493  28.946  31.442  1.00  0.00     0.022 A 
BRANCH  84  88
ATOM     88  S   UNL A   1      36.489  30.596  29.432  1.00  0.00     0.124 S 
ATOM     89  O   UNL A   1      37.257  31.487  28.569  1.00  0.00    -0.237 OA
ATOM     90  O   UNL A   1      35.793  29.502  28.763  1.00  0.00    -0.237 OA
ATOM     91  O   UNL A   1      35.735  31.255  30.495  1.00  0.00    -0.744 OA
ENDBRANCH  84  88
ENDBRANCH  57  81
BRANCH  69  92
ATOM     92  C   UNL A   1      44.566  34.585  32.145  1.00  0.00     0.023 A 
ATOM     93  C   UNL A   1      44.846  34.627  33.523  1.00  0.00     0.031 A 
ATOM     94  C   UNL A   1      44.069  35.754  31.540  1.00  0.00     0.131 A 
ATOM     95  C   UNL A   1      44.548  35.782  34.264  1.00  0.00     0.055 A 
ATOM     96  C   UNL A   1      43.850  36.924  32.268  1.00  0.00     0.041 A 
ATOM     97  F   UNL A   1      43.778  35.775  30.228  1.00  0.00    -0.206 F 
ATOM     98  C   UNL A   1      44.071  36.937  33.641  1.00  0.00     0.022 A 
BRANCH  95  99
ATOM     99  S   UNL A   1      44.664  35.709  36.073  1.00  0.00     0.124 S 
ATOM    100  O   UNL A   1      43.740  34.625  36.391  1.00  0.00    -0.237 OA
ATOM    101  O   UNL A   1      46.079  35.424  36.285  1.00  0.00    -0.237 OA
ATOM    102  O   UNL A   1      44.229  37.038  36.499  1.00  0.00    -0.744 OA
ENDBRANCH  95  99
ENDBRANCH  69  92
ENDBRANCH  43  44
ENDBRANCH  36  38
ENDBRANCH  35  36
ENDBRANCH  34  35
ENDBRANCH  33  34
ENDBRANCH  32  33
ENDBRANCH  31  32
ENDBRANCH  30  31
ENDBRANCH   1  30
TORSDOF 27
ENDMDL
