MODEL 1
REMARK VINA RESULT:      -9.1      0.000      0.000
REMARK SMILES O=C(OCCOCCOCCOCCOC(=O)[C@H]1CC=CC[C@@H]1C(=O)Nc1ccccc1C(=O)NCc1ccco1)c1ccc(-c2c3nc(c(-c4cc(S(=O)(=O)[O-])ccc4F)c4ccc([nH]4)c(-c4cc(S(=O)(=O)[O-])ccc4F)c4nc(c(-c5cc(S(=O)(=O)[O-])ccc5F)c5ccc2[nH]5)C=C4)C=C3)cc1
REMARK SMILES IDX 10 1 9 2 8 3 7 4 6 5 5 6 4 7 3 8 2 9 1 10 42 11 43 12 104 13
REMARK SMILES IDX 44 14 103 15 45 16 46 17 47 18 97 19 48 20 102 21 96 22
REMARK SMILES IDX 98 23 49 24 101 25 95 26 94 27 50 29 82 30 62 31 81 32 63 33
REMARK SMILES IDX 66 34 80 35 99 36 64 37 65 38 79 40 100 41 67 42 51 43 52 44
REMARK SMILES IDX 60 45 53 46 59 47 61 48 58 49 54 50 55 51 56 52 57 53 83 54
REMARK SMILES IDX 84 55 92 56 85 57 91 58 93 59 90 60 86 61 87 62 88 63 89 64
REMARK SMILES IDX 68 65 69 66 77 67 70 68 76 69 78 70 75 71 71 72 72 73 73 74
REMARK SMILES IDX 74 75 11 76 12 77 13 78 14 79 15 80 16 81 17 82 18 83 19 84
REMARK SMILES IDX 23 85 20 86 22 87 21 88 24 89 25 90 26 91 27 93 28 94 32 95
REMARK SMILES IDX 29 96 31 97 30 98 33 99 34 100 35 101 36 103 37 104 38 105
REMARK SMILES IDX 41 106 39 107 40 108
REMARK H PARENT 98 28 66 39 26 92 35 102
REMARK Flexibility Score: inf
ROOT
ATOM      1  C   UNL A   1      39.946  25.558  26.881  1.00  0.00     0.188 C 
ENDROOT
BRANCH   1   2
ATOM      2  O   UNL A   1      40.582  26.474  27.765  1.00  0.00    -0.377 OA
BRANCH   2   3
ATOM      3  C   UNL A   1      39.843  27.640  28.109  1.00  0.00     0.188 C 
BRANCH   3   4
ATOM      4  C   UNL A   1      39.935  28.781  27.101  1.00  0.00     0.188 C 
BRANCH   4   5
ATOM      5  O   UNL A   1      38.803  29.643  27.205  1.00  0.00    -0.376 OA
BRANCH   5   6
ATOM      6  C   UNL A   1      38.130  29.596  28.466  1.00  0.00     0.202 C 
BRANCH   6   7
ATOM      7  C   UNL A   1      37.545  30.946  28.879  1.00  0.00     0.261 C 
BRANCH   7   8
ATOM      8  O   UNL A   1      37.339  31.023  30.298  1.00  0.00    -0.460 OA
BRANCH   8   9
ATOM      9  C   UNL A   1      37.585  30.061  31.223  1.00  0.00     0.338 C 
ATOM     10  O   UNL A   1      36.615  29.478  31.711  1.00  0.00    -0.246 OA
BRANCH   9  11
ATOM     11  C   UNL A   1      38.952  29.636  31.679  1.00  0.00     0.060 A 
ATOM     12  C   UNL A   1      40.093  30.442  31.740  1.00  0.00     0.016 A 
ATOM     13  C   UNL A   1      39.078  28.304  32.116  1.00  0.00     0.016 A 
ATOM     14  C   UNL A   1      41.327  29.938  32.129  1.00  0.00     0.010 A 
ATOM     15  C   UNL A   1      40.312  27.785  32.519  1.00  0.00     0.010 A 
ATOM     16  C   UNL A   1      41.449  28.598  32.476  1.00  0.00    -0.014 A 
BRANCH  16  17
ATOM     17  C   UNL A   1      42.810  28.033  32.511  1.00  0.00     0.031 A 
ATOM     18  C   UNL A   1      43.369  27.689  33.860  1.00  0.00     0.074 A 
ATOM     19  C   UNL A   1      43.434  27.684  31.373  1.00  0.00     0.049 A 
ATOM     20  N   UNL A   1      44.540  27.217  34.184  1.00  0.00    -0.248 NA
ATOM     21  C   UNL A   1      42.464  27.897  35.003  1.00  0.00     0.031 C 
ATOM     22  C   UNL A   1      42.874  27.831  30.029  1.00  0.00     0.029 A 
ATOM     23  N   UNL A   1      44.653  27.102  31.170  1.00  0.00    -0.354 N 
ATOM     24  C   UNL A   1      44.523  27.099  35.572  1.00  0.00     0.074 A 
ATOM     25  C   UNL A   1      43.231  27.562  36.024  1.00  0.00     0.031 C 
ATOM     26  C   UNL A   1      43.749  27.335  29.138  1.00  0.00     0.029 A 
ATOM     27  C   UNL A   1      44.952  26.901  29.842  1.00  0.00     0.049 A 
ATOM     28  H   UNL A   1      45.261  26.852  31.903  1.00  0.00     0.167 HD
ATOM     29  C   UNL A   1      45.508  26.651  36.387  1.00  0.00     0.034 A 
ATOM     30  C   UNL A   1      46.088  26.452  29.277  1.00  0.00     0.034 A 
ATOM     31  C   UNL A   1      46.790  26.227  35.883  1.00  0.00     0.049 A 
ATOM     32  C   UNL A   1      47.226  26.086  30.200  1.00  0.00     0.074 A 
ATOM     33  C   UNL A   1      47.922  25.853  36.580  1.00  0.00     0.029 A 
ATOM     34  N   UNL A   1      47.104  26.131  34.529  1.00  0.00    -0.354 N 
ATOM     35  N   UNL A   1      47.253  26.081  31.516  1.00  0.00    -0.248 NA
ATOM     36  C   UNL A   1      48.486  25.683  29.569  1.00  0.00     0.031 C 
ATOM     37  C   UNL A   1      48.936  25.592  35.650  1.00  0.00     0.029 A 
ATOM     38  C   UNL A   1      48.418  25.728  34.370  1.00  0.00     0.049 A 
ATOM     39  H   UNL A   1      46.481  26.323  33.792  1.00  0.00     0.167 HD
ATOM     40  C   UNL A   1      48.529  25.656  31.871  1.00  0.00     0.074 A 
ATOM     41  C   UNL A   1      49.232  25.398  30.627  1.00  0.00     0.031 C 
ATOM     42  C   UNL A   1      49.079  25.495  33.104  1.00  0.00     0.034 A 
BRANCH  29  43
ATOM     43  C   UNL A   1      45.245  26.739  37.872  1.00  0.00     0.023 A 
ATOM     44  C   UNL A   1      45.609  27.871  38.627  1.00  0.00     0.031 A 
ATOM     45  C   UNL A   1      44.768  25.614  38.567  1.00  0.00     0.131 A 
ATOM     46  C   UNL A   1      45.600  27.807  40.030  1.00  0.00     0.055 A 
ATOM     47  C   UNL A   1      44.674  25.591  39.959  1.00  0.00     0.041 A 
ATOM     48  F   UNL A   1      44.435  24.493  37.906  1.00  0.00    -0.206 F 
ATOM     49  C   UNL A   1      45.115  26.683  40.702  1.00  0.00     0.022 A 
BRANCH  46  50
ATOM     50  S   UNL A   1      46.424  29.134  40.960  1.00  0.00     0.124 S 
ATOM     51  O   UNL A   1      47.496  28.395  41.637  1.00  0.00    -0.237 OA
ATOM     52  O   UNL A   1      46.833  30.048  39.922  1.00  0.00    -0.237 OA
ATOM     53  O   UNL A   1      45.368  29.625  41.858  1.00  0.00    -0.744 OA
ENDBRANCH  46  50
ENDBRANCH  29  43
BRANCH  30  54
ATOM     54  C   UNL A   1      46.231  26.393  27.793  1.00  0.00     0.023 A 
ATOM     55  C   UNL A   1      45.965  25.216  27.074  1.00  0.00     0.031 A 
ATOM     56  C   UNL A   1      46.664  27.519  27.067  1.00  0.00     0.131 A 
ATOM     57  C   UNL A   1      46.156  25.186  25.681  1.00  0.00     0.055 A 
ATOM     58  C   UNL A   1      46.807  27.499  25.678  1.00  0.00     0.041 A 
ATOM     59  F   UNL A   1      46.942  28.670  27.700  1.00  0.00    -0.206 F 
ATOM     60  C   UNL A   1      46.561  26.324  24.977  1.00  0.00     0.022 A 
BRANCH  57  61
ATOM     61  S   UNL A   1      45.923  23.618  24.798  1.00  0.00     0.124 S 
ATOM     62  O   UNL A   1      46.890  23.739  23.713  1.00  0.00    -0.237 OA
ATOM     63  O   UNL A   1      46.239  22.638  25.833  1.00  0.00    -0.237 OA
ATOM     64  O   UNL A   1      44.521  23.658  24.393  1.00  0.00    -0.744 OA
ENDBRANCH  57  61
ENDBRANCH  30  54
BRANCH  42  65
ATOM     65  C   UNL A   1      50.492  24.975  33.146  1.00  0.00     0.023 A 
ATOM     66  C   UNL A   1      50.776  23.605  33.030  1.00  0.00     0.031 A 
ATOM     67  C   UNL A   1      51.564  25.870  33.306  1.00  0.00     0.131 A 
ATOM     68  C   UNL A   1      52.101  23.160  33.133  1.00  0.00     0.055 A 
ATOM     69  C   UNL A   1      52.885  25.427  33.344  1.00  0.00     0.041 A 
ATOM     70  F   UNL A   1      51.342  27.189  33.420  1.00  0.00    -0.206 F 
ATOM     71  C   UNL A   1      53.159  24.064  33.270  1.00  0.00     0.022 A 
BRANCH  68  72
ATOM     72  S   UNL A   1      52.416  21.376  33.175  1.00  0.00     0.124 S 
ATOM     73  O   UNL A   1      53.252  21.188  31.994  1.00  0.00    -0.237 OA
ATOM     74  O   UNL A   1      53.082  21.205  34.462  1.00  0.00    -0.237 OA
ATOM     75  O   UNL A   1      51.079  20.790  33.088  1.00  0.00    -0.744 OA
ENDBRANCH  68  72
ENDBRANCH  42  65
ENDBRANCH  16  17
ENDBRANCH   9  11
ENDBRANCH   8   9
ENDBRANCH   7   8
ENDBRANCH   6   7
ENDBRANCH   5   6
ENDBRANCH   4   5
ENDBRANCH   3   4
ENDBRANCH   2   3
ENDBRANCH   1   2
BRANCH   1  76
ATOM     76  C   UNL A   1      39.697  24.100  27.308  1.00  0.00     0.188 C 
BRANCH  76  77
ATOM     77  O   UNL A   1      38.771  23.360  26.521  1.00  0.00    -0.376 OA
BRANCH  77  78
ATOM     78  C   UNL A   1      39.193  22.039  26.185  1.00  0.00     0.202 C 
BRANCH  78  79
ATOM     79  C   UNL A   1      38.116  21.251  25.434  1.00  0.00     0.261 C 
BRANCH  79  80
ATOM     80  O   UNL A   1      36.972  22.052  25.086  1.00  0.00    -0.463 OA
BRANCH  80  81
ATOM     81  C   UNL A   1      35.802  21.721  25.669  1.00  0.00     0.310 C 
ATOM     82  O   UNL A   1      35.576  21.875  26.864  1.00  0.00    -0.252 OA
BRANCH  81  83
ATOM     83  C   UNL A   1      34.736  21.282  24.665  1.00  0.00     0.116 C 
ATOM     84  C   UNL A   1      34.703  19.778  24.295  1.00  0.00     0.043 C 
ATOM     85  C   UNL A   1      33.391  21.889  25.083  1.00  0.00     0.097 C 
ATOM     86  C   UNL A   1      33.467  19.013  24.631  1.00  0.00    -0.030 C 
ATOM     87  C   UNL A   1      32.566  20.905  25.943  1.00  0.00     0.041 C 
ATOM     88  C   UNL A   1      32.492  19.518  25.389  1.00  0.00    -0.030 C 
BRANCH  85  89
ATOM     89  C   UNL A   1      32.544  22.472  23.952  1.00  0.00     0.228 C 
ATOM     90  O   UNL A   1      32.117  21.754  23.039  1.00  0.00    -0.274 OA
ATOM     91  N   UNL A   1      32.046  23.742  23.958  1.00  0.00    -0.325 N 
ATOM     92  H   UNL A   1      31.290  23.845  23.335  1.00  0.00     0.169 HD
BRANCH  91  93
ATOM     93  C   UNL A   1      32.340  24.940  24.628  1.00  0.00     0.054 A 
ATOM     94  C   UNL A   1      33.726  25.188  24.733  1.00  0.00     0.027 A 
ATOM     95  C   UNL A   1      31.450  25.752  25.367  1.00  0.00     0.063 A 
ATOM     96  C   UNL A   1      34.234  26.289  25.425  1.00  0.00     0.002 A 
ATOM     97  C   UNL A   1      31.996  26.894  26.016  1.00  0.00     0.016 A 
ATOM     98  C   UNL A   1      33.363  27.167  26.039  1.00  0.00     0.001 A 
BRANCH  95  99
ATOM     99  C   UNL A   1      29.982  25.600  25.663  1.00  0.00     0.253 C 
ATOM    100  O   UNL A   1      29.654  25.170  26.775  1.00  0.00    -0.269 OA
ATOM    101  N   UNL A   1      28.936  25.848  24.826  1.00  0.00    -0.345 N 
ATOM    102  H   UNL A   1      28.057  25.700  25.246  1.00  0.00     0.164 HD
BRANCH 101 103
ATOM    103  C   UNL A   1      28.848  26.278  23.459  1.00  0.00     0.191 C 
BRANCH 103 104
ATOM    104  C   UNL A   1      29.751  27.422  23.219  1.00  0.00     0.122 A 
ATOM    105  C   UNL A   1      30.903  27.543  22.473  1.00  0.00     0.047 A 
ATOM    106  O   UNL A   1      29.494  28.581  23.886  1.00  0.00    -0.467 OA
ATOM    107  C   UNL A   1      31.400  28.840  22.723  1.00  0.00     0.042 A 
ATOM    108  C   UNL A   1      30.505  29.435  23.583  1.00  0.00     0.195 A 
ENDBRANCH 103 104
ENDBRANCH 101 103
ENDBRANCH  95  99
ENDBRANCH  91  93
ENDBRANCH  85  89
ENDBRANCH  81  83
ENDBRANCH  80  81
ENDBRANCH  79  80
ENDBRANCH  78  79
ENDBRANCH  77  78
ENDBRANCH  76  77
ENDBRANCH   1  76
TORSDOF 28
ENDMDL
MODEL 2
REMARK VINA RESULT:      -9.1      5.943      9.640
REMARK SMILES O=C(OCCOCCOCCOCCOC(=O)[C@H]1CC=CC[C@@H]1C(=O)Nc1ccccc1C(=O)NCc1ccco1)c1ccc(-c2c3nc(c(-c4cc(S(=O)(=O)[O-])ccc4F)c4ccc([nH]4)c(-c4cc(S(=O)(=O)[O-])ccc4F)c4nc(c(-c5cc(S(=O)(=O)[O-])ccc5F)c5ccc2[nH]5)C=C4)C=C3)cc1
REMARK SMILES IDX 10 1 9 2 8 3 7 4 6 5 5 6 4 7 3 8 2 9 1 10 42 11 43 12 104 13
REMARK SMILES IDX 44 14 103 15 45 16 46 17 47 18 97 19 48 20 102 21 96 22
REMARK SMILES IDX 98 23 49 24 101 25 95 26 94 27 50 29 82 30 62 31 81 32 63 33
REMARK SMILES IDX 66 34 80 35 99 36 64 37 65 38 79 40 100 41 67 42 51 43 52 44
REMARK SMILES IDX 60 45 53 46 59 47 61 48 58 49 54 50 55 51 56 52 57 53 83 54
REMARK SMILES IDX 84 55 92 56 85 57 91 58 93 59 90 60 86 61 87 62 88 63 89 64
REMARK SMILES IDX 68 65 69 66 77 67 70 68 76 69 78 70 75 71 71 72 72 73 73 74
REMARK SMILES IDX 74 75 11 76 12 77 13 78 14 79 15 80 16 81 17 82 18 83 19 84
REMARK SMILES IDX 23 85 20 86 22 87 21 88 24 89 25 90 26 91 27 93 28 94 32 95
REMARK SMILES IDX 29 96 31 97 30 98 33 99 34 100 35 101 36 103 37 104 38 105
REMARK SMILES IDX 41 106 39 107 40 108
REMARK H PARENT 98 28 66 39 26 92 35 102
REMARK Flexibility Score: inf
ROOT
ATOM      1  C   UNL A   1      34.642  32.422  27.687  1.00  0.00     0.188 C 
ENDROOT
BRANCH   1   2
ATOM      2  O   UNL A   1      33.663  33.193  28.376  1.00  0.00    -0.377 OA
BRANCH   2   3
ATOM      3  C   UNL A   1      34.099  33.865  29.552  1.00  0.00     0.188 C 
BRANCH   3   4
ATOM      4  C   UNL A   1      35.536  34.372  29.509  1.00  0.00     0.188 C 
BRANCH   4   5
ATOM      5  O   UNL A   1      36.279  33.889  30.627  1.00  0.00    -0.376 OA
BRANCH   5   6
ATOM      6  C   UNL A   1      35.556  33.870  31.861  1.00  0.00     0.202 C 
BRANCH   6   7
ATOM      7  C   UNL A   1      35.717  32.554  32.624  1.00  0.00     0.261 C 
BRANCH   7   8
ATOM      8  O   UNL A   1      35.936  31.449  31.734  1.00  0.00    -0.460 OA
BRANCH   8   9
ATOM      9  C   UNL A   1      36.905  30.503  31.812  1.00  0.00     0.338 C 
ATOM     10  O   UNL A   1      36.564  29.362  32.129  1.00  0.00    -0.246 OA
BRANCH   9  11
ATOM     11  C   UNL A   1      38.360  30.735  31.515  1.00  0.00     0.060 A 
ATOM     12  C   UNL A   1      39.316  31.239  32.402  1.00  0.00     0.016 A 
ATOM     13  C   UNL A   1      38.798  30.376  30.227  1.00  0.00     0.016 A 
ATOM     14  C   UNL A   1      40.630  31.465  32.013  1.00  0.00     0.010 A 
ATOM     15  C   UNL A   1      40.121  30.590  29.824  1.00  0.00     0.010 A 
ATOM     16  C   UNL A   1      41.024  31.184  30.711  1.00  0.00    -0.014 A 
BRANCH  16  17
ATOM     17  C   UNL A   1      42.289  31.781  30.247  1.00  0.00     0.031 A 
ATOM     18  C   UNL A   1      43.445  30.847  30.036  1.00  0.00     0.074 A 
ATOM     19  C   UNL A   1      42.337  33.068  29.865  1.00  0.00     0.049 A 
ATOM     20  N   UNL A   1      44.670  31.102  29.672  1.00  0.00    -0.248 NA
ATOM     21  C   UNL A   1      43.165  29.418  30.258  1.00  0.00     0.031 C 
ATOM     22  C   UNL A   1      41.202  33.992  29.879  1.00  0.00     0.029 A 
ATOM     23  N   UNL A   1      43.369  33.808  29.358  1.00  0.00    -0.354 N 
ATOM     24  C   UNL A   1      45.316  29.869  29.648  1.00  0.00     0.074 A 
ATOM     25  C   UNL A   1      44.349  28.872  30.048  1.00  0.00     0.031 C 
ATOM     26  C   UNL A   1      41.601  35.177  29.387  1.00  0.00     0.029 A 
ATOM     27  C   UNL A   1      43.028  35.113  29.088  1.00  0.00     0.049 A 
ATOM     28  H   UNL A   1      44.269  33.442  29.202  1.00  0.00     0.167 HD
ATOM     29  C   UNL A   1      46.605  29.604  29.327  1.00  0.00     0.034 A 
ATOM     30  C   UNL A   1      43.804  36.136  28.682  1.00  0.00     0.034 A 
ATOM     31  C   UNL A   1      47.536  30.641  28.961  1.00  0.00     0.049 A 
ATOM     32  C   UNL A   1      45.270  35.850  28.462  1.00  0.00     0.074 A 
ATOM     33  C   UNL A   1      48.892  30.552  28.717  1.00  0.00     0.029 A 
ATOM     34  N   UNL A   1      47.187  31.981  28.795  1.00  0.00    -0.354 N 
ATOM     35  N   UNL A   1      45.912  34.703  28.549  1.00  0.00    -0.248 NA
ATOM     36  C   UNL A   1      46.120  36.991  28.106  1.00  0.00     0.031 C 
ATOM     37  C   UNL A   1      49.372  31.844  28.465  1.00  0.00     0.029 A 
ATOM     38  C   UNL A   1      48.304  32.731  28.476  1.00  0.00     0.049 A 
ATOM     39  H   UNL A   1      46.276  32.341  28.891  1.00  0.00     0.167 HD
ATOM     40  C   UNL A   1      47.239  34.982  28.241  1.00  0.00     0.074 A 
ATOM     41  C   UNL A   1      47.298  36.403  27.947  1.00  0.00     0.031 C 
ATOM     42  C   UNL A   1      48.314  34.152  28.203  1.00  0.00     0.034 A 
BRANCH  29  43
ATOM     43  C   UNL A   1      47.061  28.174  29.499  1.00  0.00     0.023 A 
ATOM     44  C   UNL A   1      47.612  27.708  30.708  1.00  0.00     0.031 A 
ATOM     45  C   UNL A   1      47.091  27.310  28.389  1.00  0.00     0.131 A 
ATOM     46  C   UNL A   1      48.269  26.466  30.744  1.00  0.00     0.055 A 
ATOM     47  C   UNL A   1      47.664  26.040  28.458  1.00  0.00     0.041 A 
ATOM     48  F   UNL A   1      46.610  27.709  27.200  1.00  0.00    -0.206 F 
ATOM     49  C   UNL A   1      48.280  25.620  29.633  1.00  0.00     0.022 A 
BRANCH  46  50
ATOM     50  S   UNL A   1      49.283  26.068  32.198  1.00  0.00     0.124 S 
ATOM     51  O   UNL A   1      48.377  25.200  32.960  1.00  0.00    -0.237 OA
ATOM     52  O   UNL A   1      50.442  25.432  31.619  1.00  0.00    -0.237 OA
ATOM     53  O   UNL A   1      49.522  27.381  32.815  1.00  0.00    -0.744 OA
ENDBRANCH  46  50
ENDBRANCH  29  43
BRANCH  30  54
ATOM     54  C   UNL A   1      43.240  37.509  28.531  1.00  0.00     0.023 A 
ATOM     55  C   UNL A   1      43.399  38.484  29.529  1.00  0.00     0.031 A 
ATOM     56  C   UNL A   1      42.503  37.861  27.384  1.00  0.00     0.131 A 
ATOM     57  C   UNL A   1      42.812  39.752  29.372  1.00  0.00     0.055 A 
ATOM     58  C   UNL A   1      41.962  39.137  27.210  1.00  0.00     0.041 A 
ATOM     59  F   UNL A   1      42.310  36.969  26.399  1.00  0.00    -0.206 F 
ATOM     60  C   UNL A   1      42.108  40.089  28.213  1.00  0.00     0.022 A 
BRANCH  57  61
ATOM     61  S   UNL A   1      42.931  40.947  30.732  1.00  0.00     0.124 S 
ATOM     62  O   UNL A   1      43.389  42.145  30.037  1.00  0.00    -0.237 OA
ATOM     63  O   UNL A   1      41.559  40.978  31.229  1.00  0.00    -0.237 OA
ATOM     64  O   UNL A   1      43.903  40.341  31.637  1.00  0.00    -0.744 OA
ENDBRANCH  57  61
ENDBRANCH  30  54
BRANCH  42  65
ATOM     65  C   UNL A   1      49.624  34.768  27.789  1.00  0.00     0.023 A 
ATOM     66  C   UNL A   1      50.103  34.663  26.473  1.00  0.00     0.031 A 
ATOM     67  C   UNL A   1      50.400  35.467  28.729  1.00  0.00     0.131 A 
ATOM     68  C   UNL A   1      51.355  35.202  26.145  1.00  0.00     0.055 A 
ATOM     69  C   UNL A   1      51.614  36.055  28.381  1.00  0.00     0.041 A 
ATOM     70  F   UNL A   1      49.983  35.595  29.999  1.00  0.00    -0.206 F 
ATOM     71  C   UNL A   1      52.105  35.914  27.086  1.00  0.00     0.022 A 
BRANCH  68  72
ATOM     72  S   UNL A   1      52.032  34.882  24.495  1.00  0.00     0.124 S 
ATOM     73  O   UNL A   1      51.363  33.638  24.129  1.00  0.00    -0.237 OA
ATOM     74  O   UNL A   1      51.622  36.069  23.752  1.00  0.00    -0.237 OA
ATOM     75  O   UNL A   1      53.470  34.766  24.731  1.00  0.00    -0.744 OA
ENDBRANCH  68  72
ENDBRANCH  42  65
ENDBRANCH  16  17
ENDBRANCH   9  11
ENDBRANCH   8   9
ENDBRANCH   7   8
ENDBRANCH   6   7
ENDBRANCH   5   6
ENDBRANCH   4   5
ENDBRANCH   3   4
ENDBRANCH   2   3
ENDBRANCH   1   2
BRANCH   1  76
ATOM     76  C   UNL A   1      34.734  30.900  27.903  1.00  0.00     0.188 C 
BRANCH  76  77
ATOM     77  O   UNL A   1      33.753  30.108  27.245  1.00  0.00    -0.376 OA
BRANCH  77  78
ATOM     78  C   UNL A   1      34.048  28.713  27.193  1.00  0.00     0.202 C 
BRANCH  78  79
ATOM     79  C   UNL A   1      32.787  27.844  27.228  1.00  0.00     0.261 C 
BRANCH  79  80
ATOM     80  O   UNL A   1      32.621  27.046  26.042  1.00  0.00    -0.463 OA
BRANCH  80  81
ATOM     81  C   UNL A   1      31.757  27.511  25.116  1.00  0.00     0.310 C 
ATOM     82  O   UNL A   1      31.409  28.684  25.047  1.00  0.00    -0.252 OA
BRANCH  81  83
ATOM     83  C   UNL A   1      31.380  26.462  24.069  1.00  0.00     0.116 C 
ATOM     84  C   UNL A   1      30.807  26.989  22.729  1.00  0.00     0.043 C 
ATOM     85  C   UNL A   1      32.531  25.457  23.946  1.00  0.00     0.097 C 
ATOM     86  C   UNL A   1      31.579  26.695  21.487  1.00  0.00    -0.030 C 
ATOM     87  C   UNL A   1      33.493  25.833  22.795  1.00  0.00     0.041 C 
ATOM     88  C   UNL A   1      32.809  26.175  21.510  1.00  0.00    -0.030 C 
BRANCH  85  89
ATOM     89  C   UNL A   1      32.125  23.987  23.863  1.00  0.00     0.228 C 
ATOM     90  O   UNL A   1      30.959  23.659  23.606  1.00  0.00    -0.274 OA
ATOM     91  N   UNL A   1      33.017  22.954  23.871  1.00  0.00    -0.325 N 
ATOM     92  H   UNL A   1      32.628  22.127  23.504  1.00  0.00     0.169 HD
BRANCH  91  93
ATOM     93  C   UNL A   1      34.350  22.773  24.273  1.00  0.00     0.054 A 
ATOM     94  C   UNL A   1      35.282  23.188  23.296  1.00  0.00     0.027 A 
ATOM     95  C   UNL A   1      34.820  22.047  25.391  1.00  0.00     0.063 A 
ATOM     96  C   UNL A   1      36.658  23.030  23.468  1.00  0.00     0.002 A 
ATOM     97  C   UNL A   1      36.230  21.950  25.559  1.00  0.00     0.016 A 
ATOM     98  C   UNL A   1      37.137  22.441  24.621  1.00  0.00     0.001 A 
BRANCH  95  99
ATOM     99  C   UNL A   1      34.085  21.269  26.449  1.00  0.00     0.253 C 
ATOM    100  O   UNL A   1      34.414  21.435  27.629  1.00  0.00    -0.269 OA
ATOM    101  N   UNL A   1      33.097  20.349  26.267  1.00  0.00    -0.345 N 
ATOM    102  H   UNL A   1      32.744  19.983  27.110  1.00  0.00     0.164 HD
BRANCH 101 103
ATOM    103  C   UNL A   1      32.464  19.800  25.101  1.00  0.00     0.191 C 
BRANCH 103 104
ATOM    104  C   UNL A   1      33.182  18.594  24.643  1.00  0.00     0.122 A 
ATOM    105  C   UNL A   1      32.733  17.368  24.201  1.00  0.00     0.047 A 
ATOM    106  O   UNL A   1      34.542  18.603  24.713  1.00  0.00    -0.467 OA
ATOM    107  C   UNL A   1      33.883  16.569  24.022  1.00  0.00     0.042 A 
ATOM    108  C   UNL A   1      34.959  17.366  24.340  1.00  0.00     0.195 A 
ENDBRANCH 103 104
ENDBRANCH 101 103
ENDBRANCH  95  99
ENDBRANCH  91  93
ENDBRANCH  85  89
ENDBRANCH  81  83
ENDBRANCH  80  81
ENDBRANCH  79  80
ENDBRANCH  78  79
ENDBRANCH  77  78
ENDBRANCH  76  77
ENDBRANCH   1  76
TORSDOF 28
ENDMDL
MODEL 3
REMARK VINA RESULT:      -8.8      6.321     10.316
REMARK SMILES O=C(OCCOCCOCCOCCOC(=O)[C@H]1CC=CC[C@@H]1C(=O)Nc1ccccc1C(=O)NCc1ccco1)c1ccc(-c2c3nc(c(-c4cc(S(=O)(=O)[O-])ccc4F)c4ccc([nH]4)c(-c4cc(S(=O)(=O)[O-])ccc4F)c4nc(c(-c5cc(S(=O)(=O)[O-])ccc5F)c5ccc2[nH]5)C=C4)C=C3)cc1
REMARK SMILES IDX 10 1 9 2 8 3 7 4 6 5 5 6 4 7 3 8 2 9 1 10 42 11 43 12 104 13
REMARK SMILES IDX 44 14 103 15 45 16 46 17 47 18 97 19 48 20 102 21 96 22
REMARK SMILES IDX 98 23 49 24 101 25 95 26 94 27 50 29 82 30 62 31 81 32 63 33
REMARK SMILES IDX 66 34 80 35 99 36 64 37 65 38 79 40 100 41 67 42 51 43 52 44
REMARK SMILES IDX 60 45 53 46 59 47 61 48 58 49 54 50 55 51 56 52 57 53 83 54
REMARK SMILES IDX 84 55 92 56 85 57 91 58 93 59 90 60 86 61 87 62 88 63 89 64
REMARK SMILES IDX 68 65 69 66 77 67 70 68 76 69 78 70 75 71 71 72 72 73 73 74
REMARK SMILES IDX 74 75 11 76 12 77 13 78 14 79 15 80 16 81 17 82 18 83 19 84
REMARK SMILES IDX 23 85 20 86 22 87 21 88 24 89 25 90 26 91 27 93 28 94 32 95
REMARK SMILES IDX 29 96 31 97 30 98 33 99 34 100 35 101 36 103 37 104 38 105
REMARK SMILES IDX 41 106 39 107 40 108
REMARK H PARENT 98 28 66 39 26 92 35 102
REMARK Flexibility Score: inf
ROOT
ATOM      1  C   UNL A   1      34.475  31.974  28.103  1.00  0.00     0.188 C 
ENDROOT
BRANCH   1   2
ATOM      2  O   UNL A   1      34.671  32.070  29.510  1.00  0.00    -0.377 OA
BRANCH   2   3
ATOM      3  C   UNL A   1      35.989  31.819  29.984  1.00  0.00     0.188 C 
BRANCH   3   4
ATOM      4  C   UNL A   1      36.175  30.481  30.691  1.00  0.00     0.188 C 
BRANCH   4   5
ATOM      5  O   UNL A   1      36.890  30.648  31.914  1.00  0.00    -0.376 OA
BRANCH   5   6
ATOM      6  C   UNL A   1      36.685  31.908  32.558  1.00  0.00     0.202 C 
BRANCH   6   7
ATOM      7  C   UNL A   1      37.157  31.915  34.013  1.00  0.00     0.261 C 
BRANCH   7   8
ATOM      8  O   UNL A   1      37.898  30.729  34.336  1.00  0.00    -0.460 OA
BRANCH   8   9
ATOM      9  C   UNL A   1      39.171  30.649  34.799  1.00  0.00     0.338 C 
ATOM     10  O   UNL A   1      39.330  30.310  35.973  1.00  0.00    -0.246 OA
BRANCH   9  11
ATOM     11  C   UNL A   1      40.402  30.918  33.981  1.00  0.00     0.060 A 
ATOM     12  C   UNL A   1      41.656  31.300  34.469  1.00  0.00     0.016 A 
ATOM     13  C   UNL A   1      40.280  30.732  32.591  1.00  0.00     0.016 A 
ATOM     14  C   UNL A   1      42.721  31.575  33.622  1.00  0.00     0.010 A 
ATOM     15  C   UNL A   1      41.347  30.996  31.726  1.00  0.00     0.010 A 
ATOM     16  C   UNL A   1      42.557  31.467  32.247  1.00  0.00    -0.014 A 
BRANCH  16  17
ATOM     17  C   UNL A   1      43.567  32.119  31.395  1.00  0.00     0.031 A 
ATOM     18  C   UNL A   1      44.614  31.235  30.783  1.00  0.00     0.074 A 
ATOM     19  C   UNL A   1      43.439  33.411  31.051  1.00  0.00     0.049 A 
ATOM     20  N   UNL A   1      45.633  31.542  30.031  1.00  0.00    -0.248 NA
ATOM     21  C   UNL A   1      44.476  29.794  31.053  1.00  0.00     0.031 C 
ATOM     22  C   UNL A   1      42.345  34.289  31.470  1.00  0.00     0.029 A 
ATOM     23  N   UNL A   1      44.210  34.197  30.241  1.00  0.00    -0.354 N 
ATOM     24  C   UNL A   1      46.274  30.336  29.760  1.00  0.00     0.074 A 
ATOM     25  C   UNL A   1      45.535  29.298  30.442  1.00  0.00     0.031 C 
ATOM     26  C   UNL A   1      42.512  35.493  30.899  1.00  0.00     0.029 A 
ATOM     27  C   UNL A   1      43.754  35.490  30.133  1.00  0.00     0.049 A 
ATOM     28  H   UNL A   1      45.016  33.869  29.780  1.00  0.00     0.167 HD
ATOM     29  C   UNL A   1      47.385  30.127  29.015  1.00  0.00     0.034 A 
ATOM     30  C   UNL A   1      44.310  36.547  29.512  1.00  0.00     0.034 A 
ATOM     31  C   UNL A   1      48.100  31.204  28.379  1.00  0.00     0.049 A 
ATOM     32  C   UNL A   1      45.623  36.323  28.801  1.00  0.00     0.074 A 
ATOM     33  C   UNL A   1      49.295  31.172  27.687  1.00  0.00     0.029 A 
ATOM     34  N   UNL A   1      47.670  32.530  28.373  1.00  0.00    -0.354 N 
ATOM     35  N   UNL A   1      46.294  35.202  28.638  1.00  0.00    -0.248 NA
ATOM     36  C   UNL A   1      46.261  37.500  28.204  1.00  0.00     0.031 C 
ATOM     37  C   UNL A   1      49.616  32.485  27.318  1.00  0.00     0.029 A 
ATOM     38  C   UNL A   1      48.586  33.328  27.712  1.00  0.00     0.049 A 
ATOM     39  H   UNL A   1      46.834  32.852  28.781  1.00  0.00     0.167 HD
ATOM     40  C   UNL A   1      47.427  35.537  27.904  1.00  0.00     0.074 A 
ATOM     41  C   UNL A   1      47.334  36.963  27.642  1.00  0.00     0.031 C 
ATOM     42  C   UNL A   1      48.453  34.751  27.485  1.00  0.00     0.034 A 
BRANCH  29  43
ATOM     43  C   UNL A   1      47.921  28.714  28.989  1.00  0.00     0.023 A 
ATOM     44  C   UNL A   1      47.476  27.767  28.048  1.00  0.00     0.031 A 
ATOM     45  C   UNL A   1      48.770  28.268  30.017  1.00  0.00     0.131 A 
ATOM     46  C   UNL A   1      47.787  26.407  28.223  1.00  0.00     0.055 A 
ATOM     47  C   UNL A   1      49.151  26.930  30.131  1.00  0.00     0.041 A 
ATOM     48  F   UNL A   1      49.203  29.117  30.963  1.00  0.00    -0.206 F 
ATOM     49  C   UNL A   1      48.639  25.986  29.246  1.00  0.00     0.022 A 
BRANCH  46  50
ATOM     50  S   UNL A   1      46.896  25.182  27.220  1.00  0.00     0.124 S 
ATOM     51  O   UNL A   1      46.410  24.256  28.251  1.00  0.00    -0.237 OA
ATOM     52  O   UNL A   1      45.896  25.977  26.552  1.00  0.00    -0.237 OA
ATOM     53  O   UNL A   1      47.946  24.624  26.355  1.00  0.00    -0.744 OA
ENDBRANCH  46  50
ENDBRANCH  29  43
BRANCH  30  54
ATOM     54  C   UNL A   1      43.681  37.898  29.594  1.00  0.00     0.023 A 
ATOM     55  C   UNL A   1      43.913  38.753  30.683  1.00  0.00     0.031 A 
ATOM     56  C   UNL A   1      42.809  38.348  28.583  1.00  0.00     0.131 A 
ATOM     57  C   UNL A   1      43.265  39.999  30.748  1.00  0.00     0.055 A 
ATOM     58  C   UNL A   1      42.206  39.606  28.628  1.00  0.00     0.041 A 
ATOM     59  F   UNL A   1      42.543  37.571  27.520  1.00  0.00    -0.206 F 
ATOM     60  C   UNL A   1      42.425  40.437  29.720  1.00  0.00     0.022 A 
BRANCH  57  61
ATOM     61  S   UNL A   1      43.489  41.027  32.227  1.00  0.00     0.124 S 
ATOM     62  O   UNL A   1      42.109  41.272  32.631  1.00  0.00    -0.237 OA
ATOM     63  O   UNL A   1      44.265  40.145  33.094  1.00  0.00    -0.237 OA
ATOM     64  O   UNL A   1      44.209  42.194  31.727  1.00  0.00    -0.744 OA
ENDBRANCH  57  61
ENDBRANCH  30  54
BRANCH  42  65
ATOM     65  C   UNL A   1      49.523  35.423  26.665  1.00  0.00     0.023 A 
ATOM     66  C   UNL A   1      50.629  36.045  27.267  1.00  0.00     0.031 A 
ATOM     67  C   UNL A   1      49.427  35.440  25.263  1.00  0.00     0.131 A 
ATOM     68  C   UNL A   1      51.571  36.708  26.470  1.00  0.00     0.055 A 
ATOM     69  C   UNL A   1      50.401  36.048  24.472  1.00  0.00     0.041 A 
ATOM     70  F   UNL A   1      48.388  34.859  24.642  1.00  0.00    -0.206 F 
ATOM     71  C   UNL A   1      51.474  36.698  25.075  1.00  0.00     0.022 A 
BRANCH  68  72
ATOM     72  S   UNL A   1      52.878  37.664  27.284  1.00  0.00     0.124 S 
ATOM     73  O   UNL A   1      54.079  36.938  26.885  1.00  0.00    -0.237 OA
ATOM     74  O   UNL A   1      52.709  38.990  26.698  1.00  0.00    -0.237 OA
ATOM     75  O   UNL A   1      52.539  37.568  28.703  1.00  0.00    -0.744 OA
ENDBRANCH  68  72
ENDBRANCH  42  65
ENDBRANCH  16  17
ENDBRANCH   9  11
ENDBRANCH   8   9
ENDBRANCH   7   8
ENDBRANCH   6   7
ENDBRANCH   5   6
ENDBRANCH   4   5
ENDBRANCH   3   4
ENDBRANCH   2   3
ENDBRANCH   1   2
BRANCH   1  76
ATOM     76  C   UNL A   1      34.503  30.604  27.400  1.00  0.00     0.188 C 
BRANCH  76  77
ATOM     77  O   UNL A   1      33.271  29.894  27.352  1.00  0.00    -0.376 OA
BRANCH  77  78
ATOM     78  C   UNL A   1      33.401  28.476  27.280  1.00  0.00     0.202 C 
BRANCH  78  79
ATOM     79  C   UNL A   1      32.046  27.760  27.280  1.00  0.00     0.261 C 
BRANCH  79  80
ATOM     80  O   UNL A   1      31.887  26.860  26.168  1.00  0.00    -0.463 OA
BRANCH  80  81
ATOM     81  C   UNL A   1      31.336  27.372  25.049  1.00  0.00     0.310 C 
ATOM     82  O   UNL A   1      31.110  28.567  24.894  1.00  0.00    -0.252 OA
BRANCH  81  83
ATOM     83  C   UNL A   1      31.167  26.337  23.937  1.00  0.00     0.116 C 
ATOM     84  C   UNL A   1      30.843  26.880  22.522  1.00  0.00     0.043 C 
ATOM     85  C   UNL A   1      32.331  25.342  24.012  1.00  0.00     0.097 C 
ATOM     86  C   UNL A   1      31.833  26.610  21.438  1.00  0.00    -0.030 C 
ATOM     87  C   UNL A   1      33.483  25.742  23.063  1.00  0.00     0.041 C 
ATOM     88  C   UNL A   1      33.042  26.098  21.679  1.00  0.00    -0.030 C 
BRANCH  85  89
ATOM     89  C   UNL A   1      31.960  23.870  23.837  1.00  0.00     0.228 C 
ATOM     90  O   UNL A   1      30.798  23.530  23.580  1.00  0.00    -0.274 OA
ATOM     91  N   UNL A   1      32.878  22.863  23.758  1.00  0.00    -0.325 N 
ATOM     92  H   UNL A   1      32.503  22.053  23.342  1.00  0.00     0.169 HD
BRANCH  91  93
ATOM     93  C   UNL A   1      34.223  22.692  24.122  1.00  0.00     0.054 A 
ATOM     94  C   UNL A   1      35.124  23.113  23.119  1.00  0.00     0.027 A 
ATOM     95  C   UNL A   1      34.730  21.969  25.225  1.00  0.00     0.063 A 
ATOM     96  C   UNL A   1      36.506  22.964  23.252  1.00  0.00     0.002 A 
ATOM     97  C   UNL A   1      36.144  21.881  25.353  1.00  0.00     0.016 A 
ATOM     98  C   UNL A   1      37.021  22.378  24.390  1.00  0.00     0.001 A 
BRANCH  95  99
ATOM     99  C   UNL A   1      34.030  21.185  26.304  1.00  0.00     0.253 C 
ATOM    100  O   UNL A   1      34.321  21.426  27.481  1.00  0.00    -0.269 OA
ATOM    101  N   UNL A   1      33.116  20.188  26.145  1.00  0.00    -0.345 N 
ATOM    102  H   UNL A   1      32.772  19.834  26.997  1.00  0.00     0.164 HD
BRANCH 101 103
ATOM    103  C   UNL A   1      32.549  19.544  24.993  1.00  0.00     0.191 C 
BRANCH 103 104
ATOM    104  C   UNL A   1      33.082  18.174  24.853  1.00  0.00     0.122 A 
ATOM    105  C   UNL A   1      33.747  17.547  23.822  1.00  0.00     0.047 A 
ATOM    106  O   UNL A   1      32.842  17.296  25.866  1.00  0.00    -0.467 OA
ATOM    107  C   UNL A   1      33.894  16.198  24.211  1.00  0.00     0.042 A 
ATOM    108  C   UNL A   1      33.334  16.096  25.464  1.00  0.00     0.195 A 
ENDBRANCH 103 104
ENDBRANCH 101 103
ENDBRANCH  95  99
ENDBRANCH  91  93
ENDBRANCH  85  89
ENDBRANCH  81  83
ENDBRANCH  80  81
ENDBRANCH  79  80
ENDBRANCH  78  79
ENDBRANCH  77  78
ENDBRANCH  76  77
ENDBRANCH   1  76
TORSDOF 28
ENDMDL
