MODEL 1
REMARK VINA RESULT:      -7.9      0.000      0.000
REMARK SMILES CC[NH2+][C@@]1(C(=O)OCCOCCOCCOCCOC(=O)c2ccc(-c3c4nc(c(-c5cc(S(=O)(=O)[O-])ccc5F)c5ccc([nH]5)c(-c5cc(S(=O)(=O)[O-])ccc5F)c5nc(c(-c6cc(S(=O)(=O)[O-])ccc6F)c6ccc3[nH]6)C=C5)C=C4)cc2)CCC[C@H]1CCN1C(=O)CCC1=O
REMARK SMILES IDX 13 1 12 2 11 3 10 4 9 5 8 6 7 7 5 8 6 9 4 10 85 11 88 12
REMARK SMILES IDX 86 13 87 14 3 15 2 18 1 19 89 20 90 21 91 22 92 23 96 24
REMARK SMILES IDX 93 25 94 26 95 27 97 28 14 29 15 30 16 31 17 32 18 33 19 34
REMARK SMILES IDX 20 35 21 36 22 37 23 38 84 39 24 40 83 41 25 42 26 43 27 44
REMARK SMILES IDX 77 45 28 46 82 47 76 48 78 49 29 50 81 51 75 52 74 53 30 55
REMARK SMILES IDX 62 56 42 57 61 58 43 59 46 60 60 61 79 62 44 63 45 64 59 66
REMARK SMILES IDX 80 67 47 68 31 69 32 70 40 71 33 72 39 73 41 74 38 75 34 76
REMARK SMILES IDX 35 77 36 78 37 79 63 80 64 81 72 82 65 83 71 84 73 85 70 86
REMARK SMILES IDX 66 87 67 88 68 89 69 90 48 91 49 92 57 93 50 94 56 95 58 96
REMARK SMILES IDX 55 97 51 98 52 99 53 100 54 101
REMARK H PARENT 3 16 3 17 78 54 46 65
REMARK Flexibility Score: inf
ROOT
ATOM      1  O   UNL A   1      36.865  33.787  30.174  1.00  0.00    -0.377 OA
ENDROOT
BRANCH   1   2
ATOM      2  C   UNL A   1      36.625  33.693  28.782  1.00  0.00     0.188 C 
BRANCH   2   3
ATOM      3  C   UNL A   1      35.189  33.372  28.365  1.00  0.00     0.188 C 
BRANCH   3   4
ATOM      4  O   UNL A   1      35.126  32.293  27.454  1.00  0.00    -0.376 OA
BRANCH   4   5
ATOM      5  C   UNL A   1      34.663  31.063  27.984  1.00  0.00     0.202 C 
BRANCH   5   6
ATOM      6  C   UNL A   1      35.022  29.731  27.287  1.00  0.00     0.261 C 
BRANCH   6   7
ATOM      7  O   UNL A   1      33.972  28.793  26.950  1.00  0.00    -0.459 OA
BRANCH   7   8
ATOM      8  C   UNL A   1      33.188  29.032  25.879  1.00  0.00     0.368 C 
ATOM      9  O   UNL A   1      32.915  30.165  25.484  1.00  0.00    -0.245 OA
BRANCH   8  10
ATOM     10  C   UNL A   1      32.607  27.715  25.184  1.00  0.00     0.197 C 
ATOM     11  C   UNL A   1      33.170  27.792  23.748  1.00  0.00     0.081 C 
ATOM     12  C   UNL A   1      31.068  27.579  24.879  1.00  0.00     0.064 C 
ATOM     13  C   UNL A   1      32.218  28.738  23.023  1.00  0.00     0.008 C 
ATOM     14  C   UNL A   1      30.857  28.551  23.686  1.00  0.00     0.011 C 
BRANCH  10  15
ATOM     15  N   UNL A   1      33.199  26.534  25.882  1.00  0.00    -0.332 N 
ATOM     16  H   UNL A   1      33.642  26.857  26.741  1.00  0.00     0.347 HD
ATOM     17  H   UNL A   1      32.436  25.880  26.056  1.00  0.00     0.347 HD
BRANCH  15  18
ATOM     18  C   UNL A   1      34.201  25.817  25.087  1.00  0.00     0.257 C 
ATOM     19  C   UNL A   1      34.575  24.489  25.721  1.00  0.00     0.071 C 
ENDBRANCH  15  18
ENDBRANCH  10  15
BRANCH  12  20
ATOM     20  C   UNL A   1      30.520  26.183  24.429  1.00  0.00     0.033 C 
BRANCH  20  21
ATOM     21  C   UNL A   1      30.815  25.617  23.028  1.00  0.00     0.129 C 
BRANCH  21  22
ATOM     22  N   UNL A   1      31.680  24.451  22.893  1.00  0.00    -0.283 N 
ATOM     23  C   UNL A   1      32.831  24.385  22.166  1.00  0.00     0.229 C 
ATOM     24  C   UNL A   1      31.590  23.396  23.765  1.00  0.00     0.229 C 
ATOM     25  O   UNL A   1      33.344  25.268  21.500  1.00  0.00    -0.274 OA
ATOM     26  C   UNL A   1      33.424  23.016  22.327  1.00  0.00     0.110 C 
ATOM     27  C   UNL A   1      32.633  22.375  23.437  1.00  0.00     0.110 C 
ATOM     28  O   UNL A   1      30.822  23.280  24.709  1.00  0.00    -0.274 OA
ENDBRANCH  21  22
ENDBRANCH  20  21
ENDBRANCH  12  20
ENDBRANCH   8  10
ENDBRANCH   7   8
ENDBRANCH   6   7
ENDBRANCH   5   6
ENDBRANCH   4   5
ENDBRANCH   3   4
ENDBRANCH   2   3
ENDBRANCH   1   2
BRANCH   1  29
ATOM     29  C   UNL A   1      36.667  32.630  30.984  1.00  0.00     0.188 C 
BRANCH  29  30
ATOM     30  C   UNL A   1      37.354  31.297  30.624  1.00  0.00     0.188 C 
BRANCH  30  31
ATOM     31  O   UNL A   1      36.755  30.137  31.186  1.00  0.00    -0.376 OA
BRANCH  31  32
ATOM     32  C   UNL A   1      36.907  29.876  32.573  1.00  0.00     0.202 C 
BRANCH  32  33
ATOM     33  C   UNL A   1      38.316  29.935  33.174  1.00  0.00     0.261 C 
BRANCH  33  34
ATOM     34  O   UNL A   1      39.072  28.731  33.215  1.00  0.00    -0.460 OA
BRANCH  34  35
ATOM     35  C   UNL A   1      39.631  28.259  32.086  1.00  0.00     0.338 C 
ATOM     36  O   UNL A   1      39.311  27.290  31.438  1.00  0.00    -0.246 OA
BRANCH  35  37
ATOM     37  C   UNL A   1      40.539  29.335  31.660  1.00  0.00     0.060 A 
ATOM     38  C   UNL A   1      40.493  29.749  30.325  1.00  0.00     0.016 A 
ATOM     39  C   UNL A   1      41.357  29.976  32.599  1.00  0.00     0.016 A 
ATOM     40  C   UNL A   1      41.329  30.769  29.908  1.00  0.00     0.010 A 
ATOM     41  C   UNL A   1      42.204  30.989  32.178  1.00  0.00     0.010 A 
ATOM     42  C   UNL A   1      42.229  31.336  30.819  1.00  0.00    -0.014 A 
BRANCH  42  43
ATOM     43  C   UNL A   1      43.385  32.060  30.267  1.00  0.00     0.031 A 
ATOM     44  C   UNL A   1      44.639  31.267  30.030  1.00  0.00     0.074 A 
ATOM     45  C   UNL A   1      43.263  33.342  29.892  1.00  0.00     0.049 A 
ATOM     46  N   UNL A   1      45.765  31.638  29.488  1.00  0.00    -0.248 NA
ATOM     47  C   UNL A   1      44.614  29.858  30.462  1.00  0.00     0.031 C 
ATOM     48  C   UNL A   1      42.053  34.152  30.044  1.00  0.00     0.029 A 
ATOM     49  N   UNL A   1      44.158  34.176  29.288  1.00  0.00    -0.354 N 
ATOM     50  C   UNL A   1      46.578  30.509  29.510  1.00  0.00     0.074 A 
ATOM     51  C   UNL A   1      45.839  29.457  30.166  1.00  0.00     0.031 C 
ATOM     52  C   UNL A   1      42.283  35.370  29.528  1.00  0.00     0.029 A 
ATOM     53  C   UNL A   1      43.661  35.433  29.048  1.00  0.00     0.049 A 
ATOM     54  H   UNL A   1      45.073  33.902  29.046  1.00  0.00     0.167 HD
ATOM     55  C   UNL A   1      47.828  30.369  29.009  1.00  0.00     0.034 A 
ATOM     56  C   UNL A   1      44.269  36.508  28.513  1.00  0.00     0.034 A 
ATOM     57  C   UNL A   1      48.538  31.452  28.378  1.00  0.00     0.049 A 
ATOM     58  C   UNL A   1      45.694  36.350  28.040  1.00  0.00     0.074 A 
ATOM     59  C   UNL A   1      49.810  31.453  27.841  1.00  0.00     0.029 A 
ATOM     60  N   UNL A   1      48.032  32.737  28.212  1.00  0.00    -0.354 N 
ATOM     61  N   UNL A   1      46.461  35.281  28.062  1.00  0.00    -0.248 NA
ATOM     62  C   UNL A   1      46.328  37.535  27.456  1.00  0.00     0.031 C 
ATOM     63  C   UNL A   1      50.105  32.756  27.429  1.00  0.00     0.029 A 
ATOM     64  C   UNL A   1      48.981  33.549  27.614  1.00  0.00     0.049 A 
ATOM     65  H   UNL A   1      47.131  33.028  28.481  1.00  0.00     0.167 HD
ATOM     66  C   UNL A   1      47.659  35.659  27.465  1.00  0.00     0.074 A 
ATOM     67  C   UNL A   1      47.498  37.047  27.073  1.00  0.00     0.031 C 
ATOM     68  C   UNL A   1      48.791  34.935  27.253  1.00  0.00     0.034 A 
BRANCH  55  69
ATOM     69  C   UNL A   1      48.505  29.033  29.196  1.00  0.00     0.023 A 
ATOM     70  C   UNL A   1      48.421  28.009  28.235  1.00  0.00     0.031 A 
ATOM     71  C   UNL A   1      49.205  28.759  30.385  1.00  0.00     0.131 A 
ATOM     72  C   UNL A   1      48.964  26.743  28.507  1.00  0.00     0.055 A 
ATOM     73  C   UNL A   1      49.817  27.525  30.613  1.00  0.00     0.041 A 
ATOM     74  F   UNL A   1      49.289  29.681  31.357  1.00  0.00    -0.206 F 
ATOM     75  C   UNL A   1      49.686  26.503  29.678  1.00  0.00     0.022 A 
BRANCH  72  76
ATOM     76  S   UNL A   1      48.578  25.371  27.385  1.00  0.00     0.124 S 
ATOM     77  O   UNL A   1      48.573  26.043  26.087  1.00  0.00    -0.237 OA
ATOM     78  O   UNL A   1      49.683  24.449  27.622  1.00  0.00    -0.237 OA
ATOM     79  O   UNL A   1      47.269  24.909  27.844  1.00  0.00    -0.744 OA
ENDBRANCH  72  76
ENDBRANCH  55  69
BRANCH  56  80
ATOM     80  C   UNL A   1      43.556  37.813  28.421  1.00  0.00     0.023 A 
ATOM     81  C   UNL A   1      43.634  38.764  29.448  1.00  0.00     0.031 A 
ATOM     82  C   UNL A   1      42.744  38.111  27.310  1.00  0.00     0.131 A 
ATOM     83  C   UNL A   1      42.877  39.944  29.370  1.00  0.00     0.055 A 
ATOM     84  C   UNL A   1      42.041  39.312  27.207  1.00  0.00     0.041 A 
ATOM     85  F   UNL A   1      42.631  37.236  26.297  1.00  0.00    -0.206 F 
ATOM     86  C   UNL A   1      42.094  40.231  28.249  1.00  0.00     0.022 A 
BRANCH  83  87
ATOM     87  S   UNL A   1      42.850  41.057  30.801  1.00  0.00     0.124 S 
ATOM     88  O   UNL A   1      43.694  40.339  31.750  1.00  0.00    -0.237 OA
ATOM     89  O   UNL A   1      43.411  42.282  30.242  1.00  0.00    -0.237 OA
ATOM     90  O   UNL A   1      41.433  41.125  31.153  1.00  0.00    -0.744 OA
ENDBRANCH  83  87
ENDBRANCH  56  80
BRANCH  68  91
ATOM     91  C   UNL A   1      49.915  35.633  26.526  1.00  0.00     0.023 A 
ATOM     92  C   UNL A   1      50.930  36.316  27.217  1.00  0.00     0.031 A 
ATOM     93  C   UNL A   1      49.953  35.636  25.120  1.00  0.00     0.131 A 
ATOM     94  C   UNL A   1      51.889  37.046  26.501  1.00  0.00     0.055 A 
ATOM     95  C   UNL A   1      50.960  36.293  24.414  1.00  0.00     0.041 A 
ATOM     96  F   UNL A   1      49.008  35.000  24.408  1.00  0.00    -0.206 F 
ATOM     97  C   UNL A   1      51.924  37.021  25.105  1.00  0.00     0.022 A 
BRANCH  94  98
ATOM     98  S   UNL A   1      52.999  38.145  27.421  1.00  0.00     0.124 S 
ATOM     99  O   UNL A   1      54.194  37.317  27.561  1.00  0.00    -0.237 OA
ATOM    100  O   UNL A   1      53.119  39.290  26.525  1.00  0.00    -0.237 OA
ATOM    101  O   UNL A   1      52.273  38.401  28.664  1.00  0.00    -0.744 OA
ENDBRANCH  94  98
ENDBRANCH  68  91
ENDBRANCH  42  43
ENDBRANCH  35  37
ENDBRANCH  34  35
ENDBRANCH  33  34
ENDBRANCH  32  33
ENDBRANCH  31  32
ENDBRANCH  30  31
ENDBRANCH  29  30
ENDBRANCH   1  29
TORSDOF 28
ENDMDL
MODEL 2
REMARK VINA RESULT:      -7.4      6.338     12.594
REMARK SMILES CC[NH2+][C@@]1(C(=O)OCCOCCOCCOCCOC(=O)c2ccc(-c3c4nc(c(-c5cc(S(=O)(=O)[O-])ccc5F)c5ccc([nH]5)c(-c5cc(S(=O)(=O)[O-])ccc5F)c5nc(c(-c6cc(S(=O)(=O)[O-])ccc6F)c6ccc3[nH]6)C=C5)C=C4)cc2)CCC[C@H]1CCN1C(=O)CCC1=O
REMARK SMILES IDX 13 1 12 2 11 3 10 4 9 5 8 6 7 7 5 8 6 9 4 10 85 11 88 12
REMARK SMILES IDX 86 13 87 14 3 15 2 18 1 19 89 20 90 21 91 22 92 23 96 24
REMARK SMILES IDX 93 25 94 26 95 27 97 28 14 29 15 30 16 31 17 32 18 33 19 34
REMARK SMILES IDX 20 35 21 36 22 37 23 38 84 39 24 40 83 41 25 42 26 43 27 44
REMARK SMILES IDX 77 45 28 46 82 47 76 48 78 49 29 50 81 51 75 52 74 53 30 55
REMARK SMILES IDX 62 56 42 57 61 58 43 59 46 60 60 61 79 62 44 63 45 64 59 66
REMARK SMILES IDX 80 67 47 68 31 69 32 70 40 71 33 72 39 73 41 74 38 75 34 76
REMARK SMILES IDX 35 77 36 78 37 79 63 80 64 81 72 82 65 83 71 84 73 85 70 86
REMARK SMILES IDX 66 87 67 88 68 89 69 90 48 91 49 92 57 93 50 94 56 95 58 96
REMARK SMILES IDX 55 97 51 98 52 99 53 100 54 101
REMARK H PARENT 3 16 3 17 78 54 46 65
REMARK Flexibility Score: inf
ROOT
ATOM      1  O   UNL A   1      48.444  27.397  32.521  1.00  0.00    -0.377 OA
ENDROOT
BRANCH   1   2
ATOM      2  C   UNL A   1      47.742  28.249  31.633  1.00  0.00     0.188 C 
BRANCH   2   3
ATOM      3  C   UNL A   1      47.321  29.607  32.194  1.00  0.00     0.188 C 
BRANCH   3   4
ATOM      4  O   UNL A   1      46.119  29.529  32.936  1.00  0.00    -0.376 OA
BRANCH   4   5
ATOM      5  C   UNL A   1      44.922  29.635  32.186  1.00  0.00     0.202 C 
BRANCH   5   6
ATOM      6  C   UNL A   1      43.887  28.486  32.204  1.00  0.00     0.261 C 
BRANCH   6   7
ATOM      7  O   UNL A   1      42.510  28.756  31.853  1.00  0.00    -0.459 OA
BRANCH   7   8
ATOM      8  C   UNL A   1      41.688  29.311  32.767  1.00  0.00     0.368 C 
ATOM      9  O   UNL A   1      41.508  30.524  32.863  1.00  0.00    -0.245 OA
BRANCH   8  10
ATOM     10  C   UNL A   1      40.992  28.258  33.748  1.00  0.00     0.197 C 
ATOM     11  C   UNL A   1      40.415  29.146  34.873  1.00  0.00     0.081 C 
ATOM     12  C   UNL A   1      41.859  27.254  34.595  1.00  0.00     0.064 C 
ATOM     13  C   UNL A   1      41.603  29.400  35.795  1.00  0.00     0.008 C 
ATOM     14  C   UNL A   1      42.491  28.163  35.684  1.00  0.00     0.011 C 
BRANCH  10  15
ATOM     15  N   UNL A   1      39.867  27.618  33.002  1.00  0.00    -0.332 N 
ATOM     16  H   UNL A   1      40.169  27.455  32.042  1.00  0.00     0.347 HD
ATOM     17  H   UNL A   1      39.641  26.753  33.494  1.00  0.00     0.347 HD
BRANCH  15  18
ATOM     18  C   UNL A   1      38.642  28.422  32.972  1.00  0.00     0.257 C 
ATOM     19  C   UNL A   1      38.476  29.143  31.645  1.00  0.00     0.071 C 
ENDBRANCH  15  18
ENDBRANCH  10  15
BRANCH  12  20
ATOM     20  C   UNL A   1      41.128  26.089  35.344  1.00  0.00     0.033 C 
BRANCH  20  21
ATOM     21  C   UNL A   1      41.769  24.698  35.489  1.00  0.00     0.129 C 
BRANCH  21  22
ATOM     22  N   UNL A   1      43.222  24.571  35.457  1.00  0.00    -0.283 N 
ATOM     23  C   UNL A   1      44.077  24.884  36.471  1.00  0.00     0.229 C 
ATOM     24  C   UNL A   1      43.847  23.803  34.509  1.00  0.00     0.229 C 
ATOM     25  O   UNL A   1      43.798  25.324  37.574  1.00  0.00    -0.274 OA
ATOM     26  C   UNL A   1      45.478  24.571  36.033  1.00  0.00     0.110 C 
ATOM     27  C   UNL A   1      45.323  23.797  34.750  1.00  0.00     0.110 C 
ATOM     28  O   UNL A   1      43.319  23.164  33.609  1.00  0.00    -0.274 OA
ENDBRANCH  21  22
ENDBRANCH  20  21
ENDBRANCH  12  20
ENDBRANCH   8  10
ENDBRANCH   7   8
ENDBRANCH   6   7
ENDBRANCH   5   6
ENDBRANCH   4   5
ENDBRANCH   3   4
ENDBRANCH   2   3
ENDBRANCH   1   2
BRANCH   1  29
ATOM     29  C   UNL A   1      47.745  26.839  33.631  1.00  0.00     0.188 C 
BRANCH  29  30
ATOM     30  C   UNL A   1      48.370  26.864  35.041  1.00  0.00     0.188 C 
BRANCH  30  31
ATOM     31  O   UNL A   1      48.575  28.159  35.589  1.00  0.00    -0.376 OA
BRANCH  31  32
ATOM     32  C   UNL A   1      49.330  28.301  36.782  1.00  0.00     0.202 C 
BRANCH  32  33
ATOM     33  C   UNL A   1      49.314  29.658  37.495  1.00  0.00     0.261 C 
BRANCH  33  34
ATOM     34  O   UNL A   1      48.066  30.138  37.983  1.00  0.00    -0.460 OA
BRANCH  34  35
ATOM     35  C   UNL A   1      47.910  31.451  38.229  1.00  0.00     0.338 C 
ATOM     36  O   UNL A   1      48.630  32.186  38.863  1.00  0.00    -0.246 OA
BRANCH  35  37
ATOM     37  C   UNL A   1      46.821  31.857  37.326  1.00  0.00     0.060 A 
ATOM     38  C   UNL A   1      46.457  33.206  37.296  1.00  0.00     0.016 A 
ATOM     39  C   UNL A   1      46.238  30.920  36.466  1.00  0.00     0.016 A 
ATOM     40  C   UNL A   1      45.444  33.611  36.444  1.00  0.00     0.010 A 
ATOM     41  C   UNL A   1      45.214  31.322  35.622  1.00  0.00     0.010 A 
ATOM     42  C   UNL A   1      44.782  32.656  35.663  1.00  0.00    -0.014 A 
BRANCH  42  43
ATOM     43  C   UNL A   1      43.454  33.014  35.138  1.00  0.00     0.031 A 
ATOM     44  C   UNL A   1      43.376  33.419  33.694  1.00  0.00     0.074 A 
ATOM     45  C   UNL A   1      42.363  32.867  35.905  1.00  0.00     0.049 A 
ATOM     46  N   UNL A   1      42.332  33.707  32.969  1.00  0.00    -0.248 NA
ATOM     47  C   UNL A   1      44.656  33.505  32.968  1.00  0.00     0.031 C 
ATOM     48  C   UNL A   1      42.367  32.423  37.300  1.00  0.00     0.029 A 
ATOM     49  N   UNL A   1      41.043  33.051  35.609  1.00  0.00    -0.354 N 
ATOM     50  C   UNL A   1      42.828  34.003  31.703  1.00  0.00     0.074 A 
ATOM     51  C   UNL A   1      44.267  33.913  31.772  1.00  0.00     0.031 C 
ATOM     52  C   UNL A   1      41.099  32.356  37.734  1.00  0.00     0.029 A 
ATOM     53  C   UNL A   1      40.204  32.788  36.663  1.00  0.00     0.049 A 
ATOM     54  H   UNL A   1      40.724  33.343  34.725  1.00  0.00     0.167 HD
ATOM     55  C   UNL A   1      42.133  34.308  30.582  1.00  0.00     0.034 A 
ATOM     56  C   UNL A   1      38.865  32.901  36.742  1.00  0.00     0.034 A 
ATOM     57  C   UNL A   1      40.696  34.406  30.562  1.00  0.00     0.049 A 
ATOM     58  C   UNL A   1      38.119  33.328  35.501  1.00  0.00     0.074 A 
ATOM     59  C   UNL A   1      39.867  34.719  29.503  1.00  0.00     0.029 A 
ATOM     60  N   UNL A   1      39.875  34.201  31.667  1.00  0.00    -0.354 N 
ATOM     61  N   UNL A   1      38.591  33.607  34.304  1.00  0.00    -0.248 NA
ATOM     62  C   UNL A   1      36.662  33.436  35.614  1.00  0.00     0.031 C 
ATOM     63  C   UNL A   1      38.556  34.788  29.985  1.00  0.00     0.029 A 
ATOM     64  C   UNL A   1      38.551  34.418  31.323  1.00  0.00     0.049 A 
ATOM     65  H   UNL A   1      40.189  33.941  32.562  1.00  0.00     0.167 HD
ATOM     66  C   UNL A   1      37.482  33.895  33.515  1.00  0.00     0.074 A 
ATOM     67  C   UNL A   1      36.321  33.729  34.369  1.00  0.00     0.031 C 
ATOM     68  C   UNL A   1      37.419  34.260  32.206  1.00  0.00     0.034 A 
BRANCH  55  69
ATOM     69  C   UNL A   1      42.926  34.620  29.336  1.00  0.00     0.023 A 
ATOM     70  C   UNL A   1      43.346  33.616  28.445  1.00  0.00     0.031 A 
ATOM     71  C   UNL A   1      43.315  35.944  29.063  1.00  0.00     0.131 A 
ATOM     72  C   UNL A   1      44.185  33.941  27.366  1.00  0.00     0.055 A 
ATOM     73  C   UNL A   1      44.078  36.272  27.941  1.00  0.00     0.041 A 
ATOM     74  F   UNL A   1      42.978  36.941  29.896  1.00  0.00    -0.206 F 
ATOM     75  C   UNL A   1      44.530  35.266  27.092  1.00  0.00     0.022 A 
BRANCH  72  76
ATOM     76  S   UNL A   1      44.948  32.594  26.420  1.00  0.00     0.124 S 
ATOM     77  O   UNL A   1      43.775  31.844  25.976  1.00  0.00    -0.237 OA
ATOM     78  O   UNL A   1      45.679  33.311  25.382  1.00  0.00    -0.237 OA
ATOM     79  O   UNL A   1      45.778  31.907  27.409  1.00  0.00    -0.744 OA
ENDBRANCH  72  76
ENDBRANCH  55  69
BRANCH  56  80
ATOM     80  C   UNL A   1      38.158  32.638  38.027  1.00  0.00     0.023 A 
ATOM     81  C   UNL A   1      38.162  33.575  39.071  1.00  0.00     0.031 A 
ATOM     82  C   UNL A   1      37.496  31.415  38.245  1.00  0.00     0.131 A 
ATOM     83  C   UNL A   1      37.564  33.257  40.300  1.00  0.00     0.055 A 
ATOM     84  C   UNL A   1      36.848  31.128  39.447  1.00  0.00     0.041 A 
ATOM     85  F   UNL A   1      37.460  30.481  37.281  1.00  0.00    -0.206 F 
ATOM     86  C   UNL A   1      36.893  32.047  40.489  1.00  0.00     0.022 A 
BRANCH  83  87
ATOM     87  S   UNL A   1      37.759  34.410  41.686  1.00  0.00     0.124 S 
ATOM     88  O   UNL A   1      38.558  33.622  42.617  1.00  0.00    -0.237 OA
ATOM     89  O   UNL A   1      38.437  35.535  41.050  1.00  0.00    -0.237 OA
ATOM     90  O   UNL A   1      36.384  34.671  42.107  1.00  0.00    -0.744 OA
ENDBRANCH  83  87
ENDBRANCH  56  80
BRANCH  68  91
ATOM     91  C   UNL A   1      36.040  34.456  31.624  1.00  0.00     0.023 A 
ATOM     92  C   UNL A   1      35.620  33.771  30.472  1.00  0.00     0.031 A 
ATOM     93  C   UNL A   1      35.144  35.364  32.219  1.00  0.00     0.131 A 
ATOM     94  C   UNL A   1      34.375  34.069  29.900  1.00  0.00     0.055 A 
ATOM     95  C   UNL A   1      33.873  35.591  31.694  1.00  0.00     0.041 A 
ATOM     96  F   UNL A   1      35.493  36.047  33.322  1.00  0.00    -0.206 F 
ATOM     97  C   UNL A   1      33.490  34.958  30.515  1.00  0.00     0.022 A 
BRANCH  94  98
ATOM     98  S   UNL A   1      33.992  33.387  28.264  1.00  0.00     0.124 S 
ATOM     99  O   UNL A   1      32.624  33.854  28.057  1.00  0.00    -0.237 OA
ATOM    100  O   UNL A   1      35.011  34.004  27.422  1.00  0.00    -0.237 OA
ATOM    101  O   UNL A   1      34.133  31.945  28.455  1.00  0.00    -0.744 OA
ENDBRANCH  94  98
ENDBRANCH  68  91
ENDBRANCH  42  43
ENDBRANCH  35  37
ENDBRANCH  34  35
ENDBRANCH  33  34
ENDBRANCH  32  33
ENDBRANCH  31  32
ENDBRANCH  30  31
ENDBRANCH  29  30
ENDBRANCH   1  29
TORSDOF 28
ENDMDL
MODEL 3
REMARK VINA RESULT:      -7.4      5.097      8.379
REMARK SMILES CC[NH2+][C@@]1(C(=O)OCCOCCOCCOCCOC(=O)c2ccc(-c3c4nc(c(-c5cc(S(=O)(=O)[O-])ccc5F)c5ccc([nH]5)c(-c5cc(S(=O)(=O)[O-])ccc5F)c5nc(c(-c6cc(S(=O)(=O)[O-])ccc6F)c6ccc3[nH]6)C=C5)C=C4)cc2)CCC[C@H]1CCN1C(=O)CCC1=O
REMARK SMILES IDX 13 1 12 2 11 3 10 4 9 5 8 6 7 7 5 8 6 9 4 10 85 11 88 12
REMARK SMILES IDX 86 13 87 14 3 15 2 18 1 19 89 20 90 21 91 22 92 23 96 24
REMARK SMILES IDX 93 25 94 26 95 27 97 28 14 29 15 30 16 31 17 32 18 33 19 34
REMARK SMILES IDX 20 35 21 36 22 37 23 38 84 39 24 40 83 41 25 42 26 43 27 44
REMARK SMILES IDX 77 45 28 46 82 47 76 48 78 49 29 50 81 51 75 52 74 53 30 55
REMARK SMILES IDX 62 56 42 57 61 58 43 59 46 60 60 61 79 62 44 63 45 64 59 66
REMARK SMILES IDX 80 67 47 68 31 69 32 70 40 71 33 72 39 73 41 74 38 75 34 76
REMARK SMILES IDX 35 77 36 78 37 79 63 80 64 81 72 82 65 83 71 84 73 85 70 86
REMARK SMILES IDX 66 87 67 88 68 89 69 90 48 91 49 92 57 93 50 94 56 95 58 96
REMARK SMILES IDX 55 97 51 98 52 99 53 100 54 101
REMARK H PARENT 3 16 3 17 78 54 46 65
REMARK Flexibility Score: inf
ROOT
ATOM      1  O   UNL A   1      38.767  28.915  29.664  1.00  0.00    -0.377 OA
ENDROOT
BRANCH   1   2
ATOM      2  C   UNL A   1      39.012  29.519  30.922  1.00  0.00     0.188 C 
BRANCH   2   3
ATOM      3  C   UNL A   1      40.478  29.644  31.336  1.00  0.00     0.188 C 
BRANCH   3   4
ATOM      4  O   UNL A   1      40.773  30.918  31.876  1.00  0.00    -0.376 OA
BRANCH   4   5
ATOM      5  C   UNL A   1      42.029  31.040  32.521  1.00  0.00     0.202 C 
BRANCH   5   6
ATOM      6  C   UNL A   1      42.273  32.175  33.542  1.00  0.00     0.261 C 
BRANCH   6   7
ATOM      7  O   UNL A   1      41.263  33.193  33.737  1.00  0.00    -0.459 OA
BRANCH   7   8
ATOM      8  C   UNL A   1      40.351  33.044  34.720  1.00  0.00     0.368 C 
ATOM      9  O   UNL A   1      40.554  32.368  35.728  1.00  0.00    -0.245 OA
BRANCH   8  10
ATOM     10  C   UNL A   1      38.964  33.790  34.448  1.00  0.00     0.197 C 
ATOM     11  C   UNL A   1      37.945  32.952  35.251  1.00  0.00     0.081 C 
ATOM     12  C   UNL A   1      38.299  33.756  33.022  1.00  0.00     0.064 C 
ATOM     13  C   UNL A   1      37.627  31.774  34.337  1.00  0.00     0.008 C 
ATOM     14  C   UNL A   1      37.774  32.299  32.911  1.00  0.00     0.011 C 
BRANCH  10  15
ATOM     15  N   UNL A   1      39.058  35.155  35.047  1.00  0.00    -0.332 N 
ATOM     16  H   UNL A   1      39.295  35.816  34.308  1.00  0.00     0.347 HD
ATOM     17  H   UNL A   1      38.154  35.354  35.475  1.00  0.00     0.347 HD
BRANCH  15  18
ATOM     18  C   UNL A   1      40.064  35.269  36.108  1.00  0.00     0.257 C 
ATOM     19  C   UNL A   1      39.427  35.305  37.486  1.00  0.00     0.071 C 
ENDBRANCH  15  18
ENDBRANCH  10  15
BRANCH  12  20
ATOM     20  C   UNL A   1      37.081  34.700  32.748  1.00  0.00     0.033 C 
BRANCH  20  21
ATOM     21  C   UNL A   1      35.819  34.195  32.025  1.00  0.00     0.129 C 
BRANCH  21  22
ATOM     22  N   UNL A   1      34.652  35.064  31.928  1.00  0.00    -0.283 N 
ATOM     23  C   UNL A   1      33.702  35.027  30.951  1.00  0.00     0.229 C 
ATOM     24  C   UNL A   1      34.217  35.790  33.007  1.00  0.00     0.229 C 
ATOM     25  O   UNL A   1      33.650  34.280  29.989  1.00  0.00    -0.274 OA
ATOM     26  C   UNL A   1      32.662  36.067  31.251  1.00  0.00     0.110 C 
ATOM     27  C   UNL A   1      32.970  36.536  32.649  1.00  0.00     0.110 C 
ATOM     28  O   UNL A   1      34.711  35.823  34.124  1.00  0.00    -0.274 OA
ENDBRANCH  21  22
ENDBRANCH  20  21
ENDBRANCH  12  20
ENDBRANCH   8  10
ENDBRANCH   7   8
ENDBRANCH   6   7
ENDBRANCH   5   6
ENDBRANCH   4   5
ENDBRANCH   3   4
ENDBRANCH   2   3
ENDBRANCH   1   2
BRANCH   1  29
ATOM     29  C   UNL A   1      39.872  28.396  28.927  1.00  0.00     0.188 C 
BRANCH  29  30
ATOM     30  C   UNL A   1      39.674  27.226  27.942  1.00  0.00     0.188 C 
BRANCH  30  31
ATOM     31  O   UNL A   1      39.304  25.990  28.537  1.00  0.00    -0.376 OA
BRANCH  31  32
ATOM     32  C   UNL A   1      39.109  24.850  27.714  1.00  0.00     0.202 C 
BRANCH  32  33
ATOM     33  C   UNL A   1      40.171  24.526  26.657  1.00  0.00     0.261 C 
BRANCH  33  34
ATOM     34  O   UNL A   1      41.525  24.424  27.084  1.00  0.00    -0.460 OA
BRANCH  34  35
ATOM     35  C   UNL A   1      42.419  23.787  26.307  1.00  0.00     0.338 C 
ATOM     36  O   UNL A   1      42.236  22.851  25.563  1.00  0.00    -0.246 OA
BRANCH  35  37
ATOM     37  C   UNL A   1      43.608  24.653  26.347  1.00  0.00     0.060 A 
ATOM     38  C   UNL A   1      44.142  24.984  27.595  1.00  0.00     0.016 A 
ATOM     39  C   UNL A   1      44.224  25.053  25.155  1.00  0.00     0.016 A 
ATOM     40  C   UNL A   1      45.267  25.787  27.654  1.00  0.00     0.010 A 
ATOM     41  C   UNL A   1      45.344  25.868  25.214  1.00  0.00     0.010 A 
ATOM     42  C   UNL A   1      45.821  26.281  26.467  1.00  0.00    -0.014 A 
BRANCH  42  43
ATOM     43  C   UNL A   1      46.694  27.462  26.568  1.00  0.00     0.031 A 
ATOM     44  C   UNL A   1      48.176  27.224  26.505  1.00  0.00     0.074 A 
ATOM     45  C   UNL A   1      46.163  28.693  26.597  1.00  0.00     0.049 A 
ATOM     46  N   UNL A   1      49.154  28.085  26.495  1.00  0.00    -0.248 NA
ATOM     47  C   UNL A   1      48.611  25.817  26.440  1.00  0.00     0.031 C 
ATOM     48  C   UNL A   1      44.730  28.993  26.603  1.00  0.00     0.029 A 
ATOM     49  N   UNL A   1      46.767  29.917  26.603  1.00  0.00    -0.354 N 
ATOM     50  C   UNL A   1      50.318  27.326  26.418  1.00  0.00     0.074 A 
ATOM     51  C   UNL A   1      49.928  25.937  26.439  1.00  0.00     0.031 C 
ATOM     52  C   UNL A   1      44.569  30.326  26.597  1.00  0.00     0.029 A 
ATOM     53  C   UNL A   1      45.882  30.965  26.625  1.00  0.00     0.049 A 
ATOM     54  H   UNL A   1      47.745  30.036  26.591  1.00  0.00     0.167 HD
ATOM     55  C   UNL A   1      51.596  27.761  26.323  1.00  0.00     0.034 A 
ATOM     56  C   UNL A   1      46.121  32.289  26.678  1.00  0.00     0.034 A 
ATOM     57  C   UNL A   1      51.942  29.160  26.324  1.00  0.00     0.049 A 
ATOM     58  C   UNL A   1      47.559  32.747  26.658  1.00  0.00     0.074 A 
ATOM     59  C   UNL A   1      53.194  29.739  26.248  1.00  0.00     0.029 A 
ATOM     60  N   UNL A   1      51.024  30.200  26.420  1.00  0.00    -0.354 N 
ATOM     61  N   UNL A   1      48.658  32.027  26.585  1.00  0.00    -0.248 NA
ATOM     62  C   UNL A   1      47.789  34.194  26.709  1.00  0.00     0.031 C 
ATOM     63  C   UNL A   1      53.039  31.122  26.383  1.00  0.00     0.029 A 
ATOM     64  C   UNL A   1      51.684  31.417  26.441  1.00  0.00     0.049 A 
ATOM     65  H   UNL A   1      50.047  30.088  26.465  1.00  0.00     0.167 HD
ATOM     66  C   UNL A   1      49.709  32.937  26.551  1.00  0.00     0.074 A 
ATOM     67  C   UNL A   1      49.106  34.257  26.586  1.00  0.00     0.031 C 
ATOM     68  C   UNL A   1      51.050  32.715  26.494  1.00  0.00     0.034 A 
BRANCH  55  69
ATOM     69  C   UNL A   1      52.685  26.717  26.286  1.00  0.00     0.023 A 
ATOM     70  C   UNL A   1      53.492  26.437  27.404  1.00  0.00     0.031 A 
ATOM     71  C   UNL A   1      52.956  26.025  25.092  1.00  0.00     0.131 A 
ATOM     72  C   UNL A   1      54.571  25.545  27.284  1.00  0.00     0.055 A 
ATOM     73  C   UNL A   1      53.977  25.076  25.004  1.00  0.00     0.041 A 
ATOM     74  F   UNL A   1      52.245  26.275  23.981  1.00  0.00    -0.206 F 
ATOM     75  C   UNL A   1      54.800  24.842  26.100  1.00  0.00     0.022 A 
BRANCH  72  76
ATOM     76  S   UNL A   1      55.765  25.436  28.647  1.00  0.00     0.124 S 
ATOM     77  O   UNL A   1      56.648  26.564  28.357  1.00  0.00    -0.237 OA
ATOM     78  O   UNL A   1      54.915  25.576  29.824  1.00  0.00    -0.237 OA
ATOM     79  O   UNL A   1      56.371  24.118  28.467  1.00  0.00    -0.744 OA
ENDBRANCH  72  76
ENDBRANCH  55  69
BRANCH  56  80
ATOM     80  C   UNL A   1      44.994  33.258  26.779  1.00  0.00     0.023 A 
ATOM     81  C   UNL A   1      44.499  33.679  28.022  1.00  0.00     0.031 A 
ATOM     82  C   UNL A   1      44.363  33.749  25.621  1.00  0.00     0.131 A 
ATOM     83  C   UNL A   1      43.378  34.522  28.081  1.00  0.00     0.055 A 
ATOM     84  C   UNL A   1      43.287  34.636  25.682  1.00  0.00     0.041 A 
ATOM     85  F   UNL A   1      44.794  33.380  24.403  1.00  0.00    -0.206 F 
ATOM     86  C   UNL A   1      42.779  35.016  26.919  1.00  0.00     0.022 A 
BRANCH  83  87
ATOM     87  S   UNL A   1      42.648  34.886  29.701  1.00  0.00     0.124 S 
ATOM     88  O   UNL A   1      43.202  36.204  29.986  1.00  0.00    -0.237 OA
ATOM     89  O   UNL A   1      41.220  34.838  29.406  1.00  0.00    -0.237 OA
ATOM     90  O   UNL A   1      43.144  33.802  30.548  1.00  0.00    -0.744 OA
ENDBRANCH  83  87
ENDBRANCH  56  80
BRANCH  68  91
ATOM     91  C   UNL A   1      51.936  33.935  26.420  1.00  0.00     0.023 A 
ATOM     92  C   UNL A   1      52.397  34.440  25.193  1.00  0.00     0.031 A 
ATOM     93  C   UNL A   1      52.347  34.582  27.599  1.00  0.00     0.131 A 
ATOM     94  C   UNL A   1      53.310  35.504  25.177  1.00  0.00     0.055 A 
ATOM     95  C   UNL A   1      53.186  35.695  27.572  1.00  0.00     0.041 A 
ATOM     96  F   UNL A   1      51.938  34.142  28.801  1.00  0.00    -0.206 F 
ATOM     97  C   UNL A   1      53.690  36.149  26.356  1.00  0.00     0.022 A 
BRANCH  94  98
ATOM     98  S   UNL A   1      54.103  35.936  23.605  1.00  0.00     0.124 S 
ATOM     99  O   UNL A   1      53.760  37.350  23.474  1.00  0.00    -0.237 OA
ATOM    100  O   UNL A   1      55.507  35.643  23.872  1.00  0.00    -0.237 OA
ATOM    101  O   UNL A   1      53.455  35.049  22.641  1.00  0.00    -0.744 OA
ENDBRANCH  94  98
ENDBRANCH  68  91
ENDBRANCH  42  43
ENDBRANCH  35  37
ENDBRANCH  34  35
ENDBRANCH  33  34
ENDBRANCH  32  33
ENDBRANCH  31  32
ENDBRANCH  30  31
ENDBRANCH  29  30
ENDBRANCH   1  29
TORSDOF 28
ENDMDL
