MODEL 1
REMARK VINA RESULT:     -10.2      0.000      0.000
REMARK SMILES CCN(C)C(=O)Cn1ccc2c(C(=O)OCCOCCOCCOCCOC(=O)c3ccc(-c4c5nc(c(-c6cc(S(=O)(=O)[O-])ccc6F)c6ccc([nH]6)c(-c6cc(S(=O)(=O)[O-])ccc6F)c6nc(c(-c7cc(S(=O)(=O)[O-])ccc7F)c7ccc4[nH]7)C=C6)C=C5)cc3)cccc21
REMARK SMILES IDX 20 1 19 2 18 3 17 4 16 5 15 6 13 7 14 8 12 9 8 10 9 11 96 12
REMARK SMILES IDX 10 13 11 14 95 15 94 16 93 17 7 18 5 19 6 20 3 21 4 22 2 23
REMARK SMILES IDX 1 24 21 25 22 26 23 27 24 28 25 29 26 30 27 31 28 32 29 33
REMARK SMILES IDX 30 34 31 35 92 36 32 37 91 38 33 39 34 40 35 41 85 42 36 43
REMARK SMILES IDX 90 44 84 45 86 46 37 47 89 48 83 49 82 50 38 52 70 53 50 54
REMARK SMILES IDX 69 55 51 56 54 57 68 58 87 59 52 60 53 61 67 63 88 64 55 65
REMARK SMILES IDX 39 66 40 67 48 68 41 69 47 70 49 71 46 72 42 73 43 74 44 75
REMARK SMILES IDX 45 76 71 77 72 78 80 79 73 80 79 81 81 82 78 83 74 84 75 85
REMARK SMILES IDX 76 86 77 87 56 88 57 89 65 90 58 91 64 92 66 93 63 94 59 95
REMARK SMILES IDX 60 96 61 97 62 98
REMARK H PARENT 86 51 54 62
REMARK Flexibility Score: inf
ROOT
ATOM      1  C   UNL A   1      33.511  26.474  22.064  1.00  0.00     0.188 C 
ENDROOT
BRANCH   1   2
ATOM      2  C   UNL A   1      32.541  25.329  21.704  1.00  0.00     0.188 C 
BRANCH   2   3
ATOM      3  O   UNL A   1      31.914  24.661  22.773  1.00  0.00    -0.376 OA
BRANCH   3   4
ATOM      4  C   UNL A   1      30.607  24.997  23.201  1.00  0.00     0.202 C 
BRANCH   4   5
ATOM      5  C   UNL A   1      30.322  25.494  24.629  1.00  0.00     0.261 C 
BRANCH   5   6
ATOM      6  O   UNL A   1      31.474  25.672  25.455  1.00  0.00    -0.460 OA
BRANCH   6   7
ATOM      7  C   UNL A   1      31.692  24.717  26.381  1.00  0.00     0.338 C 
ATOM      8  O   UNL A   1      30.919  24.345  27.253  1.00  0.00    -0.246 OA
BRANCH   7   9
ATOM      9  C   UNL A   1      32.931  24.011  26.006  1.00  0.00     0.069 A 
ATOM     10  N   UNL A   1      33.554  20.796  24.615  1.00  0.00    -0.338 N 
ATOM     11  C   UNL A   1      32.200  20.828  24.414  1.00  0.00     0.087 A 
ATOM     12  C   UNL A   1      33.969  22.050  25.029  1.00  0.00     0.049 A 
ATOM     13  C   UNL A   1      31.722  21.840  25.206  1.00  0.00     0.029 A 
ATOM     14  C   UNL A   1      32.819  22.700  25.489  1.00  0.00     0.014 A 
ATOM     15  C   UNL A   1      35.231  22.664  25.065  1.00  0.00     0.027 A 
ATOM     16  C   UNL A   1      35.303  23.992  25.509  1.00  0.00     0.003 A 
ATOM     17  C   UNL A   1      34.172  24.664  25.974  1.00  0.00     0.016 A 
BRANCH  10  18
ATOM     18  C   UNL A   1      34.370  19.587  24.671  1.00  0.00     0.222 C 
BRANCH  18  19
ATOM     19  C   UNL A   1      33.619  18.309  24.996  1.00  0.00     0.242 C 
ATOM     20  O   UNL A   1      32.836  18.301  25.953  1.00  0.00    -0.273 OA
BRANCH  19  21
ATOM     21  N   UNL A   1      33.802  17.178  24.195  1.00  0.00    -0.344 N 
ATOM     22  C   UNL A   1      33.529  17.144  22.757  1.00  0.00     0.146 C 
BRANCH  21  23
ATOM     23  C   UNL A   1      34.080  15.900  24.855  1.00  0.00     0.115 C 
ATOM     24  C   UNL A   1      35.506  15.791  25.387  1.00  0.00     0.027 C 
ENDBRANCH  21  23
ENDBRANCH  19  21
ENDBRANCH  18  19
ENDBRANCH  10  18
ENDBRANCH   7   9
ENDBRANCH   6   7
ENDBRANCH   5   6
ENDBRANCH   4   5
ENDBRANCH   3   4
ENDBRANCH   2   3
ENDBRANCH   1   2
BRANCH   1  25
ATOM     25  O   UNL A   1      33.486  27.075  23.343  1.00  0.00    -0.377 OA
BRANCH  25  26
ATOM     26  C   UNL A   1      32.716  28.252  23.460  1.00  0.00     0.188 C 
BRANCH  26  27
ATOM     27  C   UNL A   1      33.311  29.269  24.458  1.00  0.00     0.188 C 
BRANCH  27  28
ATOM     28  O   UNL A   1      32.422  29.933  25.341  1.00  0.00    -0.376 OA
BRANCH  28  29
ATOM     29  C   UNL A   1      32.735  29.924  26.726  1.00  0.00     0.202 C 
BRANCH  29  30
ATOM     30  C   UNL A   1      33.379  31.124  27.488  1.00  0.00     0.261 C 
BRANCH  30  31
ATOM     31  O   UNL A   1      34.813  31.163  27.609  1.00  0.00    -0.460 OA
BRANCH  31  32
ATOM     32  C   UNL A   1      35.389  31.871  28.621  1.00  0.00     0.338 C 
ATOM     33  O   UNL A   1      34.882  32.795  29.229  1.00  0.00    -0.246 OA
BRANCH  32  34
ATOM     34  C   UNL A   1      36.584  31.089  29.087  1.00  0.00     0.060 A 
ATOM     35  C   UNL A   1      37.774  31.709  29.481  1.00  0.00     0.016 A 
ATOM     36  C   UNL A   1      36.598  29.720  28.762  1.00  0.00     0.016 A 
ATOM     37  C   UNL A   1      38.980  30.995  29.386  1.00  0.00     0.010 A 
ATOM     38  C   UNL A   1      37.808  29.023  28.634  1.00  0.00     0.010 A 
ATOM     39  C   UNL A   1      39.017  29.662  28.908  1.00  0.00    -0.014 A 
BRANCH  39  40
ATOM     40  C   UNL A   1      40.279  28.898  29.084  1.00  0.00     0.031 A 
ATOM     41  C   UNL A   1      40.540  28.724  30.538  1.00  0.00     0.074 A 
ATOM     42  C   UNL A   1      41.065  28.231  28.201  1.00  0.00     0.049 A 
ATOM     43  N   UNL A   1      41.461  29.269  31.261  1.00  0.00    -0.248 NA
ATOM     44  C   UNL A   1      39.483  28.041  31.306  1.00  0.00     0.031 C 
ATOM     45  C   UNL A   1      40.756  27.911  26.812  1.00  0.00     0.029 A 
ATOM     46  N   UNL A   1      42.292  27.620  28.377  1.00  0.00    -0.354 N 
ATOM     47  C   UNL A   1      41.216  28.813  32.554  1.00  0.00     0.074 A 
ATOM     48  C   UNL A   1      39.878  28.287  32.552  1.00  0.00     0.031 C 
ATOM     49  C   UNL A   1      41.691  27.076  26.304  1.00  0.00     0.029 A 
ATOM     50  C   UNL A   1      42.695  26.800  27.317  1.00  0.00     0.049 A 
ATOM     51  H   UNL A   1      42.840  27.752  29.184  1.00  0.00     0.167 HD
ATOM     52  C   UNL A   1      42.224  28.644  33.453  1.00  0.00     0.034 A 
ATOM     53  C   UNL A   1      43.702  25.879  27.275  1.00  0.00     0.034 A 
ATOM     54  C   UNL A   1      43.400  29.365  33.044  1.00  0.00     0.049 A 
ATOM     55  C   UNL A   1      44.608  26.103  28.417  1.00  0.00     0.074 A 
ATOM     56  C   UNL A   1      43.712  30.693  32.833  1.00  0.00     0.029 A 
ATOM     57  N   UNL A   1      44.390  28.638  32.437  1.00  0.00    -0.354 N 
ATOM     58  N   UNL A   1      45.432  27.102  28.521  1.00  0.00    -0.248 NA
ATOM     59  C   UNL A   1      44.289  25.413  29.654  1.00  0.00     0.031 C 
ATOM     60  C   UNL A   1      44.643  30.693  31.756  1.00  0.00     0.029 A 
ATOM     61  C   UNL A   1      44.906  29.368  31.403  1.00  0.00     0.049 A 
ATOM     62  H   UNL A   1      44.682  27.735  32.702  1.00  0.00     0.167 HD
ATOM     63  C   UNL A   1      45.324  27.477  29.847  1.00  0.00     0.074 A 
ATOM     64  C   UNL A   1      44.700  26.339  30.519  1.00  0.00     0.031 C 
ATOM     65  C   UNL A   1      45.479  28.782  30.210  1.00  0.00     0.034 A 
BRANCH  52  66
ATOM     66  C   UNL A   1      42.257  27.495  34.443  1.00  0.00     0.023 A 
ATOM     67  C   UNL A   1      42.979  26.303  34.234  1.00  0.00     0.031 A 
ATOM     68  C   UNL A   1      41.743  27.667  35.744  1.00  0.00     0.131 A 
ATOM     69  C   UNL A   1      43.170  25.357  35.248  1.00  0.00     0.055 A 
ATOM     70  C   UNL A   1      41.993  26.758  36.780  1.00  0.00     0.041 A 
ATOM     71  F   UNL A   1      41.041  28.762  36.070  1.00  0.00    -0.206 F 
ATOM     72  C   UNL A   1      42.712  25.595  36.536  1.00  0.00     0.022 A 
BRANCH  69  73
ATOM     73  S   UNL A   1      44.045  23.806  34.897  1.00  0.00     0.124 S 
ATOM     74  O   UNL A   1      42.979  22.969  34.358  1.00  0.00    -0.237 OA
ATOM     75  O   UNL A   1      45.052  24.250  33.937  1.00  0.00    -0.237 OA
ATOM     76  O   UNL A   1      44.569  23.405  36.200  1.00  0.00    -0.744 OA
ENDBRANCH  69  73
ENDBRANCH  52  66
BRANCH  53  77
ATOM     77  C   UNL A   1      43.714  24.556  26.582  1.00  0.00     0.023 A 
ATOM     78  C   UNL A   1      42.655  23.662  26.803  1.00  0.00     0.031 A 
ATOM     79  C   UNL A   1      44.887  24.021  26.007  1.00  0.00     0.131 A 
ATOM     80  C   UNL A   1      42.797  22.295  26.530  1.00  0.00     0.055 A 
ATOM     81  C   UNL A   1      45.020  22.655  25.712  1.00  0.00     0.041 A 
ATOM     82  F   UNL A   1      45.962  24.797  25.796  1.00  0.00    -0.206 F 
ATOM     83  C   UNL A   1      43.975  21.780  25.992  1.00  0.00     0.022 A 
BRANCH  80  84
ATOM     84  S   UNL A   1      41.469  21.150  26.989  1.00  0.00     0.124 S 
ATOM     85  O   UNL A   1      41.021  21.690  28.270  1.00  0.00    -0.237 OA
ATOM     86  O   UNL A   1      40.542  21.316  25.875  1.00  0.00    -0.237 OA
ATOM     87  O   UNL A   1      42.148  19.860  27.067  1.00  0.00    -0.744 OA
ENDBRANCH  80  84
ENDBRANCH  53  77
BRANCH  65  88
ATOM     88  C   UNL A   1      46.102  29.741  29.221  1.00  0.00     0.023 A 
ATOM     89  C   UNL A   1      45.213  30.582  28.532  1.00  0.00     0.031 A 
ATOM     90  C   UNL A   1      47.446  29.724  28.798  1.00  0.00     0.131 A 
ATOM     91  C   UNL A   1      45.644  31.320  27.429  1.00  0.00     0.055 A 
ATOM     92  C   UNL A   1      47.893  30.532  27.745  1.00  0.00     0.041 A 
ATOM     93  F   UNL A   1      48.341  28.876  29.324  1.00  0.00    -0.206 F 
ATOM     94  C   UNL A   1      46.986  31.318  27.041  1.00  0.00     0.022 A 
BRANCH  91  95
ATOM     95  S   UNL A   1      44.433  32.151  26.372  1.00  0.00     0.124 S 
ATOM     96  O   UNL A   1      43.477  31.084  26.096  1.00  0.00    -0.237 OA
ATOM     97  O   UNL A   1      43.946  33.222  27.240  1.00  0.00    -0.237 OA
ATOM     98  O   UNL A   1      45.215  32.602  25.224  1.00  0.00    -0.744 OA
ENDBRANCH  91  95
ENDBRANCH  65  88
ENDBRANCH  39  40
ENDBRANCH  32  34
ENDBRANCH  31  32
ENDBRANCH  30  31
ENDBRANCH  29  30
ENDBRANCH  28  29
ENDBRANCH  27  28
ENDBRANCH  26  27
ENDBRANCH  25  26
ENDBRANCH   1  25
TORSDOF 27
ENDMDL
MODEL 2
REMARK VINA RESULT:      -9.1      1.829      2.088
REMARK SMILES CCN(C)C(=O)Cn1ccc2c(C(=O)OCCOCCOCCOCCOC(=O)c3ccc(-c4c5nc(c(-c6cc(S(=O)(=O)[O-])ccc6F)c6ccc([nH]6)c(-c6cc(S(=O)(=O)[O-])ccc6F)c6nc(c(-c7cc(S(=O)(=O)[O-])ccc7F)c7ccc4[nH]7)C=C6)C=C5)cc3)cccc21
REMARK SMILES IDX 20 1 19 2 18 3 17 4 16 5 15 6 13 7 14 8 12 9 8 10 9 11 96 12
REMARK SMILES IDX 10 13 11 14 95 15 94 16 93 17 7 18 5 19 6 20 3 21 4 22 2 23
REMARK SMILES IDX 1 24 21 25 22 26 23 27 24 28 25 29 26 30 27 31 28 32 29 33
REMARK SMILES IDX 30 34 31 35 92 36 32 37 91 38 33 39 34 40 35 41 85 42 36 43
REMARK SMILES IDX 90 44 84 45 86 46 37 47 89 48 83 49 82 50 38 52 70 53 50 54
REMARK SMILES IDX 69 55 51 56 54 57 68 58 87 59 52 60 53 61 67 63 88 64 55 65
REMARK SMILES IDX 39 66 40 67 48 68 41 69 47 70 49 71 46 72 42 73 43 74 44 75
REMARK SMILES IDX 45 76 71 77 72 78 80 79 73 80 79 81 81 82 78 83 74 84 75 85
REMARK SMILES IDX 76 86 77 87 56 88 57 89 65 90 58 91 64 92 66 93 63 94 59 95
REMARK SMILES IDX 60 96 61 97 62 98
REMARK H PARENT 86 51 54 62
REMARK Flexibility Score: inf
ROOT
ATOM      1  C   UNL A   1      33.276  27.931  22.339  1.00  0.00     0.188 C 
ENDROOT
BRANCH   1   2
ATOM      2  C   UNL A   1      32.801  26.693  21.550  1.00  0.00     0.188 C 
BRANCH   2   3
ATOM      3  O   UNL A   1      32.931  25.442  22.181  1.00  0.00    -0.376 OA
BRANCH   3   4
ATOM      4  C   UNL A   1      31.860  24.848  22.891  1.00  0.00     0.202 C 
BRANCH   4   5
ATOM      5  C   UNL A   1      31.252  25.502  24.143  1.00  0.00     0.261 C 
BRANCH   5   6
ATOM      6  O   UNL A   1      32.188  25.853  25.164  1.00  0.00    -0.460 OA
BRANCH   6   7
ATOM      7  C   UNL A   1      32.367  24.942  26.142  1.00  0.00     0.338 C 
ATOM      8  O   UNL A   1      31.660  24.767  27.125  1.00  0.00    -0.246 OA
BRANCH   7   9
ATOM      9  C   UNL A   1      33.422  24.015  25.696  1.00  0.00     0.069 A 
ATOM     10  N   UNL A   1      33.379  20.592  24.723  1.00  0.00    -0.338 N 
ATOM     11  C   UNL A   1      32.026  20.804  24.725  1.00  0.00     0.087 A 
ATOM     12  C   UNL A   1      34.017  21.811  24.879  1.00  0.00     0.049 A 
ATOM     13  C   UNL A   1      31.824  21.968  25.418  1.00  0.00     0.029 A 
ATOM     14  C   UNL A   1      33.055  22.681  25.403  1.00  0.00     0.014 A 
ATOM     15  C   UNL A   1      35.336  22.226  24.633  1.00  0.00     0.027 A 
ATOM     16  C   UNL A   1      35.653  23.573  24.858  1.00  0.00     0.003 A 
ATOM     17  C   UNL A   1      34.714  24.461  25.381  1.00  0.00     0.016 A 
BRANCH  10  18
ATOM     18  C   UNL A   1      34.029  19.290  24.837  1.00  0.00     0.222 C 
BRANCH  18  19
ATOM     19  C   UNL A   1      33.104  18.091  24.746  1.00  0.00     0.242 C 
ATOM     20  O   UNL A   1      31.896  18.277  24.564  1.00  0.00    -0.273 OA
BRANCH  19  21
ATOM     21  N   UNL A   1      33.635  16.800  24.839  1.00  0.00    -0.344 N 
ATOM     22  C   UNL A   1      32.922  15.665  25.428  1.00  0.00     0.146 C 
BRANCH  21  23
ATOM     23  C   UNL A   1      35.053  16.612  24.524  1.00  0.00     0.115 C 
ATOM     24  C   UNL A   1      35.807  15.808  25.579  1.00  0.00     0.027 C 
ENDBRANCH  21  23
ENDBRANCH  19  21
ENDBRANCH  18  19
ENDBRANCH  10  18
ENDBRANCH   7   9
ENDBRANCH   6   7
ENDBRANCH   5   6
ENDBRANCH   4   5
ENDBRANCH   3   4
ENDBRANCH   2   3
ENDBRANCH   1   2
BRANCH   1  25
ATOM     25  O   UNL A   1      32.400  28.621  23.208  1.00  0.00    -0.377 OA
BRANCH  25  26
ATOM     26  C   UNL A   1      32.988  29.189  24.358  1.00  0.00     0.188 C 
BRANCH  26  27
ATOM     27  C   UNL A   1      31.950  29.739  25.361  1.00  0.00     0.188 C 
BRANCH  27  28
ATOM     28  O   UNL A   1      32.411  30.148  26.638  1.00  0.00    -0.376 OA
BRANCH  28  29
ATOM     29  C   UNL A   1      33.659  30.824  26.706  1.00  0.00     0.202 C 
BRANCH  29  30
ATOM     30  C   UNL A   1      34.200  31.537  27.985  1.00  0.00     0.261 C 
BRANCH  30  31
ATOM     31  O   UNL A   1      35.524  31.201  28.443  1.00  0.00    -0.460 OA
BRANCH  31  32
ATOM     32  C   UNL A   1      35.981  31.704  29.623  1.00  0.00     0.338 C 
ATOM     33  O   UNL A   1      35.376  32.455  30.366  1.00  0.00    -0.246 OA
BRANCH  32  34
ATOM     34  C   UNL A   1      37.186  30.897  30.014  1.00  0.00     0.060 A 
ATOM     35  C   UNL A   1      38.486  31.405  29.926  1.00  0.00     0.016 A 
ATOM     36  C   UNL A   1      36.997  29.506  30.115  1.00  0.00     0.016 A 
ATOM     37  C   UNL A   1      39.559  30.512  29.774  1.00  0.00     0.010 A 
ATOM     38  C   UNL A   1      38.068  28.619  29.928  1.00  0.00     0.010 A 
ATOM     39  C   UNL A   1      39.356  29.111  29.717  1.00  0.00    -0.014 A 
BRANCH  39  40
ATOM     40  C   UNL A   1      40.551  28.233  29.819  1.00  0.00     0.031 A 
ATOM     41  C   UNL A   1      41.017  28.215  31.231  1.00  0.00     0.074 A 
ATOM     42  C   UNL A   1      41.120  27.373  28.938  1.00  0.00     0.049 A 
ATOM     43  N   UNL A   1      42.089  28.735  31.731  1.00  0.00    -0.248 NA
ATOM     44  C   UNL A   1      40.033  27.762  32.230  1.00  0.00     0.031 C 
ATOM     45  C   UNL A   1      40.568  26.919  27.666  1.00  0.00     0.029 A 
ATOM     46  N   UNL A   1      42.296  26.650  29.022  1.00  0.00    -0.354 N 
ATOM     47  C   UNL A   1      42.006  28.477  33.097  1.00  0.00     0.074 A 
ATOM     48  C   UNL A   1      40.640  28.115  33.360  1.00  0.00     0.031 C 
ATOM     49  C   UNL A   1      41.328  25.923  27.154  1.00  0.00     0.029 A 
ATOM     50  C   UNL A   1      42.447  25.662  28.043  1.00  0.00     0.049 A 
ATOM     51  H   UNL A   1      42.973  26.818  29.717  1.00  0.00     0.167 HD
ATOM     52  C   UNL A   1      43.121  28.307  33.859  1.00  0.00     0.034 A 
ATOM     53  C   UNL A   1      43.341  24.631  27.990  1.00  0.00     0.034 A 
ATOM     54  C   UNL A   1      44.282  28.829  33.189  1.00  0.00     0.049 A 
ATOM     55  C   UNL A   1      44.432  24.890  28.948  1.00  0.00     0.074 A 
ATOM     56  C   UNL A   1      44.684  30.073  32.749  1.00  0.00     0.029 A 
ATOM     57  N   UNL A   1      45.090  27.920  32.557  1.00  0.00    -0.354 N 
ATOM     58  N   UNL A   1      45.354  25.791  28.791  1.00  0.00    -0.248 NA
ATOM     59  C   UNL A   1      44.245  24.403  30.304  1.00  0.00     0.031 C 
ATOM     60  C   UNL A   1      45.431  29.829  31.561  1.00  0.00     0.029 A 
ATOM     61  C   UNL A   1      45.506  28.449  31.368  1.00  0.00     0.049 A 
ATOM     62  H   UNL A   1      45.332  27.030  32.903  1.00  0.00     0.167 HD
ATOM     63  C   UNL A   1      45.491  26.341  30.053  1.00  0.00     0.074 A 
ATOM     64  C   UNL A   1      44.874  25.377  30.961  1.00  0.00     0.031 C 
ATOM     65  C   UNL A   1      45.827  27.654  30.200  1.00  0.00     0.034 A 
BRANCH  52  66
ATOM     66  C   UNL A   1      43.198  27.296  34.987  1.00  0.00     0.023 A 
ATOM     67  C   UNL A   1      43.789  26.023  34.859  1.00  0.00     0.031 A 
ATOM     68  C   UNL A   1      42.880  27.681  36.305  1.00  0.00     0.131 A 
ATOM     69  C   UNL A   1      44.041  25.201  35.963  1.00  0.00     0.055 A 
ATOM     70  C   UNL A   1      43.196  26.892  37.419  1.00  0.00     0.041 A 
ATOM     71  F   UNL A   1      42.316  28.871  36.560  1.00  0.00    -0.206 F 
ATOM     72  C   UNL A   1      43.782  25.644  37.252  1.00  0.00     0.022 A 
BRANCH  69  73
ATOM     73  S   UNL A   1      44.736  23.541  35.726  1.00  0.00     0.124 S 
ATOM     74  O   UNL A   1      43.570  22.782  35.289  1.00  0.00    -0.237 OA
ATOM     75  O   UNL A   1      45.750  23.792  34.706  1.00  0.00    -0.237 OA
ATOM     76  O   UNL A   1      45.260  23.196  37.045  1.00  0.00    -0.744 OA
ENDBRANCH  69  73
ENDBRANCH  52  66
BRANCH  53  77
ATOM     77  C   UNL A   1      43.117  23.239  27.499  1.00  0.00     0.023 A 
ATOM     78  C   UNL A   1      44.031  22.681  26.592  1.00  0.00     0.031 A 
ATOM     79  C   UNL A   1      41.867  22.593  27.619  1.00  0.00     0.131 A 
ATOM     80  C   UNL A   1      43.679  21.582  25.797  1.00  0.00     0.055 A 
ATOM     81  C   UNL A   1      41.523  21.479  26.838  1.00  0.00     0.041 A 
ATOM     82  F   UNL A   1      40.920  23.081  28.435  1.00  0.00    -0.206 F 
ATOM     83  C   UNL A   1      42.427  20.978  25.907  1.00  0.00     0.022 A 
BRANCH  80  84
ATOM     84  S   UNL A   1      44.824  21.001  24.519  1.00  0.00     0.124 S 
ATOM     85  O   UNL A   1      46.124  21.171  25.164  1.00  0.00    -0.237 OA
ATOM     86  O   UNL A   1      44.384  19.623  24.336  1.00  0.00    -0.237 OA
ATOM     87  O   UNL A   1      44.569  21.905  23.401  1.00  0.00    -0.744 OA
ENDBRANCH  80  84
ENDBRANCH  53  77
BRANCH  65  88
ATOM     88  C   UNL A   1      46.377  28.401  29.007  1.00  0.00     0.023 A 
ATOM     89  C   UNL A   1      45.813  28.077  27.762  1.00  0.00     0.031 A 
ATOM     90  C   UNL A   1      47.517  29.229  29.012  1.00  0.00     0.131 A 
ATOM     91  C   UNL A   1      46.409  28.514  26.577  1.00  0.00     0.055 A 
ATOM     92  C   UNL A   1      48.061  29.735  27.825  1.00  0.00     0.041 A 
ATOM     93  F   UNL A   1      48.186  29.503  30.142  1.00  0.00    -0.206 F 
ATOM     94  C   UNL A   1      47.520  29.360  26.599  1.00  0.00     0.022 A 
BRANCH  91  95
ATOM     95  S   UNL A   1      45.857  27.840  24.990  1.00  0.00     0.124 S 
ATOM     96  O   UNL A   1      46.565  28.683  24.032  1.00  0.00    -0.237 OA
ATOM     97  O   UNL A   1      46.315  26.454  25.067  1.00  0.00    -0.237 OA
ATOM     98  O   UNL A   1      44.407  28.009  25.020  1.00  0.00    -0.744 OA
ENDBRANCH  91  95
ENDBRANCH  65  88
ENDBRANCH  39  40
ENDBRANCH  32  34
ENDBRANCH  31  32
ENDBRANCH  30  31
ENDBRANCH  29  30
ENDBRANCH  28  29
ENDBRANCH  27  28
ENDBRANCH  26  27
ENDBRANCH  25  26
ENDBRANCH   1  25
TORSDOF 27
ENDMDL
MODEL 3
REMARK VINA RESULT:      -9.1      2.565      3.035
REMARK SMILES CCN(C)C(=O)Cn1ccc2c(C(=O)OCCOCCOCCOCCOC(=O)c3ccc(-c4c5nc(c(-c6cc(S(=O)(=O)[O-])ccc6F)c6ccc([nH]6)c(-c6cc(S(=O)(=O)[O-])ccc6F)c6nc(c(-c7cc(S(=O)(=O)[O-])ccc7F)c7ccc4[nH]7)C=C6)C=C5)cc3)cccc21
REMARK SMILES IDX 20 1 19 2 18 3 17 4 16 5 15 6 13 7 14 8 12 9 8 10 9 11 96 12
REMARK SMILES IDX 10 13 11 14 95 15 94 16 93 17 7 18 5 19 6 20 3 21 4 22 2 23
REMARK SMILES IDX 1 24 21 25 22 26 23 27 24 28 25 29 26 30 27 31 28 32 29 33
REMARK SMILES IDX 30 34 31 35 92 36 32 37 91 38 33 39 34 40 35 41 85 42 36 43
REMARK SMILES IDX 90 44 84 45 86 46 37 47 89 48 83 49 82 50 38 52 70 53 50 54
REMARK SMILES IDX 69 55 51 56 54 57 68 58 87 59 52 60 53 61 67 63 88 64 55 65
REMARK SMILES IDX 39 66 40 67 48 68 41 69 47 70 49 71 46 72 42 73 43 74 44 75
REMARK SMILES IDX 45 76 71 77 72 78 80 79 73 80 79 81 81 82 78 83 74 84 75 85
REMARK SMILES IDX 76 86 77 87 56 88 57 89 65 90 58 91 64 92 66 93 63 94 59 95
REMARK SMILES IDX 60 96 61 97 62 98
REMARK H PARENT 86 51 54 62
REMARK Flexibility Score: inf
ROOT
ATOM      1  C   UNL A   1      33.279  27.778  22.593  1.00  0.00     0.188 C 
ENDROOT
BRANCH   1   2
ATOM      2  C   UNL A   1      32.748  26.576  21.783  1.00  0.00     0.188 C 
BRANCH   2   3
ATOM      3  O   UNL A   1      32.588  25.359  22.472  1.00  0.00    -0.376 OA
BRANCH   3   4
ATOM      4  C   UNL A   1      31.327  24.936  22.958  1.00  0.00     0.202 C 
BRANCH   4   5
ATOM      5  C   UNL A   1      30.877  25.215  24.402  1.00  0.00     0.261 C 
BRANCH   5   6
ATOM      6  O   UNL A   1      31.916  25.610  25.299  1.00  0.00    -0.460 OA
BRANCH   6   7
ATOM      7  C   UNL A   1      32.169  24.766  26.321  1.00  0.00     0.338 C 
ATOM      8  O   UNL A   1      31.491  24.601  27.326  1.00  0.00    -0.246 OA
BRANCH   7   9
ATOM      9  C   UNL A   1      33.274  23.884  25.903  1.00  0.00     0.069 A 
ATOM     10  N   UNL A   1      33.365  20.554  24.649  1.00  0.00    -0.338 N 
ATOM     11  C   UNL A   1      32.016  20.760  24.538  1.00  0.00     0.087 A 
ATOM     12  C   UNL A   1      33.971  21.758  24.967  1.00  0.00     0.049 A 
ATOM     13  C   UNL A   1      31.734  21.862  25.303  1.00  0.00     0.029 A 
ATOM     14  C   UNL A   1      32.953  22.578  25.466  1.00  0.00     0.014 A 
ATOM     15  C   UNL A   1      35.302  22.198  24.885  1.00  0.00     0.027 A 
ATOM     16  C   UNL A   1      35.580  23.523  25.250  1.00  0.00     0.003 A 
ATOM     17  C   UNL A   1      34.584  24.360  25.752  1.00  0.00     0.016 A 
BRANCH  10  18
ATOM     18  C   UNL A   1      34.017  19.251  24.716  1.00  0.00     0.222 C 
BRANCH  18  19
ATOM     19  C   UNL A   1      33.094  18.074  24.977  1.00  0.00     0.242 C 
ATOM     20  O   UNL A   1      31.890  18.285  25.156  1.00  0.00    -0.273 OA
BRANCH  19  21
ATOM     21  N   UNL A   1      33.615  16.776  24.982  1.00  0.00    -0.344 N 
ATOM     22  C   UNL A   1      32.946  15.631  25.603  1.00  0.00     0.146 C 
BRANCH  21  23
ATOM     23  C   UNL A   1      34.994  16.582  24.528  1.00  0.00     0.115 C 
ATOM     24  C   UNL A   1      35.843  15.768  25.499  1.00  0.00     0.027 C 
ENDBRANCH  21  23
ENDBRANCH  19  21
ENDBRANCH  18  19
ENDBRANCH  10  18
ENDBRANCH   7   9
ENDBRANCH   6   7
ENDBRANCH   5   6
ENDBRANCH   4   5
ENDBRANCH   3   4
ENDBRANCH   2   3
ENDBRANCH   1   2
BRANCH   1  25
ATOM     25  O   UNL A   1      32.428  28.511  23.451  1.00  0.00    -0.377 OA
BRANCH  25  26
ATOM     26  C   UNL A   1      33.037  29.086  24.586  1.00  0.00     0.188 C 
BRANCH  26  27
ATOM     27  C   UNL A   1      32.018  29.632  25.610  1.00  0.00     0.188 C 
BRANCH  27  28
ATOM     28  O   UNL A   1      32.513  30.116  26.847  1.00  0.00    -0.376 OA
BRANCH  28  29
ATOM     29  C   UNL A   1      33.784  30.750  26.850  1.00  0.00     0.202 C 
BRANCH  29  30
ATOM     30  C   UNL A   1      34.453  31.367  28.118  1.00  0.00     0.261 C 
BRANCH  30  31
ATOM     31  O   UNL A   1      35.828  31.038  28.390  1.00  0.00    -0.460 OA
BRANCH  31  32
ATOM     32  C   UNL A   1      36.444  31.555  29.490  1.00  0.00     0.338 C 
ATOM     33  O   UNL A   1      35.972  32.372  30.260  1.00  0.00    -0.246 OA
BRANCH  32  34
ATOM     34  C   UNL A   1      37.634  30.687  29.784  1.00  0.00     0.060 A 
ATOM     35  C   UNL A   1      38.942  31.095  29.507  1.00  0.00     0.016 A 
ATOM     36  C   UNL A   1      37.370  29.321  29.996  1.00  0.00     0.016 A 
ATOM     37  C   UNL A   1      39.928  30.120  29.284  1.00  0.00     0.010 A 
ATOM     38  C   UNL A   1      38.349  28.350  29.737  1.00  0.00     0.010 A 
ATOM     39  C   UNL A   1      39.630  28.736  29.341  1.00  0.00    -0.014 A 
BRANCH  39  40
ATOM     40  C   UNL A   1      40.769  27.781  29.354  1.00  0.00     0.031 A 
ATOM     41  C   UNL A   1      41.500  27.919  30.643  1.00  0.00     0.074 A 
ATOM     42  C   UNL A   1      41.106  26.762  28.525  1.00  0.00     0.049 A 
ATOM     43  N   UNL A   1      42.676  28.410  30.852  1.00  0.00    -0.248 NA
ATOM     44  C   UNL A   1      40.704  27.695  31.863  1.00  0.00     0.031 C 
ATOM     45  C   UNL A   1      40.291  26.185  27.461  1.00  0.00     0.029 A 
ATOM     46  N   UNL A   1      42.231  25.960  28.501  1.00  0.00    -0.354 N 
ATOM     47  C   UNL A   1      42.846  28.352  32.233  1.00  0.00     0.074 A 
ATOM     48  C   UNL A   1      41.538  28.148  32.795  1.00  0.00     0.031 C 
ATOM     49  C   UNL A   1      40.878  25.067  26.976  1.00  0.00     0.029 A 
ATOM     50  C   UNL A   1      42.132  24.836  27.673  1.00  0.00     0.049 A 
ATOM     51  H   UNL A   1      43.039  26.164  29.025  1.00  0.00     0.167 HD
ATOM     52  C   UNL A   1      44.076  28.193  32.793  1.00  0.00     0.034 A 
ATOM     53  C   UNL A   1      42.938  23.735  27.614  1.00  0.00     0.034 A 
ATOM     54  C   UNL A   1      45.113  28.516  31.850  1.00  0.00     0.049 A 
ATOM     55  C   UNL A   1      44.207  24.030  28.304  1.00  0.00     0.074 A 
ATOM     56  C   UNL A   1      45.493  29.649  31.159  1.00  0.00     0.029 A 
ATOM     57  N   UNL A   1      45.729  27.463  31.226  1.00  0.00    -0.354 N 
ATOM     58  N   UNL A   1      45.131  24.819  27.844  1.00  0.00    -0.248 NA
ATOM     59  C   UNL A   1      44.260  23.754  29.729  1.00  0.00     0.031 C 
ATOM     60  C   UNL A   1      45.979  29.179  29.906  1.00  0.00     0.029 A 
ATOM     61  C   UNL A   1      45.935  27.784  29.914  1.00  0.00     0.049 A 
ATOM     62  H   UNL A   1      45.981  26.612  31.653  1.00  0.00     0.167 HD
ATOM     63  C   UNL A   1      45.543  25.524  28.961  1.00  0.00     0.074 A 
ATOM     64  C   UNL A   1      45.059  24.752  30.103  1.00  0.00     0.031 C 
ATOM     65  C   UNL A   1      45.976  26.811  28.842  1.00  0.00     0.034 A 
BRANCH  52  66
ATOM     66  C   UNL A   1      44.313  27.345  34.029  1.00  0.00     0.023 A 
ATOM     67  C   UNL A   1      44.634  27.878  35.293  1.00  0.00     0.031 A 
ATOM     68  C   UNL A   1      43.989  25.974  34.018  1.00  0.00     0.131 A 
ATOM     69  C   UNL A   1      44.632  27.098  36.455  1.00  0.00     0.055 A 
ATOM     70  C   UNL A   1      43.916  25.206  35.188  1.00  0.00     0.041 A 
ATOM     71  F   UNL A   1      43.663  25.349  32.876  1.00  0.00    -0.206 F 
ATOM     72  C   UNL A   1      44.237  25.768  36.417  1.00  0.00     0.022 A 
BRANCH  69  73
ATOM     73  S   UNL A   1      45.126  27.824  38.044  1.00  0.00     0.124 S 
ATOM     74  O   UNL A   1      44.266  29.000  38.122  1.00  0.00    -0.237 OA
ATOM     75  O   UNL A   1      44.808  26.742  38.971  1.00  0.00    -0.237 OA
ATOM     76  O   UNL A   1      46.551  28.091  37.872  1.00  0.00    -0.744 OA
ENDBRANCH  69  73
ENDBRANCH  52  66
BRANCH  53  77
ATOM     77  C   UNL A   1      42.542  22.313  27.389  1.00  0.00     0.023 A 
ATOM     78  C   UNL A   1      43.419  21.463  26.699  1.00  0.00     0.031 A 
ATOM     79  C   UNL A   1      41.206  21.877  27.520  1.00  0.00     0.131 A 
ATOM     80  C   UNL A   1      42.959  20.278  26.109  1.00  0.00     0.055 A 
ATOM     81  C   UNL A   1      40.751  20.678  26.948  1.00  0.00     0.041 A 
ATOM     82  F   UNL A   1      40.291  22.644  28.133  1.00  0.00    -0.206 F 
ATOM     83  C   UNL A   1      41.628  19.880  26.221  1.00  0.00     0.022 A 
BRANCH  80  84
ATOM     84  S   UNL A   1      44.085  19.297  25.082  1.00  0.00     0.124 S 
ATOM     85  O   UNL A   1      45.328  19.344  25.848  1.00  0.00    -0.237 OA
ATOM     86  O   UNL A   1      43.407  18.006  25.056  1.00  0.00    -0.237 OA
ATOM     87  O   UNL A   1      44.112  20.028  23.818  1.00  0.00    -0.744 OA
ENDBRANCH  80  84
ENDBRANCH  53  77
BRANCH  65  88
ATOM     88  C   UNL A   1      46.326  27.335  27.469  1.00  0.00     0.023 A 
ATOM     89  C   UNL A   1      47.669  27.200  27.080  1.00  0.00     0.031 A 
ATOM     90  C   UNL A   1      45.483  28.109  26.647  1.00  0.00     0.131 A 
ATOM     91  C   UNL A   1      48.152  27.866  25.952  1.00  0.00     0.055 A 
ATOM     92  C   UNL A   1      45.952  28.706  25.470  1.00  0.00     0.041 A 
ATOM     93  F   UNL A   1      44.216  28.382  26.993  1.00  0.00    -0.206 F 
ATOM     94  C   UNL A   1      47.298  28.604  25.129  1.00  0.00     0.022 A 
BRANCH  91  95
ATOM     95  S   UNL A   1      49.935  27.934  25.641  1.00  0.00     0.124 S 
ATOM     96  O   UNL A   1      50.379  26.620  26.096  1.00  0.00    -0.237 OA
ATOM     97  O   UNL A   1      49.989  28.150  24.196  1.00  0.00    -0.237 OA
ATOM     98  O   UNL A   1      50.392  29.062  26.447  1.00  0.00    -0.744 OA
ENDBRANCH  91  95
ENDBRANCH  65  88
ENDBRANCH  39  40
ENDBRANCH  32  34
ENDBRANCH  31  32
ENDBRANCH  30  31
ENDBRANCH  29  30
ENDBRANCH  28  29
ENDBRANCH  27  28
ENDBRANCH  26  27
ENDBRANCH  25  26
ENDBRANCH   1  25
TORSDOF 27
ENDMDL
