MODEL 1
REMARK VINA RESULT:     -10.0      0.000      0.000
REMARK SMILES Nc1oc(-c2ccccc2)cc1C(=O)OCCOCCOCCOCCOC(=O)c1ccc(-c2c3nc(c(-c4cc(S(=O)(=O)[O-])ccc4F)c4ccc([nH]4)c(-c4cc(S(=O)(=O)[O-])ccc4F)c4nc(c(-c5cc(S(=O)(=O)[O-])ccc5F)c5ccc2[nH]5)C=C4)C=C3)cc1
REMARK SMILES IDX 22 1 21 2 20 3 19 4 18 5 17 6 16 7 15 8 13 9 14 10 12 11
REMARK SMILES IDX 2 12 3 13 4 14 11 15 1 16 5 19 6 20 10 21 7 22 9 23 8 24
REMARK SMILES IDX 23 25 24 26 25 27 26 28 27 29 28 30 29 31 30 32 31 33 92 34
REMARK SMILES IDX 32 35 91 36 33 37 34 38 35 39 85 40 36 41 90 42 84 43 86 44
REMARK SMILES IDX 37 45 89 46 83 47 82 48 38 50 70 51 50 52 69 53 51 54 54 55
REMARK SMILES IDX 68 56 87 57 52 58 53 59 67 61 88 62 55 63 39 64 40 65 48 66
REMARK SMILES IDX 41 67 47 68 49 69 46 70 42 71 43 72 44 73 45 74 71 75 72 76
REMARK SMILES IDX 80 77 73 78 79 79 81 80 78 81 74 82 75 83 76 84 77 85 56 86
REMARK SMILES IDX 57 87 65 88 58 89 64 90 66 91 63 92 59 93 60 94 61 95 62 96
REMARK H PARENT 1 17 1 18 86 49 54 60
REMARK Flexibility Score: inf
ROOT
ATOM      1  C   UNL A   1      44.205  19.012  25.050  1.00  0.00     0.188 C 
ENDROOT
BRANCH   1   2
ATOM      2  O   UNL A   1      43.389  19.206  26.204  1.00  0.00    -0.377 OA
BRANCH   2   3
ATOM      3  C   UNL A   1      42.026  19.494  25.958  1.00  0.00     0.188 C 
BRANCH   3   4
ATOM      4  C   UNL A   1      41.350  20.294  27.095  1.00  0.00     0.188 C 
BRANCH   4   5
ATOM      5  O   UNL A   1      40.104  20.956  26.928  1.00  0.00    -0.376 OA
BRANCH   5   6
ATOM      6  C   UNL A   1      39.974  22.359  26.789  1.00  0.00     0.202 C 
BRANCH   6   7
ATOM      7  C   UNL A   1      38.766  23.054  26.136  1.00  0.00     0.261 C 
BRANCH   7   8
ATOM      8  O   UNL A   1      37.763  22.225  25.561  1.00  0.00    -0.459 OA
BRANCH   8   9
ATOM      9  C   UNL A   1      36.491  22.690  25.651  1.00  0.00     0.343 C 
ATOM     10  O   UNL A   1      36.184  23.837  25.980  1.00  0.00    -0.246 OA
BRANCH   9  11
ATOM     11  C   UNL A   1      35.546  21.707  25.182  1.00  0.00     0.123 A 
ATOM     12  C   UNL A   1      34.379  21.960  24.486  1.00  0.00     0.205 A 
ATOM     13  O   UNL A   1      33.741  20.801  24.181  1.00  0.00    -0.440 OA
ATOM     14  C   UNL A   1      34.501  19.789  24.685  1.00  0.00     0.137 A 
ATOM     15  C   UNL A   1      35.664  20.291  25.224  1.00  0.00     0.069 A 
BRANCH  12  16
ATOM     16  N   UNL A   1      33.804  23.077  24.028  1.00  0.00    -0.369 N 
ATOM     17  H   UNL A   1      32.957  23.026  23.530  1.00  0.00     0.159 HD
ATOM     18  H   UNL A   1      34.229  23.950  24.189  1.00  0.00     0.159 HD
ENDBRANCH  12  16
BRANCH  14  19
ATOM     19  C   UNL A   1      33.918  18.464  24.678  1.00  0.00     0.017 A 
ATOM     20  C   UNL A   1      34.262  17.494  23.734  1.00  0.00     0.012 A 
ATOM     21  C   UNL A   1      32.950  18.165  25.649  1.00  0.00     0.012 A 
ATOM     22  C   UNL A   1      33.646  16.239  23.767  1.00  0.00     0.001 A 
ATOM     23  C   UNL A   1      32.328  16.921  25.674  1.00  0.00     0.001 A 
ATOM     24  C   UNL A   1      32.678  15.957  24.733  1.00  0.00     0.000 A 
ENDBRANCH  14  19
ENDBRANCH   9  11
ENDBRANCH   8   9
ENDBRANCH   7   8
ENDBRANCH   6   7
ENDBRANCH   5   6
ENDBRANCH   4   5
ENDBRANCH   3   4
ENDBRANCH   2   3
ENDBRANCH   1   2
BRANCH   1  25
ATOM     25  C   UNL A   1      44.992  20.212  24.449  1.00  0.00     0.188 C 
BRANCH  25  26
ATOM     26  O   UNL A   1      45.788  20.940  25.374  1.00  0.00    -0.376 OA
BRANCH  26  27
ATOM     27  C   UNL A   1      45.459  22.225  25.875  1.00  0.00     0.202 C 
BRANCH  27  28
ATOM     28  C   UNL A   1      44.052  22.764  25.640  1.00  0.00     0.261 C 
BRANCH  28  29
ATOM     29  O   UNL A   1      43.664  23.711  26.609  1.00  0.00    -0.460 OA
BRANCH  29  30
ATOM     30  C   UNL A   1      43.098  24.818  26.097  1.00  0.00     0.338 C 
ATOM     31  O   UNL A   1      43.391  25.380  25.053  1.00  0.00    -0.246 OA
BRANCH  30  32
ATOM     32  C   UNL A   1      42.092  25.288  27.053  1.00  0.00     0.060 A 
ATOM     33  C   UNL A   1      41.127  26.129  26.508  1.00  0.00     0.016 A 
ATOM     34  C   UNL A   1      42.482  25.334  28.398  1.00  0.00     0.016 A 
ATOM     35  C   UNL A   1      40.880  27.290  27.187  1.00  0.00     0.010 A 
ATOM     36  C   UNL A   1      42.270  26.508  29.054  1.00  0.00     0.010 A 
ATOM     37  C   UNL A   1      41.580  27.508  28.376  1.00  0.00    -0.014 A 
BRANCH  37  38
ATOM     38  C   UNL A   1      41.522  28.808  28.984  1.00  0.00     0.031 A 
ATOM     39  C   UNL A   1      42.645  29.638  28.522  1.00  0.00     0.074 A 
ATOM     40  C   UNL A   1      40.490  29.187  29.758  1.00  0.00     0.049 A 
ATOM     41  N   UNL A   1      43.741  29.863  29.163  1.00  0.00    -0.248 NA
ATOM     42  C   UNL A   1      42.709  29.975  27.088  1.00  0.00     0.031 C 
ATOM     43  C   UNL A   1      39.248  28.476  30.065  1.00  0.00     0.029 A 
ATOM     44  N   UNL A   1      40.311  30.379  30.373  1.00  0.00    -0.354 N 
ATOM     45  C   UNL A   1      44.502  30.629  28.296  1.00  0.00     0.074 A 
ATOM     46  C   UNL A   1      43.978  30.372  26.986  1.00  0.00     0.031 C 
ATOM     47  C   UNL A   1      38.359  29.346  30.605  1.00  0.00     0.029 A 
ATOM     48  C   UNL A   1      39.007  30.636  30.784  1.00  0.00     0.049 A 
ATOM     49  H   UNL A   1      41.048  31.017  30.519  1.00  0.00     0.167 HD
ATOM     50  C   UNL A   1      45.251  31.662  28.762  1.00  0.00     0.034 A 
ATOM     51  C   UNL A   1      38.517  31.859  31.137  1.00  0.00     0.034 A 
ATOM     52  C   UNL A   1      45.400  31.571  30.201  1.00  0.00     0.049 A 
ATOM     53  C   UNL A   1      39.707  32.688  31.503  1.00  0.00     0.074 A 
ATOM     54  C   UNL A   1      45.918  30.609  31.049  1.00  0.00     0.029 A 
ATOM     55  N   UNL A   1      44.580  32.360  30.982  1.00  0.00    -0.354 N 
ATOM     56  N   UNL A   1      40.456  32.420  32.542  1.00  0.00    -0.248 NA
ATOM     57  C   UNL A   1      40.384  33.424  30.438  1.00  0.00     0.031 C 
ATOM     58  C   UNL A   1      45.015  30.568  32.151  1.00  0.00     0.029 A 
ATOM     59  C   UNL A   1      44.060  31.574  31.982  1.00  0.00     0.049 A 
ATOM     60  H   UNL A   1      44.400  33.319  30.846  1.00  0.00     0.167 HD
ATOM     61  C   UNL A   1      41.765  32.554  32.096  1.00  0.00     0.074 A 
ATOM     62  C   UNL A   1      41.658  33.252  30.813  1.00  0.00     0.031 C 
ATOM     63  C   UNL A   1      42.781  31.811  32.633  1.00  0.00     0.034 A 
BRANCH  50  64
ATOM     64  C   UNL A   1      45.492  32.946  28.005  1.00  0.00     0.023 A 
ATOM     65  C   UNL A   1      44.602  33.999  28.268  1.00  0.00     0.031 A 
ATOM     66  C   UNL A   1      46.333  33.120  26.880  1.00  0.00     0.131 A 
ATOM     67  C   UNL A   1      44.490  35.085  27.386  1.00  0.00     0.055 A 
ATOM     68  C   UNL A   1      46.265  34.234  26.042  1.00  0.00     0.041 A 
ATOM     69  F   UNL A   1      47.204  32.198  26.458  1.00  0.00    -0.206 F 
ATOM     70  C   UNL A   1      45.315  35.210  26.272  1.00  0.00     0.022 A 
BRANCH  67  71
ATOM     71  S   UNL A   1      43.117  36.235  27.626  1.00  0.00     0.124 S 
ATOM     72  O   UNL A   1      43.718  37.228  28.509  1.00  0.00    -0.237 OA
ATOM     73  O   UNL A   1      42.849  36.666  26.258  1.00  0.00    -0.237 OA
ATOM     74  O   UNL A   1      42.083  35.401  28.234  1.00  0.00    -0.744 OA
ENDBRANCH  67  71
ENDBRANCH  50  64
BRANCH  51  75
ATOM     75  C   UNL A   1      37.167  32.416  30.807  1.00  0.00     0.023 A 
ATOM     76  C   UNL A   1      36.289  32.981  31.763  1.00  0.00     0.031 A 
ATOM     77  C   UNL A   1      36.804  32.591  29.450  1.00  0.00     0.131 A 
ATOM     78  C   UNL A   1      35.115  33.666  31.345  1.00  0.00     0.055 A 
ATOM     79  C   UNL A   1      35.648  33.263  29.045  1.00  0.00     0.041 A 
ATOM     80  F   UNL A   1      37.608  32.184  28.456  1.00  0.00    -0.206 F 
ATOM     81  C   UNL A   1      34.801  33.810  29.991  1.00  0.00     0.022 A 
BRANCH  78  82
ATOM     82  S   UNL A   1      33.997  34.453  32.556  1.00  0.00     0.124 S 
ATOM     83  O   UNL A   1      33.025  35.118  31.698  1.00  0.00    -0.237 OA
ATOM     84  O   UNL A   1      33.513  33.313  33.327  1.00  0.00    -0.237 OA
ATOM     85  O   UNL A   1      34.879  35.358  33.298  1.00  0.00    -0.744 OA
ENDBRANCH  78  82
ENDBRANCH  51  75
BRANCH  63  86
ATOM     86  C   UNL A   1      42.513  31.008  33.895  1.00  0.00     0.023 A 
ATOM     87  C   UNL A   1      42.197  29.629  33.934  1.00  0.00     0.031 A 
ATOM     88  C   UNL A   1      42.761  31.653  35.119  1.00  0.00     0.131 A 
ATOM     89  C   UNL A   1      42.142  28.954  35.172  1.00  0.00     0.055 A 
ATOM     90  C   UNL A   1      42.733  30.976  36.336  1.00  0.00     0.041 A 
ATOM     91  F   UNL A   1      43.091  32.955  35.145  1.00  0.00    -0.206 F 
ATOM     92  C   UNL A   1      42.421  29.624  36.368  1.00  0.00     0.022 A 
BRANCH  89  93
ATOM     93  S   UNL A   1      41.700  27.186  35.257  1.00  0.00     0.124 S 
ATOM     94  O   UNL A   1      40.669  27.047  34.235  1.00  0.00    -0.237 OA
ATOM     95  O   UNL A   1      42.973  26.528  34.976  1.00  0.00    -0.237 OA
ATOM     96  O   UNL A   1      41.221  27.020  36.632  1.00  0.00    -0.744 OA
ENDBRANCH  89  93
ENDBRANCH  63  86
ENDBRANCH  37  38
ENDBRANCH  30  32
ENDBRANCH  29  30
ENDBRANCH  28  29
ENDBRANCH  27  28
ENDBRANCH  26  27
ENDBRANCH  25  26
ENDBRANCH   1  25
TORSDOF 25
ENDMDL
MODEL 2
REMARK VINA RESULT:      -9.8      3.699      5.455
REMARK SMILES Nc1oc(-c2ccccc2)cc1C(=O)OCCOCCOCCOCCOC(=O)c1ccc(-c2c3nc(c(-c4cc(S(=O)(=O)[O-])ccc4F)c4ccc([nH]4)c(-c4cc(S(=O)(=O)[O-])ccc4F)c4nc(c(-c5cc(S(=O)(=O)[O-])ccc5F)c5ccc2[nH]5)C=C4)C=C3)cc1
REMARK SMILES IDX 22 1 21 2 20 3 19 4 18 5 17 6 16 7 15 8 13 9 14 10 12 11
REMARK SMILES IDX 2 12 3 13 4 14 11 15 1 16 5 19 6 20 10 21 7 22 9 23 8 24
REMARK SMILES IDX 23 25 24 26 25 27 26 28 27 29 28 30 29 31 30 32 31 33 92 34
REMARK SMILES IDX 32 35 91 36 33 37 34 38 35 39 85 40 36 41 90 42 84 43 86 44
REMARK SMILES IDX 37 45 89 46 83 47 82 48 38 50 70 51 50 52 69 53 51 54 54 55
REMARK SMILES IDX 68 56 87 57 52 58 53 59 67 61 88 62 55 63 39 64 40 65 48 66
REMARK SMILES IDX 41 67 47 68 49 69 46 70 42 71 43 72 44 73 45 74 71 75 72 76
REMARK SMILES IDX 80 77 73 78 79 79 81 80 78 81 74 82 75 83 76 84 77 85 56 86
REMARK SMILES IDX 57 87 65 88 58 89 64 90 66 91 63 92 59 93 60 94 61 95 62 96
REMARK H PARENT 1 17 1 18 86 49 54 60
REMARK Flexibility Score: inf
ROOT
ATOM      1  C   UNL A   1      38.359  22.808  26.227  1.00  0.00     0.188 C 
ENDROOT
BRANCH   1   2
ATOM      2  O   UNL A   1      37.780  22.548  24.949  1.00  0.00    -0.377 OA
BRANCH   2   3
ATOM      3  C   UNL A   1      36.611  23.281  24.638  1.00  0.00     0.188 C 
BRANCH   3   4
ATOM      4  C   UNL A   1      35.740  22.618  23.546  1.00  0.00     0.188 C 
BRANCH   4   5
ATOM      5  O   UNL A   1      34.986  23.371  22.606  1.00  0.00    -0.376 OA
BRANCH   5   6
ATOM      6  C   UNL A   1      33.705  23.910  22.878  1.00  0.00     0.202 C 
BRANCH   6   7
ATOM      7  C   UNL A   1      33.427  24.977  23.950  1.00  0.00     0.261 C 
BRANCH   7   8
ATOM      8  O   UNL A   1      32.983  24.528  25.226  1.00  0.00    -0.459 OA
BRANCH   8   9
ATOM      9  C   UNL A   1      32.009  23.583  25.211  1.00  0.00     0.343 C 
ATOM     10  O   UNL A   1      30.837  23.788  24.895  1.00  0.00    -0.246 OA
BRANCH   9  11
ATOM     11  C   UNL A   1      32.553  22.276  25.486  1.00  0.00     0.123 A 
ATOM     12  C   UNL A   1      33.511  21.971  26.435  1.00  0.00     0.205 A 
ATOM     13  O   UNL A   1      33.773  20.639  26.441  1.00  0.00    -0.440 OA
ATOM     14  C   UNL A   1      32.979  20.077  25.488  1.00  0.00     0.137 A 
ATOM     15  C   UNL A   1      32.146  21.027  24.942  1.00  0.00     0.069 A 
BRANCH  12  16
ATOM     16  N   UNL A   1      34.166  22.697  27.347  1.00  0.00    -0.369 N 
ATOM     17  H   UNL A   1      33.684  23.371  27.878  1.00  0.00     0.159 HD
ATOM     18  H   UNL A   1      35.130  22.556  27.487  1.00  0.00     0.159 HD
ENDBRANCH  12  16
BRANCH  14  19
ATOM     19  C   UNL A   1      33.235  18.691  25.153  1.00  0.00     0.017 A 
ATOM     20  C   UNL A   1      34.203  18.308  24.222  1.00  0.00     0.012 A 
ATOM     21  C   UNL A   1      32.455  17.708  25.779  1.00  0.00     0.012 A 
ATOM     22  C   UNL A   1      34.388  16.954  23.927  1.00  0.00     0.001 A 
ATOM     23  C   UNL A   1      32.629  16.361  25.475  1.00  0.00     0.001 A 
ATOM     24  C   UNL A   1      33.598  15.984  24.549  1.00  0.00     0.000 A 
ENDBRANCH  14  19
ENDBRANCH   9  11
ENDBRANCH   8   9
ENDBRANCH   7   8
ENDBRANCH   6   7
ENDBRANCH   5   6
ENDBRANCH   4   5
ENDBRANCH   3   4
ENDBRANCH   2   3
ENDBRANCH   1   2
BRANCH   1  25
ATOM     25  C   UNL A   1      39.851  22.450  26.487  1.00  0.00     0.188 C 
BRANCH  25  26
ATOM     26  O   UNL A   1      40.072  21.207  27.137  1.00  0.00    -0.376 OA
BRANCH  26  27
ATOM     27  C   UNL A   1      40.659  20.073  26.520  1.00  0.00     0.202 C 
BRANCH  27  28
ATOM     28  C   UNL A   1      42.178  20.017  26.389  1.00  0.00     0.261 C 
BRANCH  28  29
ATOM     29  O   UNL A   1      42.666  20.863  25.373  1.00  0.00    -0.460 OA
BRANCH  29  30
ATOM     30  C   UNL A   1      43.912  20.562  24.963  1.00  0.00     0.338 C 
ATOM     31  O   UNL A   1      44.375  19.449  24.769  1.00  0.00    -0.246 OA
BRANCH  30  32
ATOM     32  C   UNL A   1      44.659  21.817  24.850  1.00  0.00     0.060 A 
ATOM     33  C   UNL A   1      45.692  21.958  25.772  1.00  0.00     0.016 A 
ATOM     34  C   UNL A   1      43.974  22.904  24.290  1.00  0.00     0.016 A 
ATOM     35  C   UNL A   1      45.739  23.142  26.456  1.00  0.00     0.010 A 
ATOM     36  C   UNL A   1      43.992  24.066  24.999  1.00  0.00     0.010 A 
ATOM     37  C   UNL A   1      44.781  24.110  26.143  1.00  0.00    -0.014 A 
BRANCH  37  38
ATOM     38  C   UNL A   1      44.655  25.257  26.997  1.00  0.00     0.031 A 
ATOM     39  C   UNL A   1      45.793  26.169  26.802  1.00  0.00     0.074 A 
ATOM     40  C   UNL A   1      43.561  25.467  27.752  1.00  0.00     0.049 A 
ATOM     41  N   UNL A   1      46.835  26.260  27.557  1.00  0.00    -0.248 NA
ATOM     42  C   UNL A   1      45.957  26.793  25.476  1.00  0.00     0.031 C 
ATOM     43  C   UNL A   1      42.313  24.704  27.812  1.00  0.00     0.029 A 
ATOM     44  N   UNL A   1      43.315  26.507  28.582  1.00  0.00    -0.354 N 
ATOM     45  C   UNL A   1      47.643  27.190  26.925  1.00  0.00     0.074 A 
ATOM     46  C   UNL A   1      47.222  27.206  25.555  1.00  0.00     0.031 C 
ATOM     47  C   UNL A   1      41.371  25.442  28.449  1.00  0.00     0.029 A 
ATOM     48  C   UNL A   1      41.979  26.670  28.936  1.00  0.00     0.049 A 
ATOM     49  H   UNL A   1      44.027  27.103  28.911  1.00  0.00     0.167 HD
ATOM     50  C   UNL A   1      48.336  28.107  27.649  1.00  0.00     0.034 A 
ATOM     51  C   UNL A   1      41.443  27.793  29.494  1.00  0.00     0.034 A 
ATOM     52  C   UNL A   1      48.380  27.723  29.046  1.00  0.00     0.049 A 
ATOM     53  C   UNL A   1      42.586  28.532  30.111  1.00  0.00     0.074 A 
ATOM     54  C   UNL A   1      48.852  26.609  29.716  1.00  0.00     0.029 A 
ATOM     55  N   UNL A   1      47.490  28.333  29.907  1.00  0.00    -0.354 N 
ATOM     56  N   UNL A   1      43.262  28.059  31.127  1.00  0.00    -0.248 NA
ATOM     57  C   UNL A   1      43.327  29.473  29.274  1.00  0.00     0.031 C 
ATOM     58  C   UNL A   1      47.870  26.340  30.714  1.00  0.00     0.029 A 
ATOM     59  C   UNL A   1      46.913  27.356  30.682  1.00  0.00     0.049 A 
ATOM     60  H   UNL A   1      47.303  29.298  29.957  1.00  0.00     0.167 HD
ATOM     61  C   UNL A   1      44.598  28.285  30.819  1.00  0.00     0.074 A 
ATOM     62  C   UNL A   1      44.573  29.232  29.702  1.00  0.00     0.031 C 
ATOM     63  C   UNL A   1      45.585  27.451  31.269  1.00  0.00     0.034 A 
BRANCH  50  64
ATOM     64  C   UNL A   1      48.608  29.520  27.191  1.00  0.00     0.023 A 
ATOM     65  C   UNL A   1      49.955  29.918  27.165  1.00  0.00     0.031 A 
ATOM     66  C   UNL A   1      47.659  30.560  27.046  1.00  0.00     0.131 A 
ATOM     67  C   UNL A   1      50.304  31.275  27.121  1.00  0.00     0.055 A 
ATOM     68  C   UNL A   1      48.013  31.905  26.933  1.00  0.00     0.041 A 
ATOM     69  F   UNL A   1      46.337  30.367  27.095  1.00  0.00    -0.206 F 
ATOM     70  C   UNL A   1      49.343  32.275  27.005  1.00  0.00     0.022 A 
BRANCH  67  71
ATOM     71  S   UNL A   1      52.034  31.716  27.401  1.00  0.00     0.124 S 
ATOM     72  O   UNL A   1      52.079  31.812  28.856  1.00  0.00    -0.237 OA
ATOM     73  O   UNL A   1      52.729  30.580  26.807  1.00  0.00    -0.237 OA
ATOM     74  O   UNL A   1      52.178  32.982  26.686  1.00  0.00    -0.744 OA
ENDBRANCH  67  71
ENDBRANCH  50  64
BRANCH  51  75
ATOM     75  C   UNL A   1      40.110  28.401  29.183  1.00  0.00     0.023 A 
ATOM     76  C   UNL A   1      39.220  28.899  30.164  1.00  0.00     0.031 A 
ATOM     77  C   UNL A   1      39.783  28.700  27.839  1.00  0.00     0.131 A 
ATOM     78  C   UNL A   1      38.068  29.639  29.780  1.00  0.00     0.055 A 
ATOM     79  C   UNL A   1      38.649  29.426  27.467  1.00  0.00     0.041 A 
ATOM     80  F   UNL A   1      40.604  28.365  26.831  1.00  0.00    -0.206 F 
ATOM     81  C   UNL A   1      37.789  29.906  28.438  1.00  0.00     0.022 A 
BRANCH  78  82
ATOM     82  S   UNL A   1      36.935  30.341  31.030  1.00  0.00     0.124 S 
ATOM     83  O   UNL A   1      35.875  30.910  30.207  1.00  0.00    -0.237 OA
ATOM     84  O   UNL A   1      36.581  29.171  31.827  1.00  0.00    -0.237 OA
ATOM     85  O   UNL A   1      37.763  31.326  31.729  1.00  0.00    -0.744 OA
ENDBRANCH  78  82
ENDBRANCH  51  75
BRANCH  63  86
ATOM     86  C   UNL A   1      45.239  26.405  32.315  1.00  0.00     0.023 A 
ATOM     87  C   UNL A   1      45.096  26.651  33.701  1.00  0.00     0.031 A 
ATOM     88  C   UNL A   1      44.873  25.133  31.839  1.00  0.00     0.131 A 
ATOM     89  C   UNL A   1      44.600  25.638  34.548  1.00  0.00     0.055 A 
ATOM     90  C   UNL A   1      44.358  24.146  32.675  1.00  0.00     0.041 A 
ATOM     91  F   UNL A   1      44.961  24.848  30.530  1.00  0.00    -0.206 F 
ATOM     92  C   UNL A   1      44.221  24.392  34.035  1.00  0.00     0.022 A 
BRANCH  89  93
ATOM     93  S   UNL A   1      44.441  25.913  36.345  1.00  0.00     0.124 S 
ATOM     94  O   UNL A   1      45.820  25.870  36.816  1.00  0.00    -0.237 OA
ATOM     95  O   UNL A   1      43.782  27.214  36.408  1.00  0.00    -0.237 OA
ATOM     96  O   UNL A   1      43.610  24.790  36.789  1.00  0.00    -0.744 OA
ENDBRANCH  89  93
ENDBRANCH  63  86
ENDBRANCH  37  38
ENDBRANCH  30  32
ENDBRANCH  29  30
ENDBRANCH  28  29
ENDBRANCH  27  28
ENDBRANCH  26  27
ENDBRANCH  25  26
ENDBRANCH   1  25
TORSDOF 25
ENDMDL
MODEL 3
REMARK VINA RESULT:      -9.7      2.265      3.163
REMARK SMILES Nc1oc(-c2ccccc2)cc1C(=O)OCCOCCOCCOCCOC(=O)c1ccc(-c2c3nc(c(-c4cc(S(=O)(=O)[O-])ccc4F)c4ccc([nH]4)c(-c4cc(S(=O)(=O)[O-])ccc4F)c4nc(c(-c5cc(S(=O)(=O)[O-])ccc5F)c5ccc2[nH]5)C=C4)C=C3)cc1
REMARK SMILES IDX 22 1 21 2 20 3 19 4 18 5 17 6 16 7 15 8 13 9 14 10 12 11
REMARK SMILES IDX 2 12 3 13 4 14 11 15 1 16 5 19 6 20 10 21 7 22 9 23 8 24
REMARK SMILES IDX 23 25 24 26 25 27 26 28 27 29 28 30 29 31 30 32 31 33 92 34
REMARK SMILES IDX 32 35 91 36 33 37 34 38 35 39 85 40 36 41 90 42 84 43 86 44
REMARK SMILES IDX 37 45 89 46 83 47 82 48 38 50 70 51 50 52 69 53 51 54 54 55
REMARK SMILES IDX 68 56 87 57 52 58 53 59 67 61 88 62 55 63 39 64 40 65 48 66
REMARK SMILES IDX 41 67 47 68 49 69 46 70 42 71 43 72 44 73 45 74 71 75 72 76
REMARK SMILES IDX 80 77 73 78 79 79 81 80 78 81 74 82 75 83 76 84 77 85 56 86
REMARK SMILES IDX 57 87 65 88 58 89 64 90 66 91 63 92 59 93 60 94 61 95 62 96
REMARK H PARENT 1 17 1 18 86 49 54 60
REMARK Flexibility Score: inf
ROOT
ATOM      1  C   UNL A   1      44.355  18.967  25.046  1.00  0.00     0.188 C 
ENDROOT
BRANCH   1   2
ATOM      2  O   UNL A   1      43.424  19.087  26.120  1.00  0.00    -0.377 OA
BRANCH   2   3
ATOM      3  C   UNL A   1      42.059  19.145  25.753  1.00  0.00     0.188 C 
BRANCH   3   4
ATOM      4  C   UNL A   1      41.217  20.077  26.652  1.00  0.00     0.188 C 
BRANCH   4   5
ATOM      5  O   UNL A   1      40.074  20.774  26.176  1.00  0.00    -0.376 OA
BRANCH   5   6
ATOM      6  C   UNL A   1      38.975  20.140  25.547  1.00  0.00     0.202 C 
BRANCH   6   7
ATOM      7  C   UNL A   1      37.806  20.892  24.886  1.00  0.00     0.261 C 
BRANCH   7   8
ATOM      8  O   UNL A   1      36.851  21.505  25.744  1.00  0.00    -0.459 OA
BRANCH   8   9
ATOM      9  C   UNL A   1      36.913  22.859  25.824  1.00  0.00     0.343 C 
ATOM     10  O   UNL A   1      37.938  23.524  25.670  1.00  0.00    -0.246 OA
BRANCH   9  11
ATOM     11  C   UNL A   1      35.598  23.429  25.981  1.00  0.00     0.123 A 
ATOM     12  C   UNL A   1      34.589  22.946  26.792  1.00  0.00     0.205 A 
ATOM     13  O   UNL A   1      33.491  23.741  26.716  1.00  0.00    -0.440 OA
ATOM     14  C   UNL A   1      33.792  24.747  25.848  1.00  0.00     0.137 A 
ATOM     15  C   UNL A   1      35.105  24.650  25.445  1.00  0.00     0.069 A 
BRANCH  12  16
ATOM     16  N   UNL A   1      34.504  21.918  27.643  1.00  0.00    -0.369 N 
ATOM     17  H   UNL A   1      35.306  21.390  27.857  1.00  0.00     0.159 HD
ATOM     18  H   UNL A   1      33.639  21.691  28.055  1.00  0.00     0.159 HD
ENDBRANCH  12  16
BRANCH  14  19
ATOM     19  C   UNL A   1      32.702  25.605  25.433  1.00  0.00     0.017 A 
ATOM     20  C   UNL A   1      32.175  26.605  26.253  1.00  0.00     0.012 A 
ATOM     21  C   UNL A   1      32.145  25.393  24.163  1.00  0.00     0.012 A 
ATOM     22  C   UNL A   1      31.107  27.386  25.801  1.00  0.00     0.001 A 
ATOM     23  C   UNL A   1      31.073  26.161  23.718  1.00  0.00     0.001 A 
ATOM     24  C   UNL A   1      30.555  27.160  24.538  1.00  0.00     0.000 A 
ENDBRANCH  14  19
ENDBRANCH   9  11
ENDBRANCH   8   9
ENDBRANCH   7   8
ENDBRANCH   6   7
ENDBRANCH   5   6
ENDBRANCH   4   5
ENDBRANCH   3   4
ENDBRANCH   2   3
ENDBRANCH   1   2
BRANCH   1  25
ATOM     25  C   UNL A   1      45.020  20.244  24.454  1.00  0.00     0.188 C 
BRANCH  25  26
ATOM     26  O   UNL A   1      45.799  21.002  25.367  1.00  0.00    -0.376 OA
BRANCH  26  27
ATOM     27  C   UNL A   1      45.377  22.216  25.965  1.00  0.00     0.202 C 
BRANCH  27  28
ATOM     28  C   UNL A   1      43.885  22.531  26.007  1.00  0.00     0.261 C 
BRANCH  28  29
ATOM     29  O   UNL A   1      43.592  23.670  26.782  1.00  0.00    -0.460 OA
BRANCH  29  30
ATOM     30  C   UNL A   1      42.685  24.493  26.225  1.00  0.00     0.338 C 
ATOM     31  O   UNL A   1      42.614  24.823  25.051  1.00  0.00    -0.246 OA
BRANCH  30  32
ATOM     32  C   UNL A   1      41.818  24.991  27.296  1.00  0.00     0.060 A 
ATOM     33  C   UNL A   1      40.712  25.711  26.854  1.00  0.00     0.016 A 
ATOM     34  C   UNL A   1      42.422  25.198  28.544  1.00  0.00     0.016 A 
ATOM     35  C   UNL A   1      40.490  26.916  27.461  1.00  0.00     0.010 A 
ATOM     36  C   UNL A   1      42.229  26.415  29.121  1.00  0.00     0.010 A 
ATOM     37  C   UNL A   1      41.358  27.296  28.487  1.00  0.00    -0.014 A 
BRANCH  37  38
ATOM     38  C   UNL A   1      41.299  28.644  28.978  1.00  0.00     0.031 A 
ATOM     39  C   UNL A   1      42.393  29.445  28.407  1.00  0.00     0.074 A 
ATOM     40  C   UNL A   1      40.286  29.078  29.750  1.00  0.00     0.049 A 
ATOM     41  N   UNL A   1      43.505  29.740  28.990  1.00  0.00    -0.248 NA
ATOM     42  C   UNL A   1      42.406  29.654  26.948  1.00  0.00     0.031 C 
ATOM     43  C   UNL A   1      39.065  28.380  30.160  1.00  0.00     0.029 A 
ATOM     44  N   UNL A   1      40.107  30.317  30.262  1.00  0.00    -0.354 N 
ATOM     45  C   UNL A   1      44.226  30.436  28.033  1.00  0.00     0.074 A 
ATOM     46  C   UNL A   1      43.664  30.057  26.770  1.00  0.00     0.031 C 
ATOM     47  C   UNL A   1      38.181  29.283  30.649  1.00  0.00     0.029 A 
ATOM     48  C   UNL A   1      38.812  30.593  30.691  1.00  0.00     0.049 A 
ATOM     49  H   UNL A   1      40.838  30.975  30.326  1.00  0.00     0.167 HD
ATOM     50  C   UNL A   1      44.972  31.517  28.381  1.00  0.00     0.034 A 
ATOM     51  C   UNL A   1      38.315  31.836  30.951  1.00  0.00     0.034 A 
ATOM     52  C   UNL A   1      45.168  31.556  29.817  1.00  0.00     0.049 A 
ATOM     53  C   UNL A   1      39.502  32.709  31.202  1.00  0.00     0.074 A 
ATOM     54  C   UNL A   1      45.728  30.681  30.729  1.00  0.00     0.029 A 
ATOM     55  N   UNL A   1      44.360  32.401  30.551  1.00  0.00    -0.354 N 
ATOM     56  N   UNL A   1      40.288  32.545  32.235  1.00  0.00    -0.248 NA
ATOM     57  C   UNL A   1      40.133  33.356  30.054  1.00  0.00     0.031 C 
ATOM     58  C   UNL A   1      44.861  30.726  31.860  1.00  0.00     0.029 A 
ATOM     59  C   UNL A   1      43.886  31.700  31.634  1.00  0.00     0.049 A 
ATOM     60  H   UNL A   1      44.161  33.341  30.337  1.00  0.00     0.167 HD
ATOM     61  C   UNL A   1      41.580  32.656  31.736  1.00  0.00     0.074 A 
ATOM     62  C   UNL A   1      41.421  33.235  30.401  1.00  0.00     0.031 C 
ATOM     63  C   UNL A   1      42.625  31.978  32.303  1.00  0.00     0.034 A 
BRANCH  50  64
ATOM     64  C   UNL A   1      45.168  32.731  27.506  1.00  0.00     0.023 A 
ATOM     65  C   UNL A   1      46.451  32.908  26.965  1.00  0.00     0.031 A 
ATOM     66  C   UNL A   1      44.295  33.840  27.389  1.00  0.00     0.131 A 
ATOM     67  C   UNL A   1      46.854  34.152  26.458  1.00  0.00     0.055 A 
ATOM     68  C   UNL A   1      44.679  35.055  26.821  1.00  0.00     0.041 A 
ATOM     69  F   UNL A   1      43.056  33.861  27.890  1.00  0.00    -0.206 F 
ATOM     70  C   UNL A   1      45.977  35.230  26.383  1.00  0.00     0.022 A 
BRANCH  67  71
ATOM     71  S   UNL A   1      48.603  34.384  26.068  1.00  0.00     0.124 S 
ATOM     72  O   UNL A   1      48.533  35.324  24.955  1.00  0.00    -0.237 OA
ATOM     73  O   UNL A   1      49.120  34.910  27.327  1.00  0.00    -0.237 OA
ATOM     74  O   UNL A   1      49.051  33.037  25.721  1.00  0.00    -0.744 OA
ENDBRANCH  67  71
ENDBRANCH  50  64
BRANCH  51  75
ATOM     75  C   UNL A   1      36.946  32.342  30.618  1.00  0.00     0.023 A 
ATOM     76  C   UNL A   1      36.130  33.068  31.519  1.00  0.00     0.031 A 
ATOM     77  C   UNL A   1      36.498  32.292  29.276  1.00  0.00     0.131 A 
ATOM     78  C   UNL A   1      34.931  33.684  31.066  1.00  0.00     0.055 A 
ATOM     79  C   UNL A   1      35.317  32.898  28.837  1.00  0.00     0.041 A 
ATOM     80  F   UNL A   1      37.237  31.718  28.315  1.00  0.00    -0.206 F 
ATOM     81  C   UNL A   1      34.532  33.604  29.730  1.00  0.00     0.022 A 
BRANCH  78  82
ATOM     82  S   UNL A   1      33.892  34.674  32.196  1.00  0.00     0.124 S 
ATOM     83  O   UNL A   1      33.602  33.727  33.265  1.00  0.00    -0.237 OA
ATOM     84  O   UNL A   1      34.768  35.790  32.535  1.00  0.00    -0.237 OA
ATOM     85  O   UNL A   1      32.737  35.037  31.371  1.00  0.00    -0.744 OA
ENDBRANCH  78  82
ENDBRANCH  51  75
BRANCH  63  86
ATOM     86  C   UNL A   1      42.409  31.286  33.639  1.00  0.00     0.023 A 
ATOM     87  C   UNL A   1      42.142  29.907  33.812  1.00  0.00     0.031 A 
ATOM     88  C   UNL A   1      42.659  32.050  34.793  1.00  0.00     0.131 A 
ATOM     89  C   UNL A   1      42.136  29.350  35.108  1.00  0.00     0.055 A 
ATOM     90  C   UNL A   1      42.679  31.489  36.067  1.00  0.00     0.041 A 
ATOM     91  F   UNL A   1      42.945  33.359  34.691  1.00  0.00    -0.206 F 
ATOM     92  C   UNL A   1      42.415  30.136  36.231  1.00  0.00     0.022 A 
BRANCH  89  93
ATOM     93  S   UNL A   1      41.756  27.583  35.366  1.00  0.00     0.124 S 
ATOM     94  O   UNL A   1      40.762  27.299  34.338  1.00  0.00    -0.237 OA
ATOM     95  O   UNL A   1      43.060  26.951  35.189  1.00  0.00    -0.237 OA
ATOM     96  O   UNL A   1      41.243  27.542  36.738  1.00  0.00    -0.744 OA
ENDBRANCH  89  93
ENDBRANCH  63  86
ENDBRANCH  37  38
ENDBRANCH  30  32
ENDBRANCH  29  30
ENDBRANCH  28  29
ENDBRANCH  27  28
ENDBRANCH  26  27
ENDBRANCH  25  26
ENDBRANCH   1  25
TORSDOF 25
ENDMDL
