MODEL 1
REMARK VINA RESULT:      -9.6      0.000      0.000
REMARK SMILES Cc1noc(-c2ccc(CCl)cc2)c1C(=O)OCCOCCOCCOCCOC(=O)c1ccc(-c2c3nc(c(-c4cc(S(=O)(=O)[O-])ccc4F)c4ccc([nH]4)c(-c4cc(S(=O)(=O)[O-])ccc4F)c4nc(c(-c5cc(S(=O)(=O)[O-])ccc5F)c5ccc2[nH]5)C=C4)C=C3)cc1
REMARK SMILES IDX 24 1 23 2 22 3 21 4 20 5 19 6 18 7 17 8 15 9 16 10 14 11
REMARK SMILES IDX 1 12 2 13 3 14 4 15 5 16 6 17 7 18 13 19 8 20 12 21 9 22
REMARK SMILES IDX 10 23 11 24 25 25 26 26 27 27 28 28 29 29 30 30 31 31 32 32
REMARK SMILES IDX 33 33 94 34 34 35 93 36 35 37 36 38 37 39 87 40 38 41 92 42
REMARK SMILES IDX 86 43 88 44 39 45 91 46 85 47 84 48 40 50 72 51 52 52 71 53
REMARK SMILES IDX 53 54 56 55 70 56 89 57 54 58 55 59 69 61 90 62 57 63 41 64
REMARK SMILES IDX 42 65 50 66 43 67 49 68 51 69 48 70 44 71 45 72 46 73 47 74
REMARK SMILES IDX 73 75 74 76 82 77 75 78 81 79 83 80 80 81 76 82 77 83 78 84
REMARK SMILES IDX 79 85 58 86 59 87 67 88 60 89 66 90 68 91 65 92 61 93 62 94
REMARK SMILES IDX 63 95 64 96
REMARK H PARENT 88 49 56 60
REMARK Flexibility Score: inf
ROOT
ATOM      1  C   UNL A   1      33.379  33.510  28.014  1.00  0.00     0.188 C 
ENDROOT
BRANCH   1   2
ATOM      2  O   UNL A   1      33.622  32.112  28.151  1.00  0.00    -0.377 OA
BRANCH   2   3
ATOM      3  C   UNL A   1      34.830  31.606  27.616  1.00  0.00     0.188 C 
BRANCH   3   4
ATOM      4  C   UNL A   1      34.915  30.074  27.694  1.00  0.00     0.188 C 
BRANCH   4   5
ATOM      5  O   UNL A   1      34.019  29.416  26.795  1.00  0.00    -0.376 OA
BRANCH   5   6
ATOM      6  C   UNL A   1      33.111  28.497  27.393  1.00  0.00     0.202 C 
BRANCH   6   7
ATOM      7  C   UNL A   1      32.313  27.635  26.404  1.00  0.00     0.261 C 
BRANCH   7   8
ATOM      8  O   UNL A   1      33.081  26.663  25.675  1.00  0.00    -0.459 OA
BRANCH   8   9
ATOM      9  C   UNL A   1      32.476  25.519  25.273  1.00  0.00     0.344 C 
ATOM     10  O   UNL A   1      31.845  24.769  26.009  1.00  0.00    -0.246 OA
BRANCH   9  11
ATOM     11  C   UNL A   1      32.567  25.347  23.842  1.00  0.00     0.130 A 
ATOM     12  C   UNL A   1      34.802  24.009  23.464  1.00  0.00     0.071 C 
ATOM     13  C   UNL A   1      33.563  24.710  23.046  1.00  0.00     0.096 A 
ATOM     14  N   UNL A   1      33.286  24.823  21.739  1.00  0.00    -0.084 NA
ATOM     15  O   UNL A   1      32.165  25.624  21.658  1.00  0.00    -0.355 OA
ATOM     16  C   UNL A   1      31.755  25.960  22.909  1.00  0.00     0.181 A 
BRANCH  16  17
ATOM     17  C   UNL A   1      30.732  26.986  22.968  1.00  0.00     0.021 A 
ATOM     18  C   UNL A   1      30.932  28.252  22.415  1.00  0.00     0.012 A 
ATOM     19  C   UNL A   1      29.493  26.685  23.552  1.00  0.00     0.012 A 
ATOM     20  C   UNL A   1      29.898  29.195  22.426  1.00  0.00     0.006 A 
ATOM     21  C   UNL A   1      28.454  27.618  23.546  1.00  0.00     0.006 A 
ATOM     22  C   UNL A   1      28.643  28.879  22.969  1.00  0.00    -0.033 A 
BRANCH  22  23
ATOM     23  C   UNL A   1      27.520  29.879  22.945  1.00  0.00     0.145 C 
ATOM     24  Cl  UNL A   1      28.092  31.477  23.461  1.00  0.00    -0.122 Cl
ENDBRANCH  22  23
ENDBRANCH  16  17
ENDBRANCH   9  11
ENDBRANCH   8   9
ENDBRANCH   7   8
ENDBRANCH   6   7
ENDBRANCH   5   6
ENDBRANCH   4   5
ENDBRANCH   3   4
ENDBRANCH   2   3
ENDBRANCH   1   2
BRANCH   1  25
ATOM     25  C   UNL A   1      34.556  34.505  28.011  1.00  0.00     0.188 C 
BRANCH  25  26
ATOM     26  O   UNL A   1      34.223  35.787  28.556  1.00  0.00    -0.376 OA
BRANCH  26  27
ATOM     27  C   UNL A   1      32.984  35.864  29.260  1.00  0.00     0.202 C 
BRANCH  27  28
ATOM     28  C   UNL A   1      33.009  36.860  30.426  1.00  0.00     0.261 C 
BRANCH  28  29
ATOM     29  O   UNL A   1      33.780  36.432  31.558  1.00  0.00    -0.460 OA
BRANCH  29  30
ATOM     30  C   UNL A   1      33.418  35.262  32.130  1.00  0.00     0.338 C 
ATOM     31  O   UNL A   1      32.297  34.933  32.470  1.00  0.00    -0.246 OA
BRANCH  30  32
ATOM     32  C   UNL A   1      34.584  34.361  32.097  1.00  0.00     0.060 A 
ATOM     33  C   UNL A   1      34.427  33.046  32.554  1.00  0.00     0.016 A 
ATOM     34  C   UNL A   1      35.821  34.807  31.623  1.00  0.00     0.016 A 
ATOM     35  C   UNL A   1      35.523  32.186  32.582  1.00  0.00     0.010 A 
ATOM     36  C   UNL A   1      36.922  33.952  31.668  1.00  0.00     0.010 A 
ATOM     37  C   UNL A   1      36.785  32.651  32.181  1.00  0.00    -0.014 A 
BRANCH  37  38
ATOM     38  C   UNL A   1      37.996  31.865  32.509  1.00  0.00     0.031 A 
ATOM     39  C   UNL A   1      38.732  32.203  33.777  1.00  0.00     0.074 A 
ATOM     40  C   UNL A   1      38.438  30.888  31.698  1.00  0.00     0.049 A 
ATOM     41  N   UNL A   1      39.832  31.691  34.263  1.00  0.00    -0.248 NA
ATOM     42  C   UNL A   1      38.144  33.269  34.603  1.00  0.00     0.031 C 
ATOM     43  C   UNL A   1      37.795  30.461  30.458  1.00  0.00     0.029 A 
ATOM     44  N   UNL A   1      39.548  30.087  31.798  1.00  0.00    -0.354 N 
ATOM     45  C   UNL A   1      40.064  32.365  35.458  1.00  0.00     0.074 A 
ATOM     46  C   UNL A   1      39.011  33.348  35.599  1.00  0.00     0.031 C 
ATOM     47  C   UNL A   1      38.533  29.485  29.899  1.00  0.00     0.029 A 
ATOM     48  C   UNL A   1      39.712  29.239  30.730  1.00  0.00     0.049 A 
ATOM     49  H   UNL A   1      40.168  30.118  32.561  1.00  0.00     0.167 HD
ATOM     50  C   UNL A   1      41.059  32.177  36.357  1.00  0.00     0.034 A 
ATOM     51  C   UNL A   1      40.714  28.380  30.449  1.00  0.00     0.034 A 
ATOM     52  C   UNL A   1      42.123  31.224  36.184  1.00  0.00     0.049 A 
ATOM     53  C   UNL A   1      41.862  28.251  31.422  1.00  0.00     0.074 A 
ATOM     54  C   UNL A   1      43.182  30.945  37.031  1.00  0.00     0.029 A 
ATOM     55  N   UNL A   1      42.276  30.403  35.073  1.00  0.00    -0.354 N 
ATOM     56  N   UNL A   1      42.057  28.874  32.561  1.00  0.00    -0.248 NA
ATOM     57  C   UNL A   1      42.922  27.296  31.070  1.00  0.00     0.031 C 
ATOM     58  C   UNL A   1      44.005  30.002  36.405  1.00  0.00     0.029 A 
ATOM     59  C   UNL A   1      43.427  29.643  35.198  1.00  0.00     0.049 A 
ATOM     60  H   UNL A   1      41.656  30.368  34.310  1.00  0.00     0.167 HD
ATOM     61  C   UNL A   1      43.247  28.365  33.074  1.00  0.00     0.074 A 
ATOM     62  C   UNL A   1      43.721  27.380  32.124  1.00  0.00     0.031 C 
ATOM     63  C   UNL A   1      43.887  28.675  34.230  1.00  0.00     0.034 A 
BRANCH  50  64
ATOM     64  C   UNL A   1      41.054  33.069  37.572  1.00  0.00     0.023 A 
ATOM     65  C   UNL A   1      40.340  32.723  38.734  1.00  0.00     0.031 A 
ATOM     66  C   UNL A   1      41.716  34.308  37.547  1.00  0.00     0.131 A 
ATOM     67  C   UNL A   1      40.245  33.637  39.794  1.00  0.00     0.055 A 
ATOM     68  C   UNL A   1      41.678  35.183  38.635  1.00  0.00     0.041 A 
ATOM     69  F   UNL A   1      42.389  34.701  36.454  1.00  0.00    -0.206 F 
ATOM     70  C   UNL A   1      40.928  34.856  39.761  1.00  0.00     0.022 A 
BRANCH  67  71
ATOM     71  S   UNL A   1      39.104  33.271  41.155  1.00  0.00     0.124 S 
ATOM     72  O   UNL A   1      39.677  34.061  42.242  1.00  0.00    -0.237 OA
ATOM     73  O   UNL A   1      37.826  33.739  40.629  1.00  0.00    -0.237 OA
ATOM     74  O   UNL A   1      39.219  31.824  41.319  1.00  0.00    -0.744 OA
ENDBRANCH  67  71
ENDBRANCH  50  64
BRANCH  51  75
ATOM     75  C   UNL A   1      40.709  27.602  29.179  1.00  0.00     0.023 A 
ATOM     76  C   UNL A   1      41.598  27.907  28.137  1.00  0.00     0.031 A 
ATOM     77  C   UNL A   1      39.770  26.576  28.970  1.00  0.00     0.131 A 
ATOM     78  C   UNL A   1      41.502  27.222  26.915  1.00  0.00     0.055 A 
ATOM     79  C   UNL A   1      39.706  25.869  27.768  1.00  0.00     0.041 A 
ATOM     80  F   UNL A   1      38.899  26.246  29.937  1.00  0.00    -0.206 F 
ATOM     81  C   UNL A   1      40.568  26.200  26.727  1.00  0.00     0.022 A 
BRANCH  78  82
ATOM     82  S   UNL A   1      42.573  27.735  25.544  1.00  0.00     0.124 S 
ATOM     83  O   UNL A   1      41.850  28.887  25.016  1.00  0.00    -0.237 OA
ATOM     84  O   UNL A   1      43.827  28.025  26.232  1.00  0.00    -0.237 OA
ATOM     85  O   UNL A   1      42.599  26.562  24.674  1.00  0.00    -0.744 OA
ENDBRANCH  78  82
ENDBRANCH  51  75
BRANCH  63  86
ATOM     86  C   UNL A   1      45.145  27.904  34.544  1.00  0.00     0.023 A 
ATOM     87  C   UNL A   1      46.412  28.367  34.155  1.00  0.00     0.031 A 
ATOM     88  C   UNL A   1      45.066  26.685  35.241  1.00  0.00     0.131 A 
ATOM     89  C   UNL A   1      47.551  27.593  34.425  1.00  0.00     0.055 A 
ATOM     90  C   UNL A   1      46.206  25.943  35.551  1.00  0.00     0.041 A 
ATOM     91  F   UNL A   1      43.879  26.198  35.635  1.00  0.00    -0.206 F 
ATOM     92  C   UNL A   1      47.457  26.391  35.134  1.00  0.00     0.022 A 
BRANCH  89  93
ATOM     93  S   UNL A   1      49.154  28.142  33.778  1.00  0.00     0.124 S 
ATOM     94  O   UNL A   1      50.079  27.630  34.784  1.00  0.00    -0.237 OA
ATOM     95  O   UNL A   1      49.205  27.488  32.474  1.00  0.00    -0.237 OA
ATOM     96  O   UNL A   1      49.027  29.598  33.736  1.00  0.00    -0.744 OA
ENDBRANCH  89  93
ENDBRANCH  63  86
ENDBRANCH  37  38
ENDBRANCH  30  32
ENDBRANCH  29  30
ENDBRANCH  28  29
ENDBRANCH  27  28
ENDBRANCH  26  27
ENDBRANCH  25  26
ENDBRANCH   1  25
TORSDOF 25
ENDMDL
MODEL 2
REMARK VINA RESULT:      -8.7      1.760      2.098
REMARK SMILES Cc1noc(-c2ccc(CCl)cc2)c1C(=O)OCCOCCOCCOCCOC(=O)c1ccc(-c2c3nc(c(-c4cc(S(=O)(=O)[O-])ccc4F)c4ccc([nH]4)c(-c4cc(S(=O)(=O)[O-])ccc4F)c4nc(c(-c5cc(S(=O)(=O)[O-])ccc5F)c5ccc2[nH]5)C=C4)C=C3)cc1
REMARK SMILES IDX 24 1 23 2 22 3 21 4 20 5 19 6 18 7 17 8 15 9 16 10 14 11
REMARK SMILES IDX 1 12 2 13 3 14 4 15 5 16 6 17 7 18 13 19 8 20 12 21 9 22
REMARK SMILES IDX 10 23 11 24 25 25 26 26 27 27 28 28 29 29 30 30 31 31 32 32
REMARK SMILES IDX 33 33 94 34 34 35 93 36 35 37 36 38 37 39 87 40 38 41 92 42
REMARK SMILES IDX 86 43 88 44 39 45 91 46 85 47 84 48 40 50 72 51 52 52 71 53
REMARK SMILES IDX 53 54 56 55 70 56 89 57 54 58 55 59 69 61 90 62 57 63 41 64
REMARK SMILES IDX 42 65 50 66 43 67 49 68 51 69 48 70 44 71 45 72 46 73 47 74
REMARK SMILES IDX 73 75 74 76 82 77 75 78 81 79 83 80 80 81 76 82 77 83 78 84
REMARK SMILES IDX 79 85 58 86 59 87 67 88 60 89 66 90 68 91 65 92 61 93 62 94
REMARK SMILES IDX 63 95 64 96
REMARK H PARENT 88 49 56 60
REMARK Flexibility Score: inf
ROOT
ATOM      1  C   UNL A   1      33.357  33.443  27.980  1.00  0.00     0.188 C 
ENDROOT
BRANCH   1   2
ATOM      2  O   UNL A   1      33.589  32.036  27.977  1.00  0.00    -0.377 OA
BRANCH   2   3
ATOM      3  C   UNL A   1      34.891  31.592  27.647  1.00  0.00     0.188 C 
BRANCH   3   4
ATOM      4  C   UNL A   1      35.016  30.061  27.669  1.00  0.00     0.188 C 
BRANCH   4   5
ATOM      5  O   UNL A   1      34.164  29.415  26.720  1.00  0.00    -0.376 OA
BRANCH   5   6
ATOM      6  C   UNL A   1      33.001  28.794  27.258  1.00  0.00     0.202 C 
BRANCH   6   7
ATOM      7  C   UNL A   1      32.362  27.724  26.362  1.00  0.00     0.261 C 
BRANCH   7   8
ATOM      8  O   UNL A   1      33.255  26.702  25.890  1.00  0.00    -0.459 OA
BRANCH   8   9
ATOM      9  C   UNL A   1      32.755  25.475  25.609  1.00  0.00     0.344 C 
ATOM     10  O   UNL A   1      32.227  24.734  26.430  1.00  0.00    -0.246 OA
BRANCH   9  11
ATOM     11  C   UNL A   1      32.818  25.188  24.195  1.00  0.00     0.130 A 
ATOM     12  C   UNL A   1      35.171  24.065  23.837  1.00  0.00     0.071 C 
ATOM     13  C   UNL A   1      33.850  24.592  23.414  1.00  0.00     0.096 A 
ATOM     14  N   UNL A   1      33.520  24.560  22.115  1.00  0.00    -0.084 NA
ATOM     15  O   UNL A   1      32.316  25.229  22.015  1.00  0.00    -0.355 OA
ATOM     16  C   UNL A   1      31.914  25.628  23.249  1.00  0.00     0.181 A 
BRANCH  16  17
ATOM     17  C   UNL A   1      30.788  26.542  23.264  1.00  0.00     0.021 A 
ATOM     18  C   UNL A   1      30.848  27.787  22.637  1.00  0.00     0.012 A 
ATOM     19  C   UNL A   1      29.594  26.146  23.884  1.00  0.00     0.012 A 
ATOM     20  C   UNL A   1      29.719  28.615  22.610  1.00  0.00     0.006 A 
ATOM     21  C   UNL A   1      28.462  26.963  23.840  1.00  0.00     0.006 A 
ATOM     22  C   UNL A   1      28.510  28.200  23.189  1.00  0.00    -0.033 A 
BRANCH  22  23
ATOM     23  C   UNL A   1      27.287  29.073  23.125  1.00  0.00     0.145 C 
ATOM     24  Cl  UNL A   1      27.702  30.762  23.477  1.00  0.00    -0.122 Cl
ENDBRANCH  22  23
ENDBRANCH  16  17
ENDBRANCH   9  11
ENDBRANCH   8   9
ENDBRANCH   7   8
ENDBRANCH   6   7
ENDBRANCH   5   6
ENDBRANCH   4   5
ENDBRANCH   3   4
ENDBRANCH   2   3
ENDBRANCH   1   2
BRANCH   1  25
ATOM     25  C   UNL A   1      34.543  34.425  28.012  1.00  0.00     0.188 C 
BRANCH  25  26
ATOM     26  O   UNL A   1      34.192  35.732  28.481  1.00  0.00    -0.376 OA
BRANCH  26  27
ATOM     27  C   UNL A   1      32.904  35.854  29.084  1.00  0.00     0.202 C 
BRANCH  27  28
ATOM     28  C   UNL A   1      32.796  37.039  30.051  1.00  0.00     0.261 C 
BRANCH  28  29
ATOM     29  O   UNL A   1      33.362  36.802  31.348  1.00  0.00    -0.460 OA
BRANCH  29  30
ATOM     30  C   UNL A   1      32.988  35.664  31.974  1.00  0.00     0.338 C 
ATOM     31  O   UNL A   1      31.859  35.346  32.296  1.00  0.00    -0.246 OA
BRANCH  30  32
ATOM     32  C   UNL A   1      34.160  34.770  32.027  1.00  0.00     0.060 A 
ATOM     33  C   UNL A   1      34.033  33.539  32.683  1.00  0.00     0.016 A 
ATOM     34  C   UNL A   1      35.373  35.144  31.440  1.00  0.00     0.016 A 
ATOM     35  C   UNL A   1      35.137  32.696  32.794  1.00  0.00     0.010 A 
ATOM     36  C   UNL A   1      36.482  34.308  31.567  1.00  0.00     0.010 A 
ATOM     37  C   UNL A   1      36.377  33.098  32.276  1.00  0.00    -0.014 A 
BRANCH  37  38
ATOM     38  C   UNL A   1      37.608  32.374  32.667  1.00  0.00     0.031 A 
ATOM     39  C   UNL A   1      38.207  32.680  34.013  1.00  0.00     0.074 A 
ATOM     40  C   UNL A   1      38.185  31.479  31.847  1.00  0.00     0.049 A 
ATOM     41  N   UNL A   1      39.294  32.212  34.566  1.00  0.00    -0.248 NA
ATOM     42  C   UNL A   1      37.477  33.655  34.840  1.00  0.00     0.031 C 
ATOM     43  C   UNL A   1      37.681  31.087  30.533  1.00  0.00     0.029 A 
ATOM     44  N   UNL A   1      39.335  30.747  32.001  1.00  0.00    -0.354 N 
ATOM     45  C   UNL A   1      39.375  32.826  35.812  1.00  0.00     0.074 A 
ATOM     46  C   UNL A   1      38.249  33.728  35.912  1.00  0.00     0.031 C 
ATOM     47  C   UNL A   1      38.531  30.196  29.989  1.00  0.00     0.029 A 
ATOM     48  C   UNL A   1      39.649  29.977  30.907  1.00  0.00     0.049 A 
ATOM     49  H   UNL A   1      39.883  30.771  32.818  1.00  0.00     0.167 HD
ATOM     50  C   UNL A   1      40.300  32.648  36.785  1.00  0.00     0.034 A 
ATOM     51  C   UNL A   1      40.728  29.203  30.670  1.00  0.00     0.034 A 
ATOM     52  C   UNL A   1      41.440  31.777  36.656  1.00  0.00     0.049 A 
ATOM     53  C   UNL A   1      41.794  29.089  31.733  1.00  0.00     0.074 A 
ATOM     54  C   UNL A   1      42.439  31.516  37.577  1.00  0.00     0.029 A 
ATOM     55  N   UNL A   1      41.744  31.038  35.520  1.00  0.00    -0.354 N 
ATOM     56  N   UNL A   1      41.847  29.653  32.918  1.00  0.00    -0.248 NA
ATOM     57  C   UNL A   1      42.944  28.228  31.426  1.00  0.00     0.031 C 
ATOM     58  C   UNL A   1      43.376  30.669  36.977  1.00  0.00     0.029 A 
ATOM     59  C   UNL A   1      42.930  30.347  35.705  1.00  0.00     0.049 A 
ATOM     60  H   UNL A   1      41.195  31.009  34.703  1.00  0.00     0.167 HD
ATOM     61  C   UNL A   1      43.021  29.192  33.507  1.00  0.00     0.074 A 
ATOM     62  C   UNL A   1      43.643  28.299  32.551  1.00  0.00     0.031 C 
ATOM     63  C   UNL A   1      43.537  29.472  34.731  1.00  0.00     0.034 A 
BRANCH  50  64
ATOM     64  C   UNL A   1      40.129  33.462  38.042  1.00  0.00     0.023 A 
ATOM     65  C   UNL A   1      40.930  34.590  38.300  1.00  0.00     0.031 A 
ATOM     66  C   UNL A   1      39.200  33.073  39.021  1.00  0.00     0.131 A 
ATOM     67  C   UNL A   1      40.838  35.244  39.538  1.00  0.00     0.055 A 
ATOM     68  C   UNL A   1      39.062  33.772  40.222  1.00  0.00     0.041 A 
ATOM     69  F   UNL A   1      38.430  31.989  38.838  1.00  0.00    -0.206 F 
ATOM     70  C   UNL A   1      39.894  34.855  40.492  1.00  0.00     0.022 A 
BRANCH  67  71
ATOM     71  S   UNL A   1      42.065  36.518  39.939  1.00  0.00     0.124 S 
ATOM     72  O   UNL A   1      41.404  37.232  41.029  1.00  0.00    -0.237 OA
ATOM     73  O   UNL A   1      43.233  35.727  40.308  1.00  0.00    -0.237 OA
ATOM     74  O   UNL A   1      42.191  37.275  38.695  1.00  0.00    -0.744 OA
ENDBRANCH  67  71
ENDBRANCH  50  64
BRANCH  51  75
ATOM     75  C   UNL A   1      40.886  28.505  29.364  1.00  0.00     0.023 A 
ATOM     76  C   UNL A   1      40.305  27.249  29.137  1.00  0.00     0.031 A 
ATOM     77  C   UNL A   1      41.677  29.064  28.344  1.00  0.00     0.131 A 
ATOM     78  C   UNL A   1      40.556  26.571  27.932  1.00  0.00     0.055 A 
ATOM     79  C   UNL A   1      41.889  28.404  27.132  1.00  0.00     0.041 A 
ATOM     80  F   UNL A   1      42.254  30.264  28.512  1.00  0.00    -0.206 F 
ATOM     81  C   UNL A   1      41.336  27.144  26.926  1.00  0.00     0.022 A 
BRANCH  78  82
ATOM     82  S   UNL A   1      39.902  24.892  27.728  1.00  0.00     0.124 S 
ATOM     83  O   UNL A   1      41.093  24.079  27.951  1.00  0.00    -0.237 OA
ATOM     84  O   UNL A   1      38.882  24.834  28.770  1.00  0.00    -0.237 OA
ATOM     85  O   UNL A   1      39.390  24.889  26.359  1.00  0.00    -0.744 OA
ENDBRANCH  78  82
ENDBRANCH  51  75
BRANCH  63  86
ATOM     86  C   UNL A   1      44.814  28.765  35.113  1.00  0.00     0.023 A 
ATOM     87  C   UNL A   1      46.075  29.328  34.857  1.00  0.00     0.031 A 
ATOM     88  C   UNL A   1      44.761  27.508  35.740  1.00  0.00     0.131 A 
ATOM     89  C   UNL A   1      47.237  28.614  35.186  1.00  0.00     0.055 A 
ATOM     90  C   UNL A   1      45.919  26.824  36.110  1.00  0.00     0.041 A 
ATOM     91  F   UNL A   1      43.580  26.927  36.007  1.00  0.00    -0.206 F 
ATOM     92  C   UNL A   1      47.167  27.372  35.824  1.00  0.00     0.022 A 
BRANCH  89  93
ATOM     93  S   UNL A   1      48.847  29.297  34.706  1.00  0.00     0.124 S 
ATOM     94  O   UNL A   1      48.541  29.924  33.423  1.00  0.00    -0.237 OA
ATOM     95  O   UNL A   1      49.142  30.208  35.806  1.00  0.00    -0.237 OA
ATOM     96  O   UNL A   1      49.711  28.120  34.629  1.00  0.00    -0.744 OA
ENDBRANCH  89  93
ENDBRANCH  63  86
ENDBRANCH  37  38
ENDBRANCH  30  32
ENDBRANCH  29  30
ENDBRANCH  28  29
ENDBRANCH  27  28
ENDBRANCH  26  27
ENDBRANCH  25  26
ENDBRANCH   1  25
TORSDOF 25
ENDMDL
MODEL 3
REMARK VINA RESULT:      -8.6      1.993      2.507
REMARK SMILES Cc1noc(-c2ccc(CCl)cc2)c1C(=O)OCCOCCOCCOCCOC(=O)c1ccc(-c2c3nc(c(-c4cc(S(=O)(=O)[O-])ccc4F)c4ccc([nH]4)c(-c4cc(S(=O)(=O)[O-])ccc4F)c4nc(c(-c5cc(S(=O)(=O)[O-])ccc5F)c5ccc2[nH]5)C=C4)C=C3)cc1
REMARK SMILES IDX 24 1 23 2 22 3 21 4 20 5 19 6 18 7 17 8 15 9 16 10 14 11
REMARK SMILES IDX 1 12 2 13 3 14 4 15 5 16 6 17 7 18 13 19 8 20 12 21 9 22
REMARK SMILES IDX 10 23 11 24 25 25 26 26 27 27 28 28 29 29 30 30 31 31 32 32
REMARK SMILES IDX 33 33 94 34 34 35 93 36 35 37 36 38 37 39 87 40 38 41 92 42
REMARK SMILES IDX 86 43 88 44 39 45 91 46 85 47 84 48 40 50 72 51 52 52 71 53
REMARK SMILES IDX 53 54 56 55 70 56 89 57 54 58 55 59 69 61 90 62 57 63 41 64
REMARK SMILES IDX 42 65 50 66 43 67 49 68 51 69 48 70 44 71 45 72 46 73 47 74
REMARK SMILES IDX 73 75 74 76 82 77 75 78 81 79 83 80 80 81 76 82 77 83 78 84
REMARK SMILES IDX 79 85 58 86 59 87 67 88 60 89 66 90 68 91 65 92 61 93 62 94
REMARK SMILES IDX 63 95 64 96
REMARK H PARENT 88 49 56 60
REMARK Flexibility Score: inf
ROOT
ATOM      1  C   UNL A   1      34.103  32.590  28.497  1.00  0.00     0.188 C 
ENDROOT
BRANCH   1   2
ATOM      2  O   UNL A   1      34.495  31.222  28.417  1.00  0.00    -0.377 OA
BRANCH   2   3
ATOM      3  C   UNL A   1      33.937  30.445  27.374  1.00  0.00     0.188 C 
BRANCH   3   4
ATOM      4  C   UNL A   1      34.734  29.160  27.103  1.00  0.00     0.188 C 
BRANCH   4   5
ATOM      5  O   UNL A   1      34.177  28.367  26.051  1.00  0.00    -0.376 OA
BRANCH   5   6
ATOM      6  C   UNL A   1      33.999  29.034  24.806  1.00  0.00     0.202 C 
BRANCH   6   7
ATOM      7  C   UNL A   1      33.977  28.117  23.575  1.00  0.00     0.261 C 
BRANCH   7   8
ATOM      8  O   UNL A   1      33.526  26.774  23.816  1.00  0.00    -0.459 OA
BRANCH   8   9
ATOM      9  C   UNL A   1      33.279  25.966  22.756  1.00  0.00     0.344 C 
ATOM     10  O   UNL A   1      33.919  25.974  21.712  1.00  0.00    -0.246 OA
BRANCH   9  11
ATOM     11  C   UNL A   1      32.238  25.009  23.051  1.00  0.00     0.130 A 
ATOM     12  C   UNL A   1      33.336  22.658  22.609  1.00  0.00     0.071 C 
ATOM     13  C   UNL A   1      32.241  23.586  22.985  1.00  0.00     0.096 A 
ATOM     14  N   UNL A   1      31.038  23.083  23.297  1.00  0.00    -0.084 NA
ATOM     15  O   UNL A   1      30.206  24.171  23.467  1.00  0.00    -0.355 OA
ATOM     16  C   UNL A   1      30.914  25.316  23.291  1.00  0.00     0.181 A 
BRANCH  16  17
ATOM     17  C   UNL A   1      30.119  26.527  23.210  1.00  0.00     0.021 A 
ATOM     18  C   UNL A   1      30.570  27.654  22.523  1.00  0.00     0.012 A 
ATOM     19  C   UNL A   1      28.845  26.548  23.797  1.00  0.00     0.012 A 
ATOM     20  C   UNL A   1      29.747  28.779  22.403  1.00  0.00     0.006 A 
ATOM     21  C   UNL A   1      28.015  27.664  23.661  1.00  0.00     0.006 A 
ATOM     22  C   UNL A   1      28.454  28.786  22.949  1.00  0.00    -0.033 A 
BRANCH  22  23
ATOM     23  C   UNL A   1      27.556  29.981  22.787  1.00  0.00     0.145 C 
ATOM     24  Cl  UNL A   1      28.502  31.482  22.777  1.00  0.00    -0.122 Cl
ENDBRANCH  22  23
ENDBRANCH  16  17
ENDBRANCH   9  11
ENDBRANCH   8   9
ENDBRANCH   7   8
ENDBRANCH   6   7
ENDBRANCH   5   6
ENDBRANCH   4   5
ENDBRANCH   3   4
ENDBRANCH   2   3
ENDBRANCH   1   2
BRANCH   1  25
ATOM     25  C   UNL A   1      32.732  33.038  27.954  1.00  0.00     0.188 C 
BRANCH  25  26
ATOM     26  O   UNL A   1      32.635  34.451  27.741  1.00  0.00    -0.376 OA
BRANCH  26  27
ATOM     27  C   UNL A   1      33.583  35.256  28.442  1.00  0.00     0.202 C 
BRANCH  27  28
ATOM     28  C   UNL A   1      33.042  35.824  29.759  1.00  0.00     0.261 C 
BRANCH  28  29
ATOM     29  O   UNL A   1      33.072  34.904  30.861  1.00  0.00    -0.460 OA
BRANCH  29  30
ATOM     30  C   UNL A   1      33.223  35.439  32.092  1.00  0.00     0.338 C 
ATOM     31  O   UNL A   1      32.426  36.140  32.687  1.00  0.00    -0.246 OA
BRANCH  30  32
ATOM     32  C   UNL A   1      34.445  34.867  32.688  1.00  0.00     0.060 A 
ATOM     33  C   UNL A   1      35.682  35.189  32.116  1.00  0.00     0.016 A 
ATOM     34  C   UNL A   1      34.371  34.018  33.796  1.00  0.00     0.016 A 
ATOM     35  C   UNL A   1      36.850  34.624  32.626  1.00  0.00     0.010 A 
ATOM     36  C   UNL A   1      35.538  33.437  34.294  1.00  0.00     0.010 A 
ATOM     37  C   UNL A   1      36.777  33.710  33.687  1.00  0.00    -0.014 A 
BRANCH  37  38
ATOM     38  C   UNL A   1      37.950  32.868  34.016  1.00  0.00     0.031 A 
ATOM     39  C   UNL A   1      38.736  33.209  35.252  1.00  0.00     0.074 A 
ATOM     40  C   UNL A   1      38.314  31.838  33.232  1.00  0.00     0.049 A 
ATOM     41  N   UNL A   1      39.818  32.653  35.731  1.00  0.00    -0.248 NA
ATOM     42  C   UNL A   1      38.231  34.337  36.051  1.00  0.00     0.031 C 
ATOM     43  C   UNL A   1      37.615  31.404  32.025  1.00  0.00     0.029 A 
ATOM     44  N   UNL A   1      39.379  30.979  33.336  1.00  0.00    -0.354 N 
ATOM     45  C   UNL A   1      40.118  33.355  36.893  1.00  0.00     0.074 A 
ATOM     46  C   UNL A   1      39.127  34.402  37.022  1.00  0.00     0.031 C 
ATOM     47  C   UNL A   1      38.282  30.367  31.486  1.00  0.00     0.029 A 
ATOM     48  C   UNL A   1      39.466  30.083  32.297  1.00  0.00     0.049 A 
ATOM     49  H   UNL A   1      40.019  31.002  34.083  1.00  0.00     0.167 HD
ATOM     50  C   UNL A   1      41.124  33.143  37.775  1.00  0.00     0.034 A 
ATOM     51  C   UNL A   1      40.409  29.159  32.025  1.00  0.00     0.034 A 
ATOM     52  C   UNL A   1      42.128  32.124  37.613  1.00  0.00     0.049 A 
ATOM     53  C   UNL A   1      41.573  28.999  32.975  1.00  0.00     0.074 A 
ATOM     54  C   UNL A   1      43.190  31.815  38.444  1.00  0.00     0.029 A 
ATOM     55  N   UNL A   1      42.205  31.256  36.531  1.00  0.00    -0.354 N 
ATOM     56  N   UNL A   1      41.833  29.651  34.085  1.00  0.00    -0.248 NA
ATOM     57  C   UNL A   1      42.568  27.972  32.634  1.00  0.00     0.031 C 
ATOM     58  C   UNL A   1      43.942  30.804  37.835  1.00  0.00     0.029 A 
ATOM     59  C   UNL A   1      43.313  30.435  36.657  1.00  0.00     0.049 A 
ATOM     60  H   UNL A   1      41.563  31.229  35.784  1.00  0.00     0.167 HD
ATOM     61  C   UNL A   1      43.005  29.093  34.588  1.00  0.00     0.074 A 
ATOM     62  C   UNL A   1      43.398  28.048  33.665  1.00  0.00     0.031 C 
ATOM     63  C   UNL A   1      43.692  29.408  35.716  1.00  0.00     0.034 A 
BRANCH  50  64
ATOM     64  C   UNL A   1      41.201  34.078  38.954  1.00  0.00     0.023 A 
ATOM     65  C   UNL A   1      40.383  33.902  40.085  1.00  0.00     0.031 A 
ATOM     66  C   UNL A   1      42.056  35.193  38.924  1.00  0.00     0.131 A 
ATOM     67  C   UNL A   1      40.383  34.866  41.105  1.00  0.00     0.055 A 
ATOM     68  C   UNL A   1      42.105  36.110  39.975  1.00  0.00     0.041 A 
ATOM     69  F   UNL A   1      42.839  35.423  37.858  1.00  0.00    -0.206 F 
ATOM     70  C   UNL A   1      41.255  35.958  41.067  1.00  0.00     0.022 A 
BRANCH  67  71
ATOM     71  S   UNL A   1      39.129  34.748  42.410  1.00  0.00     0.124 S 
ATOM     72  O   UNL A   1      37.930  34.426  41.639  1.00  0.00    -0.237 OA
ATOM     73  O   UNL A   1      39.652  33.681  43.255  1.00  0.00    -0.237 OA
ATOM     74  O   UNL A   1      39.134  36.080  43.011  1.00  0.00    -0.744 OA
ENDBRANCH  67  71
ENDBRANCH  50  64
BRANCH  51  75
ATOM     75  C   UNL A   1      40.328  28.336  30.787  1.00  0.00     0.023 A 
ATOM     76  C   UNL A   1      41.198  28.557  29.709  1.00  0.00     0.031 A 
ATOM     77  C   UNL A   1      39.332  27.352  30.643  1.00  0.00     0.131 A 
ATOM     78  C   UNL A   1      41.031  27.834  28.516  1.00  0.00     0.055 A 
ATOM     79  C   UNL A   1      39.197  26.607  29.471  1.00  0.00     0.041 A 
ATOM     80  F   UNL A   1      38.476  27.102  31.646  1.00  0.00    -0.206 F 
ATOM     81  C   UNL A   1      40.043  26.855  28.394  1.00  0.00     0.022 A 
BRANCH  78  82
ATOM     82  S   UNL A   1      42.084  28.242  27.097  1.00  0.00     0.124 S 
ATOM     83  O   UNL A   1      43.172  27.283  27.247  1.00  0.00    -0.237 OA
ATOM     84  O   UNL A   1      41.180  28.015  25.974  1.00  0.00    -0.237 OA
ATOM     85  O   UNL A   1      42.444  29.639  27.330  1.00  0.00    -0.744 OA
ENDBRANCH  78  82
ENDBRANCH  51  75
BRANCH  63  86
ATOM     86  C   UNL A   1      44.911  28.577  36.029  1.00  0.00     0.023 A 
ATOM     87  C   UNL A   1      44.827  27.395  36.783  1.00  0.00     0.031 A 
ATOM     88  C   UNL A   1      46.176  28.983  35.566  1.00  0.00     0.131 A 
ATOM     89  C   UNL A   1      45.994  26.680  37.091  1.00  0.00     0.055 A 
ATOM     90  C   UNL A   1      47.327  28.242  35.834  1.00  0.00     0.041 A 
ATOM     91  F   UNL A   1      46.310  30.105  34.841  1.00  0.00    -0.206 F 
ATOM     92  C   UNL A   1      47.241  27.088  36.609  1.00  0.00     0.022 A 
BRANCH  89  93
ATOM     93  S   UNL A   1      45.873  25.244  38.192  1.00  0.00     0.124 S 
ATOM     94  O   UNL A   1      45.980  24.131  37.253  1.00  0.00    -0.237 OA
ATOM     95  O   UNL A   1      47.010  25.436  39.085  1.00  0.00    -0.237 OA
ATOM     96  O   UNL A   1      44.561  25.401  38.818  1.00  0.00    -0.744 OA
ENDBRANCH  89  93
ENDBRANCH  63  86
ENDBRANCH  37  38
ENDBRANCH  30  32
ENDBRANCH  29  30
ENDBRANCH  28  29
ENDBRANCH  27  28
ENDBRANCH  26  27
ENDBRANCH  25  26
ENDBRANCH   1  25
TORSDOF 25
ENDMDL
