MODEL 1
REMARK VINA RESULT:      -7.7      0.000      0.000
REMARK SMILES CCn1cc(/C=C/c2cc(C(=O)OCCOCCOCCOCCOC(=O)c3ccc(-c4c5nc(c(-c6cc(S(=O)(=O)[O-])ccc6F)c6ccc([nH]6)c(-c6cc(S(=O)(=O)[O-])ccc6F)c6nc(c(-c7cc(S(=O)(=O)[O-])ccc7F)c7ccc4[nH]7)C=C6)C=C5)cc3)ncn2)cn1
REMARK SMILES IDX 19 1 18 2 17 3 16 4 15 5 14 6 13 7 11 8 12 9 10 10 8 11 9 12
REMARK SMILES IDX 93 13 92 14 91 15 7 16 6 17 5 18 3 19 4 20 95 21 94 22 2 23
REMARK SMILES IDX 1 24 20 25 21 26 22 27 23 28 24 29 25 30 26 31 27 32 28 33
REMARK SMILES IDX 29 34 90 35 30 36 89 37 31 38 32 39 33 40 83 41 34 42 88 43
REMARK SMILES IDX 82 44 84 45 35 46 87 47 81 48 80 49 36 51 68 52 48 53 67 54
REMARK SMILES IDX 49 55 52 56 66 57 85 58 50 59 51 60 65 62 86 63 53 64 37 65
REMARK SMILES IDX 38 66 46 67 39 68 45 69 47 70 44 71 40 72 41 73 42 74 43 75
REMARK SMILES IDX 69 76 70 77 78 78 71 79 77 80 79 81 76 82 72 83 73 84 74 85
REMARK SMILES IDX 75 86 54 87 55 88 63 89 56 90 62 91 64 92 61 93 57 94 58 95
REMARK SMILES IDX 59 96 60 97
REMARK H PARENT 84 50 52 61
REMARK Flexibility Score: inf
ROOT
ATOM      1  O   UNL A   1      34.620  34.515  31.647  1.00  0.00    -0.377 OA
ENDROOT
BRANCH   1   2
ATOM      2  C   UNL A   1      34.185  33.487  32.521  1.00  0.00     0.188 C 
BRANCH   2   3
ATOM      3  C   UNL A   1      35.213  33.109  33.614  1.00  0.00     0.188 C 
BRANCH   3   4
ATOM      4  O   UNL A   1      36.110  32.020  33.456  1.00  0.00    -0.376 OA
BRANCH   4   5
ATOM      5  C   UNL A   1      37.419  32.007  33.998  1.00  0.00     0.202 C 
BRANCH   5   6
ATOM      6  C   UNL A   1      38.343  33.234  34.044  1.00  0.00     0.261 C 
BRANCH   6   7
ATOM      7  O   UNL A   1      39.592  33.124  33.366  1.00  0.00    -0.459 OA
BRANCH   7   8
ATOM      8  C   UNL A   1      39.624  33.593  32.095  1.00  0.00     0.357 C 
ATOM      9  O   UNL A   1      38.704  34.102  31.484  1.00  0.00    -0.244 OA
BRANCH   8  10
ATOM     10  C   UNL A   1      41.036  33.499  31.622  1.00  0.00     0.152 A 
ATOM     11  C   UNL A   1      43.193  32.622  31.717  1.00  0.00     0.067 A 
ATOM     12  C   UNL A   1      41.912  32.624  32.222  1.00  0.00     0.064 A 
ATOM     13  N   UNL A   1      43.604  33.493  30.776  1.00  0.00    -0.237 NA
ATOM     14  C   UNL A   1      42.677  34.328  30.289  1.00  0.00     0.223 A 
ATOM     15  N   UNL A   1      41.390  34.360  30.641  1.00  0.00    -0.229 NA
BRANCH  11  16
ATOM     16  C   UNL A   1      44.204  31.650  32.147  1.00  0.00     0.029 C 
ATOM     17  C   UNL A   1      45.202  31.979  32.982  1.00  0.00     0.013 C 
BRANCH  17  18
ATOM     18  C   UNL A   1      46.193  31.114  33.511  1.00  0.00     0.013 A 
ATOM     19  N   UNL A   1      48.011  29.898  33.635  1.00  0.00    -0.272 N 
ATOM     20  C   UNL A   1      47.309  30.726  32.809  1.00  0.00     0.116 A 
ATOM     21  N   UNL A   1      47.439  29.759  34.850  1.00  0.00    -0.181 NA
ATOM     22  C   UNL A   1      46.321  30.487  34.763  1.00  0.00     0.143 A 
BRANCH  19  23
ATOM     23  C   UNL A   1      49.235  29.171  33.353  1.00  0.00     0.141 C 
ATOM     24  C   UNL A   1      49.218  28.315  32.094  1.00  0.00     0.029 C 
ENDBRANCH  19  23
ENDBRANCH  17  18
ENDBRANCH  11  16
ENDBRANCH   8  10
ENDBRANCH   7   8
ENDBRANCH   6   7
ENDBRANCH   5   6
ENDBRANCH   4   5
ENDBRANCH   3   4
ENDBRANCH   2   3
ENDBRANCH   1   2
BRANCH   1  25
ATOM     25  C   UNL A   1      34.969  34.105  30.324  1.00  0.00     0.188 C 
BRANCH  25  26
ATOM     26  C   UNL A   1      33.929  34.288  29.188  1.00  0.00     0.188 C 
BRANCH  26  27
ATOM     27  O   UNL A   1      33.884  33.222  28.249  1.00  0.00    -0.376 OA
BRANCH  27  28
ATOM     28  C   UNL A   1      35.057  32.596  27.764  1.00  0.00     0.202 C 
BRANCH  28  29
ATOM     29  C   UNL A   1      35.214  31.099  28.000  1.00  0.00     0.261 C 
BRANCH  29  30
ATOM     30  O   UNL A   1      36.550  30.641  27.934  1.00  0.00    -0.460 OA
BRANCH  30  31
ATOM     31  C   UNL A   1      36.925  29.873  28.977  1.00  0.00     0.338 C 
ATOM     32  O   UNL A   1      36.592  29.990  30.139  1.00  0.00    -0.246 OA
BRANCH  31  33
ATOM     33  C   UNL A   1      37.960  28.959  28.501  1.00  0.00     0.060 A 
ATOM     34  C   UNL A   1      38.414  28.006  29.410  1.00  0.00     0.016 A 
ATOM     35  C   UNL A   1      38.681  29.321  27.353  1.00  0.00     0.016 A 
ATOM     36  C   UNL A   1      39.716  27.583  29.289  1.00  0.00     0.010 A 
ATOM     37  C   UNL A   1      39.989  28.932  27.261  1.00  0.00     0.010 A 
ATOM     38  C   UNL A   1      40.509  28.133  28.274  1.00  0.00    -0.014 A 
BRANCH  38  39
ATOM     39  C   UNL A   1      41.879  27.691  28.159  1.00  0.00     0.031 A 
ATOM     40  C   UNL A   1      41.947  26.374  27.494  1.00  0.00     0.074 A 
ATOM     41  C   UNL A   1      42.931  28.452  28.513  1.00  0.00     0.049 A 
ATOM     42  N   UNL A   1      42.204  25.243  28.057  1.00  0.00    -0.248 NA
ATOM     43  C   UNL A   1      41.404  26.251  26.128  1.00  0.00     0.031 C 
ATOM     44  C   UNL A   1      42.933  29.845  28.962  1.00  0.00     0.029 A 
ATOM     45  N   UNL A   1      44.256  28.156  28.452  1.00  0.00    -0.354 N 
ATOM     46  C   UNL A   1      42.148  24.312  27.031  1.00  0.00     0.074 A 
ATOM     47  C   UNL A   1      41.391  24.927  25.981  1.00  0.00     0.031 C 
ATOM     48  C   UNL A   1      44.196  30.329  28.902  1.00  0.00     0.029 A 
ATOM     49  C   UNL A   1      45.105  29.259  28.513  1.00  0.00     0.049 A 
ATOM     50  H   UNL A   1      44.590  27.233  28.371  1.00  0.00     0.167 HD
ATOM     51  C   UNL A   1      43.013  23.263  27.017  1.00  0.00     0.034 A 
ATOM     52  C   UNL A   1      46.431  29.286  28.195  1.00  0.00     0.034 A 
ATOM     53  C   UNL A   1      43.577  23.056  28.339  1.00  0.00     0.049 A 
ATOM     54  C   UNL A   1      46.913  27.880  28.281  1.00  0.00     0.074 A 
ATOM     55  C   UNL A   1      43.027  22.847  29.591  1.00  0.00     0.029 A 
ATOM     56  N   UNL A   1      44.873  23.473  28.567  1.00  0.00    -0.354 N 
ATOM     57  N   UNL A   1      46.984  27.222  29.406  1.00  0.00    -0.248 NA
ATOM     58  C   UNL A   1      46.808  27.050  27.088  1.00  0.00     0.031 C 
ATOM     59  C   UNL A   1      43.831  23.617  30.481  1.00  0.00     0.029 A 
ATOM     60  C   UNL A   1      44.894  24.161  29.757  1.00  0.00     0.049 A 
ATOM     61  H   UNL A   1      45.647  23.307  27.982  1.00  0.00     0.167 HD
ATOM     62  C   UNL A   1      46.484  25.961  29.116  1.00  0.00     0.074 A 
ATOM     63  C   UNL A   1      46.474  25.885  27.654  1.00  0.00     0.031 C 
ATOM     64  C   UNL A   1      45.839  25.219  30.066  1.00  0.00     0.034 A 
BRANCH  51  65
ATOM     65  C   UNL A   1      43.667  22.733  25.760  1.00  0.00     0.023 A 
ATOM     66  C   UNL A   1      43.747  21.334  25.647  1.00  0.00     0.031 A 
ATOM     67  C   UNL A   1      44.459  23.465  24.842  1.00  0.00     0.131 A 
ATOM     68  C   UNL A   1      44.676  20.731  24.786  1.00  0.00     0.055 A 
ATOM     69  C   UNL A   1      45.333  22.857  23.936  1.00  0.00     0.041 A 
ATOM     70  F   UNL A   1      44.507  24.799  24.808  1.00  0.00    -0.206 F 
ATOM     71  C   UNL A   1      45.476  21.483  23.931  1.00  0.00     0.022 A 
BRANCH  68  72
ATOM     72  S   UNL A   1      44.950  18.954  24.955  1.00  0.00     0.124 S 
ATOM     73  O   UNL A   1      46.200  18.931  25.707  1.00  0.00    -0.237 OA
ATOM     74  O   UNL A   1      43.753  18.538  25.679  1.00  0.00    -0.237 OA
ATOM     75  O   UNL A   1      45.036  18.494  23.573  1.00  0.00    -0.744 OA
ENDBRANCH  68  72
ENDBRANCH  51  65
BRANCH  52  76
ATOM     76  C   UNL A   1      47.216  30.378  27.534  1.00  0.00     0.023 A 
ATOM     77  C   UNL A   1      46.634  31.606  27.132  1.00  0.00     0.031 A 
ATOM     78  C   UNL A   1      48.628  30.324  27.513  1.00  0.00     0.131 A 
ATOM     79  C   UNL A   1      47.453  32.701  26.751  1.00  0.00     0.055 A 
ATOM     80  C   UNL A   1      49.429  31.406  27.136  1.00  0.00     0.041 A 
ATOM     81  F   UNL A   1      49.294  29.245  27.949  1.00  0.00    -0.206 F 
ATOM     82  C   UNL A   1      48.845  32.604  26.765  1.00  0.00     0.022 A 
BRANCH  79  83
ATOM     83  S   UNL A   1      46.726  34.323  26.324  1.00  0.00     0.124 S 
ATOM     84  O   UNL A   1      45.299  34.025  26.298  1.00  0.00    -0.237 OA
ATOM     85  O   UNL A   1      47.193  35.176  27.411  1.00  0.00    -0.237 OA
ATOM     86  O   UNL A   1      47.314  34.625  25.018  1.00  0.00    -0.744 OA
ENDBRANCH  79  83
ENDBRANCH  52  76
BRANCH  64  87
ATOM     87  C   UNL A   1      45.956  25.628  31.524  1.00  0.00     0.023 A 
ATOM     88  C   UNL A   1      46.967  25.207  32.420  1.00  0.00     0.031 A 
ATOM     89  C   UNL A   1      45.045  26.597  31.984  1.00  0.00     0.131 A 
ATOM     90  C   UNL A   1      47.026  25.750  33.721  1.00  0.00     0.055 A 
ATOM     91  C   UNL A   1      45.125  27.152  33.260  1.00  0.00     0.041 A 
ATOM     92  F   UNL A   1      44.072  27.055  31.178  1.00  0.00    -0.206 F 
ATOM     93  C   UNL A   1      46.112  26.724  34.136  1.00  0.00     0.022 A 
BRANCH  90  94
ATOM     94  S   UNL A   1      48.276  25.181  34.920  1.00  0.00     0.124 S 
ATOM     95  O   UNL A   1      49.518  25.759  34.423  1.00  0.00    -0.237 OA
ATOM     96  O   UNL A   1      47.775  25.728  36.178  1.00  0.00    -0.237 OA
ATOM     97  O   UNL A   1      48.202  23.722  34.821  1.00  0.00    -0.744 OA
ENDBRANCH  90  94
ENDBRANCH  64  87
ENDBRANCH  38  39
ENDBRANCH  31  33
ENDBRANCH  30  31
ENDBRANCH  29  30
ENDBRANCH  28  29
ENDBRANCH  27  28
ENDBRANCH  26  27
ENDBRANCH  25  26
ENDBRANCH   1  25
TORSDOF 26
ENDMDL
MODEL 2
REMARK VINA RESULT:      -7.6      5.991     12.542
REMARK SMILES CCn1cc(/C=C/c2cc(C(=O)OCCOCCOCCOCCOC(=O)c3ccc(-c4c5nc(c(-c6cc(S(=O)(=O)[O-])ccc6F)c6ccc([nH]6)c(-c6cc(S(=O)(=O)[O-])ccc6F)c6nc(c(-c7cc(S(=O)(=O)[O-])ccc7F)c7ccc4[nH]7)C=C6)C=C5)cc3)ncn2)cn1
REMARK SMILES IDX 19 1 18 2 17 3 16 4 15 5 14 6 13 7 11 8 12 9 10 10 8 11 9 12
REMARK SMILES IDX 93 13 92 14 91 15 7 16 6 17 5 18 3 19 4 20 95 21 94 22 2 23
REMARK SMILES IDX 1 24 20 25 21 26 22 27 23 28 24 29 25 30 26 31 27 32 28 33
REMARK SMILES IDX 29 34 90 35 30 36 89 37 31 38 32 39 33 40 83 41 34 42 88 43
REMARK SMILES IDX 82 44 84 45 35 46 87 47 81 48 80 49 36 51 68 52 48 53 67 54
REMARK SMILES IDX 49 55 52 56 66 57 85 58 50 59 51 60 65 62 86 63 53 64 37 65
REMARK SMILES IDX 38 66 46 67 39 68 45 69 47 70 44 71 40 72 41 73 42 74 43 75
REMARK SMILES IDX 69 76 70 77 78 78 71 79 77 80 79 81 76 82 72 83 73 84 74 85
REMARK SMILES IDX 75 86 54 87 55 88 63 89 56 90 62 91 64 92 61 93 57 94 58 95
REMARK SMILES IDX 59 96 60 97
REMARK H PARENT 84 50 52 61
REMARK Flexibility Score: inf
ROOT
ATOM      1  O   UNL A   1      51.467  25.871  35.633  1.00  0.00    -0.377 OA
ENDROOT
BRANCH   1   2
ATOM      2  C   UNL A   1      52.001  24.701  36.230  1.00  0.00     0.188 C 
BRANCH   2   3
ATOM      3  C   UNL A   1      52.001  24.724  37.776  1.00  0.00     0.188 C 
BRANCH   3   4
ATOM      4  O   UNL A   1      50.804  24.596  38.530  1.00  0.00    -0.376 OA
BRANCH   4   5
ATOM      5  C   UNL A   1      50.033  23.408  38.564  1.00  0.00     0.202 C 
BRANCH   5   6
ATOM      6  C   UNL A   1      48.558  23.351  38.991  1.00  0.00     0.261 C 
BRANCH   6   7
ATOM      7  O   UNL A   1      48.208  22.374  39.967  1.00  0.00    -0.459 OA
BRANCH   7   8
ATOM      8  C   UNL A   1      47.087  21.654  39.714  1.00  0.00     0.357 C 
ATOM      9  O   UNL A   1      46.045  22.071  39.247  1.00  0.00    -0.244 OA
BRANCH   8  10
ATOM     10  C   UNL A   1      47.408  20.222  39.984  1.00  0.00     0.152 A 
ATOM     11  C   UNL A   1      46.799  18.010  40.392  1.00  0.00     0.067 A 
ATOM     12  C   UNL A   1      46.396  19.302  40.138  1.00  0.00     0.064 A 
ATOM     13  N   UNL A   1      48.089  17.677  40.592  1.00  0.00    -0.237 NA
ATOM     14  C   UNL A   1      48.988  18.661  40.457  1.00  0.00     0.223 A 
ATOM     15  N   UNL A   1      48.719  19.926  40.128  1.00  0.00    -0.229 NA
BRANCH  11  16
ATOM     16  C   UNL A   1      45.855  16.888  40.437  1.00  0.00     0.029 C 
ATOM     17  C   UNL A   1      44.630  17.006  40.975  1.00  0.00     0.013 C 
BRANCH  17  18
ATOM     18  C   UNL A   1      43.617  16.015  41.017  1.00  0.00     0.013 A 
ATOM     19  N   UNL A   1      42.205  14.547  41.824  1.00  0.00    -0.272 N 
ATOM     20  C   UNL A   1      43.160  15.453  42.185  1.00  0.00     0.116 A 
ATOM     21  N   UNL A   1      41.984  14.519  40.493  1.00  0.00    -0.181 NA
ATOM     22  C   UNL A   1      42.861  15.402  40.003  1.00  0.00     0.143 A 
BRANCH  19  23
ATOM     23  C   UNL A   1      41.455  13.643  42.675  1.00  0.00     0.141 C 
ATOM     24  C   UNL A   1      42.280  12.607  43.425  1.00  0.00     0.029 C 
ENDBRANCH  19  23
ENDBRANCH  17  18
ENDBRANCH  11  16
ENDBRANCH   8  10
ENDBRANCH   7   8
ENDBRANCH   6   7
ENDBRANCH   5   6
ENDBRANCH   4   5
ENDBRANCH   3   4
ENDBRANCH   2   3
ENDBRANCH   1   2
BRANCH   1  25
ATOM     25  C   UNL A   1      51.350  25.849  34.209  1.00  0.00     0.188 C 
BRANCH  25  26
ATOM     26  C   UNL A   1      51.121  24.488  33.501  1.00  0.00     0.188 C 
BRANCH  26  27
ATOM     27  O   UNL A   1      49.766  24.062  33.461  1.00  0.00    -0.376 OA
BRANCH  27  28
ATOM     28  C   UNL A   1      49.298  22.968  34.228  1.00  0.00     0.202 C 
BRANCH  28  29
ATOM     29  C   UNL A   1      48.535  23.275  35.510  1.00  0.00     0.261 C 
BRANCH  29  30
ATOM     30  O   UNL A   1      47.957  24.565  35.544  1.00  0.00    -0.460 OA
BRANCH  30  31
ATOM     31  C   UNL A   1      46.671  24.587  35.951  1.00  0.00     0.338 C 
ATOM     32  O   UNL A   1      46.242  24.332  37.057  1.00  0.00    -0.246 OA
BRANCH  31  33
ATOM     33  C   UNL A   1      45.840  24.806  34.770  1.00  0.00     0.060 A 
ATOM     34  C   UNL A   1      45.544  23.683  34.000  1.00  0.00     0.016 A 
ATOM     35  C   UNL A   1      45.721  26.117  34.282  1.00  0.00     0.016 A 
ATOM     36  C   UNL A   1      45.353  23.870  32.652  1.00  0.00     0.010 A 
ATOM     37  C   UNL A   1      45.574  26.294  32.934  1.00  0.00     0.010 A 
ATOM     38  C   UNL A   1      45.473  25.163  32.130  1.00  0.00    -0.014 A 
BRANCH  38  39
ATOM     39  C   UNL A   1      45.281  25.350  30.712  1.00  0.00     0.031 A 
ATOM     40  C   UNL A   1      46.324  26.236  30.157  1.00  0.00     0.074 A 
ATOM     41  C   UNL A   1      44.340  24.699  30.002  1.00  0.00     0.049 A 
ATOM     42  N   UNL A   1      46.172  27.461  29.786  1.00  0.00    -0.248 NA
ATOM     43  C   UNL A   1      47.735  25.823  30.288  1.00  0.00     0.031 C 
ATOM     44  C   UNL A   1      43.433  23.643  30.453  1.00  0.00     0.029 A 
ATOM     45  N   UNL A   1      44.063  24.784  28.675  1.00  0.00    -0.354 N 
ATOM     46  C   UNL A   1      47.426  27.862  29.350  1.00  0.00     0.074 A 
ATOM     47  C   UNL A   1      48.359  26.948  29.940  1.00  0.00     0.031 C 
ATOM     48  C   UNL A   1      42.884  23.038  29.374  1.00  0.00     0.029 A 
ATOM     49  C   UNL A   1      43.317  23.724  28.164  1.00  0.00     0.049 A 
ATOM     50  H   UNL A   1      44.365  25.537  28.117  1.00  0.00     0.167 HD
ATOM     51  C   UNL A   1      47.540  28.695  28.282  1.00  0.00     0.034 A 
ATOM     52  C   UNL A   1      43.141  23.409  26.848  1.00  0.00     0.034 A 
ATOM     53  C   UNL A   1      46.285  29.382  28.040  1.00  0.00     0.049 A 
ATOM     54  C   UNL A   1      43.430  24.650  26.077  1.00  0.00     0.074 A 
ATOM     55  C   UNL A   1      45.461  30.170  28.823  1.00  0.00     0.029 A 
ATOM     56  N   UNL A   1      45.500  28.957  26.987  1.00  0.00    -0.354 N 
ATOM     57  N   UNL A   1      42.676  25.714  26.137  1.00  0.00    -0.248 NA
ATOM     58  C   UNL A   1      44.807  24.894  25.669  1.00  0.00     0.031 C 
ATOM     59  C   UNL A   1      44.135  29.770  28.485  1.00  0.00     0.029 A 
ATOM     60  C   UNL A   1      44.206  28.849  27.438  1.00  0.00     0.049 A 
ATOM     61  H   UNL A   1      45.812  28.764  26.073  1.00  0.00     0.167 HD
ATOM     62  C   UNL A   1      43.563  26.777  26.225  1.00  0.00     0.074 A 
ATOM     63  C   UNL A   1      44.861  26.219  25.843  1.00  0.00     0.031 C 
ATOM     64  C   UNL A   1      43.230  27.924  26.890  1.00  0.00     0.034 A 
BRANCH  51  65
ATOM     65  C   UNL A   1      48.610  28.555  27.220  1.00  0.00     0.023 A 
ATOM     66  C   UNL A   1      48.165  28.184  25.939  1.00  0.00     0.031 A 
ATOM     67  C   UNL A   1      50.007  28.462  27.431  1.00  0.00     0.131 A 
ATOM     68  C   UNL A   1      49.045  27.613  25.007  1.00  0.00     0.055 A 
ATOM     69  C   UNL A   1      50.890  27.958  26.472  1.00  0.00     0.041 A 
ATOM     70  F   UNL A   1      50.602  28.772  28.586  1.00  0.00    -0.206 F 
ATOM     71  C   UNL A   1      50.406  27.492  25.265  1.00  0.00     0.022 A 
BRANCH  68  72
ATOM     72  S   UNL A   1      48.330  26.856  23.531  1.00  0.00     0.124 S 
ATOM     73  O   UNL A   1      47.762  25.633  24.088  1.00  0.00    -0.237 OA
ATOM     74  O   UNL A   1      47.377  27.877  23.106  1.00  0.00    -0.237 OA
ATOM     75  O   UNL A   1      49.483  26.674  22.655  1.00  0.00    -0.744 OA
ENDBRANCH  68  72
ENDBRANCH  51  65
BRANCH  52  76
ATOM     76  C   UNL A   1      43.046  22.057  26.211  1.00  0.00     0.023 A 
ATOM     77  C   UNL A   1      44.171  21.378  25.679  1.00  0.00     0.031 A 
ATOM     78  C   UNL A   1      41.865  21.292  26.342  1.00  0.00     0.131 A 
ATOM     79  C   UNL A   1      44.083  20.007  25.323  1.00  0.00     0.055 A 
ATOM     80  C   UNL A   1      41.785  19.942  25.988  1.00  0.00     0.041 A 
ATOM     81  F   UNL A   1      40.761  21.801  26.908  1.00  0.00    -0.206 F 
ATOM     82  C   UNL A   1      42.898  19.289  25.489  1.00  0.00     0.022 A 
BRANCH  79  83
ATOM     83  S   UNL A   1      45.547  19.088  24.728  1.00  0.00     0.124 S 
ATOM     84  O   UNL A   1      45.506  17.880  25.544  1.00  0.00    -0.237 OA
ATOM     85  O   UNL A   1      45.263  18.923  23.307  1.00  0.00    -0.237 OA
ATOM     86  O   UNL A   1      46.659  19.992  25.025  1.00  0.00    -0.744 OA
ENDBRANCH  79  83
ENDBRANCH  52  76
BRANCH  64  87
ATOM     87  C   UNL A   1      41.776  28.170  27.252  1.00  0.00     0.023 A 
ATOM     88  C   UNL A   1      41.176  27.875  28.498  1.00  0.00     0.031 A 
ATOM     89  C   UNL A   1      40.995  28.855  26.302  1.00  0.00     0.131 A 
ATOM     90  C   UNL A   1      39.840  28.258  28.745  1.00  0.00     0.055 A 
ATOM     91  C   UNL A   1      39.686  29.256  26.560  1.00  0.00     0.041 A 
ATOM     92  F   UNL A   1      41.510  29.183  25.105  1.00  0.00    -0.206 F 
ATOM     93  C   UNL A   1      39.100  28.952  27.782  1.00  0.00     0.022 A 
BRANCH  90  94
ATOM     94  S   UNL A   1      39.017  27.835  30.316  1.00  0.00     0.124 S 
ATOM     95  O   UNL A   1      39.926  28.353  31.331  1.00  0.00    -0.237 OA
ATOM     96  O   UNL A   1      37.735  28.525  30.194  1.00  0.00    -0.237 OA
ATOM     97  O   UNL A   1      38.926  26.374  30.268  1.00  0.00    -0.744 OA
ENDBRANCH  90  94
ENDBRANCH  64  87
ENDBRANCH  38  39
ENDBRANCH  31  33
ENDBRANCH  30  31
ENDBRANCH  29  30
ENDBRANCH  28  29
ENDBRANCH  27  28
ENDBRANCH  26  27
ENDBRANCH  25  26
ENDBRANCH   1  25
TORSDOF 26
ENDMDL
MODEL 3
REMARK VINA RESULT:      -7.5      3.778      5.209
REMARK SMILES CCn1cc(/C=C/c2cc(C(=O)OCCOCCOCCOCCOC(=O)c3ccc(-c4c5nc(c(-c6cc(S(=O)(=O)[O-])ccc6F)c6ccc([nH]6)c(-c6cc(S(=O)(=O)[O-])ccc6F)c6nc(c(-c7cc(S(=O)(=O)[O-])ccc7F)c7ccc4[nH]7)C=C6)C=C5)cc3)ncn2)cn1
REMARK SMILES IDX 19 1 18 2 17 3 16 4 15 5 14 6 13 7 11 8 12 9 10 10 8 11 9 12
REMARK SMILES IDX 93 13 92 14 91 15 7 16 6 17 5 18 3 19 4 20 95 21 94 22 2 23
REMARK SMILES IDX 1 24 20 25 21 26 22 27 23 28 24 29 25 30 26 31 27 32 28 33
REMARK SMILES IDX 29 34 90 35 30 36 89 37 31 38 32 39 33 40 83 41 34 42 88 43
REMARK SMILES IDX 82 44 84 45 35 46 87 47 81 48 80 49 36 51 68 52 48 53 67 54
REMARK SMILES IDX 49 55 52 56 66 57 85 58 50 59 51 60 65 62 86 63 53 64 37 65
REMARK SMILES IDX 38 66 46 67 39 68 45 69 47 70 44 71 40 72 41 73 42 74 43 75
REMARK SMILES IDX 69 76 70 77 78 78 71 79 77 80 79 81 76 82 72 83 73 84 74 85
REMARK SMILES IDX 75 86 54 87 55 88 63 89 56 90 62 91 64 92 61 93 57 94 58 95
REMARK SMILES IDX 59 96 60 97
REMARK H PARENT 84 50 52 61
REMARK Flexibility Score: inf
ROOT
ATOM      1  O   UNL A   1      34.519  34.388  31.496  1.00  0.00    -0.377 OA
ENDROOT
BRANCH   1   2
ATOM      2  C   UNL A   1      34.191  33.375  32.432  1.00  0.00     0.188 C 
BRANCH   2   3
ATOM      3  C   UNL A   1      35.404  32.826  33.220  1.00  0.00     0.188 C 
BRANCH   3   4
ATOM      4  O   UNL A   1      36.154  31.710  32.761  1.00  0.00    -0.376 OA
BRANCH   4   5
ATOM      5  C   UNL A   1      37.190  31.109  33.516  1.00  0.00     0.202 C 
BRANCH   5   6
ATOM      6  C   UNL A   1      38.140  31.883  34.444  1.00  0.00     0.261 C 
BRANCH   6   7
ATOM      7  O   UNL A   1      37.581  32.406  35.646  1.00  0.00    -0.459 OA
BRANCH   7   8
ATOM      8  C   UNL A   1      37.983  33.651  35.998  1.00  0.00     0.357 C 
ATOM      9  O   UNL A   1      38.022  34.633  35.281  1.00  0.00    -0.244 OA
BRANCH   8  10
ATOM     10  C   UNL A   1      38.237  33.637  37.468  1.00  0.00     0.152 A 
ATOM     11  C   UNL A   1      39.010  34.610  39.440  1.00  0.00     0.067 A 
ATOM     12  C   UNL A   1      38.809  34.728  38.083  1.00  0.00     0.064 A 
ATOM     13  N   UNL A   1      38.772  33.467  40.113  1.00  0.00    -0.237 NA
ATOM     14  C   UNL A   1      38.252  32.455  39.407  1.00  0.00     0.223 A 
ATOM     15  N   UNL A   1      37.937  32.486  38.110  1.00  0.00    -0.229 NA
BRANCH  11  16
ATOM     16  C   UNL A   1      39.473  35.731  40.266  1.00  0.00     0.029 C 
ATOM     17  C   UNL A   1      39.148  37.004  39.988  1.00  0.00     0.013 C 
BRANCH  17  18
ATOM     18  C   UNL A   1      39.483  38.154  40.746  1.00  0.00     0.013 A 
ATOM     19  N   UNL A   1      39.757  40.262  41.276  1.00  0.00    -0.272 N 
ATOM     20  C   UNL A   1      39.323  39.437  40.279  1.00  0.00     0.116 A 
ATOM     21  N   UNL A   1      40.148  39.592  42.380  1.00  0.00    -0.181 NA
ATOM     22  C   UNL A   1      39.997  38.306  42.046  1.00  0.00     0.143 A 
BRANCH  19  23
ATOM     23  C   UNL A   1      39.856  41.710  41.268  1.00  0.00     0.141 C 
ATOM     24  C   UNL A   1      39.320  42.414  42.507  1.00  0.00     0.029 C 
ENDBRANCH  19  23
ENDBRANCH  17  18
ENDBRANCH  11  16
ENDBRANCH   8  10
ENDBRANCH   7   8
ENDBRANCH   6   7
ENDBRANCH   5   6
ENDBRANCH   4   5
ENDBRANCH   3   4
ENDBRANCH   2   3
ENDBRANCH   1   2
BRANCH   1  25
ATOM     25  C   UNL A   1      34.859  33.938  30.182  1.00  0.00     0.188 C 
BRANCH  25  26
ATOM     26  C   UNL A   1      33.776  33.986  29.074  1.00  0.00     0.188 C 
BRANCH  26  27
ATOM     27  O   UNL A   1      33.819  32.901  28.157  1.00  0.00    -0.376 OA
BRANCH  27  28
ATOM     28  C   UNL A   1      35.040  32.369  27.678  1.00  0.00     0.202 C 
BRANCH  28  29
ATOM     29  C   UNL A   1      35.313  30.890  27.915  1.00  0.00     0.261 C 
BRANCH  29  30
ATOM     30  O   UNL A   1      36.682  30.540  27.863  1.00  0.00    -0.460 OA
BRANCH  30  31
ATOM     31  C   UNL A   1      37.107  29.805  28.912  1.00  0.00     0.338 C 
ATOM     32  O   UNL A   1      36.775  29.915  30.074  1.00  0.00    -0.246 OA
BRANCH  31  33
ATOM     33  C   UNL A   1      38.188  28.945  28.437  1.00  0.00     0.060 A 
ATOM     34  C   UNL A   1      38.670  27.997  29.338  1.00  0.00     0.016 A 
ATOM     35  C   UNL A   1      38.909  29.358  27.306  1.00  0.00     0.016 A 
ATOM     36  C   UNL A   1      39.991  27.634  29.230  1.00  0.00     0.010 A 
ATOM     37  C   UNL A   1      40.234  29.028  27.228  1.00  0.00     0.010 A 
ATOM     38  C   UNL A   1      40.774  28.235  28.237  1.00  0.00    -0.014 A 
BRANCH  38  39
ATOM     39  C   UNL A   1      42.163  27.856  28.136  1.00  0.00     0.031 A 
ATOM     40  C   UNL A   1      42.297  26.539  27.480  1.00  0.00     0.074 A 
ATOM     41  C   UNL A   1      43.177  28.666  28.494  1.00  0.00     0.049 A 
ATOM     42  N   UNL A   1      42.600  25.425  28.052  1.00  0.00    -0.248 NA
ATOM     43  C   UNL A   1      41.772  26.383  26.110  1.00  0.00     0.031 C 
ATOM     44  C   UNL A   1      43.112  30.061  28.934  1.00  0.00     0.029 A 
ATOM     45  N   UNL A   1      44.514  28.430  28.446  1.00  0.00    -0.354 N 
ATOM     46  C   UNL A   1      42.596  24.485  27.032  1.00  0.00     0.074 A 
ATOM     47  C   UNL A   1      41.821  25.059  25.972  1.00  0.00     0.031 C 
ATOM     48  C   UNL A   1      44.351  30.601  28.881  1.00  0.00     0.029 A 
ATOM     49  C   UNL A   1      45.311  29.572  28.507  1.00  0.00     0.049 A 
ATOM     50  H   UNL A   1      44.891  27.524  28.374  1.00  0.00     0.167 HD
ATOM     51  C   UNL A   1      43.508  23.478  27.033  1.00  0.00     0.034 A 
ATOM     52  C   UNL A   1      46.638  29.657  28.200  1.00  0.00     0.034 A 
ATOM     53  C   UNL A   1      44.070  23.305  28.360  1.00  0.00     0.049 A 
ATOM     54  C   UNL A   1      47.183  28.275  28.299  1.00  0.00     0.074 A 
ATOM     55  C   UNL A   1      43.519  23.078  29.609  1.00  0.00     0.029 A 
ATOM     56  N   UNL A   1      45.343  23.782  28.597  1.00  0.00    -0.354 N 
ATOM     57  N   UNL A   1      47.274  27.628  29.429  1.00  0.00    -0.248 NA
ATOM     58  C   UNL A   1      47.126  27.433  27.111  1.00  0.00     0.031 C 
ATOM     59  C   UNL A   1      44.279  23.890  30.500  1.00  0.00     0.029 A 
ATOM     60  C   UNL A   1      45.322  24.477  29.782  1.00  0.00     0.049 A 
ATOM     61  H   UNL A   1      46.129  23.647  28.019  1.00  0.00     0.167 HD
ATOM     62  C   UNL A   1      46.834  26.343  29.143  1.00  0.00     0.074 A 
ATOM     63  C   UNL A   1      46.840  26.258  27.682  1.00  0.00     0.031 C 
ATOM     64  C   UNL A   1      46.216  25.579  30.093  1.00  0.00     0.034 A 
BRANCH  51  65
ATOM     65  C   UNL A   1      44.196  22.970  25.784  1.00  0.00     0.023 A 
ATOM     66  C   UNL A   1      44.047  21.599  25.509  1.00  0.00     0.031 A 
ATOM     67  C   UNL A   1      45.199  23.635  25.038  1.00  0.00     0.131 A 
ATOM     68  C   UNL A   1      44.949  20.930  24.668  1.00  0.00     0.055 A 
ATOM     69  C   UNL A   1      46.050  22.975  24.147  1.00  0.00     0.041 A 
ATOM     70  F   UNL A   1      45.479  24.934  25.171  1.00  0.00    -0.206 F 
ATOM     71  C   UNL A   1      45.955  21.606  23.988  1.00  0.00     0.022 A 
BRANCH  68  72
ATOM     72  S   UNL A   1      44.892  19.124  24.644  1.00  0.00     0.124 S 
ATOM     73  O   UNL A   1      45.507  18.805  25.927  1.00  0.00    -0.237 OA
ATOM     74  O   UNL A   1      43.459  18.874  24.534  1.00  0.00    -0.237 OA
ATOM     75  O   UNL A   1      45.680  18.779  23.464  1.00  0.00    -0.744 OA
ENDBRANCH  68  72
ENDBRANCH  51  65
BRANCH  52  76
ATOM     76  C   UNL A   1      47.377  30.779  27.539  1.00  0.00     0.023 A 
ATOM     77  C   UNL A   1      46.723  31.894  26.958  1.00  0.00     0.031 A 
ATOM     78  C   UNL A   1      48.778  30.893  27.691  1.00  0.00     0.131 A 
ATOM     79  C   UNL A   1      47.460  33.045  26.577  1.00  0.00     0.055 A 
ATOM     80  C   UNL A   1      49.499  32.030  27.313  1.00  0.00     0.041 A 
ATOM     81  F   UNL A   1      49.496  29.939  28.302  1.00  0.00    -0.206 F 
ATOM     82  C   UNL A   1      48.840  33.117  26.766  1.00  0.00     0.022 A 
BRANCH  79  83
ATOM     83  S   UNL A   1      46.622  34.530  25.919  1.00  0.00     0.124 S 
ATOM     84  O   UNL A   1      47.693  35.186  25.178  1.00  0.00    -0.237 OA
ATOM     85  O   UNL A   1      45.538  33.960  25.127  1.00  0.00    -0.237 OA
ATOM     86  O   UNL A   1      46.187  35.238  27.124  1.00  0.00    -0.744 OA
ENDBRANCH  79  83
ENDBRANCH  52  76
BRANCH  64  87
ATOM     87  C   UNL A   1      46.301  26.001  31.549  1.00  0.00     0.023 A 
ATOM     88  C   UNL A   1      45.236  26.525  32.319  1.00  0.00     0.031 A 
ATOM     89  C   UNL A   1      47.514  25.739  32.213  1.00  0.00     0.131 A 
ATOM     90  C   UNL A   1      45.418  26.773  33.696  1.00  0.00     0.055 A 
ATOM     91  C   UNL A   1      47.680  25.959  33.579  1.00  0.00     0.041 A 
ATOM     92  F   UNL A   1      48.559  25.224  31.545  1.00  0.00    -0.206 F 
ATOM     93  C   UNL A   1      46.634  26.484  34.325  1.00  0.00     0.022 A 
BRANCH  90  94
ATOM     94  S   UNL A   1      44.086  27.508  34.701  1.00  0.00     0.124 S 
ATOM     95  O   UNL A   1      44.238  26.862  35.999  1.00  0.00    -0.237 OA
ATOM     96  O   UNL A   1      44.409  28.932  34.655  1.00  0.00    -0.237 OA
ATOM     97  O   UNL A   1      42.870  27.139  33.975  1.00  0.00    -0.744 OA
ENDBRANCH  90  94
ENDBRANCH  64  87
ENDBRANCH  38  39
ENDBRANCH  31  33
ENDBRANCH  30  31
ENDBRANCH  29  30
ENDBRANCH  28  29
ENDBRANCH  27  28
ENDBRANCH  26  27
ENDBRANCH  25  26
ENDBRANCH   1  25
TORSDOF 26
ENDMDL
