MODEL 1
REMARK VINA RESULT:      -9.8      0.000      0.000
REMARK SMILES C[C@@H](C(=O)OCCOCCOCCOCCOC(=O)c1ccc(-c2c3nc(c(-c4cc(S(=O)(=O)[O-])ccc4F)c4ccc([nH]4)c(-c4cc(S(=O)(=O)[O-])ccc4F)c4nc(c(-c5cc(S(=O)(=O)[O-])ccc5F)c5ccc2[nH]5)C=C4)C=C3)cc1)c1ccc(C[C@H]2CCC[C@H]2O)cc1
REMARK SMILES IDX 10 1 9 2 8 3 7 4 6 5 5 6 3 7 4 8 2 9 1 10 83 11 84 12 95 13
REMARK SMILES IDX 85 14 94 15 86 16 87 17 88 18 89 19 92 20 90 21 91 22 93 23
REMARK SMILES IDX 11 25 12 26 13 27 14 28 15 29 16 30 17 31 18 32 19 33 20 34
REMARK SMILES IDX 21 35 82 36 22 37 81 38 23 39 24 40 25 41 75 42 26 43 80 44
REMARK SMILES IDX 74 45 76 46 27 47 79 48 73 49 72 50 28 52 60 53 40 54 59 55
REMARK SMILES IDX 41 56 44 57 58 58 77 59 42 60 43 61 57 63 78 64 45 65 29 66
REMARK SMILES IDX 30 67 38 68 31 69 37 70 39 71 36 72 32 73 33 74 34 75 35 76
REMARK SMILES IDX 61 77 62 78 70 79 63 80 69 81 71 82 68 83 64 84 65 85 66 86
REMARK SMILES IDX 67 87 46 88 47 89 55 90 48 91 54 92 56 93 53 94 49 95 50 96
REMARK SMILES IDX 51 97 52 98
REMARK H PARENT 93 24 76 51 44 62
REMARK Flexibility Score: inf
ROOT
ATOM      1  C   UNL A   1      35.482  23.309  23.275  1.00  0.00     0.188 C 
ENDROOT
BRANCH   1   2
ATOM      2  C   UNL A   1      34.148  23.362  22.507  1.00  0.00     0.188 C 
BRANCH   2   3
ATOM      3  O   UNL A   1      33.196  24.371  22.804  1.00  0.00    -0.376 OA
BRANCH   3   4
ATOM      4  C   UNL A   1      33.020  25.468  21.918  1.00  0.00     0.202 C 
BRANCH   4   5
ATOM      5  C   UNL A   1      32.627  26.878  22.409  1.00  0.00     0.261 C 
BRANCH   5   6
ATOM      6  O   UNL A   1      31.676  26.959  23.486  1.00  0.00    -0.463 OA
BRANCH   6   7
ATOM      7  C   UNL A   1      32.082  27.606  24.606  1.00  0.00     0.313 C 
ATOM      8  O   UNL A   1      32.871  28.548  24.601  1.00  0.00    -0.252 OA
BRANCH   7   9
ATOM      9  C   UNL A   1      31.445  27.078  25.905  1.00  0.00     0.126 C 
ATOM     10  C   UNL A   1      31.464  27.958  27.164  1.00  0.00     0.025 C 
BRANCH   9  11
ATOM     11  C   UNL A   1      31.879  25.633  26.153  1.00  0.00    -0.034 A 
ATOM     12  C   UNL A   1      33.246  25.338  26.115  1.00  0.00     0.005 A 
ATOM     13  C   UNL A   1      30.994  24.603  26.504  1.00  0.00     0.005 A 
ATOM     14  C   UNL A   1      33.707  24.046  26.359  1.00  0.00     0.004 A 
ATOM     15  C   UNL A   1      31.457  23.314  26.775  1.00  0.00     0.004 A 
ATOM     16  C   UNL A   1      32.810  23.010  26.634  1.00  0.00    -0.048 A 
BRANCH  16  17
ATOM     17  C   UNL A   1      33.287  21.582  26.663  1.00  0.00     0.041 C 
BRANCH  17  18
ATOM     18  C   UNL A   1      32.612  20.635  25.650  1.00  0.00     0.022 C 
ATOM     19  C   UNL A   1      32.237  21.255  24.291  1.00  0.00     0.007 C 
ATOM     20  C   UNL A   1      33.319  19.314  25.295  1.00  0.00     0.117 C 
ATOM     21  C   UNL A   1      32.360  20.132  23.259  1.00  0.00     0.003 C 
ATOM     22  C   UNL A   1      32.557  18.850  24.060  1.00  0.00     0.032 C 
BRANCH  20  23
ATOM     23  O   UNL A   1      34.687  19.420  24.944  1.00  0.00    -0.393 OA
ATOM     24  H   UNL A   1      34.786  20.058  24.220  1.00  0.00     0.210 HD
ENDBRANCH  20  23
ENDBRANCH  17  18
ENDBRANCH  16  17
ENDBRANCH   9  11
ENDBRANCH   7   9
ENDBRANCH   6   7
ENDBRANCH   5   6
ENDBRANCH   4   5
ENDBRANCH   3   4
ENDBRANCH   2   3
ENDBRANCH   1   2
BRANCH   1  25
ATOM     25  O   UNL A   1      35.620  22.218  24.156  1.00  0.00    -0.377 OA
BRANCH  25  26
ATOM     26  C   UNL A   1      36.616  22.331  25.160  1.00  0.00     0.188 C 
BRANCH  26  27
ATOM     27  C   UNL A   1      37.886  21.469  25.029  1.00  0.00     0.188 C 
BRANCH  27  28
ATOM     28  O   UNL A   1      37.654  20.153  24.532  1.00  0.00    -0.376 OA
BRANCH  28  29
ATOM     29  C   UNL A   1      38.311  19.063  25.165  1.00  0.00     0.202 C 
BRANCH  29  30
ATOM     30  C   UNL A   1      39.471  19.399  26.119  1.00  0.00     0.261 C 
BRANCH  30  31
ATOM     31  O   UNL A   1      40.796  19.291  25.582  1.00  0.00    -0.460 OA
BRANCH  31  32
ATOM     32  C   UNL A   1      41.835  19.488  26.423  1.00  0.00     0.338 C 
ATOM     33  O   UNL A   1      42.705  18.683  26.707  1.00  0.00    -0.246 OA
BRANCH  32  34
ATOM     34  C   UNL A   1      41.860  20.924  26.776  1.00  0.00     0.060 A 
ATOM     35  C   UNL A   1      41.535  21.868  25.792  1.00  0.00     0.016 A 
ATOM     36  C   UNL A   1      42.169  21.334  28.074  1.00  0.00     0.016 A 
ATOM     37  C   UNL A   1      41.550  23.230  26.097  1.00  0.00     0.010 A 
ATOM     38  C   UNL A   1      42.212  22.700  28.371  1.00  0.00     0.010 A 
ATOM     39  C   UNL A   1      41.935  23.654  27.374  1.00  0.00    -0.014 A 
BRANCH  39  40
ATOM     40  C   UNL A   1      42.272  25.082  27.601  1.00  0.00     0.031 A 
ATOM     41  C   UNL A   1      43.627  25.563  27.153  1.00  0.00     0.074 A 
ATOM     42  C   UNL A   1      41.396  25.936  28.158  1.00  0.00     0.049 A 
ATOM     43  N   UNL A   1      44.179  26.740  27.287  1.00  0.00    -0.248 NA
ATOM     44  C   UNL A   1      44.471  24.575  26.465  1.00  0.00     0.031 C 
ATOM     45  C   UNL A   1      40.035  25.601  28.572  1.00  0.00     0.029 A 
ATOM     46  N   UNL A   1      41.526  27.266  28.474  1.00  0.00    -0.354 N 
ATOM     47  C   UNL A   1      45.440  26.631  26.709  1.00  0.00     0.074 A 
ATOM     48  C   UNL A   1      45.581  25.264  26.258  1.00  0.00     0.031 C 
ATOM     49  C   UNL A   1      39.457  26.698  29.095  1.00  0.00     0.029 A 
ATOM     50  C   UNL A   1      40.420  27.798  29.095  1.00  0.00     0.049 A 
ATOM     51  H   UNL A   1      42.336  27.790  28.273  1.00  0.00     0.167 HD
ATOM     52  C   UNL A   1      46.390  27.586  26.563  1.00  0.00     0.034 A 
ATOM     53  C   UNL A   1      40.224  29.023  29.626  1.00  0.00     0.034 A 
ATOM     54  C   UNL A   1      46.237  28.941  27.032  1.00  0.00     0.049 A 
ATOM     55  C   UNL A   1      41.339  30.043  29.547  1.00  0.00     0.074 A 
ATOM     56  C   UNL A   1      47.128  29.994  26.927  1.00  0.00     0.029 A 
ATOM     57  N   UNL A   1      45.127  29.428  27.712  1.00  0.00    -0.354 N 
ATOM     58  N   UNL A   1      42.526  29.933  28.995  1.00  0.00    -0.248 NA
ATOM     59  C   UNL A   1      41.084  31.353  30.161  1.00  0.00     0.031 C 
ATOM     60  C   UNL A   1      46.597  31.088  27.618  1.00  0.00     0.029 A 
ATOM     61  C   UNL A   1      45.331  30.752  28.069  1.00  0.00     0.049 A 
ATOM     62  H   UNL A   1      44.315  28.908  27.912  1.00  0.00     0.167 HD
ATOM     63  C   UNL A   1      43.141  31.172  29.160  1.00  0.00     0.074 A 
ATOM     64  C   UNL A   1      42.189  32.016  29.854  1.00  0.00     0.031 C 
ATOM     65  C   UNL A   1      44.375  31.581  28.768  1.00  0.00     0.034 A 
BRANCH  52  66
ATOM     66  C   UNL A   1      47.698  27.175  25.932  1.00  0.00     0.023 A 
ATOM     67  C   UNL A   1      48.721  26.556  26.672  1.00  0.00     0.031 A 
ATOM     68  C   UNL A   1      47.939  27.438  24.572  1.00  0.00     0.131 A 
ATOM     69  C   UNL A   1      49.958  26.289  26.068  1.00  0.00     0.055 A 
ATOM     70  C   UNL A   1      49.141  27.091  23.955  1.00  0.00     0.041 A 
ATOM     71  F   UNL A   1      47.013  28.055  23.821  1.00  0.00    -0.206 F 
ATOM     72  C   UNL A   1      50.166  26.525  24.707  1.00  0.00     0.022 A 
BRANCH  69  73
ATOM     73  S   UNL A   1      51.344  25.772  27.119  1.00  0.00     0.124 S 
ATOM     74  O   UNL A   1      52.069  27.029  27.289  1.00  0.00    -0.237 OA
ATOM     75  O   UNL A   1      50.666  25.259  28.303  1.00  0.00    -0.237 OA
ATOM     76  O   UNL A   1      52.033  24.768  26.309  1.00  0.00    -0.744 OA
ENDBRANCH  69  73
ENDBRANCH  52  66
BRANCH  53  77
ATOM     77  C   UNL A   1      38.944  29.357  30.319  1.00  0.00     0.023 A 
ATOM     78  C   UNL A   1      37.971  30.160  29.703  1.00  0.00     0.031 A 
ATOM     79  C   UNL A   1      38.706  28.936  31.641  1.00  0.00     0.131 A 
ATOM     80  C   UNL A   1      36.832  30.559  30.422  1.00  0.00     0.055 A 
ATOM     81  C   UNL A   1      37.543  29.284  32.330  1.00  0.00     0.041 A 
ATOM     82  F   UNL A   1      39.606  28.175  32.284  1.00  0.00    -0.206 F 
ATOM     83  C   UNL A   1      36.604  30.112  31.725  1.00  0.00     0.022 A 
BRANCH  80  84
ATOM     84  S   UNL A   1      35.700  31.757  29.663  1.00  0.00     0.124 S 
ATOM     85  O   UNL A   1      35.082  30.955  28.614  1.00  0.00    -0.237 OA
ATOM     86  O   UNL A   1      34.841  32.115  30.787  1.00  0.00    -0.237 OA
ATOM     87  O   UNL A   1      36.590  32.818  29.197  1.00  0.00    -0.744 OA
ENDBRANCH  80  84
ENDBRANCH  53  77
BRANCH  65  88
ATOM     88  C   UNL A   1      44.746  33.024  29.029  1.00  0.00     0.023 A 
ATOM     89  C   UNL A   1      44.291  34.071  28.210  1.00  0.00     0.031 A 
ATOM     90  C   UNL A   1      45.572  33.352  30.120  1.00  0.00     0.131 A 
ATOM     91  C   UNL A   1      44.711  35.387  28.459  1.00  0.00     0.055 A 
ATOM     92  C   UNL A   1      45.929  34.671  30.405  1.00  0.00     0.041 A 
ATOM     93  F   UNL A   1      46.041  32.394  30.936  1.00  0.00    -0.206 F 
ATOM     94  C   UNL A   1      45.510  35.696  29.564  1.00  0.00     0.022 A 
BRANCH  91  95
ATOM     95  S   UNL A   1      44.287  36.681  27.260  1.00  0.00     0.124 S 
ATOM     96  O   UNL A   1      43.635  37.675  28.107  1.00  0.00    -0.237 OA
ATOM     97  O   UNL A   1      45.594  37.056  26.730  1.00  0.00    -0.237 OA
ATOM     98  O   UNL A   1      43.407  35.998  26.314  1.00  0.00    -0.744 OA
ENDBRANCH  91  95
ENDBRANCH  65  88
ENDBRANCH  39  40
ENDBRANCH  32  34
ENDBRANCH  31  32
ENDBRANCH  30  31
ENDBRANCH  29  30
ENDBRANCH  28  29
ENDBRANCH  27  28
ENDBRANCH  26  27
ENDBRANCH  25  26
ENDBRANCH   1  25
TORSDOF 27
ENDMDL
MODEL 2
REMARK VINA RESULT:      -9.4      1.433      7.409
REMARK SMILES C[C@@H](C(=O)OCCOCCOCCOCCOC(=O)c1ccc(-c2c3nc(c(-c4cc(S(=O)(=O)[O-])ccc4F)c4ccc([nH]4)c(-c4cc(S(=O)(=O)[O-])ccc4F)c4nc(c(-c5cc(S(=O)(=O)[O-])ccc5F)c5ccc2[nH]5)C=C4)C=C3)cc1)c1ccc(C[C@H]2CCC[C@H]2O)cc1
REMARK SMILES IDX 10 1 9 2 8 3 7 4 6 5 5 6 3 7 4 8 2 9 1 10 83 11 84 12 95 13
REMARK SMILES IDX 85 14 94 15 86 16 87 17 88 18 89 19 92 20 90 21 91 22 93 23
REMARK SMILES IDX 11 25 12 26 13 27 14 28 15 29 16 30 17 31 18 32 19 33 20 34
REMARK SMILES IDX 21 35 82 36 22 37 81 38 23 39 24 40 25 41 75 42 26 43 80 44
REMARK SMILES IDX 74 45 76 46 27 47 79 48 73 49 72 50 28 52 60 53 40 54 59 55
REMARK SMILES IDX 41 56 44 57 58 58 77 59 42 60 43 61 57 63 78 64 45 65 29 66
REMARK SMILES IDX 30 67 38 68 31 69 37 70 39 71 36 72 32 73 33 74 34 75 35 76
REMARK SMILES IDX 61 77 62 78 70 79 63 80 69 81 71 82 68 83 64 84 65 85 66 86
REMARK SMILES IDX 67 87 46 88 47 89 55 90 48 91 54 92 56 93 53 94 49 95 50 96
REMARK SMILES IDX 51 97 52 98
REMARK H PARENT 93 24 76 51 44 62
REMARK Flexibility Score: inf
ROOT
ATOM      1  C   UNL A   1      35.485  23.114  23.553  1.00  0.00     0.188 C 
ENDROOT
BRANCH   1   2
ATOM      2  C   UNL A   1      34.153  23.166  22.781  1.00  0.00     0.188 C 
BRANCH   2   3
ATOM      3  O   UNL A   1      33.227  24.210  23.030  1.00  0.00    -0.376 OA
BRANCH   3   4
ATOM      4  C   UNL A   1      33.034  25.238  22.068  1.00  0.00     0.202 C 
BRANCH   4   5
ATOM      5  C   UNL A   1      32.285  26.549  22.390  1.00  0.00     0.261 C 
BRANCH   5   6
ATOM      6  O   UNL A   1      31.462  26.565  23.570  1.00  0.00    -0.463 OA
BRANCH   6   7
ATOM      7  C   UNL A   1      31.892  27.335  24.600  1.00  0.00     0.313 C 
ATOM      8  O   UNL A   1      32.564  28.353  24.455  1.00  0.00    -0.252 OA
BRANCH   7   9
ATOM      9  C   UNL A   1      31.441  26.841  25.987  1.00  0.00     0.126 C 
ATOM     10  C   UNL A   1      31.649  27.746  27.211  1.00  0.00     0.025 C 
BRANCH   9  11
ATOM     11  C   UNL A   1      31.890  25.396  26.202  1.00  0.00    -0.034 A 
ATOM     12  C   UNL A   1      33.262  25.119  26.176  1.00  0.00     0.005 A 
ATOM     13  C   UNL A   1      31.014  24.345  26.511  1.00  0.00     0.005 A 
ATOM     14  C   UNL A   1      33.736  23.827  26.391  1.00  0.00     0.004 A 
ATOM     15  C   UNL A   1      31.490  23.054  26.753  1.00  0.00     0.004 A 
ATOM     16  C   UNL A   1      32.849  22.772  26.624  1.00  0.00    -0.048 A 
BRANCH  16  17
ATOM     17  C   UNL A   1      33.344  21.350  26.621  1.00  0.00     0.041 C 
BRANCH  17  18
ATOM     18  C   UNL A   1      32.651  20.407  25.618  1.00  0.00     0.022 C 
ATOM     19  C   UNL A   1      32.160  21.054  24.309  1.00  0.00     0.007 C 
ATOM     20  C   UNL A   1      33.394  19.135  25.169  1.00  0.00     0.117 C 
ATOM     21  C   UNL A   1      32.268  19.974  23.230  1.00  0.00     0.003 C 
ATOM     22  C   UNL A   1      32.576  18.677  23.968  1.00  0.00     0.032 C 
BRANCH  20  23
ATOM     23  O   UNL A   1      34.730  19.320  24.737  1.00  0.00    -0.393 OA
ATOM     24  H   UNL A   1      34.734  19.815  23.903  1.00  0.00     0.210 HD
ENDBRANCH  20  23
ENDBRANCH  17  18
ENDBRANCH  16  17
ENDBRANCH   9  11
ENDBRANCH   7   9
ENDBRANCH   6   7
ENDBRANCH   5   6
ENDBRANCH   4   5
ENDBRANCH   3   4
ENDBRANCH   2   3
ENDBRANCH   1   2
BRANCH   1  25
ATOM     25  O   UNL A   1      35.727  21.910  24.243  1.00  0.00    -0.377 OA
BRANCH  25  26
ATOM     26  C   UNL A   1      36.714  21.946  25.262  1.00  0.00     0.188 C 
BRANCH  26  27
ATOM     27  C   UNL A   1      38.067  21.260  24.993  1.00  0.00     0.188 C 
BRANCH  27  28
ATOM     28  O   UNL A   1      37.974  19.860  24.736  1.00  0.00    -0.376 OA
BRANCH  28  29
ATOM     29  C   UNL A   1      38.735  18.971  25.542  1.00  0.00     0.202 C 
BRANCH  29  30
ATOM     30  C   UNL A   1      40.030  19.519  26.166  1.00  0.00     0.261 C 
BRANCH  30  31
ATOM     31  O   UNL A   1      41.234  19.338  25.407  1.00  0.00    -0.460 OA
BRANCH  31  32
ATOM     32  C   UNL A   1      42.412  19.490  26.051  1.00  0.00     0.338 C 
ATOM     33  O   UNL A   1      43.295  18.656  26.160  1.00  0.00    -0.246 OA
BRANCH  32  34
ATOM     34  C   UNL A   1      42.543  20.917  26.415  1.00  0.00     0.060 A 
ATOM     35  C   UNL A   1      42.551  21.878  25.395  1.00  0.00     0.016 A 
ATOM     36  C   UNL A   1      42.625  21.307  27.754  1.00  0.00     0.016 A 
ATOM     37  C   UNL A   1      42.672  23.232  25.711  1.00  0.00     0.010 A 
ATOM     38  C   UNL A   1      42.776  22.661  28.067  1.00  0.00     0.010 A 
ATOM     39  C   UNL A   1      42.833  23.625  27.044  1.00  0.00    -0.014 A 
BRANCH  39  40
ATOM     40  C   UNL A   1      43.291  25.004  27.350  1.00  0.00     0.031 A 
ATOM     41  C   UNL A   1      42.308  25.942  27.998  1.00  0.00     0.074 A 
ATOM     42  C   UNL A   1      44.548  25.407  27.091  1.00  0.00     0.049 A 
ATOM     43  N   UNL A   1      42.444  27.204  28.312  1.00  0.00    -0.248 NA
ATOM     44  C   UNL A   1      40.993  25.375  28.331  1.00  0.00     0.031 C 
ATOM     45  C   UNL A   1      45.604  24.570  26.525  1.00  0.00     0.029 A 
ATOM     46  N   UNL A   1      45.146  26.630  27.270  1.00  0.00    -0.354 N 
ATOM     47  C   UNL A   1      41.227  27.584  28.870  1.00  0.00     0.074 A 
ATOM     48  C   UNL A   1      40.358  26.429  28.817  1.00  0.00     0.031 C 
ATOM     49  C   UNL A   1      46.721  25.308  26.397  1.00  0.00     0.029 A 
ATOM     50  C   UNL A   1      46.448  26.678  26.827  1.00  0.00     0.049 A 
ATOM     51  H   UNL A   1      44.687  27.399  27.678  1.00  0.00     0.167 HD
ATOM     52  C   UNL A   1      40.870  28.786  29.385  1.00  0.00     0.034 A 
ATOM     53  C   UNL A   1      47.305  27.719  26.754  1.00  0.00     0.034 A 
ATOM     54  C   UNL A   1      41.745  29.931  29.417  1.00  0.00     0.049 A 
ATOM     55  C   UNL A   1      46.849  29.079  27.236  1.00  0.00     0.074 A 
ATOM     56  C   UNL A   1      41.494  31.193  29.927  1.00  0.00     0.029 A 
ATOM     57  N   UNL A   1      43.037  29.961  28.904  1.00  0.00    -0.354 N 
ATOM     58  N   UNL A   1      45.698  29.428  27.766  1.00  0.00    -0.248 NA
ATOM     59  C   UNL A   1      47.811  30.183  27.113  1.00  0.00     0.031 C 
ATOM     60  C   UNL A   1      42.595  32.007  29.642  1.00  0.00     0.029 A 
ATOM     61  C   UNL A   1      43.575  31.231  29.045  1.00  0.00     0.049 A 
ATOM     62  H   UNL A   1      43.501  29.193  28.498  1.00  0.00     0.167 HD
ATOM     63  C   UNL A   1      45.816  30.782  28.076  1.00  0.00     0.074 A 
ATOM     64  C   UNL A   1      47.152  31.181  27.682  1.00  0.00     0.031 C 
ATOM     65  C   UNL A   1      44.908  31.618  28.641  1.00  0.00     0.034 A 
BRANCH  52  66
ATOM     66  C   UNL A   1      39.455  28.934  29.889  1.00  0.00     0.023 A 
ATOM     67  C   UNL A   1      38.427  29.455  29.082  1.00  0.00     0.031 A 
ATOM     68  C   UNL A   1      39.135  28.578  31.211  1.00  0.00     0.131 A 
ATOM     69  C   UNL A   1      37.153  29.674  29.628  1.00  0.00     0.055 A 
ATOM     70  C   UNL A   1      37.843  28.717  31.721  1.00  0.00     0.041 A 
ATOM     71  F   UNL A   1      40.080  28.104  32.039  1.00  0.00    -0.206 F 
ATOM     72  C   UNL A   1      36.846  29.281  30.932  1.00  0.00     0.022 A 
BRANCH  69  73
ATOM     73  S   UNL A   1      35.945  30.618  28.658  1.00  0.00     0.124 S 
ATOM     74  O   UNL A   1      36.813  31.332  27.723  1.00  0.00    -0.237 OA
ATOM     75  O   UNL A   1      35.112  29.569  28.084  1.00  0.00    -0.237 OA
ATOM     76  O   UNL A   1      35.290  31.463  29.655  1.00  0.00    -0.744 OA
ENDBRANCH  69  73
ENDBRANCH  52  66
BRANCH  53  77
ATOM     77  C   UNL A   1      48.666  27.544  26.166  1.00  0.00     0.023 A 
ATOM     78  C   UNL A   1      48.893  27.718  24.792  1.00  0.00     0.031 A 
ATOM     79  C   UNL A   1      49.750  27.129  26.962  1.00  0.00     0.131 A 
ATOM     80  C   UNL A   1      50.155  27.430  24.246  1.00  0.00     0.055 A 
ATOM     81  C   UNL A   1      51.019  26.903  26.425  1.00  0.00     0.041 A 
ATOM     82  F   UNL A   1      49.590  26.937  28.282  1.00  0.00    -0.206 F 
ATOM     83  C   UNL A   1      51.223  27.040  25.056  1.00  0.00     0.022 A 
BRANCH  80  84
ATOM     84  S   UNL A   1      50.353  27.472  22.443  1.00  0.00     0.124 S 
ATOM     85  O   UNL A   1      49.346  26.509  22.014  1.00  0.00    -0.237 OA
ATOM     86  O   UNL A   1      50.072  28.871  22.141  1.00  0.00    -0.237 OA
ATOM     87  O   UNL A   1      51.740  27.059  22.243  1.00  0.00    -0.744 OA
ENDBRANCH  80  84
ENDBRANCH  53  77
BRANCH  65  88
ATOM     88  C   UNL A   1      45.349  33.037  28.922  1.00  0.00     0.023 A 
ATOM     89  C   UNL A   1      44.980  34.111  28.094  1.00  0.00     0.031 A 
ATOM     90  C   UNL A   1      46.156  33.315  30.041  1.00  0.00     0.131 A 
ATOM     91  C   UNL A   1      45.465  35.400  28.363  1.00  0.00     0.055 A 
ATOM     92  C   UNL A   1      46.576  34.611  30.344  1.00  0.00     0.041 A 
ATOM     93  F   UNL A   1      46.544  32.329  30.867  1.00  0.00    -0.206 F 
ATOM     94  C   UNL A   1      46.242  35.661  29.495  1.00  0.00     0.022 A 
BRANCH  91  95
ATOM     95  S   UNL A   1      45.152  36.720  27.158  1.00  0.00     0.124 S 
ATOM     96  O   UNL A   1      46.286  36.574  26.250  1.00  0.00    -0.237 OA
ATOM     97  O   UNL A   1      43.851  36.345  26.615  1.00  0.00    -0.237 OA
ATOM     98  O   UNL A   1      45.159  37.935  27.969  1.00  0.00    -0.744 OA
ENDBRANCH  91  95
ENDBRANCH  65  88
ENDBRANCH  39  40
ENDBRANCH  32  34
ENDBRANCH  31  32
ENDBRANCH  30  31
ENDBRANCH  29  30
ENDBRANCH  28  29
ENDBRANCH  27  28
ENDBRANCH  26  27
ENDBRANCH  25  26
ENDBRANCH   1  25
TORSDOF 27
ENDMDL
MODEL 3
REMARK VINA RESULT:      -8.8      2.399      3.049
REMARK SMILES C[C@@H](C(=O)OCCOCCOCCOCCOC(=O)c1ccc(-c2c3nc(c(-c4cc(S(=O)(=O)[O-])ccc4F)c4ccc([nH]4)c(-c4cc(S(=O)(=O)[O-])ccc4F)c4nc(c(-c5cc(S(=O)(=O)[O-])ccc5F)c5ccc2[nH]5)C=C4)C=C3)cc1)c1ccc(C[C@H]2CCC[C@H]2O)cc1
REMARK SMILES IDX 10 1 9 2 8 3 7 4 6 5 5 6 3 7 4 8 2 9 1 10 83 11 84 12 95 13
REMARK SMILES IDX 85 14 94 15 86 16 87 17 88 18 89 19 92 20 90 21 91 22 93 23
REMARK SMILES IDX 11 25 12 26 13 27 14 28 15 29 16 30 17 31 18 32 19 33 20 34
REMARK SMILES IDX 21 35 82 36 22 37 81 38 23 39 24 40 25 41 75 42 26 43 80 44
REMARK SMILES IDX 74 45 76 46 27 47 79 48 73 49 72 50 28 52 60 53 40 54 59 55
REMARK SMILES IDX 41 56 44 57 58 58 77 59 42 60 43 61 57 63 78 64 45 65 29 66
REMARK SMILES IDX 30 67 38 68 31 69 37 70 39 71 36 72 32 73 33 74 34 75 35 76
REMARK SMILES IDX 61 77 62 78 70 79 63 80 69 81 71 82 68 83 64 84 65 85 66 86
REMARK SMILES IDX 67 87 46 88 47 89 55 90 48 91 54 92 56 93 53 94 49 95 50 96
REMARK SMILES IDX 51 97 52 98
REMARK H PARENT 93 24 76 51 44 62
REMARK Flexibility Score: inf
ROOT
ATOM      1  C   UNL A   1      35.995  23.588  24.793  1.00  0.00     0.188 C 
ENDROOT
BRANCH   1   2
ATOM      2  C   UNL A   1      35.079  23.444  23.564  1.00  0.00     0.188 C 
BRANCH   2   3
ATOM      3  O   UNL A   1      34.775  24.577  22.766  1.00  0.00    -0.376 OA
BRANCH   3   4
ATOM      4  C   UNL A   1      33.422  24.946  22.537  1.00  0.00     0.202 C 
BRANCH   4   5
ATOM      5  C   UNL A   1      33.028  26.237  21.787  1.00  0.00     0.261 C 
BRANCH   5   6
ATOM      6  O   UNL A   1      32.012  27.062  22.386  1.00  0.00    -0.463 OA
BRANCH   6   7
ATOM      7  C   UNL A   1      32.427  27.960  23.312  1.00  0.00     0.313 C 
ATOM      8  O   UNL A   1      33.359  28.740  23.134  1.00  0.00    -0.252 OA
BRANCH   7   9
ATOM      9  C   UNL A   1      31.607  27.948  24.615  1.00  0.00     0.126 C 
ATOM     10  C   UNL A   1      31.777  29.096  25.622  1.00  0.00     0.025 C 
BRANCH   9  11
ATOM     11  C   UNL A   1      31.650  26.557  25.249  1.00  0.00    -0.034 A 
ATOM     12  C   UNL A   1      32.885  26.070  25.691  1.00  0.00     0.005 A 
ATOM     13  C   UNL A   1      30.510  25.776  25.494  1.00  0.00     0.005 A 
ATOM     14  C   UNL A   1      32.986  24.822  26.301  1.00  0.00     0.004 A 
ATOM     15  C   UNL A   1      30.606  24.536  26.129  1.00  0.00     0.004 A 
ATOM     16  C   UNL A   1      31.855  24.018  26.472  1.00  0.00    -0.048 A 
BRANCH  16  17
ATOM     17  C   UNL A   1      32.001  22.586  26.912  1.00  0.00     0.041 C 
BRANCH  17  18
ATOM     18  C   UNL A   1      31.878  21.532  25.793  1.00  0.00     0.022 C 
ATOM     19  C   UNL A   1      31.849  22.074  24.352  1.00  0.00     0.007 C 
ATOM     20  C   UNL A   1      32.897  20.378  25.756  1.00  0.00     0.117 C 
ATOM     21  C   UNL A   1      32.505  21.004  23.478  1.00  0.00     0.003 C 
ATOM     22  C   UNL A   1      32.673  19.781  24.372  1.00  0.00     0.032 C 
BRANCH  20  23
ATOM     23  O   UNL A   1      34.259  20.753  25.849  1.00  0.00    -0.393 OA
ATOM     24  H   UNL A   1      34.440  21.093  26.739  1.00  0.00     0.210 HD
ENDBRANCH  20  23
ENDBRANCH  17  18
ENDBRANCH  16  17
ENDBRANCH   9  11
ENDBRANCH   7   9
ENDBRANCH   6   7
ENDBRANCH   5   6
ENDBRANCH   4   5
ENDBRANCH   3   4
ENDBRANCH   2   3
ENDBRANCH   1   2
BRANCH   1  25
ATOM     25  O   UNL A   1      37.270  23.004  24.658  1.00  0.00    -0.377 OA
BRANCH  25  26
ATOM     26  C   UNL A   1      37.706  22.171  25.720  1.00  0.00     0.188 C 
BRANCH  26  27
ATOM     27  C   UNL A   1      39.215  22.100  26.020  1.00  0.00     0.188 C 
BRANCH  27  28
ATOM     28  O   UNL A   1      39.755  20.780  26.007  1.00  0.00    -0.376 OA
BRANCH  28  29
ATOM     29  C   UNL A   1      40.828  20.477  26.887  1.00  0.00     0.202 C 
BRANCH  29  30
ATOM     30  C   UNL A   1      41.811  19.378  26.447  1.00  0.00     0.261 C 
BRANCH  30  31
ATOM     31  O   UNL A   1      42.422  19.542  25.159  1.00  0.00    -0.460 OA
BRANCH  31  32
ATOM     32  C   UNL A   1      43.770  19.603  25.106  1.00  0.00     0.338 C 
ATOM     33  O   UNL A   1      44.528  18.701  24.793  1.00  0.00    -0.246 OA
BRANCH  32  34
ATOM     34  C   UNL A   1      44.162  21.018  25.281  1.00  0.00     0.060 A 
ATOM     35  C   UNL A   1      45.156  21.334  26.218  1.00  0.00     0.016 A 
ATOM     36  C   UNL A   1      43.578  22.022  24.506  1.00  0.00     0.016 A 
ATOM     37  C   UNL A   1      45.546  22.661  26.403  1.00  0.00     0.010 A 
ATOM     38  C   UNL A   1      43.948  23.354  24.713  1.00  0.00     0.010 A 
ATOM     39  C   UNL A   1      44.910  23.681  25.686  1.00  0.00    -0.014 A 
BRANCH  39  40
ATOM     40  C   UNL A   1      45.081  25.092  26.115  1.00  0.00     0.031 A 
ATOM     41  C   UNL A   1      46.437  25.721  25.936  1.00  0.00     0.074 A 
ATOM     42  C   UNL A   1      44.060  25.808  26.619  1.00  0.00     0.049 A 
ATOM     43  N   UNL A   1      46.856  26.910  26.279  1.00  0.00    -0.248 NA
ATOM     44  C   UNL A   1      47.458  24.886  25.284  1.00  0.00     0.031 C 
ATOM     45  C   UNL A   1      42.689  25.327  26.779  1.00  0.00     0.029 A 
ATOM     46  N   UNL A   1      44.023  27.096  27.092  1.00  0.00    -0.354 N 
ATOM     47  C   UNL A   1      48.192  26.963  25.895  1.00  0.00     0.074 A 
ATOM     48  C   UNL A   1      48.520  25.674  25.326  1.00  0.00     0.031 C 
ATOM     49  C   UNL A   1      41.946  26.309  27.322  1.00  0.00     0.029 A 
ATOM     50  C   UNL A   1      42.796  27.468  27.589  1.00  0.00     0.049 A 
ATOM     51  H   UNL A   1      44.803  27.698  27.077  1.00  0.00     0.167 HD
ATOM     52  C   UNL A   1      49.064  27.995  26.001  1.00  0.00     0.034 A 
ATOM     53  C   UNL A   1      42.415  28.603  28.212  1.00  0.00     0.034 A 
ATOM     54  C   UNL A   1      48.723  29.270  26.584  1.00  0.00     0.049 A 
ATOM     55  C   UNL A   1      43.433  29.704  28.416  1.00  0.00     0.074 A 
ATOM     56  C   UNL A   1      49.522  30.390  26.730  1.00  0.00     0.029 A 
ATOM     57  N   UNL A   1      47.487  29.590  27.132  1.00  0.00    -0.354 N 
ATOM     58  N   UNL A   1      44.694  29.746  28.045  1.00  0.00    -0.248 NA
ATOM     59  C   UNL A   1      42.976  30.909  29.120  1.00  0.00     0.031 C 
ATOM     60  C   UNL A   1      48.801  31.351  27.445  1.00  0.00     0.029 A 
ATOM     61  C   UNL A   1      47.517  30.872  27.657  1.00  0.00     0.049 A 
ATOM     62  H   UNL A   1      46.705  28.992  27.147  1.00  0.00     0.167 HD
ATOM     63  C   UNL A   1      45.164  30.999  28.436  1.00  0.00     0.074 A 
ATOM     64  C   UNL A   1      44.050  31.682  29.061  1.00  0.00     0.031 C 
ATOM     65  C   UNL A   1      46.400  31.540  28.285  1.00  0.00     0.034 A 
BRANCH  52  66
ATOM     66  C   UNL A   1      50.481  27.759  25.538  1.00  0.00     0.023 A 
ATOM     67  C   UNL A   1      50.845  27.833  24.181  1.00  0.00     0.031 A 
ATOM     68  C   UNL A   1      51.480  27.422  26.468  1.00  0.00     0.131 A 
ATOM     69  C   UNL A   1      52.150  27.501  23.788  1.00  0.00     0.055 A 
ATOM     70  C   UNL A   1      52.799  27.179  26.079  1.00  0.00     0.041 A 
ATOM     71  F   UNL A   1      51.188  27.307  27.773  1.00  0.00    -0.206 F 
ATOM     72  C   UNL A   1      53.137  27.204  24.731  1.00  0.00     0.022 A 
BRANCH  69  73
ATOM     73  S   UNL A   1      52.501  27.315  22.018  1.00  0.00     0.124 S 
ATOM     74  O   UNL A   1      52.835  28.687  21.639  1.00  0.00    -0.237 OA
ATOM     75  O   UNL A   1      53.605  26.364  22.014  1.00  0.00    -0.237 OA
ATOM     76  O   UNL A   1      51.242  26.816  21.469  1.00  0.00    -0.744 OA
ENDBRANCH  69  73
ENDBRANCH  52  66
BRANCH  53  77
ATOM     77  C   UNL A   1      41.024  28.758  28.731  1.00  0.00     0.023 A 
ATOM     78  C   UNL A   1      40.746  28.675  30.105  1.00  0.00     0.031 A 
ATOM     79  C   UNL A   1      39.937  28.920  27.852  1.00  0.00     0.131 A 
ATOM     80  C   UNL A   1      39.417  28.702  30.556  1.00  0.00     0.055 A 
ATOM     81  C   UNL A   1      38.621  29.008  28.310  1.00  0.00     0.041 A 
ATOM     82  F   UNL A   1      40.140  28.996  26.526  1.00  0.00    -0.206 F 
ATOM     83  C   UNL A   1      38.354  28.885  29.670  1.00  0.00     0.022 A 
BRANCH  80  84
ATOM     84  S   UNL A   1      39.088  28.390  32.313  1.00  0.00     0.124 S 
ATOM     85  O   UNL A   1      38.136  27.287  32.243  1.00  0.00    -0.237 OA
ATOM     86  O   UNL A   1      40.418  28.058  32.814  1.00  0.00    -0.237 OA
ATOM     87  O   UNL A   1      38.542  29.659  32.788  1.00  0.00    -0.744 OA
ENDBRANCH  80  84
ENDBRANCH  53  77
BRANCH  65  88
ATOM     88  C   UNL A   1      46.598  32.964  28.754  1.00  0.00     0.023 A 
ATOM     89  C   UNL A   1      46.245  34.068  27.958  1.00  0.00     0.031 A 
ATOM     90  C   UNL A   1      47.153  33.217  30.022  1.00  0.00     0.131 A 
ATOM     91  C   UNL A   1      46.504  35.370  28.414  1.00  0.00     0.055 A 
ATOM     92  C   UNL A   1      47.342  34.515  30.500  1.00  0.00     0.041 A 
ATOM     93  F   UNL A   1      47.513  32.203  30.826  1.00  0.00    -0.206 F 
ATOM     94  C   UNL A   1      47.029  35.600  29.689  1.00  0.00     0.022 A 
BRANCH  91  95
ATOM     95  S   UNL A   1      46.241  36.760  27.279  1.00  0.00     0.124 S 
ATOM     96  O   UNL A   1      46.594  37.903  28.116  1.00  0.00    -0.237 OA
ATOM     97  O   UNL A   1      47.167  36.456  26.194  1.00  0.00    -0.237 OA
ATOM     98  O   UNL A   1      44.825  36.659  26.933  1.00  0.00    -0.744 OA
ENDBRANCH  91  95
ENDBRANCH  65  88
ENDBRANCH  39  40
ENDBRANCH  32  34
ENDBRANCH  31  32
ENDBRANCH  30  31
ENDBRANCH  29  30
ENDBRANCH  28  29
ENDBRANCH  27  28
ENDBRANCH  26  27
ENDBRANCH  25  26
ENDBRANCH   1  25
TORSDOF 27
ENDMDL
