MODEL 1
REMARK VINA RESULT:      -9.3      0.000      0.000
REMARK SMILES Nc1ccc([C@H]([NH3+])C(=O)OCCOCCOCCOCCOC(=O)c2ccc(-c3c4nc(c(-c5cc(S(=O)(=O)[O-])ccc5F)c5ccc([nH]5)c(-c5cc(S(=O)(=O)[O-])ccc5F)c5nc(c(-c6cc(S(=O)(=O)[O-])ccc6F)c6ccc3[nH]6)C=C5)C=C4)cc2)cc1C(F)(F)F
REMARK SMILES IDX 17 1 16 2 15 3 14 4 13 5 12 6 11 7 10 8 8 9 9 10 6 11 5 12
REMARK SMILES IDX 2 13 3 14 89 15 4 16 88 17 1 18 90 21 91 22 92 23 93 24 7 25
REMARK SMILES IDX 18 29 19 30 20 31 21 32 22 33 23 34 24 35 25 36 26 37 87 38
REMARK SMILES IDX 27 39 86 40 28 41 29 42 30 43 80 44 31 45 85 46 79 47 81 48
REMARK SMILES IDX 32 49 84 50 78 51 77 52 33 54 65 55 45 56 64 57 46 58 49 59
REMARK SMILES IDX 63 60 82 61 47 62 48 63 62 65 83 66 50 67 34 68 35 69 43 70
REMARK SMILES IDX 36 71 42 72 44 73 41 74 37 75 38 76 39 77 40 78 66 79 67 80
REMARK SMILES IDX 75 81 68 82 74 83 76 84 73 85 69 86 70 87 71 88 72 89 51 90
REMARK SMILES IDX 52 91 60 92 53 93 59 94 61 95 58 96 54 97 55 98 56 99 57 100
REMARK H PARENT 1 19 1 20 7 26 7 27 7 28 81 53 49 64
REMARK Flexibility Score: inf
ROOT
ATOM      1  C   UNL A   1      42.102  19.835  26.165  1.00  0.00     0.188 C 
ENDROOT
BRANCH   1   2
ATOM      2  O   UNL A   1      40.730  19.575  25.897  1.00  0.00    -0.377 OA
BRANCH   2   3
ATOM      3  C   UNL A   1      39.849  20.651  26.146  1.00  0.00     0.188 C 
BRANCH   3   4
ATOM      4  C   UNL A   1      38.607  20.688  25.239  1.00  0.00     0.188 C 
BRANCH   4   5
ATOM      5  O   UNL A   1      37.482  21.511  25.527  1.00  0.00    -0.376 OA
BRANCH   5   6
ATOM      6  C   UNL A   1      37.129  22.616  24.707  1.00  0.00     0.202 C 
BRANCH   6   7
ATOM      7  C   UNL A   1      35.680  23.112  24.598  1.00  0.00     0.261 C 
BRANCH   7   8
ATOM      8  O   UNL A   1      34.684  22.102  24.414  1.00  0.00    -0.459 OA
BRANCH   8   9
ATOM      9  C   UNL A   1      33.491  22.542  23.931  1.00  0.00     0.369 C 
ATOM     10  O   UNL A   1      32.394  22.188  24.358  1.00  0.00    -0.245 OA
BRANCH   9  11
ATOM     11  C   UNL A   1      33.647  23.477  22.715  1.00  0.00     0.323 C 
BRANCH  11  12
ATOM     12  C   UNL A   1      33.059  24.822  23.033  1.00  0.00     0.021 A 
ATOM     13  C   UNL A   1      32.084  27.365  23.716  1.00  0.00     0.044 A 
ATOM     14  C   UNL A   1      32.841  27.163  22.550  1.00  0.00     0.026 A 
ATOM     15  C   UNL A   1      31.773  26.267  24.529  1.00  0.00     0.079 A 
ATOM     16  C   UNL A   1      33.330  25.908  22.210  1.00  0.00     0.013 A 
ATOM     17  C   UNL A   1      32.257  25.000  24.169  1.00  0.00     0.025 A 
BRANCH  13  18
ATOM     18  N   UNL A   1      31.633  28.644  23.985  1.00  0.00    -0.398 N 
ATOM     19  H   UNL A   1      31.882  29.087  24.829  1.00  0.00     0.156 HD
ATOM     20  H   UNL A   1      31.063  29.113  23.333  1.00  0.00     0.156 HD
ENDBRANCH  13  18
BRANCH  15  21
ATOM     21  C   UNL A   1      30.974  26.353  25.804  1.00  0.00     0.418 C 
ATOM     22  F   UNL A   1      31.479  25.551  26.785  1.00  0.00    -0.166 F 
ATOM     23  F   UNL A   1      30.975  27.614  26.323  1.00  0.00    -0.166 F 
ATOM     24  F   UNL A   1      29.661  26.007  25.680  1.00  0.00    -0.166 F 
ENDBRANCH  15  21
ENDBRANCH  11  12
BRANCH  11  25
ATOM     25  N   UNL A   1      33.088  22.987  21.444  1.00  0.00    -0.342 N 
ATOM     26  H   UNL A   1      33.811  23.004  20.725  1.00  0.00     0.345 HD
ATOM     27  H   UNL A   1      32.312  23.587  21.160  1.00  0.00     0.345 HD
ATOM     28  H   UNL A   1      32.752  22.032  21.565  1.00  0.00     0.345 HD
ENDBRANCH  11  25
ENDBRANCH   9  11
ENDBRANCH   8   9
ENDBRANCH   7   8
ENDBRANCH   6   7
ENDBRANCH   5   6
ENDBRANCH   4   5
ENDBRANCH   3   4
ENDBRANCH   2   3
ENDBRANCH   1   2
BRANCH   1  29
ATOM     29  C   UNL A   1      43.072  18.629  26.149  1.00  0.00     0.188 C 
BRANCH  29  30
ATOM     30  O   UNL A   1      44.440  18.967  25.955  1.00  0.00    -0.376 OA
BRANCH  30  31
ATOM     31  C   UNL A   1      44.788  19.887  24.930  1.00  0.00     0.202 C 
BRANCH  31  32
ATOM     32  C   UNL A   1      45.372  21.255  25.332  1.00  0.00     0.261 C 
BRANCH  32  33
ATOM     33  O   UNL A   1      44.472  22.188  25.944  1.00  0.00    -0.460 OA
BRANCH  33  34
ATOM     34  C   UNL A   1      43.846  23.073  25.139  1.00  0.00     0.338 C 
ATOM     35  O   UNL A   1      43.700  22.980  23.931  1.00  0.00    -0.246 OA
BRANCH  34  36
ATOM     36  C   UNL A   1      43.173  24.070  25.997  1.00  0.00     0.060 A 
ATOM     37  C   UNL A   1      43.502  25.424  25.849  1.00  0.00     0.016 A 
ATOM     38  C   UNL A   1      42.215  23.675  26.936  1.00  0.00     0.016 A 
ATOM     39  C   UNL A   1      42.906  26.384  26.667  1.00  0.00     0.010 A 
ATOM     40  C   UNL A   1      41.640  24.634  27.774  1.00  0.00     0.010 A 
ATOM     41  C   UNL A   1      42.012  25.988  27.669  1.00  0.00    -0.014 A 
BRANCH  41  42
ATOM     42  C   UNL A   1      41.650  26.943  28.744  1.00  0.00     0.031 A 
ATOM     43  C   UNL A   1      42.483  26.944  29.997  1.00  0.00     0.074 A 
ATOM     44  C   UNL A   1      40.630  27.809  28.606  1.00  0.00     0.049 A 
ATOM     45  N   UNL A   1      42.333  27.630  31.099  1.00  0.00    -0.248 NA
ATOM     46  C   UNL A   1      43.643  26.037  30.005  1.00  0.00     0.031 C 
ATOM     47  C   UNL A   1      39.792  27.944  27.417  1.00  0.00     0.029 A 
ATOM     48  N   UNL A   1      40.123  28.735  29.483  1.00  0.00    -0.354 N 
ATOM     49  C   UNL A   1      43.370  27.232  31.935  1.00  0.00     0.074 A 
ATOM     50  C   UNL A   1      44.118  26.217  31.226  1.00  0.00     0.031 C 
ATOM     51  C   UNL A   1      38.865  28.891  27.644  1.00  0.00     0.029 A 
ATOM     52  C   UNL A   1      39.015  29.396  29.008  1.00  0.00     0.049 A 
ATOM     53  H   UNL A   1      40.516  28.910  30.369  1.00  0.00     0.167 HD
ATOM     54  C   UNL A   1      43.675  27.679  33.178  1.00  0.00     0.034 A 
ATOM     55  C   UNL A   1      38.198  30.281  29.618  1.00  0.00     0.034 A 
ATOM     56  C   UNL A   1      42.909  28.682  33.875  1.00  0.00     0.049 A 
ATOM     57  C   UNL A   1      38.495  30.690  31.044  1.00  0.00     0.074 A 
ATOM     58  C   UNL A   1      43.131  29.216  35.132  1.00  0.00     0.029 A 
ATOM     59  N   UNL A   1      41.760  29.290  33.384  1.00  0.00    -0.354 N 
ATOM     60  N   UNL A   1      39.478  30.308  31.828  1.00  0.00    -0.248 NA
ATOM     61  C   UNL A   1      37.574  31.652  31.664  1.00  0.00     0.031 C 
ATOM     62  C   UNL A   1      42.073  30.078  35.436  1.00  0.00     0.029 A 
ATOM     63  C   UNL A   1      41.241  30.163  34.330  1.00  0.00     0.049 A 
ATOM     64  H   UNL A   1      41.371  29.126  32.495  1.00  0.00     0.167 HD
ATOM     65  C   UNL A   1      39.314  31.016  33.018  1.00  0.00     0.074 A 
ATOM     66  C   UNL A   1      38.143  31.851  32.844  1.00  0.00     0.031 C 
ATOM     67  C   UNL A   1      40.067  30.986  34.148  1.00  0.00     0.034 A 
BRANCH  54  68
ATOM     68  C   UNL A   1      44.849  27.035  33.879  1.00  0.00     0.023 A 
ATOM     69  C   UNL A   1      44.703  25.881  34.667  1.00  0.00     0.031 A 
ATOM     70  C   UNL A   1      46.129  27.610  33.787  1.00  0.00     0.131 A 
ATOM     71  C   UNL A   1      45.798  25.385  35.394  1.00  0.00     0.055 A 
ATOM     72  C   UNL A   1      47.233  27.060  34.440  1.00  0.00     0.041 A 
ATOM     73  F   UNL A   1      46.325  28.730  33.073  1.00  0.00    -0.206 F 
ATOM     74  C   UNL A   1      47.068  25.950  35.262  1.00  0.00     0.022 A 
BRANCH  71  75
ATOM     75  S   UNL A   1      45.502  24.097  36.636  1.00  0.00     0.124 S 
ATOM     76  O   UNL A   1      44.737  24.829  37.643  1.00  0.00    -0.237 OA
ATOM     77  O   UNL A   1      44.764  23.093  35.879  1.00  0.00    -0.237 OA
ATOM     78  O   UNL A   1      46.847  23.705  37.050  1.00  0.00    -0.744 OA
ENDBRANCH  71  75
ENDBRANCH  54  68
BRANCH  55  79
ATOM     79  C   UNL A   1      36.995  30.812  28.912  1.00  0.00     0.023 A 
ATOM     80  C   UNL A   1      35.970  29.959  28.475  1.00  0.00     0.031 A 
ATOM     81  C   UNL A   1      36.883  32.183  28.610  1.00  0.00     0.131 A 
ATOM     82  C   UNL A   1      34.901  30.476  27.724  1.00  0.00     0.055 A 
ATOM     83  C   UNL A   1      35.789  32.700  27.916  1.00  0.00     0.041 A 
ATOM     84  F   UNL A   1      37.840  33.043  28.995  1.00  0.00    -0.206 F 
ATOM     85  C   UNL A   1      34.796  31.842  27.456  1.00  0.00     0.022 A 
BRANCH  82  86
ATOM     86  S   UNL A   1      33.696  29.318  27.017  1.00  0.00     0.124 S 
ATOM     87  O   UNL A   1      32.884  30.206  26.191  1.00  0.00    -0.237 OA
ATOM     88  O   UNL A   1      34.558  28.384  26.300  1.00  0.00    -0.237 OA
ATOM     89  O   UNL A   1      33.024  28.767  28.191  1.00  0.00    -0.744 OA
ENDBRANCH  82  86
ENDBRANCH  55  79
BRANCH  67  90
ATOM     90  C   UNL A   1      39.685  31.930  35.265  1.00  0.00     0.023 A 
ATOM     91  C   UNL A   1      40.193  33.238  35.347  1.00  0.00     0.031 A 
ATOM     92  C   UNL A   1      38.786  31.509  36.265  1.00  0.00     0.131 A 
ATOM     93  C   UNL A   1      39.845  34.057  36.432  1.00  0.00     0.055 A 
ATOM     94  C   UNL A   1      38.390  32.352  37.303  1.00  0.00     0.041 A 
ATOM     95  F   UNL A   1      38.272  30.269  36.242  1.00  0.00    -0.206 F 
ATOM     96  C   UNL A   1      38.930  33.629  37.399  1.00  0.00     0.022 A 
BRANCH  93  97
ATOM     97  S   UNL A   1      40.681  35.656  36.623  1.00  0.00     0.124 S 
ATOM     98  O   UNL A   1      40.900  35.713  38.064  1.00  0.00    -0.237 OA
ATOM     99  O   UNL A   1      41.876  35.484  35.802  1.00  0.00    -0.237 OA
ATOM    100  O   UNL A   1      39.707  36.616  36.105  1.00  0.00    -0.744 OA
ENDBRANCH  93  97
ENDBRANCH  67  90
ENDBRANCH  41  42
ENDBRANCH  34  36
ENDBRANCH  33  34
ENDBRANCH  32  33
ENDBRANCH  31  32
ENDBRANCH  30  31
ENDBRANCH  29  30
ENDBRANCH   1  29
TORSDOF 27
ENDMDL
MODEL 2
REMARK VINA RESULT:      -9.1      3.343      4.452
REMARK SMILES Nc1ccc([C@H]([NH3+])C(=O)OCCOCCOCCOCCOC(=O)c2ccc(-c3c4nc(c(-c5cc(S(=O)(=O)[O-])ccc5F)c5ccc([nH]5)c(-c5cc(S(=O)(=O)[O-])ccc5F)c5nc(c(-c6cc(S(=O)(=O)[O-])ccc6F)c6ccc3[nH]6)C=C5)C=C4)cc2)cc1C(F)(F)F
REMARK SMILES IDX 17 1 16 2 15 3 14 4 13 5 12 6 11 7 10 8 8 9 9 10 6 11 5 12
REMARK SMILES IDX 2 13 3 14 89 15 4 16 88 17 1 18 90 21 91 22 92 23 93 24 7 25
REMARK SMILES IDX 18 29 19 30 20 31 21 32 22 33 23 34 24 35 25 36 26 37 87 38
REMARK SMILES IDX 27 39 86 40 28 41 29 42 30 43 80 44 31 45 85 46 79 47 81 48
REMARK SMILES IDX 32 49 84 50 78 51 77 52 33 54 65 55 45 56 64 57 46 58 49 59
REMARK SMILES IDX 63 60 82 61 47 62 48 63 62 65 83 66 50 67 34 68 35 69 43 70
REMARK SMILES IDX 36 71 42 72 44 73 41 74 37 75 38 76 39 77 40 78 66 79 67 80
REMARK SMILES IDX 75 81 68 82 74 83 76 84 73 85 69 86 70 87 71 88 72 89 51 90
REMARK SMILES IDX 52 91 60 92 53 93 59 94 61 95 58 96 54 97 55 98 56 99 57 100
REMARK H PARENT 1 19 1 20 7 26 7 27 7 28 81 53 49 64
REMARK Flexibility Score: inf
ROOT
ATOM      1  C   UNL A   1      42.112  19.761  26.282  1.00  0.00     0.188 C 
ENDROOT
BRANCH   1   2
ATOM      2  O   UNL A   1      40.700  19.863  26.149  1.00  0.00    -0.377 OA
BRANCH   2   3
ATOM      3  C   UNL A   1      40.120  21.023  26.706  1.00  0.00     0.188 C 
BRANCH   3   4
ATOM      4  C   UNL A   1      39.114  21.742  25.790  1.00  0.00     0.188 C 
BRANCH   4   5
ATOM      5  O   UNL A   1      38.240  22.758  26.271  1.00  0.00    -0.376 OA
BRANCH   5   6
ATOM      6  C   UNL A   1      37.425  23.526  25.397  1.00  0.00     0.202 C 
BRANCH   6   7
ATOM      7  C   UNL A   1      36.028  24.009  25.810  1.00  0.00     0.261 C 
BRANCH   7   8
ATOM      8  O   UNL A   1      35.123  22.997  26.263  1.00  0.00    -0.459 OA
BRANCH   8   9
ATOM      9  C   UNL A   1      33.933  22.944  25.606  1.00  0.00     0.369 C 
ATOM     10  O   UNL A   1      33.573  23.750  24.753  1.00  0.00    -0.245 OA
BRANCH   9  11
ATOM     11  C   UNL A   1      33.024  21.804  26.109  1.00  0.00     0.323 C 
BRANCH  11  12
ATOM     12  C   UNL A   1      32.837  20.788  25.019  1.00  0.00     0.021 A 
ATOM     13  C   UNL A   1      32.347  18.859  23.038  1.00  0.00     0.044 A 
ATOM     14  C   UNL A   1      32.056  20.215  22.822  1.00  0.00     0.026 A 
ATOM     15  C   UNL A   1      32.935  18.469  24.250  1.00  0.00     0.079 A 
ATOM     16  C   UNL A   1      32.292  21.174  23.800  1.00  0.00     0.013 A 
ATOM     17  C   UNL A   1      33.185  19.446  25.225  1.00  0.00     0.025 A 
BRANCH  13  18
ATOM     18  N   UNL A   1      32.084  17.966  22.016  1.00  0.00    -0.398 N 
ATOM     19  H   UNL A   1      31.260  17.427  22.032  1.00  0.00     0.156 HD
ATOM     20  H   UNL A   1      32.721  17.868  21.271  1.00  0.00     0.156 HD
ENDBRANCH  13  18
BRANCH  15  21
ATOM     21  C   UNL A   1      33.291  17.048  24.604  1.00  0.00     0.418 C 
ATOM     22  F   UNL A   1      33.323  16.236  23.508  1.00  0.00    -0.166 F 
ATOM     23  F   UNL A   1      34.530  16.957  25.166  1.00  0.00    -0.166 F 
ATOM     24  F   UNL A   1      32.441  16.449  25.486  1.00  0.00    -0.166 F 
ENDBRANCH  15  21
ENDBRANCH  11  12
BRANCH  11  25
ATOM     25  N   UNL A   1      31.708  22.206  26.632  1.00  0.00    -0.342 N 
ATOM     26  H   UNL A   1      31.052  21.431  26.538  1.00  0.00     0.345 HD
ATOM     27  H   UNL A   1      31.363  23.009  26.104  1.00  0.00     0.345 HD
ATOM     28  H   UNL A   1      31.795  22.460  27.616  1.00  0.00     0.345 HD
ENDBRANCH  11  25
ENDBRANCH   9  11
ENDBRANCH   8   9
ENDBRANCH   7   8
ENDBRANCH   6   7
ENDBRANCH   5   6
ENDBRANCH   4   5
ENDBRANCH   3   4
ENDBRANCH   2   3
ENDBRANCH   1   2
BRANCH   1  29
ATOM     29  C   UNL A   1      42.741  18.354  26.149  1.00  0.00     0.188 C 
BRANCH  29  30
ATOM     30  O   UNL A   1      44.065  18.341  25.628  1.00  0.00    -0.376 OA
BRANCH  30  31
ATOM     31  C   UNL A   1      44.324  18.960  24.376  1.00  0.00     0.202 C 
BRANCH  31  32
ATOM     32  C   UNL A   1      45.387  20.073  24.309  1.00  0.00     0.261 C 
BRANCH  32  33
ATOM     33  O   UNL A   1      45.131  21.259  25.071  1.00  0.00    -0.460 OA
BRANCH  33  34
ATOM     34  C   UNL A   1      44.587  22.313  24.425  1.00  0.00     0.338 C 
ATOM     35  O   UNL A   1      44.295  22.367  23.241  1.00  0.00    -0.246 OA
BRANCH  34  36
ATOM     36  C   UNL A   1      44.197  23.315  25.439  1.00  0.00     0.060 A 
ATOM     37  C   UNL A   1      44.470  24.668  25.193  1.00  0.00     0.016 A 
ATOM     38  C   UNL A   1      43.557  22.927  26.619  1.00  0.00     0.016 A 
ATOM     39  C   UNL A   1      44.142  25.633  26.145  1.00  0.00     0.010 A 
ATOM     40  C   UNL A   1      43.255  23.892  27.584  1.00  0.00     0.010 A 
ATOM     41  C   UNL A   1      43.583  25.244  27.367  1.00  0.00    -0.014 A 
BRANCH  41  42
ATOM     42  C   UNL A   1      43.554  26.205  28.497  1.00  0.00     0.031 A 
ATOM     43  C   UNL A   1      44.768  26.290  29.382  1.00  0.00     0.074 A 
ATOM     44  C   UNL A   1      42.496  27.005  28.718  1.00  0.00     0.049 A 
ATOM     45  N   UNL A   1      44.965  26.995  30.464  1.00  0.00    -0.248 NA
ATOM     46  C   UNL A   1      45.915  25.453  28.990  1.00  0.00     0.031 C 
ATOM     47  C   UNL A   1      41.290  27.058  27.893  1.00  0.00     0.029 A 
ATOM     48  N   UNL A   1      42.265  27.924  29.711  1.00  0.00    -0.354 N 
ATOM     49  C   UNL A   1      46.251  26.683  30.889  1.00  0.00     0.074 A 
ATOM     50  C   UNL A   1      46.771  25.695  29.969  1.00  0.00     0.031 C 
ATOM     51  C   UNL A   1      40.440  27.954  28.424  1.00  0.00     0.029 A 
ATOM     52  C   UNL A   1      41.020  28.504  29.648  1.00  0.00     0.049 A 
ATOM     53  H   UNL A   1      42.928  28.146  30.405  1.00  0.00     0.167 HD
ATOM     54  C   UNL A   1      46.939  27.181  31.946  1.00  0.00     0.034 A 
ATOM     55  C   UNL A   1      40.410  29.356  30.500  1.00  0.00     0.034 A 
ATOM     56  C   UNL A   1      46.398  28.156  32.861  1.00  0.00     0.049 A 
ATOM     57  C   UNL A   1      41.155  29.820  31.731  1.00  0.00     0.074 A 
ATOM     58  C   UNL A   1      47.007  28.736  33.960  1.00  0.00     0.029 A 
ATOM     59  N   UNL A   1      45.113  28.681  32.797  1.00  0.00    -0.354 N 
ATOM     60  N   UNL A   1      42.372  29.519  32.126  1.00  0.00    -0.248 NA
ATOM     61  C   UNL A   1      40.446  30.742  32.627  1.00  0.00     0.031 C 
ATOM     62  C   UNL A   1      46.065  29.541  34.608  1.00  0.00     0.029 A 
ATOM     63  C   UNL A   1      44.898  29.547  33.860  1.00  0.00     0.049 A 
ATOM     64  H   UNL A   1      44.451  28.470  32.100  1.00  0.00     0.167 HD
ATOM     65  C   UNL A   1      42.585  30.248  33.296  1.00  0.00     0.074 A 
ATOM     66  C   UNL A   1      41.374  31.007  33.536  1.00  0.00     0.031 C 
ATOM     67  C   UNL A   1      43.683  30.293  34.093  1.00  0.00     0.034 A 
BRANCH  54  68
ATOM     68  C   UNL A   1      48.321  26.627  32.198  1.00  0.00     0.023 A 
ATOM     69  C   UNL A   1      48.523  25.381  32.817  1.00  0.00     0.031 A 
ATOM     70  C   UNL A   1      49.458  27.378  31.849  1.00  0.00     0.131 A 
ATOM     71  C   UNL A   1      49.823  24.959  33.136  1.00  0.00     0.055 A 
ATOM     72  C   UNL A   1      50.751  26.912  32.089  1.00  0.00     0.041 A 
ATOM     73  F   UNL A   1      49.329  28.589  31.283  1.00  0.00    -0.206 F 
ATOM     74  C   UNL A   1      50.940  25.704  32.751  1.00  0.00     0.022 A 
BRANCH  71  75
ATOM     75  S   UNL A   1      50.025  23.509  34.207  1.00  0.00     0.124 S 
ATOM     76  O   UNL A   1      51.145  23.919  35.051  1.00  0.00    -0.237 OA
ATOM     77  O   UNL A   1      48.728  23.420  34.865  1.00  0.00    -0.237 OA
ATOM     78  O   UNL A   1      50.326  22.430  33.268  1.00  0.00    -0.744 OA
ENDBRANCH  71  75
ENDBRANCH  54  68
BRANCH  55  79
ATOM     79  C   UNL A   1      39.005  29.795  30.253  1.00  0.00     0.023 A 
ATOM     80  C   UNL A   1      38.719  31.064  29.726  1.00  0.00     0.031 A 
ATOM     81  C   UNL A   1      37.920  28.966  30.598  1.00  0.00     0.131 A 
ATOM     82  C   UNL A   1      37.384  31.485  29.601  1.00  0.00     0.055 A 
ATOM     83  C   UNL A   1      36.596  29.367  30.414  1.00  0.00     0.041 A 
ATOM     84  F   UNL A   1      38.135  27.745  31.115  1.00  0.00    -0.206 F 
ATOM     85  C   UNL A   1      36.322  30.639  29.926  1.00  0.00     0.022 A 
BRANCH  82  86
ATOM     86  S   UNL A   1      37.058  33.197  29.096  1.00  0.00     0.124 S 
ATOM     87  O   UNL A   1      36.234  33.002  27.908  1.00  0.00    -0.237 OA
ATOM     88  O   UNL A   1      36.377  33.734  30.268  1.00  0.00    -0.237 OA
ATOM     89  O   UNL A   1      38.392  33.739  28.849  1.00  0.00    -0.744 OA
ENDBRANCH  82  86
ENDBRANCH  55  79
BRANCH  67  90
ATOM     90  C   UNL A   1      43.651  31.243  35.269  1.00  0.00     0.023 A 
ATOM     91  C   UNL A   1      44.117  32.566  35.175  1.00  0.00     0.031 A 
ATOM     92  C   UNL A   1      43.136  30.813  36.507  1.00  0.00     0.131 A 
ATOM     93  C   UNL A   1      44.111  33.392  36.310  1.00  0.00     0.055 A 
ATOM     94  C   UNL A   1      43.068  31.660  37.613  1.00  0.00     0.041 A 
ATOM     95  F   UNL A   1      42.681  29.558  36.658  1.00  0.00    -0.206 F 
ATOM     96  C   UNL A   1      43.570  32.953  37.523  1.00  0.00     0.022 A 
BRANCH  93  97
ATOM     97  S   UNL A   1      44.913  35.016  36.213  1.00  0.00     0.124 S 
ATOM     98  O   UNL A   1      45.402  35.031  34.839  1.00  0.00    -0.237 OA
ATOM     99  O   UNL A   1      43.811  35.927  36.508  1.00  0.00    -0.237 OA
ATOM    100  O   UNL A   1      45.952  34.948  37.240  1.00  0.00    -0.744 OA
ENDBRANCH  93  97
ENDBRANCH  67  90
ENDBRANCH  41  42
ENDBRANCH  34  36
ENDBRANCH  33  34
ENDBRANCH  32  33
ENDBRANCH  31  32
ENDBRANCH  30  31
ENDBRANCH  29  30
ENDBRANCH   1  29
TORSDOF 27
ENDMDL
MODEL 3
REMARK VINA RESULT:      -8.7      7.162     10.324
REMARK SMILES Nc1ccc([C@H]([NH3+])C(=O)OCCOCCOCCOCCOC(=O)c2ccc(-c3c4nc(c(-c5cc(S(=O)(=O)[O-])ccc5F)c5ccc([nH]5)c(-c5cc(S(=O)(=O)[O-])ccc5F)c5nc(c(-c6cc(S(=O)(=O)[O-])ccc6F)c6ccc3[nH]6)C=C5)C=C4)cc2)cc1C(F)(F)F
REMARK SMILES IDX 17 1 16 2 15 3 14 4 13 5 12 6 11 7 10 8 8 9 9 10 6 11 5 12
REMARK SMILES IDX 2 13 3 14 89 15 4 16 88 17 1 18 90 21 91 22 92 23 93 24 7 25
REMARK SMILES IDX 18 29 19 30 20 31 21 32 22 33 23 34 24 35 25 36 26 37 87 38
REMARK SMILES IDX 27 39 86 40 28 41 29 42 30 43 80 44 31 45 85 46 79 47 81 48
REMARK SMILES IDX 32 49 84 50 78 51 77 52 33 54 65 55 45 56 64 57 46 58 49 59
REMARK SMILES IDX 63 60 82 61 47 62 48 63 62 65 83 66 50 67 34 68 35 69 43 70
REMARK SMILES IDX 36 71 42 72 44 73 41 74 37 75 38 76 39 77 40 78 66 79 67 80
REMARK SMILES IDX 75 81 68 82 74 83 76 84 73 85 69 86 70 87 71 88 72 89 51 90
REMARK SMILES IDX 52 91 60 92 53 93 59 94 61 95 58 96 54 97 55 98 56 99 57 100
REMARK H PARENT 1 19 1 20 7 26 7 27 7 28 81 53 49 64
REMARK Flexibility Score: inf
ROOT
ATOM      1  C   UNL A   1      34.216  32.502  28.436  1.00  0.00     0.188 C 
ENDROOT
BRANCH   1   2
ATOM      2  O   UNL A   1      35.165  31.751  27.689  1.00  0.00    -0.377 OA
BRANCH   2   3
ATOM      3  C   UNL A   1      35.191  30.365  27.961  1.00  0.00     0.188 C 
BRANCH   3   4
ATOM      4  C   UNL A   1      34.516  29.488  26.893  1.00  0.00     0.188 C 
BRANCH   4   5
ATOM      5  O   UNL A   1      33.661  28.402  27.233  1.00  0.00    -0.376 OA
BRANCH   5   6
ATOM      6  C   UNL A   1      32.568  28.018  26.410  1.00  0.00     0.202 C 
BRANCH   6   7
ATOM      7  C   UNL A   1      31.735  26.763  26.705  1.00  0.00     0.261 C 
BRANCH   7   8
ATOM      8  O   UNL A   1      32.290  25.522  26.255  1.00  0.00    -0.459 OA
BRANCH   8   9
ATOM      9  C   UNL A   1      31.388  24.530  26.027  1.00  0.00     0.369 C 
ATOM     10  O   UNL A   1      30.587  24.113  26.860  1.00  0.00    -0.245 OA
BRANCH   9  11
ATOM     11  C   UNL A   1      31.531  23.905  24.625  1.00  0.00     0.323 C 
BRANCH  11  12
ATOM     12  C   UNL A   1      32.548  22.800  24.666  1.00  0.00     0.021 A 
ATOM     13  C   UNL A   1      34.468  20.764  24.895  1.00  0.00     0.044 A 
ATOM     14  C   UNL A   1      33.096  20.489  25.016  1.00  0.00     0.026 A 
ATOM     15  C   UNL A   1      34.882  22.073  24.611  1.00  0.00     0.079 A 
ATOM     16  C   UNL A   1      32.142  21.494  24.908  1.00  0.00     0.013 A 
ATOM     17  C   UNL A   1      33.911  23.078  24.488  1.00  0.00     0.025 A 
BRANCH  13  18
ATOM     18  N   UNL A   1      35.355  19.711  25.014  1.00  0.00    -0.398 N 
ATOM     19  H   UNL A   1      36.154  19.672  24.440  1.00  0.00     0.156 HD
ATOM     20  H   UNL A   1      35.189  18.998  25.674  1.00  0.00     0.156 HD
ENDBRANCH  13  18
BRANCH  15  21
ATOM     21  C   UNL A   1      36.321  22.496  24.462  1.00  0.00     0.418 C 
ATOM     22  F   UNL A   1      36.468  23.850  24.508  1.00  0.00    -0.166 F 
ATOM     23  F   UNL A   1      37.103  22.006  25.467  1.00  0.00    -0.166 F 
ATOM     24  F   UNL A   1      36.918  22.095  23.304  1.00  0.00    -0.166 F 
ENDBRANCH  15  21
ENDBRANCH  11  12
BRANCH  11  25
ATOM     25  N   UNL A   1      31.861  24.833  23.531  1.00  0.00    -0.342 N 
ATOM     26  H   UNL A   1      32.279  25.679  23.917  1.00  0.00     0.345 HD
ATOM     27  H   UNL A   1      31.010  25.075  23.022  1.00  0.00     0.345 HD
ATOM     28  H   UNL A   1      32.522  24.387  22.894  1.00  0.00     0.345 HD
ENDBRANCH  11  25
ENDBRANCH   9  11
ENDBRANCH   8   9
ENDBRANCH   7   8
ENDBRANCH   6   7
ENDBRANCH   5   6
ENDBRANCH   4   5
ENDBRANCH   3   4
ENDBRANCH   2   3
ENDBRANCH   1   2
BRANCH   1  29
ATOM     29  C   UNL A   1      34.760  33.439  29.540  1.00  0.00     0.188 C 
BRANCH  29  30
ATOM     30  O   UNL A   1      34.089  33.339  30.791  1.00  0.00    -0.376 OA
BRANCH  30  31
ATOM     31  C   UNL A   1      34.764  32.754  31.895  1.00  0.00     0.202 C 
BRANCH  31  32
ATOM     32  C   UNL A   1      35.742  31.593  31.632  1.00  0.00     0.261 C 
BRANCH  32  33
ATOM     33  O   UNL A   1      36.843  31.456  32.541  1.00  0.00    -0.460 OA
BRANCH  33  34
ATOM     34  C   UNL A   1      37.556  30.311  32.489  1.00  0.00     0.338 C 
ATOM     35  O   UNL A   1      37.157  29.192  32.769  1.00  0.00    -0.246 OA
BRANCH  34  36
ATOM     36  C   UNL A   1      38.842  30.608  31.824  1.00  0.00     0.060 A 
ATOM     37  C   UNL A   1      39.937  30.998  32.608  1.00  0.00     0.016 A 
ATOM     38  C   UNL A   1      38.973  30.492  30.437  1.00  0.00     0.016 A 
ATOM     39  C   UNL A   1      41.153  31.314  32.005  1.00  0.00     0.010 A 
ATOM     40  C   UNL A   1      40.185  30.836  29.832  1.00  0.00     0.010 A 
ATOM     41  C   UNL A   1      41.268  31.287  30.611  1.00  0.00    -0.014 A 
BRANCH  41  42
ATOM     42  C   UNL A   1      42.428  31.943  29.959  1.00  0.00     0.031 A 
ATOM     43  C   UNL A   1      43.601  31.081  29.574  1.00  0.00     0.074 A 
ATOM     44  C   UNL A   1      42.436  33.259  29.687  1.00  0.00     0.049 A 
ATOM     45  N   UNL A   1      44.752  31.420  29.058  1.00  0.00    -0.248 NA
ATOM     46  C   UNL A   1      43.449  29.636  29.814  1.00  0.00     0.031 C 
ATOM     47  C   UNL A   1      41.336  34.183  29.956  1.00  0.00     0.029 A 
ATOM     48  N   UNL A   1      43.410  34.049  29.128  1.00  0.00    -0.354 N 
ATOM     49  C   UNL A   1      45.467  30.236  28.919  1.00  0.00     0.074 A 
ATOM     50  C   UNL A   1      44.633  29.176  29.443  1.00  0.00     0.031 C 
ATOM     51  C   UNL A   1      41.702  35.418  29.573  1.00  0.00     0.029 A 
ATOM     52  C   UNL A   1      43.077  35.382  29.074  1.00  0.00     0.049 A 
ATOM     53  H   UNL A   1      44.267  33.694  28.797  1.00  0.00     0.167 HD
ATOM     54  C   UNL A   1      46.704  30.048  28.397  1.00  0.00     0.034 A 
ATOM     55  C   UNL A   1      43.810  36.450  28.697  1.00  0.00     0.034 A 
ATOM     56  C   UNL A   1      47.527  31.120  27.892  1.00  0.00     0.049 A 
ATOM     57  C   UNL A   1      45.227  36.233  28.214  1.00  0.00     0.074 A 
ATOM     58  C   UNL A   1      48.790  31.045  27.333  1.00  0.00     0.029 A 
ATOM     59  N   UNL A   1      47.178  32.465  27.904  1.00  0.00    -0.354 N 
ATOM     60  N   UNL A   1      45.896  35.108  28.086  1.00  0.00    -0.248 NA
ATOM     61  C   UNL A   1      45.984  37.427  27.819  1.00  0.00     0.031 C 
ATOM     62  C   UNL A   1      49.239  32.346  27.088  1.00  0.00     0.029 A 
ATOM     63  C   UNL A   1      48.218  33.232  27.399  1.00  0.00     0.049 A 
ATOM     64  H   UNL A   1      46.318  32.822  28.224  1.00  0.00     0.167 HD
ATOM     65  C   UNL A   1      47.137  35.461  27.559  1.00  0.00     0.074 A 
ATOM     66  C   UNL A   1      47.120  36.899  27.386  1.00  0.00     0.031 C 
ATOM     67  C   UNL A   1      48.192  34.667  27.238  1.00  0.00     0.034 A 
BRANCH  54  68
ATOM     68  C   UNL A   1      47.256  28.642  28.407  1.00  0.00     0.023 A 
ATOM     69  C   UNL A   1      47.016  27.740  27.357  1.00  0.00     0.031 A 
ATOM     70  C   UNL A   1      48.003  28.185  29.508  1.00  0.00     0.131 A 
ATOM     71  C   UNL A   1      47.450  26.409  27.464  1.00  0.00     0.055 A 
ATOM     72  C   UNL A   1      48.509  26.886  29.567  1.00  0.00     0.041 A 
ATOM     73  F   UNL A   1      48.241  28.991  30.555  1.00  0.00    -0.206 F 
ATOM     74  C   UNL A   1      48.219  25.984  28.549  1.00  0.00     0.022 A 
BRANCH  71  75
ATOM     75  S   UNL A   1      46.854  25.203  26.246  1.00  0.00     0.124 S 
ATOM     76  O   UNL A   1      47.493  25.680  25.022  1.00  0.00    -0.237 OA
ATOM     77  O   UNL A   1      47.357  23.943  26.780  1.00  0.00    -0.237 OA
ATOM     78  O   UNL A   1      45.403  25.365  26.286  1.00  0.00    -0.744 OA
ENDBRANCH  71  75
ENDBRANCH  54  68
BRANCH  55  79
ATOM     79  C   UNL A   1      43.247  37.829  28.800  1.00  0.00     0.023 A 
ATOM     80  C   UNL A   1      42.493  38.389  27.757  1.00  0.00     0.031 A 
ATOM     81  C   UNL A   1      43.508  38.631  29.927  1.00  0.00     0.131 A 
ATOM     82  C   UNL A   1      42.064  39.724  27.841  1.00  0.00     0.055 A 
ATOM     83  C   UNL A   1      43.027  39.937  30.032  1.00  0.00     0.041 A 
ATOM     84  F   UNL A   1      44.232  38.150  30.950  1.00  0.00    -0.206 F 
ATOM     85  C   UNL A   1      42.312  40.495  28.978  1.00  0.00     0.022 A 
BRANCH  82  86
ATOM     86  S   UNL A   1      41.257  40.470  26.398  1.00  0.00     0.124 S 
ATOM     87  O   UNL A   1      40.721  39.295  25.720  1.00  0.00    -0.237 OA
ATOM     88  O   UNL A   1      40.279  41.354  27.022  1.00  0.00    -0.237 OA
ATOM     89  O   UNL A   1      42.353  41.145  25.707  1.00  0.00    -0.744 OA
ENDBRANCH  82  86
ENDBRANCH  55  79
BRANCH  67  90
ATOM     90  C   UNL A   1      49.395  35.330  26.607  1.00  0.00     0.023 A 
ATOM     91  C   UNL A   1      50.489  35.778  27.368  1.00  0.00     0.031 A 
ATOM     92  C   UNL A   1      49.447  35.512  25.211  1.00  0.00     0.131 A 
ATOM     93  C   UNL A   1      51.559  36.433  26.739  1.00  0.00     0.055 A 
ATOM     94  C   UNL A   1      50.544  36.101  24.584  1.00  0.00     0.041 A 
ATOM     95  F   UNL A   1      48.429  35.109  24.433  1.00  0.00    -0.206 F 
ATOM     96  C   UNL A   1      51.603  36.578  25.349  1.00  0.00     0.022 A 
BRANCH  93  97
ATOM     97  S   UNL A   1      52.849  37.186  27.767  1.00  0.00     0.124 S 
ATOM     98  O   UNL A   1      52.570  36.607  29.076  1.00  0.00    -0.237 OA
ATOM     99  O   UNL A   1      54.074  36.731  27.116  1.00  0.00    -0.237 OA
ATOM    100  O   UNL A   1      52.584  38.620  27.655  1.00  0.00    -0.744 OA
ENDBRANCH  93  97
ENDBRANCH  67  90
ENDBRANCH  41  42
ENDBRANCH  34  36
ENDBRANCH  33  34
ENDBRANCH  32  33
ENDBRANCH  31  32
ENDBRANCH  30  31
ENDBRANCH  29  30
ENDBRANCH   1  29
TORSDOF 27
ENDMDL
