MODEL 1
REMARK VINA RESULT:      -9.9      0.000      0.000
REMARK SMILES CN1C(=O)C[C@H](C(=O)OCCOCCOCCOCCOC(=O)c2ccc(-c3c4nc(c(-c5cc(S(=O)(=O)[O-])ccc5F)c5ccc([nH]5)c(-c5cc(S(=O)(=O)[O-])ccc5F)c5nc(c(-c6cc(S(=O)(=O)[O-])ccc6F)c6ccc3[nH]6)C=C5)C=C4)cc2)C12CC[NH+](Cc1cnn(-c3ccccc3F)c1)CC2
REMARK SMILES IDX 15 1 14 2 13 3 12 4 11 5 10 6 9 7 7 8 8 9 6 10 1 11 2 12
REMARK SMILES IDX 3 13 87 14 4 15 5 16 88 17 105 18 89 19 104 20 90 21 91 23
REMARK SMILES IDX 92 24 93 25 103 26 94 27 95 28 96 29 97 30 101 31 98 32
REMARK SMILES IDX 100 33 102 34 99 35 16 36 17 37 18 38 19 39 20 40 21 41
REMARK SMILES IDX 22 42 23 43 24 44 25 45 86 46 26 47 85 48 27 49 28 50 29 51
REMARK SMILES IDX 79 52 30 53 84 54 78 55 80 56 31 57 83 58 77 59 76 60 32 62
REMARK SMILES IDX 64 63 44 64 63 65 45 66 48 67 62 68 81 69 46 70 47 71 61 73
REMARK SMILES IDX 82 74 49 75 33 76 34 77 42 78 35 79 41 80 43 81 40 82 36 83
REMARK SMILES IDX 37 84 38 85 39 86 65 87 66 88 74 89 67 90 73 91 75 92 72 93
REMARK SMILES IDX 68 94 69 95 70 96 71 97 50 98 51 99 59 100 52 101 58 102
REMARK SMILES IDX 60 103 57 104 53 105 54 106 55 107 56 108
REMARK H PARENT 90 22 80 61 48 72
REMARK Flexibility Score: inf
ROOT
ATOM      1  O   UNL A   1      41.184  22.853  27.674  1.00  0.00    -0.377 OA
ENDROOT
BRANCH   1   2
ATOM      2  C   UNL A   1      40.600  23.394  26.485  1.00  0.00     0.188 C 
BRANCH   2   3
ATOM      3  C   UNL A   1      39.328  24.148  26.807  1.00  0.00     0.188 C 
BRANCH   3   4
ATOM      4  O   UNL A   1      38.168  23.731  26.116  1.00  0.00    -0.376 OA
BRANCH   4   5
ATOM      5  C   UNL A   1      37.849  22.335  26.163  1.00  0.00     0.202 C 
BRANCH   5   6
ATOM      6  C   UNL A   1      36.863  21.666  25.169  1.00  0.00     0.261 C 
BRANCH   6   7
ATOM      7  O   UNL A   1      35.831  20.841  25.751  1.00  0.00    -0.463 OA
BRANCH   7   8
ATOM      8  C   UNL A   1      34.574  21.330  25.749  1.00  0.00     0.311 C 
ATOM      9  O   UNL A   1      33.892  21.452  26.762  1.00  0.00    -0.252 OA
BRANCH   8  10
ATOM     10  C   UNL A   1      34.073  21.824  24.402  1.00  0.00     0.134 C 
ATOM     11  C   UNL A   1      31.959  23.799  22.005  1.00  0.00     0.147 C 
ATOM     12  N   UNL A   1      32.714  22.857  22.814  1.00  0.00    -0.339 N 
ATOM     13  C   UNL A   1      32.445  21.502  22.686  1.00  0.00     0.223 C 
ATOM     14  C   UNL A   1      33.418  23.208  24.092  1.00  0.00     0.067 C 
ATOM     15  O   UNL A   1      31.742  20.966  21.846  1.00  0.00    -0.275 OA
ATOM     16  C   UNL A   1      33.093  20.793  23.828  1.00  0.00     0.118 C 
ATOM     17  C   UNL A   1      34.526  24.250  23.859  1.00  0.00     0.091 C 
ATOM     18  C   UNL A   1      32.353  23.811  25.034  1.00  0.00     0.091 C 
ATOM     19  C   UNL A   1      35.035  24.881  25.157  1.00  0.00     0.265 C 
ATOM     20  C   UNL A   1      32.834  24.603  26.250  1.00  0.00     0.265 C 
ATOM     21  N   UNL A   1      34.005  25.437  26.021  1.00  0.00    -0.331 N 
ATOM     22  H   UNL A   1      34.470  25.386  26.928  1.00  0.00     0.348 HD
BRANCH  21  23
ATOM     23  C   UNL A   1      33.763  26.880  25.917  1.00  0.00     0.302 C 
BRANCH  23  24
ATOM     24  C   UNL A   1      32.741  27.208  24.887  1.00  0.00     0.045 A 
ATOM     25  C   UNL A   1      32.867  27.149  23.484  1.00  0.00     0.145 A 
ATOM     26  C   UNL A   1      31.438  27.617  25.073  1.00  0.00     0.124 A 
ATOM     27  N   UNL A   1      31.775  27.580  22.848  1.00  0.00    -0.176 NA
ATOM     28  N   UNL A   1      30.935  27.970  23.843  1.00  0.00    -0.237 N 
BRANCH  28  29
ATOM     29  C   UNL A   1      29.765  28.714  23.551  1.00  0.00     0.100 A 
ATOM     30  C   UNL A   1      29.823  30.116  23.538  1.00  0.00     0.031 A 
ATOM     31  C   UNL A   1      28.534  28.085  23.344  1.00  0.00     0.148 A 
ATOM     32  C   UNL A   1      28.668  30.865  23.294  1.00  0.00     0.002 A 
ATOM     33  C   UNL A   1      27.379  28.834  23.126  1.00  0.00     0.041 A 
ATOM     34  F   UNL A   1      28.390  26.755  23.436  1.00  0.00    -0.205 F 
ATOM     35  C   UNL A   1      27.446  30.224  23.090  1.00  0.00     0.003 A 
ENDBRANCH  28  29
ENDBRANCH  23  24
ENDBRANCH  21  23
ENDBRANCH   8  10
ENDBRANCH   7   8
ENDBRANCH   6   7
ENDBRANCH   5   6
ENDBRANCH   4   5
ENDBRANCH   3   4
ENDBRANCH   2   3
ENDBRANCH   1   2
BRANCH   1  36
ATOM     36  C   UNL A   1      41.583  21.493  27.600  1.00  0.00     0.188 C 
BRANCH  36  37
ATOM     37  C   UNL A   1      40.611  20.576  26.852  1.00  0.00     0.188 C 
BRANCH  37  38
ATOM     38  O   UNL A   1      41.040  19.333  26.296  1.00  0.00    -0.376 OA
BRANCH  38  39
ATOM     39  C   UNL A   1      42.335  18.811  26.546  1.00  0.00     0.202 C 
BRANCH  39  40
ATOM     40  C   UNL A   1      43.352  18.867  25.405  1.00  0.00     0.261 C 
BRANCH  40  41
ATOM     41  O   UNL A   1      43.465  20.130  24.753  1.00  0.00    -0.460 OA
BRANCH  41  42
ATOM     42  C   UNL A   1      44.693  20.402  24.253  1.00  0.00     0.338 C 
ATOM     43  O   UNL A   1      45.325  19.758  23.431  1.00  0.00    -0.246 OA
BRANCH  42  44
ATOM     44  C   UNL A   1      45.138  21.688  24.809  1.00  0.00     0.060 A 
ATOM     45  C   UNL A   1      45.387  21.792  26.183  1.00  0.00     0.016 A 
ATOM     46  C   UNL A   1      45.266  22.796  23.969  1.00  0.00     0.016 A 
ATOM     47  C   UNL A   1      45.758  23.019  26.726  1.00  0.00     0.010 A 
ATOM     48  C   UNL A   1      45.614  24.028  24.518  1.00  0.00     0.010 A 
ATOM     49  C   UNL A   1      45.841  24.147  25.900  1.00  0.00    -0.014 A 
BRANCH  49  50
ATOM     50  C   UNL A   1      46.038  25.490  26.487  1.00  0.00     0.031 A 
ATOM     51  C   UNL A   1      44.833  26.249  26.958  1.00  0.00     0.074 A 
ATOM     52  C   UNL A   1      47.271  26.022  26.556  1.00  0.00     0.049 A 
ATOM     53  N   UNL A   1      44.744  27.486  27.369  1.00  0.00    -0.248 NA
ATOM     54  C   UNL A   1      43.554  25.518  26.961  1.00  0.00     0.031 C 
ATOM     55  C   UNL A   1      48.507  25.341  26.168  1.00  0.00     0.029 A 
ATOM     56  N   UNL A   1      47.682  27.269  26.951  1.00  0.00    -0.354 N 
ATOM     57  C   UNL A   1      43.400  27.689  27.662  1.00  0.00     0.074 A 
ATOM     58  C   UNL A   1      42.708  26.453  27.368  1.00  0.00     0.031 C 
ATOM     59  C   UNL A   1      49.536  26.192  26.316  1.00  0.00     0.029 A 
ATOM     60  C   UNL A   1      49.026  27.490  26.753  1.00  0.00     0.049 A 
ATOM     61  H   UNL A   1      47.076  27.940  27.340  1.00  0.00     0.167 HD
ATOM     62  C   UNL A   1      42.805  28.813  28.126  1.00  0.00     0.034 A 
ATOM     63  C   UNL A   1      49.743  28.626  26.861  1.00  0.00     0.034 A 
ATOM     64  C   UNL A   1      43.520  30.033  28.404  1.00  0.00     0.049 A 
ATOM     65  C   UNL A   1      49.035  29.892  27.291  1.00  0.00     0.074 A 
ATOM     66  C   UNL A   1      43.028  31.217  28.924  1.00  0.00     0.029 A 
ATOM     67  N   UNL A   1      44.872  30.235  28.162  1.00  0.00    -0.354 N 
ATOM     68  N   UNL A   1      47.770  30.064  27.607  1.00  0.00    -0.248 NA
ATOM     69  C   UNL A   1      49.846  31.113  27.381  1.00  0.00     0.031 C 
ATOM     70  C   UNL A   1      44.060  32.160  28.907  1.00  0.00     0.029 A 
ATOM     71  C   UNL A   1      45.219  31.541  28.468  1.00  0.00     0.049 A 
ATOM     72  H   UNL A   1      45.494  29.550  27.824  1.00  0.00     0.167 HD
ATOM     73  C   UNL A   1      47.644  31.408  27.951  1.00  0.00     0.074 A 
ATOM     74  C   UNL A   1      48.964  31.991  27.833  1.00  0.00     0.031 C 
ATOM     75  C   UNL A   1      46.541  32.103  28.329  1.00  0.00     0.034 A 
BRANCH  62  76
ATOM     76  C   UNL A   1      41.308  28.803  28.302  1.00  0.00     0.023 A 
ATOM     77  C   UNL A   1      40.705  28.675  29.564  1.00  0.00     0.031 A 
ATOM     78  C   UNL A   1      40.471  28.951  27.181  1.00  0.00     0.131 A 
ATOM     79  C   UNL A   1      39.305  28.662  29.670  1.00  0.00     0.055 A 
ATOM     80  C   UNL A   1      39.082  29.006  27.301  1.00  0.00     0.041 A 
ATOM     81  F   UNL A   1      40.993  29.048  25.949  1.00  0.00    -0.206 F 
ATOM     82  C   UNL A   1      38.492  28.853  28.551  1.00  0.00     0.022 A 
BRANCH  79  83
ATOM     83  S   UNL A   1      38.557  28.289  31.280  1.00  0.00     0.124 S 
ATOM     84  O   UNL A   1      37.261  28.955  31.165  1.00  0.00    -0.237 OA
ATOM     85  O   UNL A   1      38.528  26.831  31.284  1.00  0.00    -0.237 OA
ATOM     86  O   UNL A   1      39.479  28.898  32.236  1.00  0.00    -0.744 OA
ENDBRANCH  79  83
ENDBRANCH  62  76
BRANCH  63  87
ATOM     87  C   UNL A   1      51.188  28.655  26.485  1.00  0.00     0.023 A 
ATOM     88  C   UNL A   1      51.587  28.869  25.158  1.00  0.00     0.031 A 
ATOM     89  C   UNL A   1      52.191  28.385  27.436  1.00  0.00     0.131 A 
ATOM     90  C   UNL A   1      52.939  28.739  24.804  1.00  0.00     0.055 A 
ATOM     91  C   UNL A   1      53.542  28.326  27.090  1.00  0.00     0.041 A 
ATOM     92  F   UNL A   1      51.871  28.170  28.723  1.00  0.00    -0.206 F 
ATOM     93  C   UNL A   1      53.921  28.485  25.763  1.00  0.00     0.022 A 
BRANCH  90  94
ATOM     94  S   UNL A   1      53.378  28.778  23.044  1.00  0.00     0.124 S 
ATOM     95  O   UNL A   1      52.083  28.556  22.412  1.00  0.00    -0.237 OA
ATOM     96  O   UNL A   1      53.941  30.117  22.904  1.00  0.00    -0.237 OA
ATOM     97  O   UNL A   1      54.336  27.683  22.909  1.00  0.00    -0.744 OA
ENDBRANCH  90  94
ENDBRANCH  63  87
BRANCH  75  98
ATOM     98  C   UNL A   1      46.726  33.563  28.665  1.00  0.00     0.023 A 
ATOM     99  C   UNL A   1      46.313  34.579  27.786  1.00  0.00     0.031 A 
ATOM    100  C   UNL A   1      47.313  33.942  29.886  1.00  0.00     0.131 A 
ATOM    101  C   UNL A   1      46.538  35.922  28.117  1.00  0.00     0.055 A 
ATOM    102  C   UNL A   1      47.471  35.282  30.240  1.00  0.00     0.041 A 
ATOM    103  F   UNL A   1      47.729  33.014  30.763  1.00  0.00    -0.206 F 
ATOM    104  C   UNL A   1      47.093  36.282  29.349  1.00  0.00     0.022 A 
BRANCH 101 105
ATOM    105  S   UNL A   1      46.170  37.196  26.880  1.00  0.00     0.124 S 
ATOM    106  O   UNL A   1      46.689  38.399  27.524  1.00  0.00    -0.237 OA
ATOM    107  O   UNL A   1      46.912  36.726  25.715  1.00  0.00    -0.237 OA
ATOM    108  O   UNL A   1      44.715  37.140  26.752  1.00  0.00    -0.744 OA
ENDBRANCH 101 105
ENDBRANCH  75  98
ENDBRANCH  49  50
ENDBRANCH  42  44
ENDBRANCH  41  42
ENDBRANCH  40  41
ENDBRANCH  39  40
ENDBRANCH  38  39
ENDBRANCH  37  38
ENDBRANCH  36  37
ENDBRANCH   1  36
TORSDOF 26
ENDMDL
MODEL 2
REMARK VINA RESULT:      -9.4      3.223      8.079
REMARK SMILES CN1C(=O)C[C@H](C(=O)OCCOCCOCCOCCOC(=O)c2ccc(-c3c4nc(c(-c5cc(S(=O)(=O)[O-])ccc5F)c5ccc([nH]5)c(-c5cc(S(=O)(=O)[O-])ccc5F)c5nc(c(-c6cc(S(=O)(=O)[O-])ccc6F)c6ccc3[nH]6)C=C5)C=C4)cc2)C12CC[NH+](Cc1cnn(-c3ccccc3F)c1)CC2
REMARK SMILES IDX 15 1 14 2 13 3 12 4 11 5 10 6 9 7 7 8 8 9 6 10 1 11 2 12
REMARK SMILES IDX 3 13 87 14 4 15 5 16 88 17 105 18 89 19 104 20 90 21 91 23
REMARK SMILES IDX 92 24 93 25 103 26 94 27 95 28 96 29 97 30 101 31 98 32
REMARK SMILES IDX 100 33 102 34 99 35 16 36 17 37 18 38 19 39 20 40 21 41
REMARK SMILES IDX 22 42 23 43 24 44 25 45 86 46 26 47 85 48 27 49 28 50 29 51
REMARK SMILES IDX 79 52 30 53 84 54 78 55 80 56 31 57 83 58 77 59 76 60 32 62
REMARK SMILES IDX 64 63 44 64 63 65 45 66 48 67 62 68 81 69 46 70 47 71 61 73
REMARK SMILES IDX 82 74 49 75 33 76 34 77 42 78 35 79 41 80 43 81 40 82 36 83
REMARK SMILES IDX 37 84 38 85 39 86 65 87 66 88 74 89 67 90 73 91 75 92 72 93
REMARK SMILES IDX 68 94 69 95 70 96 71 97 50 98 51 99 59 100 52 101 58 102
REMARK SMILES IDX 60 103 57 104 53 105 54 106 55 107 56 108
REMARK H PARENT 90 22 80 61 48 72
REMARK Flexibility Score: inf
ROOT
ATOM      1  O   UNL A   1      41.666  22.241  27.989  1.00  0.00    -0.377 OA
ENDROOT
BRANCH   1   2
ATOM      2  C   UNL A   1      40.414  22.834  27.628  1.00  0.00     0.188 C 
BRANCH   2   3
ATOM      3  C   UNL A   1      40.631  24.143  26.900  1.00  0.00     0.188 C 
BRANCH   3   4
ATOM      4  O   UNL A   1      39.502  24.681  26.241  1.00  0.00    -0.376 OA
BRANCH   4   5
ATOM      5  C   UNL A   1      38.236  24.074  26.521  1.00  0.00     0.202 C 
BRANCH   5   6
ATOM      6  C   UNL A   1      37.478  23.201  25.487  1.00  0.00     0.261 C 
BRANCH   6   7
ATOM      7  O   UNL A   1      36.405  23.848  24.769  1.00  0.00    -0.463 OA
BRANCH   7   8
ATOM      8  C   UNL A   1      35.896  23.198  23.702  1.00  0.00     0.311 C 
ATOM      9  O   UNL A   1      36.507  23.042  22.649  1.00  0.00    -0.252 OA
BRANCH   8  10
ATOM     10  C   UNL A   1      34.528  22.572  23.916  1.00  0.00     0.134 C 
ATOM     11  C   UNL A   1      31.260  21.896  25.641  1.00  0.00     0.147 C 
ATOM     12  N   UNL A   1      32.550  21.936  24.975  1.00  0.00    -0.339 N 
ATOM     13  C   UNL A   1      33.339  20.795  24.977  1.00  0.00     0.223 C 
ATOM     14  C   UNL A   1      33.320  23.193  24.687  1.00  0.00     0.067 C 
ATOM     15  O   UNL A   1      33.017  19.677  25.346  1.00  0.00    -0.275 OA
ATOM     16  C   UNL A   1      34.711  21.180  24.535  1.00  0.00     0.118 C 
ATOM     17  C   UNL A   1      32.544  24.127  23.742  1.00  0.00     0.091 C 
ATOM     18  C   UNL A   1      33.524  23.908  26.041  1.00  0.00     0.091 C 
ATOM     19  C   UNL A   1      33.125  25.541  23.691  1.00  0.00     0.265 C 
ATOM     20  C   UNL A   1      33.934  25.380  26.021  1.00  0.00     0.265 C 
ATOM     21  N   UNL A   1      33.306  26.183  24.984  1.00  0.00    -0.331 N 
ATOM     22  H   UNL A   1      34.049  26.847  24.764  1.00  0.00     0.348 HD
BRANCH  21  23
ATOM     23  C   UNL A   1      32.244  27.095  25.423  1.00  0.00     0.302 C 
BRANCH  23  24
ATOM     24  C   UNL A   1      31.771  27.982  24.326  1.00  0.00     0.045 A 
ATOM     25  C   UNL A   1      32.527  28.560  23.286  1.00  0.00     0.145 A 
ATOM     26  C   UNL A   1      30.489  28.415  24.067  1.00  0.00     0.124 A 
ATOM     27  N   UNL A   1      31.802  29.365  22.506  1.00  0.00    -0.176 NA
ATOM     28  N   UNL A   1      30.563  29.353  23.065  1.00  0.00    -0.237 N 
BRANCH  28  29
ATOM     29  C   UNL A   1      29.576  30.284  22.656  1.00  0.00     0.100 A 
ATOM     30  C   UNL A   1      29.010  30.174  21.377  1.00  0.00     0.031 A 
ATOM     31  C   UNL A   1      29.203  31.356  23.472  1.00  0.00     0.148 A 
ATOM     32  C   UNL A   1      28.068  31.110  20.942  1.00  0.00     0.002 A 
ATOM     33  C   UNL A   1      28.282  32.303  23.027  1.00  0.00     0.041 A 
ATOM     34  F   UNL A   1      29.773  31.574  24.666  1.00  0.00    -0.205 F 
ATOM     35  C   UNL A   1      27.706  32.176  21.766  1.00  0.00     0.003 A 
ENDBRANCH  28  29
ENDBRANCH  23  24
ENDBRANCH  21  23
ENDBRANCH   8  10
ENDBRANCH   7   8
ENDBRANCH   6   7
ENDBRANCH   5   6
ENDBRANCH   4   5
ENDBRANCH   3   4
ENDBRANCH   2   3
ENDBRANCH   1   2
BRANCH   1  36
ATOM     36  C   UNL A   1      41.697  20.822  27.994  1.00  0.00     0.188 C 
BRANCH  36  37
ATOM     37  C   UNL A   1      41.314  20.165  26.665  1.00  0.00     0.188 C 
BRANCH  37  38
ATOM     38  O   UNL A   1      42.230  20.109  25.572  1.00  0.00    -0.376 OA
BRANCH  38  39
ATOM     39  C   UNL A   1      43.577  20.532  25.705  1.00  0.00     0.202 C 
BRANCH  39  40
ATOM     40  C   UNL A   1      44.020  21.750  24.894  1.00  0.00     0.261 C 
BRANCH  40  41
ATOM     41  O   UNL A   1      43.894  23.004  25.563  1.00  0.00    -0.460 OA
BRANCH  41  42
ATOM     42  C   UNL A   1      44.705  23.980  25.092  1.00  0.00     0.338 C 
ATOM     43  O   UNL A   1      45.537  23.898  24.203  1.00  0.00    -0.246 OA
BRANCH  42  44
ATOM     44  C   UNL A   1      44.361  25.231  25.783  1.00  0.00     0.060 A 
ATOM     45  C   UNL A   1      43.781  26.279  25.058  1.00  0.00     0.016 A 
ATOM     46  C   UNL A   1      44.655  25.374  27.141  1.00  0.00     0.016 A 
ATOM     47  C   UNL A   1      43.501  27.485  25.692  1.00  0.00     0.010 A 
ATOM     48  C   UNL A   1      44.395  26.590  27.768  1.00  0.00     0.010 A 
ATOM     49  C   UNL A   1      43.836  27.655  27.041  1.00  0.00    -0.014 A 
BRANCH  49  50
ATOM     50  C   UNL A   1      43.730  28.985  27.676  1.00  0.00     0.031 A 
ATOM     51  C   UNL A   1      44.933  29.882  27.668  1.00  0.00     0.074 A 
ATOM     52  C   UNL A   1      42.586  29.357  28.277  1.00  0.00     0.049 A 
ATOM     53  N   UNL A   1      45.121  31.020  28.281  1.00  0.00    -0.248 NA
ATOM     54  C   UNL A   1      46.083  29.431  26.866  1.00  0.00     0.031 C 
ATOM     55  C   UNL A   1      41.349  28.574  28.295  1.00  0.00     0.029 A 
ATOM     56  N   UNL A   1      42.288  30.475  29.013  1.00  0.00    -0.354 N 
ATOM     57  C   UNL A   1      46.414  31.414  27.956  1.00  0.00     0.074 A 
ATOM     58  C   UNL A   1      46.970  30.386  27.103  1.00  0.00     0.031 C 
ATOM     59  C   UNL A   1      40.435  29.225  29.033  1.00  0.00     0.029 A 
ATOM     60  C   UNL A   1      41.037  30.436  29.585  1.00  0.00     0.049 A 
ATOM     61  H   UNL A   1      42.908  31.233  29.120  1.00  0.00     0.167 HD
ATOM     62  C   UNL A   1      47.071  32.532  28.345  1.00  0.00     0.034 A 
ATOM     63  C   UNL A   1      40.472  31.258  30.491  1.00  0.00     0.034 A 
ATOM     64  C   UNL A   1      46.492  33.536  29.202  1.00  0.00     0.049 A 
ATOM     65  C   UNL A   1      41.266  32.449  30.983  1.00  0.00     0.074 A 
ATOM     66  C   UNL A   1      47.048  34.731  29.621  1.00  0.00     0.029 A 
ATOM     67  N   UNL A   1      45.237  33.451  29.791  1.00  0.00    -0.354 N 
ATOM     68  N   UNL A   1      42.473  32.837  30.637  1.00  0.00    -0.248 NA
ATOM     69  C   UNL A   1      40.624  33.312  31.983  1.00  0.00     0.031 C 
ATOM     70  C   UNL A   1      46.170  35.322  30.534  1.00  0.00     0.029 A 
ATOM     71  C   UNL A   1      45.026  34.545  30.614  1.00  0.00     0.049 A 
ATOM     72  H   UNL A   1      44.593  32.721  29.643  1.00  0.00     0.167 HD
ATOM     73  C   UNL A   1      42.721  33.999  31.363  1.00  0.00     0.074 A 
ATOM     74  C   UNL A   1      41.530  34.264  32.142  1.00  0.00     0.031 C 
ATOM     75  C   UNL A   1      43.832  34.780  31.391  1.00  0.00     0.034 A 
BRANCH  62  76
ATOM     76  C   UNL A   1      48.504  32.701  27.909  1.00  0.00     0.023 A 
ATOM     77  C   UNL A   1      49.577  32.168  28.642  1.00  0.00     0.031 A 
ATOM     78  C   UNL A   1      48.795  33.391  26.718  1.00  0.00     0.131 A 
ATOM     79  C   UNL A   1      50.893  32.364  28.195  1.00  0.00     0.055 A 
ATOM     80  C   UNL A   1      50.101  33.523  26.244  1.00  0.00     0.041 A 
ATOM     81  F   UNL A   1      47.811  33.945  25.992  1.00  0.00    -0.206 F 
ATOM     82  C   UNL A   1      51.159  33.014  26.988  1.00  0.00     0.022 A 
BRANCH  79  83
ATOM     83  S   UNL A   1      52.263  31.846  29.266  1.00  0.00     0.124 S 
ATOM     84  O   UNL A   1      51.938  32.531  30.514  1.00  0.00    -0.237 OA
ATOM     85  O   UNL A   1      52.120  30.394  29.278  1.00  0.00    -0.237 OA
ATOM     86  O   UNL A   1      53.447  32.351  28.576  1.00  0.00    -0.744 OA
ENDBRANCH  79  83
ENDBRANCH  62  76
BRANCH  63  87
ATOM     87  C   UNL A   1      39.126  30.956  31.062  1.00  0.00     0.023 A 
ATOM     88  C   UNL A   1      37.973  31.584  30.568  1.00  0.00     0.031 A 
ATOM     89  C   UNL A   1      38.982  30.097  32.168  1.00  0.00     0.131 A 
ATOM     90  C   UNL A   1      36.743  31.401  31.220  1.00  0.00     0.055 A 
ATOM     91  C   UNL A   1      37.744  29.864  32.769  1.00  0.00     0.041 A 
ATOM     92  F   UNL A   1      40.050  29.468  32.686  1.00  0.00    -0.206 F 
ATOM     93  C   UNL A   1      36.618  30.534  32.307  1.00  0.00     0.022 A 
BRANCH  90  94
ATOM     94  S   UNL A   1      35.332  32.419  30.705  1.00  0.00     0.124 S 
ATOM     95  O   UNL A   1      35.963  33.719  30.507  1.00  0.00    -0.237 OA
ATOM     96  O   UNL A   1      34.889  31.729  29.498  1.00  0.00    -0.237 OA
ATOM     97  O   UNL A   1      34.419  32.333  31.842  1.00  0.00    -0.744 OA
ENDBRANCH  90  94
ENDBRANCH  63  87
BRANCH  75  98
ATOM     98  C   UNL A   1      43.794  36.004  32.272  1.00  0.00     0.023 A 
ATOM     99  C   UNL A   1      43.609  37.291  31.737  1.00  0.00     0.031 A 
ATOM    100  C   UNL A   1      43.933  35.881  33.667  1.00  0.00     0.131 A 
ATOM    101  C   UNL A   1      43.618  38.407  32.585  1.00  0.00     0.055 A 
ATOM    102  C   UNL A   1      43.873  36.990  34.512  1.00  0.00     0.041 A 
ATOM    103  F   UNL A   1      44.116  34.678  34.233  1.00  0.00    -0.206 F 
ATOM    104  C   UNL A   1      43.726  38.264  33.972  1.00  0.00     0.022 A 
BRANCH 101 105
ATOM    105  S   UNL A   1      43.571  40.062  31.845  1.00  0.00     0.124 S 
ATOM    106  O   UNL A   1      43.259  39.760  30.451  1.00  0.00    -0.237 OA
ATOM    107  O   UNL A   1      42.514  40.717  32.608  1.00  0.00    -0.237 OA
ATOM    108  O   UNL A   1      44.918  40.581  32.080  1.00  0.00    -0.744 OA
ENDBRANCH 101 105
ENDBRANCH  75  98
ENDBRANCH  49  50
ENDBRANCH  42  44
ENDBRANCH  41  42
ENDBRANCH  40  41
ENDBRANCH  39  40
ENDBRANCH  38  39
ENDBRANCH  37  38
ENDBRANCH  36  37
ENDBRANCH   1  36
TORSDOF 26
ENDMDL
MODEL 3
REMARK VINA RESULT:      -9.2      5.055      9.100
REMARK SMILES CN1C(=O)C[C@H](C(=O)OCCOCCOCCOCCOC(=O)c2ccc(-c3c4nc(c(-c5cc(S(=O)(=O)[O-])ccc5F)c5ccc([nH]5)c(-c5cc(S(=O)(=O)[O-])ccc5F)c5nc(c(-c6cc(S(=O)(=O)[O-])ccc6F)c6ccc3[nH]6)C=C5)C=C4)cc2)C12CC[NH+](Cc1cnn(-c3ccccc3F)c1)CC2
REMARK SMILES IDX 15 1 14 2 13 3 12 4 11 5 10 6 9 7 7 8 8 9 6 10 1 11 2 12
REMARK SMILES IDX 3 13 87 14 4 15 5 16 88 17 105 18 89 19 104 20 90 21 91 23
REMARK SMILES IDX 92 24 93 25 103 26 94 27 95 28 96 29 97 30 101 31 98 32
REMARK SMILES IDX 100 33 102 34 99 35 16 36 17 37 18 38 19 39 20 40 21 41
REMARK SMILES IDX 22 42 23 43 24 44 25 45 86 46 26 47 85 48 27 49 28 50 29 51
REMARK SMILES IDX 79 52 30 53 84 54 78 55 80 56 31 57 83 58 77 59 76 60 32 62
REMARK SMILES IDX 64 63 44 64 63 65 45 66 48 67 62 68 81 69 46 70 47 71 61 73
REMARK SMILES IDX 82 74 49 75 33 76 34 77 42 78 35 79 41 80 43 81 40 82 36 83
REMARK SMILES IDX 37 84 38 85 39 86 65 87 66 88 74 89 67 90 73 91 75 92 72 93
REMARK SMILES IDX 68 94 69 95 70 96 71 97 50 98 51 99 59 100 52 101 58 102
REMARK SMILES IDX 60 103 57 104 53 105 54 106 55 107 56 108
REMARK H PARENT 90 22 80 61 48 72
REMARK Flexibility Score: inf
ROOT
ATOM      1  O   UNL A   1      42.612  21.170  27.216  1.00  0.00    -0.377 OA
ENDROOT
BRANCH   1   2
ATOM      2  C   UNL A   1      42.749  22.587  27.364  1.00  0.00     0.188 C 
BRANCH   2   3
ATOM      3  C   UNL A   1      41.777  23.317  26.461  1.00  0.00     0.188 C 
BRANCH   3   4
ATOM      4  O   UNL A   1      41.606  24.696  26.719  1.00  0.00    -0.376 OA
BRANCH   4   5
ATOM      5  C   UNL A   1      40.311  25.250  26.462  1.00  0.00     0.202 C 
BRANCH   5   6
ATOM      6  C   UNL A   1      38.996  24.503  26.809  1.00  0.00     0.261 C 
BRANCH   6   7
ATOM      7  O   UNL A   1      38.379  23.762  25.734  1.00  0.00    -0.463 OA
BRANCH   7   8
ATOM      8  C   UNL A   1      37.033  23.688  25.727  1.00  0.00     0.311 C 
ATOM      9  O   UNL A   1      36.302  24.589  26.132  1.00  0.00    -0.252 OA
BRANCH   8  10
ATOM     10  C   UNL A   1      36.455  22.438  25.085  1.00  0.00     0.134 C 
ATOM     11  C   UNL A   1      34.255  19.409  24.766  1.00  0.00     0.147 C 
ATOM     12  N   UNL A   1      35.275  20.441  24.850  1.00  0.00    -0.339 N 
ATOM     13  C   UNL A   1      36.603  20.059  24.963  1.00  0.00     0.223 C 
ATOM     14  C   UNL A   1      35.020  21.854  25.288  1.00  0.00     0.067 C 
ATOM     15  O   UNL A   1      37.060  18.934  24.845  1.00  0.00    -0.275 OA
ATOM     16  C   UNL A   1      37.397  21.259  25.358  1.00  0.00     0.118 C 
ATOM     17  C   UNL A   1      34.044  22.573  24.342  1.00  0.00     0.091 C 
ATOM     18  C   UNL A   1      34.387  21.774  26.695  1.00  0.00     0.091 C 
ATOM     19  C   UNL A   1      33.499  23.878  24.924  1.00  0.00     0.265 C 
ATOM     20  C   UNL A   1      33.677  23.015  27.235  1.00  0.00     0.265 C 
ATOM     21  N   UNL A   1      32.912  23.767  26.251  1.00  0.00    -0.331 N 
ATOM     22  H   UNL A   1      33.028  24.722  26.591  1.00  0.00     0.348 HD
BRANCH  21  23
ATOM     23  C   UNL A   1      31.453  23.627  26.318  1.00  0.00     0.302 C 
BRANCH  23  24
ATOM     24  C   UNL A   1      30.761  24.401  25.253  1.00  0.00     0.045 A 
ATOM     25  C   UNL A   1      30.600  24.062  23.894  1.00  0.00     0.145 A 
ATOM     26  C   UNL A   1      30.103  25.607  25.361  1.00  0.00     0.124 A 
ATOM     27  N   UNL A   1      29.986  25.017  23.192  1.00  0.00    -0.176 NA
ATOM     28  N   UNL A   1      29.779  26.017  24.090  1.00  0.00    -0.237 N 
BRANCH  28  29
ATOM     29  C   UNL A   1      29.367  27.302  23.657  1.00  0.00     0.100 A 
ATOM     30  C   UNL A   1      28.002  27.560  23.463  1.00  0.00     0.031 A 
ATOM     31  C   UNL A   1      30.296  28.301  23.350  1.00  0.00     0.148 A 
ATOM     32  C   UNL A   1      27.582  28.808  22.994  1.00  0.00     0.002 A 
ATOM     33  C   UNL A   1      29.877  29.536  22.859  1.00  0.00     0.041 A 
ATOM     34  F   UNL A   1      31.618  28.090  23.423  1.00  0.00    -0.205 F 
ATOM     35  C   UNL A   1      28.520  29.795  22.691  1.00  0.00     0.003 A 
ENDBRANCH  28  29
ENDBRANCH  23  24
ENDBRANCH  21  23
ENDBRANCH   8  10
ENDBRANCH   7   8
ENDBRANCH   6   7
ENDBRANCH   5   6
ENDBRANCH   4   5
ENDBRANCH   3   4
ENDBRANCH   2   3
ENDBRANCH   1   2
BRANCH   1  36
ATOM     36  C   UNL A   1      42.703  20.679  25.887  1.00  0.00     0.188 C 
BRANCH  36  37
ATOM     37  C   UNL A   1      44.125  20.594  25.327  1.00  0.00     0.188 C 
BRANCH  37  38
ATOM     38  O   UNL A   1      44.474  21.210  24.087  1.00  0.00    -0.376 OA
BRANCH  38  39
ATOM     39  C   UNL A   1      44.305  22.602  23.872  1.00  0.00     0.202 C 
BRANCH  39  40
ATOM     40  C   UNL A   1      45.320  23.547  24.516  1.00  0.00     0.261 C 
BRANCH  40  41
ATOM     41  O   UNL A   1      44.811  24.828  24.883  1.00  0.00    -0.460 OA
BRANCH  41  42
ATOM     42  C   UNL A   1      45.757  25.764  25.129  1.00  0.00     0.338 C 
ATOM     43  O   UNL A   1      46.761  26.003  24.477  1.00  0.00    -0.246 OA
BRANCH  42  44
ATOM     44  C   UNL A   1      45.335  26.541  26.303  1.00  0.00     0.060 A 
ATOM     45  C   UNL A   1      44.601  25.913  27.315  1.00  0.00     0.016 A 
ATOM     46  C   UNL A   1      45.635  27.904  26.373  1.00  0.00     0.016 A 
ATOM     47  C   UNL A   1      44.152  26.654  28.404  1.00  0.00     0.010 A 
ATOM     48  C   UNL A   1      45.165  28.648  27.453  1.00  0.00     0.010 A 
ATOM     49  C   UNL A   1      44.406  28.029  28.460  1.00  0.00    -0.014 A 
BRANCH  49  50
ATOM     50  C   UNL A   1      43.772  28.865  29.502  1.00  0.00     0.031 A 
ATOM     51  C   UNL A   1      44.531  29.127  30.770  1.00  0.00     0.074 A 
ATOM     52  C   UNL A   1      42.528  29.342  29.322  1.00  0.00     0.049 A 
ATOM     53  N   UNL A   1      44.128  29.703  31.871  1.00  0.00    -0.248 NA
ATOM     54  C   UNL A   1      45.932  28.673  30.804  1.00  0.00     0.031 C 
ATOM     55  C   UNL A   1      41.731  29.179  28.104  1.00  0.00     0.029 A 
ATOM     56  N   UNL A   1      41.706  30.034  30.173  1.00  0.00    -0.354 N 
ATOM     57  C   UNL A   1      45.216  29.665  32.736  1.00  0.00     0.074 A 
ATOM     58  C   UNL A   1      46.292  28.997  32.037  1.00  0.00     0.031 C 
ATOM     59  C   UNL A   1      40.522  29.732  28.301  1.00  0.00     0.029 A 
ATOM     60  C   UNL A   1      40.441  30.233  29.671  1.00  0.00     0.049 A 
ATOM     61  H   UNL A   1      41.994  30.360  31.057  1.00  0.00     0.167 HD
ATOM     62  C   UNL A   1      45.296  30.142  34.001  1.00  0.00     0.034 A 
ATOM     63  C   UNL A   1      39.335  30.715  30.272  1.00  0.00     0.034 A 
ATOM     64  C   UNL A   1      44.204  30.797  34.673  1.00  0.00     0.049 A 
ATOM     65  C   UNL A   1      39.429  31.152  31.717  1.00  0.00     0.074 A 
ATOM     66  C   UNL A   1      44.189  31.363  35.936  1.00  0.00     0.029 A 
ATOM     67  N   UNL A   1      42.927  30.953  34.151  1.00  0.00    -0.354 N 
ATOM     68  N   UNL A   1      40.474  31.152  32.514  1.00  0.00    -0.248 NA
ATOM     69  C   UNL A   1      38.199  31.654  32.344  1.00  0.00     0.031 C 
ATOM     70  C   UNL A   1      42.882  31.775  36.211  1.00  0.00     0.029 A 
ATOM     71  C   UNL A   1      42.102  31.554  35.087  1.00  0.00     0.049 A 
ATOM     72  H   UNL A   1      42.650  30.678  33.247  1.00  0.00     0.167 HD
ATOM     73  C   UNL A   1      40.028  31.673  33.727  1.00  0.00     0.074 A 
ATOM     74  C   UNL A   1      38.629  32.002  33.546  1.00  0.00     0.031 C 
ATOM     75  C   UNL A   1      40.706  31.861  34.888  1.00  0.00     0.034 A 
BRANCH  62  76
ATOM     76  C   UNL A   1      46.578  29.917  34.763  1.00  0.00     0.023 A 
ATOM     77  C   UNL A   1      46.813  28.746  35.500  1.00  0.00     0.031 A 
ATOM     78  C   UNL A   1      47.592  30.891  34.727  1.00  0.00     0.131 A 
ATOM     79  C   UNL A   1      48.020  28.593  36.201  1.00  0.00     0.055 A 
ATOM     80  C   UNL A   1      48.817  30.703  35.368  1.00  0.00     0.041 A 
ATOM     81  F   UNL A   1      47.409  32.042  34.061  1.00  0.00    -0.206 F 
ATOM     82  C   UNL A   1      49.033  29.551  36.117  1.00  0.00     0.022 A 
BRANCH  79  83
ATOM     83  S   UNL A   1      48.211  27.168  37.307  1.00  0.00     0.124 S 
ATOM     84  O   UNL A   1      49.222  27.653  38.243  1.00  0.00    -0.237 OA
ATOM     85  O   UNL A   1      46.866  27.005  37.847  1.00  0.00    -0.237 OA
ATOM     86  O   UNL A   1      48.659  26.100  36.416  1.00  0.00    -0.744 OA
ENDBRANCH  79  83
ENDBRANCH  62  76
BRANCH  63  87
ATOM     87  C   UNL A   1      38.025  30.738  29.556  1.00  0.00     0.023 A 
ATOM     88  C   UNL A   1      37.365  31.948  29.292  1.00  0.00     0.031 A 
ATOM     89  C   UNL A   1      37.371  29.544  29.198  1.00  0.00     0.131 A 
ATOM     90  C   UNL A   1      36.067  31.935  28.758  1.00  0.00     0.055 A 
ATOM     91  C   UNL A   1      36.109  29.540  28.602  1.00  0.00     0.041 A 
ATOM     92  F   UNL A   1      37.952  28.354  29.426  1.00  0.00    -0.206 F 
ATOM     93  C   UNL A   1      35.441  30.741  28.397  1.00  0.00     0.022 A 
BRANCH  90  94
ATOM     94  S   UNL A   1      35.156  33.502  28.664  1.00  0.00     0.124 S 
ATOM     95  O   UNL A   1      36.160  34.454  29.126  1.00  0.00    -0.237 OA
ATOM     96  O   UNL A   1      34.813  33.565  27.248  1.00  0.00    -0.237 OA
ATOM     97  O   UNL A   1      34.029  33.292  29.570  1.00  0.00    -0.744 OA
ENDBRANCH  90  94
ENDBRANCH  63  87
BRANCH  75  98
ATOM     98  C   UNL A   1      39.947  32.475  36.039  1.00  0.00     0.023 A 
ATOM     99  C   UNL A   1      40.167  33.804  36.440  1.00  0.00     0.031 A 
ATOM    100  C   UNL A   1      38.983  31.724  36.737  1.00  0.00     0.131 A 
ATOM    101  C   UNL A   1      39.469  34.326  37.539  1.00  0.00     0.055 A 
ATOM    102  C   UNL A   1      38.243  32.271  37.785  1.00  0.00     0.041 A 
ATOM    103  F   UNL A   1      38.734  30.449  36.399  1.00  0.00    -0.206 F 
ATOM    104  C   UNL A   1      38.493  33.576  38.200  1.00  0.00     0.022 A 
BRANCH 101 105
ATOM    105  S   UNL A   1      39.916  35.975  38.149  1.00  0.00     0.124 S 
ATOM    106  O   UNL A   1      38.884  36.214  39.153  1.00  0.00    -0.237 OA
ATOM    107  O   UNL A   1      41.266  35.765  38.660  1.00  0.00    -0.237 OA
ATOM    108  O   UNL A   1      39.828  36.816  36.957  1.00  0.00    -0.744 OA
ENDBRANCH 101 105
ENDBRANCH  75  98
ENDBRANCH  49  50
ENDBRANCH  42  44
ENDBRANCH  41  42
ENDBRANCH  40  41
ENDBRANCH  39  40
ENDBRANCH  38  39
ENDBRANCH  37  38
ENDBRANCH  36  37
ENDBRANCH   1  36
TORSDOF 26
ENDMDL
