MODEL 1
REMARK VINA RESULT:      -9.4      0.000      0.000
REMARK SMILES Cc1cccc(S(=O)(=O)Nc2cc(C(=O)OCCOCCOCCOCCOC(=O)c3ccc(-c4c5nc(c(-c6cc(S(=O)(=O)[O-])ccc6F)c6ccc([nH]6)c(-c6cc(S(=O)(=O)[O-])ccc6F)c6nc(c(-c7cc(S(=O)(=O)[O-])ccc7F)c7ccc4[nH]7)C=C6)C=C5)cc3)ccc2N2CCC[C@H](C[NH+]3CCCC3)C2)c1
REMARK SMILES IDX 22 1 21 2 20 3 19 4 18 5 17 6 16 7 14 8 15 9 13 10 11 11
REMARK SMILES IDX 12 12 96 13 95 14 94 15 10 16 7 18 8 19 9 20 6 21 1 22 2 23
REMARK SMILES IDX 3 24 109 25 4 26 5 27 97 28 98 29 108 30 99 31 101 32 100 33
REMARK SMILES IDX 102 34 103 35 104 36 107 37 105 39 106 40 23 41 24 42 25 43
REMARK SMILES IDX 26 44 27 45 28 46 29 47 30 48 31 49 32 50 93 51 33 52 92 53
REMARK SMILES IDX 34 54 35 55 36 56 86 57 37 58 91 59 85 60 87 61 38 62 90 63
REMARK SMILES IDX 84 64 83 65 39 67 71 68 51 69 70 70 52 71 55 72 69 73 88 74
REMARK SMILES IDX 53 75 54 76 68 78 89 79 56 80 40 81 41 82 49 83 42 84 48 85
REMARK SMILES IDX 50 86 47 87 43 88 44 89 45 90 46 91 72 92 73 93 81 94 74 95
REMARK SMILES IDX 80 96 82 97 79 98 75 99 76 100 77 101 78 102 57 103 58 104
REMARK SMILES IDX 66 105 59 106 65 107 67 108 64 109 60 110 61 111 62 112
REMARK SMILES IDX 63 113
REMARK H PARENT 10 17 103 38 87 66 55 77
REMARK Flexibility Score: inf
ROOT
ATOM      1  O   UNL A   1      39.049  29.372  31.562  1.00  0.00    -0.377 OA
ENDROOT
BRANCH   1   2
ATOM      2  C   UNL A   1      39.740  30.027  30.490  1.00  0.00     0.188 C 
BRANCH   2   3
ATOM      3  C   UNL A   1      39.585  29.564  28.870  1.00  0.00     0.188 C 
BRANCH   3   4
ATOM      4  O   UNL A   1      39.227  28.037  28.056  1.00  0.00    -0.376 OA
BRANCH   4   5
ATOM      5  C   UNL A   1      39.344  26.314  28.456  1.00  0.00     0.202 C 
BRANCH   5   6
ATOM      6  C   UNL A   1      40.202  24.918  27.510  1.00  0.00     0.261 C 
BRANCH   6   7
ATOM      7  O   UNL A   1      39.477  23.297  27.084  1.00  0.00    -0.460 OA
BRANCH   7   8
ATOM      8  C   UNL A   1      38.670  22.469  26.128  1.00  0.00     0.338 C 
ATOM      9  O   UNL A   1      39.020  21.373  25.665  1.00  0.00    -0.246 OA
BRANCH   8  10
ATOM     10  C   UNL A   1      37.160  22.733  25.600  1.00  0.00     0.062 A 
ATOM     11  C   UNL A   1      34.890  22.187  24.631  1.00  0.00     0.073 A 
ATOM     12  C   UNL A   1      36.224  21.896  24.937  1.00  0.00     0.044 A 
ATOM     13  C   UNL A   1      34.540  23.524  24.562  1.00  0.00     0.061 A 
ATOM     14  C   UNL A   1      35.530  24.454  24.924  1.00  0.00     0.029 A 
ATOM     15  C   UNL A   1      36.758  24.071  25.518  1.00  0.00     0.018 A 
BRANCH  11  16
ATOM     16  N   UNL A   1      33.995  21.123  24.180  1.00  0.00    -0.277 N 
ATOM     17  H   UNL A   1      33.906  20.978  23.210  1.00  0.00     0.180 HD
BRANCH  16  18
ATOM     18  S   UNL A   1      33.085  20.098  25.231  1.00  0.00     0.261 S 
ATOM     19  O   UNL A   1      31.690  20.431  25.025  1.00  0.00    -0.201 OA
ATOM     20  O   UNL A   1      33.627  20.240  26.569  1.00  0.00    -0.201 OA
BRANCH  18  21
ATOM     21  C   UNL A   1      33.269  18.390  24.819  1.00  0.00     0.088 A 
ATOM     22  C   UNL A   1      32.151  15.192  26.321  1.00  0.00     0.044 C 
ATOM     23  C   UNL A   1      32.757  16.105  25.319  1.00  0.00    -0.050 A 
ATOM     24  C   UNL A   1      33.741  15.669  24.429  1.00  0.00     0.003 A 
ATOM     25  C   UNL A   1      32.476  17.456  25.452  1.00  0.00     0.025 A 
ATOM     26  C   UNL A   1      34.441  16.602  23.670  1.00  0.00     0.002 A 
ATOM     27  C   UNL A   1      34.223  17.969  23.881  1.00  0.00     0.022 A 
ENDBRANCH  18  21
ENDBRANCH  16  18
ENDBRANCH  11  16
BRANCH  13  28
ATOM     28  N   UNL A   1      33.293  23.885  24.089  1.00  0.00    -0.369 N 
ATOM     29  C   UNL A   1      33.043  24.024  22.665  1.00  0.00     0.116 C 
ATOM     30  C   UNL A   1      32.387  24.543  25.023  1.00  0.00     0.126 C 
ATOM     31  C   UNL A   1      32.863  25.495  22.302  1.00  0.00     0.022 C 
ATOM     32  C   UNL A   1      32.288  26.043  24.732  1.00  0.00     0.064 C 
ATOM     33  C   UNL A   1      31.885  26.191  23.254  1.00  0.00     0.013 C 
BRANCH  32  34
ATOM     34  C   UNL A   1      33.596  26.752  25.169  1.00  0.00     0.267 C 
BRANCH  34  35
ATOM     35  N   UNL A   1      33.623  28.189  25.424  1.00  0.00    -0.335 N 
ATOM     36  C   UNL A   1      34.001  28.568  26.776  1.00  0.00     0.262 C 
ATOM     37  C   UNL A   1      32.416  28.919  25.064  1.00  0.00     0.262 C 
ATOM     38  H   UNL A   1      34.364  28.470  24.783  1.00  0.00     0.348 HD
ATOM     39  C   UNL A   1      32.685  28.841  27.474  1.00  0.00     0.067 C 
ATOM     40  C   UNL A   1      31.788  29.382  26.373  1.00  0.00     0.067 C 
ENDBRANCH  34  35
ENDBRANCH  32  34
ENDBRANCH  13  28
ENDBRANCH   8  10
ENDBRANCH   7   8
ENDBRANCH   6   7
ENDBRANCH   5   6
ENDBRANCH   4   5
ENDBRANCH   3   4
ENDBRANCH   2   3
ENDBRANCH   1   2
BRANCH   1  41
ATOM     41  C   UNL A   1      39.563  28.235  32.234  1.00  0.00     0.188 C 
BRANCH  41  42
ATOM     42  C   UNL A   1      40.883  28.442  32.905  1.00  0.00     0.188 C 
BRANCH  42  43
ATOM     43  O   UNL A   1      40.771  28.429  34.316  1.00  0.00    -0.376 OA
BRANCH  43  44
ATOM     44  C   UNL A   1      41.667  27.556  34.987  1.00  0.00     0.202 C 
BRANCH  44  45
ATOM     45  C   UNL A   1      41.510  27.381  36.515  1.00  0.00     0.261 C 
BRANCH  45  46
ATOM     46  O   UNL A   1      42.793  27.492  37.169  1.00  0.00    -0.460 OA
BRANCH  46  47
ATOM     47  C   UNL A   1      43.383  26.300  37.532  1.00  0.00     0.338 C 
ATOM     48  O   UNL A   1      42.957  25.201  37.309  1.00  0.00    -0.246 OA
BRANCH  47  49
ATOM     49  C   UNL A   1      44.479  26.648  38.492  1.00  0.00     0.060 A 
ATOM     50  C   UNL A   1      45.616  27.314  38.069  1.00  0.00     0.016 A 
ATOM     51  C   UNL A   1      44.566  26.044  39.713  1.00  0.00     0.016 A 
ATOM     52  C   UNL A   1      46.896  26.975  38.622  1.00  0.00     0.010 A 
ATOM     53  C   UNL A   1      45.849  25.829  40.263  1.00  0.00     0.010 A 
ATOM     54  C   UNL A   1      47.116  25.935  39.545  1.00  0.00    -0.014 A 
BRANCH  54  55
ATOM     55  C   UNL A   1      48.658  24.891  39.618  1.00  0.00     0.031 A 
ATOM     56  C   UNL A   1      50.429  25.478  40.359  1.00  0.00     0.074 A 
ATOM     57  C   UNL A   1      48.373  23.702  38.860  1.00  0.00     0.049 A 
ATOM     58  N   UNL A   1      51.532  25.725  39.588  1.00  0.00    -0.248 NA
ATOM     59  C   UNL A   1      50.978  26.418  41.600  1.00  0.00     0.031 C 
ATOM     60  C   UNL A   1      49.150  22.539  38.388  1.00  0.00     0.029 A 
ATOM     61  N   UNL A   1      47.200  23.331  38.170  1.00  0.00    -0.354 N 
ATOM     62  C   UNL A   1      52.628  26.352  40.083  1.00  0.00     0.074 A 
ATOM     63  C   UNL A   1      52.156  26.962  41.256  1.00  0.00     0.031 C 
ATOM     64  C   UNL A   1      48.540  21.635  37.633  1.00  0.00     0.029 A 
ATOM     65  C   UNL A   1      47.457  22.362  37.177  1.00  0.00     0.049 A 
ATOM     66  H   UNL A   1      46.308  23.703  38.359  1.00  0.00     0.167 HD
ATOM     67  C   UNL A   1      53.850  26.264  39.488  1.00  0.00     0.034 A 
ATOM     68  C   UNL A   1      47.443  22.618  35.851  1.00  0.00     0.034 A 
ATOM     69  C   UNL A   1      53.912  25.197  38.480  1.00  0.00     0.049 A 
ATOM     70  C   UNL A   1      48.884  22.968  35.254  1.00  0.00     0.074 A 
ATOM     71  C   UNL A   1      54.464  23.935  38.529  1.00  0.00     0.029 A 
ATOM     72  N   UNL A   1      53.185  25.228  37.287  1.00  0.00    -0.354 N 
ATOM     73  N   UNL A   1      49.999  23.302  35.912  1.00  0.00    -0.248 NA
ATOM     74  C   UNL A   1      49.163  22.851  33.831  1.00  0.00     0.031 C 
ATOM     75  C   UNL A   1      54.073  23.255  37.354  1.00  0.00     0.029 A 
ATOM     76  C   UNL A   1      53.067  23.959  36.688  1.00  0.00     0.049 A 
ATOM     77  H   UNL A   1      52.796  26.049  36.907  1.00  0.00     0.167 HD
ATOM     78  C   UNL A   1      51.101  23.445  35.063  1.00  0.00     0.074 A 
ATOM     79  C   UNL A   1      50.469  23.173  33.760  1.00  0.00     0.031 C 
ATOM     80  C   UNL A   1      52.445  23.739  35.348  1.00  0.00     0.034 A 
BRANCH  67  81
ATOM     81  C   UNL A   1      55.051  26.866  40.195  1.00  0.00     0.023 A 
ATOM     82  C   UNL A   1      55.596  28.080  39.746  1.00  0.00     0.031 A 
ATOM     83  C   UNL A   1      55.748  26.241  41.252  1.00  0.00     0.131 A 
ATOM     84  C   UNL A   1      56.839  28.547  40.208  1.00  0.00     0.055 A 
ATOM     85  C   UNL A   1      57.004  26.688  41.697  1.00  0.00     0.041 A 
ATOM     86  F   UNL A   1      55.239  25.166  41.877  1.00  0.00    -0.206 F 
ATOM     87  C   UNL A   1      57.569  27.835  41.154  1.00  0.00     0.022 A 
BRANCH  84  88
ATOM     88  S   UNL A   1      57.484  30.097  39.522  1.00  0.00     0.124 S 
ATOM     89  O   UNL A   1      56.530  30.384  38.456  1.00  0.00    -0.237 OA
ATOM     90  O   UNL A   1      57.445  30.987  40.677  1.00  0.00    -0.237 OA
ATOM     91  O   UNL A   1      58.826  29.735  39.069  1.00  0.00    -0.744 OA
ENDBRANCH  84  88
ENDBRANCH  67  81
BRANCH  68  92
ATOM     92  C   UNL A   1      45.987  22.875  35.577  1.00  0.00     0.023 A 
ATOM     93  C   UNL A   1      45.661  24.249  35.243  1.00  0.00     0.031 A 
ATOM     94  C   UNL A   1      45.185  21.885  35.023  1.00  0.00     0.131 A 
ATOM     95  C   UNL A   1      44.835  24.533  34.142  1.00  0.00     0.055 A 
ATOM     96  C   UNL A   1      44.225  22.203  34.045  1.00  0.00     0.041 A 
ATOM     97  F   UNL A   1      45.446  20.593  35.265  1.00  0.00    -0.206 F 
ATOM     98  C   UNL A   1      44.091  23.513  33.561  1.00  0.00     0.022 A 
BRANCH  95  99
ATOM     99  S   UNL A   1      45.149  26.066  33.157  1.00  0.00     0.124 S 
ATOM    100  O   UNL A   1      46.514  25.867  32.687  1.00  0.00    -0.237 OA
ATOM    101  O   UNL A   1      44.097  26.020  32.146  1.00  0.00    -0.237 OA
ATOM    102  O   UNL A   1      44.966  27.135  34.138  1.00  0.00    -0.744 OA
ENDBRANCH  95  99
ENDBRANCH  68  92
BRANCH  80 103
ATOM    103  C   UNL A   1      53.506  23.773  34.246  1.00  0.00     0.023 A 
ATOM    104  C   UNL A   1      54.083  24.957  33.788  1.00  0.00     0.031 A 
ATOM    105  C   UNL A   1      53.885  22.592  33.551  1.00  0.00     0.131 A 
ATOM    106  C   UNL A   1      55.129  24.920  32.856  1.00  0.00     0.055 A 
ATOM    107  C   UNL A   1      54.805  22.585  32.504  1.00  0.00     0.041 A 
ATOM    108  F   UNL A   1      53.400  21.385  33.879  1.00  0.00    -0.206 F 
ATOM    109  C   UNL A   1      55.476  23.750  32.185  1.00  0.00     0.022 A 
BRANCH 106 110
ATOM    110  S   UNL A   1      56.155  26.398  32.708  1.00  0.00     0.124 S 
ATOM    111  O   UNL A   1      57.326  25.898  31.999  1.00  0.00    -0.237 OA
ATOM    112  O   UNL A   1      55.280  27.283  31.940  1.00  0.00    -0.237 OA
ATOM    113  O   UNL A   1      56.380  26.802  34.093  1.00  0.00    -0.744 OA
ENDBRANCH 106 110
ENDBRANCH  80 103
ENDBRANCH  54  55
ENDBRANCH  47  49
ENDBRANCH  46  47
ENDBRANCH  45  46
ENDBRANCH  44  45
ENDBRANCH  43  44
ENDBRANCH  42  43
ENDBRANCH  41  42
ENDBRANCH   1  41
TORSDOF 29
ENDMDL
MODEL 2
REMARK VINA RESULT:      -9.4      7.829     13.283
REMARK SMILES Cc1cccc(S(=O)(=O)Nc2cc(C(=O)OCCOCCOCCOCCOC(=O)c3ccc(-c4c5nc(c(-c6cc(S(=O)(=O)[O-])ccc6F)c6ccc([nH]6)c(-c6cc(S(=O)(=O)[O-])ccc6F)c6nc(c(-c7cc(S(=O)(=O)[O-])ccc7F)c7ccc4[nH]7)C=C6)C=C5)cc3)ccc2N2CCC[C@H](C[NH+]3CCCC3)C2)c1
REMARK SMILES IDX 22 1 21 2 20 3 19 4 18 5 17 6 16 7 14 8 15 9 13 10 11 11
REMARK SMILES IDX 12 12 96 13 95 14 94 15 10 16 7 18 8 19 9 20 6 21 1 22 2 23
REMARK SMILES IDX 3 24 109 25 4 26 5 27 97 28 98 29 108 30 99 31 101 32 100 33
REMARK SMILES IDX 102 34 103 35 104 36 107 37 105 39 106 40 23 41 24 42 25 43
REMARK SMILES IDX 26 44 27 45 28 46 29 47 30 48 31 49 32 50 93 51 33 52 92 53
REMARK SMILES IDX 34 54 35 55 36 56 86 57 37 58 91 59 85 60 87 61 38 62 90 63
REMARK SMILES IDX 84 64 83 65 39 67 71 68 51 69 70 70 52 71 55 72 69 73 88 74
REMARK SMILES IDX 53 75 54 76 68 78 89 79 56 80 40 81 41 82 49 83 42 84 48 85
REMARK SMILES IDX 50 86 47 87 43 88 44 89 45 90 46 91 72 92 73 93 81 94 74 95
REMARK SMILES IDX 80 96 82 97 79 98 75 99 76 100 77 101 78 102 57 103 58 104
REMARK SMILES IDX 66 105 59 106 65 107 67 108 64 109 60 110 61 111 62 112
REMARK SMILES IDX 63 113
REMARK H PARENT 10 17 103 38 87 66 55 77
REMARK Flexibility Score: inf
ROOT
ATOM      1  O   UNL A   1      51.355  26.150  32.609  1.00  0.00    -0.377 OA
ENDROOT
BRANCH   1   2
ATOM      2  C   UNL A   1      51.362  24.750  32.296  1.00  0.00     0.188 C 
BRANCH   2   3
ATOM      3  C   UNL A   1      50.663  23.575  33.294  1.00  0.00     0.188 C 
BRANCH   3   4
ATOM      4  O   UNL A   1      49.078  23.389  34.051  1.00  0.00    -0.376 OA
BRANCH   4   5
ATOM      5  C   UNL A   1      48.175  22.077  34.830  1.00  0.00     0.202 C 
BRANCH   5   6
ATOM      6  C   UNL A   1      46.479  21.363  34.392  1.00  0.00     0.261 C 
BRANCH   6   7
ATOM      7  O   UNL A   1      45.241  22.122  33.285  1.00  0.00    -0.460 OA
BRANCH   7   8
ATOM      8  C   UNL A   1      44.376  23.301  32.951  1.00  0.00     0.338 C 
ATOM      9  O   UNL A   1      43.773  23.999  33.779  1.00  0.00    -0.246 OA
BRANCH   8  10
ATOM     10  C   UNL A   1      44.140  23.993  31.504  1.00  0.00     0.062 A 
ATOM     11  C   UNL A   1      43.807  24.132  29.002  1.00  0.00     0.073 A 
ATOM     12  C   UNL A   1      44.148  23.467  30.185  1.00  0.00     0.044 A 
ATOM     13  C   UNL A   1      43.878  25.514  29.017  1.00  0.00     0.061 A 
ATOM     14  C   UNL A   1      44.170  26.117  30.252  1.00  0.00     0.029 A 
ATOM     15  C   UNL A   1      44.198  25.391  31.469  1.00  0.00     0.018 A 
BRANCH  11  16
ATOM     16  N   UNL A   1      43.620  23.374  27.766  1.00  0.00    -0.277 N 
ATOM     17  H   UNL A   1      42.755  22.925  27.629  1.00  0.00     0.180 HD
BRANCH  16  18
ATOM     18  S   UNL A   1      44.813  23.213  26.527  1.00  0.00     0.261 S 
ATOM     19  O   UNL A   1      46.101  23.359  27.173  1.00  0.00    -0.201 OA
ATOM     20  O   UNL A   1      44.477  24.142  25.464  1.00  0.00    -0.201 OA
BRANCH  18  21
ATOM     21  C   UNL A   1      44.791  21.609  25.786  1.00  0.00     0.088 A 
ATOM     22  C   UNL A   1      42.497  18.701  25.888  1.00  0.00     0.044 C 
ATOM     23  C   UNL A   1      43.649  19.531  25.454  1.00  0.00    -0.050 A 
ATOM     24  C   UNL A   1      44.803  18.961  24.912  1.00  0.00     0.003 A 
ATOM     25  C   UNL A   1      43.628  20.869  25.817  1.00  0.00     0.025 A 
ATOM     26  C   UNL A   1      45.938  19.747  24.734  1.00  0.00     0.002 A 
ATOM     27  C   UNL A   1      45.943  21.069  25.194  1.00  0.00     0.022 A 
ENDBRANCH  18  21
ENDBRANCH  16  18
ENDBRANCH  11  16
BRANCH  13  28
ATOM     28  N   UNL A   1      43.734  26.222  27.839  1.00  0.00    -0.369 N 
ATOM     29  C   UNL A   1      44.735  27.184  27.415  1.00  0.00     0.116 C 
ATOM     30  C   UNL A   1      42.392  26.320  27.277  1.00  0.00     0.126 C 
ATOM     31  C   UNL A   1      44.194  28.605  27.549  1.00  0.00     0.022 C 
ATOM     32  C   UNL A   1      41.797  27.713  27.506  1.00  0.00     0.064 C 
ATOM     33  C   UNL A   1      42.797  28.731  26.930  1.00  0.00     0.013 C 
BRANCH  32  34
ATOM     34  C   UNL A   1      41.417  27.884  29.000  1.00  0.00     0.267 C 
BRANCH  34  35
ATOM     35  N   UNL A   1      40.053  28.225  29.393  1.00  0.00    -0.335 N 
ATOM     36  C   UNL A   1      39.041  27.986  28.376  1.00  0.00     0.262 C 
ATOM     37  C   UNL A   1      39.863  29.567  29.925  1.00  0.00     0.262 C 
ATOM     38  H   UNL A   1      39.917  27.562  30.156  1.00  0.00     0.348 HD
ATOM     39  C   UNL A   1      38.807  29.345  27.751  1.00  0.00     0.067 C 
ATOM     40  C   UNL A   1      39.034  30.323  28.893  1.00  0.00     0.067 C 
ENDBRANCH  34  35
ENDBRANCH  32  34
ENDBRANCH  13  28
ENDBRANCH   8  10
ENDBRANCH   7   8
ENDBRANCH   6   7
ENDBRANCH   5   6
ENDBRANCH   4   5
ENDBRANCH   3   4
ENDBRANCH   2   3
ENDBRANCH   1   2
BRANCH   1  41
ATOM     41  C   UNL A   1      50.345  27.038  32.163  1.00  0.00     0.188 C 
BRANCH  41  42
ATOM     42  C   UNL A   1      49.082  27.010  32.959  1.00  0.00     0.188 C 
BRANCH  42  43
ATOM     43  O   UNL A   1      48.919  28.178  33.742  1.00  0.00    -0.376 OA
BRANCH  43  44
ATOM     44  C   UNL A   1      47.632  28.349  34.317  1.00  0.00     0.202 C 
BRANCH  44  45
ATOM     45  C   UNL A   1      46.735  27.102  34.483  1.00  0.00     0.261 C 
BRANCH  45  46
ATOM     46  O   UNL A   1      45.363  27.422  34.163  1.00  0.00    -0.460 OA
BRANCH  46  47
ATOM     47  C   UNL A   1      44.438  27.143  35.147  1.00  0.00     0.338 C 
ATOM     48  O   UNL A   1      44.522  26.275  35.973  1.00  0.00    -0.246 OA
BRANCH  47  49
ATOM     49  C   UNL A   1      43.208  27.923  34.803  1.00  0.00     0.060 A 
ATOM     50  C   UNL A   1      42.544  27.722  33.606  1.00  0.00     0.016 A 
ATOM     51  C   UNL A   1      42.892  29.071  35.471  1.00  0.00     0.016 A 
ATOM     52  C   UNL A   1      41.972  28.835  32.905  1.00  0.00     0.010 A 
ATOM     53  C   UNL A   1      42.232  30.098  34.760  1.00  0.00     0.010 A 
ATOM     54  C   UNL A   1      42.091  30.179  33.308  1.00  0.00    -0.014 A 
BRANCH  54  55
ATOM     55  C   UNL A   1      42.203  31.630  32.145  1.00  0.00     0.031 A 
ATOM     56  C   UNL A   1      43.769  32.059  30.963  1.00  0.00     0.074 A 
ATOM     57  C   UNL A   1      41.065  32.461  32.430  1.00  0.00     0.049 A 
ATOM     58  N   UNL A   1      44.613  33.115  31.172  1.00  0.00    -0.248 NA
ATOM     59  C   UNL A   1      44.886  31.229  30.074  1.00  0.00     0.031 C 
ATOM     60  C   UNL A   1      40.601  33.798  32.009  1.00  0.00     0.029 A 
ATOM     61  N   UNL A   1      40.036  32.288  33.380  1.00  0.00    -0.354 N 
ATOM     62  C   UNL A   1      45.791  33.233  30.511  1.00  0.00     0.074 A 
ATOM     63  C   UNL A   1      46.024  31.940  30.019  1.00  0.00     0.031 C 
ATOM     64  C   UNL A   1      39.490  34.281  32.550  1.00  0.00     0.029 A 
ATOM     65  C   UNL A   1      39.394  33.506  33.690  1.00  0.00     0.049 A 
ATOM     66  H   UNL A   1      39.794  31.421  33.778  1.00  0.00     0.167 HD
ATOM     67  C   UNL A   1      46.447  34.422  30.396  1.00  0.00     0.034 A 
ATOM     68  C   UNL A   1      39.549  34.165  34.858  1.00  0.00     0.034 A 
ATOM     69  C   UNL A   1      45.609  35.568  30.769  1.00  0.00     0.049 A 
ATOM     70  C   UNL A   1      40.685  35.288  34.811  1.00  0.00     0.074 A 
ATOM     71  C   UNL A   1      44.945  36.496  29.996  1.00  0.00     0.029 A 
ATOM     72  N   UNL A   1      45.155  35.793  32.072  1.00  0.00    -0.354 N 
ATOM     73  N   UNL A   1      41.648  35.461  33.899  1.00  0.00    -0.248 NA
ATOM     74  C   UNL A   1      40.719  36.372  35.781  1.00  0.00     0.031 C 
ATOM     75  C   UNL A   1      44.133  37.264  30.858  1.00  0.00     0.029 A 
ATOM     76  C   UNL A   1      44.059  36.675  32.123  1.00  0.00     0.049 A 
ATOM     77  H   UNL A   1      45.558  35.377  32.868  1.00  0.00     0.167 HD
ATOM     78  C   UNL A   1      42.406  36.612  34.131  1.00  0.00     0.074 A 
ATOM     79  C   UNL A   1      41.768  37.108  35.364  1.00  0.00     0.031 C 
ATOM     80  C   UNL A   1      43.466  37.175  33.400  1.00  0.00     0.034 A 
BRANCH  67  81
ATOM     81  C   UNL A   1      47.676  34.493  29.508  1.00  0.00     0.023 A 
ATOM     82  C   UNL A   1      47.551  34.870  28.161  1.00  0.00     0.031 A 
ATOM     83  C   UNL A   1      48.974  34.111  29.912  1.00  0.00     0.131 A 
ATOM     84  C   UNL A   1      48.609  34.717  27.249  1.00  0.00     0.055 A 
ATOM     85  C   UNL A   1      50.028  33.929  29.000  1.00  0.00     0.041 A 
ATOM     86  F   UNL A   1      49.258  33.887  31.207  1.00  0.00    -0.206 F 
ATOM     87  C   UNL A   1      49.840  34.208  27.652  1.00  0.00     0.022 A 
BRANCH  84  88
ATOM     88  S   UNL A   1      48.328  35.180  25.519  1.00  0.00     0.124 S 
ATOM     89  O   UNL A   1      49.546  34.706  24.870  1.00  0.00    -0.237 OA
ATOM     90  O   UNL A   1      47.103  34.453  25.198  1.00  0.00    -0.237 OA
ATOM     91  O   UNL A   1      48.183  36.634  25.574  1.00  0.00    -0.744 OA
ENDBRANCH  84  88
ENDBRANCH  67  81
BRANCH  68  92
ATOM     92  C   UNL A   1      38.859  33.262  35.843  1.00  0.00     0.023 A 
ATOM     93  C   UNL A   1      39.731  32.655  36.832  1.00  0.00     0.031 A 
ATOM     94  C   UNL A   1      37.545  33.504  36.226  1.00  0.00     0.131 A 
ATOM     95  C   UNL A   1      39.374  32.664  38.190  1.00  0.00     0.055 A 
ATOM     96  C   UNL A   1      37.145  33.334  37.564  1.00  0.00     0.041 A 
ATOM     97  F   UNL A   1      36.692  34.090  35.374  1.00  0.00    -0.206 F 
ATOM     98  C   UNL A   1      38.070  32.974  38.556  1.00  0.00     0.022 A 
BRANCH  95  99
ATOM     99  S   UNL A   1      40.705  32.809  39.466  1.00  0.00     0.124 S 
ATOM    100  O   UNL A   1      40.047  32.311  40.667  1.00  0.00    -0.237 OA
ATOM    101  O   UNL A   1      41.772  31.980  38.914  1.00  0.00    -0.237 OA
ATOM    102  O   UNL A   1      41.016  34.238  39.460  1.00  0.00    -0.744 OA
ENDBRANCH  95  99
ENDBRANCH  68  92
BRANCH  80 103
ATOM    103  C   UNL A   1      44.105  38.502  33.811  1.00  0.00     0.023 A 
ATOM    104  C   UNL A   1      43.520  39.738  33.538  1.00  0.00     0.031 A 
ATOM    105  C   UNL A   1      45.394  38.547  34.407  1.00  0.00     0.131 A 
ATOM    106  C   UNL A   1      44.093  40.917  34.035  1.00  0.00     0.055 A 
ATOM    107  C   UNL A   1      46.038  39.737  34.747  1.00  0.00     0.041 A 
ATOM    108  F   UNL A   1      46.077  37.434  34.715  1.00  0.00    -0.206 F 
ATOM    109  C   UNL A   1      45.361  40.934  34.610  1.00  0.00     0.022 A 
BRANCH 106 110
ATOM    110  S   UNL A   1      43.041  42.383  34.098  1.00  0.00     0.124 S 
ATOM    111  O   UNL A   1      43.623  43.232  33.066  1.00  0.00    -0.237 OA
ATOM    112  O   UNL A   1      41.730  41.813  33.785  1.00  0.00    -0.237 OA
ATOM    113  O   UNL A   1      43.195  42.860  35.470  1.00  0.00    -0.744 OA
ENDBRANCH 106 110
ENDBRANCH  80 103
ENDBRANCH  54  55
ENDBRANCH  47  49
ENDBRANCH  46  47
ENDBRANCH  45  46
ENDBRANCH  44  45
ENDBRANCH  43  44
ENDBRANCH  42  43
ENDBRANCH  41  42
ENDBRANCH   1  41
TORSDOF 29
ENDMDL
MODEL 3
REMARK VINA RESULT:      -9.1      8.131     15.387
REMARK SMILES Cc1cccc(S(=O)(=O)Nc2cc(C(=O)OCCOCCOCCOCCOC(=O)c3ccc(-c4c5nc(c(-c6cc(S(=O)(=O)[O-])ccc6F)c6ccc([nH]6)c(-c6cc(S(=O)(=O)[O-])ccc6F)c6nc(c(-c7cc(S(=O)(=O)[O-])ccc7F)c7ccc4[nH]7)C=C6)C=C5)cc3)ccc2N2CCC[C@H](C[NH+]3CCCC3)C2)c1
REMARK SMILES IDX 22 1 21 2 20 3 19 4 18 5 17 6 16 7 14 8 15 9 13 10 11 11
REMARK SMILES IDX 12 12 96 13 95 14 94 15 10 16 7 18 8 19 9 20 6 21 1 22 2 23
REMARK SMILES IDX 3 24 109 25 4 26 5 27 97 28 98 29 108 30 99 31 101 32 100 33
REMARK SMILES IDX 102 34 103 35 104 36 107 37 105 39 106 40 23 41 24 42 25 43
REMARK SMILES IDX 26 44 27 45 28 46 29 47 30 48 31 49 32 50 93 51 33 52 92 53
REMARK SMILES IDX 34 54 35 55 36 56 86 57 37 58 91 59 85 60 87 61 38 62 90 63
REMARK SMILES IDX 84 64 83 65 39 67 71 68 51 69 70 70 52 71 55 72 69 73 88 74
REMARK SMILES IDX 53 75 54 76 68 78 89 79 56 80 40 81 41 82 49 83 42 84 48 85
REMARK SMILES IDX 50 86 47 87 43 88 44 89 45 90 46 91 72 92 73 93 81 94 74 95
REMARK SMILES IDX 80 96 82 97 79 98 75 99 76 100 77 101 78 102 57 103 58 104
REMARK SMILES IDX 66 105 59 106 65 107 67 108 64 109 60 110 61 111 62 112
REMARK SMILES IDX 63 113
REMARK H PARENT 10 17 103 38 87 66 55 77
REMARK Flexibility Score: inf
ROOT
ATOM      1  O   UNL A   1      51.398  33.650  27.033  1.00  0.00    -0.377 OA
ENDROOT
BRANCH   1   2
ATOM      2  C   UNL A   1      51.525  34.412  28.242  1.00  0.00     0.188 C 
BRANCH   2   3
ATOM      3  C   UNL A   1      52.856  34.285  29.279  1.00  0.00     0.188 C 
BRANCH   3   4
ATOM      4  O   UNL A   1      54.217  33.165  29.403  1.00  0.00    -0.376 OA
BRANCH   4   5
ATOM      5  C   UNL A   1      55.125  32.124  28.291  1.00  0.00     0.202 C 
BRANCH   5   6
ATOM      6  C   UNL A   1      55.522  30.280  28.429  1.00  0.00     0.261 C 
BRANCH   6   7
ATOM      7  O   UNL A   1      54.560  28.911  27.696  1.00  0.00    -0.460 OA
BRANCH   7   8
ATOM      8  C   UNL A   1      53.220  28.327  27.357  1.00  0.00     0.338 C 
ATOM      9  O   UNL A   1      52.367  27.974  28.184  1.00  0.00    -0.246 OA
BRANCH   8  10
ATOM     10  C   UNL A   1      52.547  28.149  25.893  1.00  0.00     0.062 A 
ATOM     11  C   UNL A   1      50.890  27.347  24.161  1.00  0.00     0.073 A 
ATOM     12  C   UNL A   1      51.479  27.335  25.430  1.00  0.00     0.044 A 
ATOM     13  C   UNL A   1      51.646  27.862  23.123  1.00  0.00     0.061 A 
ATOM     14  C   UNL A   1      52.883  28.432  23.467  1.00  0.00     0.029 A 
ATOM     15  C   UNL A   1      53.273  28.659  24.811  1.00  0.00     0.018 A 
BRANCH  11  16
ATOM     16  N   UNL A   1      49.636  26.629  23.932  1.00  0.00    -0.277 N 
ATOM     17  H   UNL A   1      49.681  25.766  23.461  1.00  0.00     0.180 HD
BRANCH  16  18
ATOM     18  S   UNL A   1      48.082  27.191  24.432  1.00  0.00     0.261 S 
ATOM     19  O   UNL A   1      47.324  27.439  23.222  1.00  0.00    -0.201 OA
ATOM     20  O   UNL A   1      48.283  28.299  25.347  1.00  0.00    -0.201 OA
BRANCH  18  21
ATOM     21  C   UNL A   1      47.195  25.968  25.348  1.00  0.00     0.088 A 
ATOM     22  C   UNL A   1      44.325  23.730  24.647  1.00  0.00     0.044 C 
ATOM     23  C   UNL A   1      45.471  24.307  25.396  1.00  0.00    -0.050 A 
ATOM     24  C   UNL A   1      45.548  24.239  26.788  1.00  0.00     0.003 A 
ATOM     25  C   UNL A   1      46.344  25.112  24.681  1.00  0.00     0.025 A 
ATOM     26  C   UNL A   1      46.511  24.986  27.460  1.00  0.00     0.002 A 
ATOM     27  C   UNL A   1      47.323  25.872  26.743  1.00  0.00     0.022 A 
ENDBRANCH  18  21
ENDBRANCH  16  18
ENDBRANCH  11  16
BRANCH  13  28
ATOM     28  N   UNL A   1      51.201  27.737  21.821  1.00  0.00    -0.369 N 
ATOM     29  C   UNL A   1      51.911  26.910  20.861  1.00  0.00     0.116 C 
ATOM     30  C   UNL A   1      50.301  28.770  21.320  1.00  0.00     0.126 C 
ATOM     31  C   UNL A   1      52.612  27.785  19.826  1.00  0.00     0.022 C 
ATOM     32  C   UNL A   1      51.029  29.720  20.364  1.00  0.00     0.064 C 
ATOM     33  C   UNL A   1      51.668  28.853  19.265  1.00  0.00     0.013 C 
BRANCH  32  34
ATOM     34  C   UNL A   1      51.986  30.641  21.164  1.00  0.00     0.267 C 
BRANCH  34  35
ATOM     35  N   UNL A   1      53.175  31.213  20.539  1.00  0.00    -0.335 N 
ATOM     36  C   UNL A   1      54.401  31.078  21.308  1.00  0.00     0.262 C 
ATOM     37  C   UNL A   1      53.057  32.597  20.102  1.00  0.00     0.262 C 
ATOM     38  H   UNL A   1      53.238  30.625  19.708  1.00  0.00     0.348 HD
ATOM     39  C   UNL A   1      54.568  32.418  21.993  1.00  0.00     0.067 C 
ATOM     40  C   UNL A   1      53.969  33.413  21.011  1.00  0.00     0.067 C 
ENDBRANCH  34  35
ENDBRANCH  32  34
ENDBRANCH  13  28
ENDBRANCH   8  10
ENDBRANCH   7   8
ENDBRANCH   6   7
ENDBRANCH   5   6
ENDBRANCH   4   5
ENDBRANCH   3   4
ENDBRANCH   2   3
ENDBRANCH   1   2
BRANCH   1  41
ATOM     41  C   UNL A   1      51.059  34.231  25.785  1.00  0.00     0.188 C 
BRANCH  41  42
ATOM     42  C   UNL A   1      49.610  34.553  25.611  1.00  0.00     0.188 C 
BRANCH  42  43
ATOM     43  O   UNL A   1      48.796  33.397  25.674  1.00  0.00    -0.376 OA
BRANCH  43  44
ATOM     44  C   UNL A   1      47.687  33.484  26.555  1.00  0.00     0.202 C 
BRANCH  44  45
ATOM     45  C   UNL A   1      47.701  34.580  27.644  1.00  0.00     0.261 C 
BRANCH  45  46
ATOM     46  O   UNL A   1      46.353  34.953  28.002  1.00  0.00    -0.460 OA
BRANCH  46  47
ATOM     47  C   UNL A   1      45.500  35.200  26.948  1.00  0.00     0.338 C 
ATOM     48  O   UNL A   1      45.396  36.233  26.347  1.00  0.00    -0.246 OA
BRANCH  47  49
ATOM     49  C   UNL A   1      44.547  34.046  26.899  1.00  0.00     0.060 A 
ATOM     50  C   UNL A   1      44.031  33.493  28.058  1.00  0.00     0.016 A 
ATOM     51  C   UNL A   1      44.414  33.288  25.771  1.00  0.00     0.016 A 
ATOM     52  C   UNL A   1      43.840  32.075  28.155  1.00  0.00     0.010 A 
ATOM     53  C   UNL A   1      44.119  31.914  25.919  1.00  0.00     0.010 A 
ATOM     54  C   UNL A   1      44.209  31.149  27.160  1.00  0.00    -0.014 A 
BRANCH  54  55
ATOM     55  C   UNL A   1      44.821  29.421  27.493  1.00  0.00     0.031 A 
ATOM     56  C   UNL A   1      43.852  27.729  27.012  1.00  0.00     0.074 A 
ATOM     57  C   UNL A   1      45.981  29.561  28.330  1.00  0.00     0.049 A 
ATOM     58  N   UNL A   1      43.269  26.899  27.930  1.00  0.00    -0.248 NA
ATOM     59  C   UNL A   1      42.897  27.180  25.781  1.00  0.00     0.031 C 
ATOM     60  C   UNL A   1      46.864  28.640  29.073  1.00  0.00     0.029 A 
ATOM     61  N   UNL A   1      46.591  30.726  28.840  1.00  0.00    -0.354 N 
ATOM     62  C   UNL A   1      42.419  25.908  27.563  1.00  0.00     0.074 A 
ATOM     63  C   UNL A   1      42.042  26.263  26.259  1.00  0.00     0.031 C 
ATOM     64  C   UNL A   1      47.836  29.157  29.814  1.00  0.00     0.029 A 
ATOM     65  C   UNL A   1      47.382  30.452  29.976  1.00  0.00     0.049 A 
ATOM     66  H   UNL A   1      46.479  31.623  28.451  1.00  0.00     0.167 HD
ATOM     67  C   UNL A   1      42.142  24.848  28.373  1.00  0.00     0.034 A 
ATOM     68  C   UNL A   1      47.040  30.796  31.236  1.00  0.00     0.034 A 
ATOM     69  C   UNL A   1      43.077  24.738  29.501  1.00  0.00     0.049 A 
ATOM     70  C   UNL A   1      46.284  29.634  32.032  1.00  0.00     0.074 A 
ATOM     71  C   UNL A   1      44.153  23.902  29.708  1.00  0.00     0.029 A 
ATOM     72  N   UNL A   1      43.146  25.678  30.532  1.00  0.00    -0.354 N 
ATOM     73  N   UNL A   1      45.723  28.521  31.547  1.00  0.00    -0.248 NA
ATOM     74  C   UNL A   1      46.217  29.631  33.485  1.00  0.00     0.031 C 
ATOM     75  C   UNL A   1      44.821  24.350  30.870  1.00  0.00     0.029 A 
ATOM     76  C   UNL A   1      44.353  25.609  31.254  1.00  0.00     0.049 A 
ATOM     77  H   UNL A   1      42.428  26.322  30.732  1.00  0.00     0.167 HD
ATOM     78  C   UNL A   1      45.236  27.683  32.553  1.00  0.00     0.074 A 
ATOM     79  C   UNL A   1      45.563  28.483  33.747  1.00  0.00     0.031 C 
ATOM     80  C   UNL A   1      44.625  26.419  32.479  1.00  0.00     0.034 A 
BRANCH  67  81
ATOM     81  C   UNL A   1      41.304  23.708  27.822  1.00  0.00     0.023 A 
ATOM     82  C   UNL A   1      41.903  22.472  27.529  1.00  0.00     0.031 A 
ATOM     83  C   UNL A   1      39.939  23.817  27.480  1.00  0.00     0.131 A 
ATOM     84  C   UNL A   1      41.229  21.479  26.799  1.00  0.00     0.055 A 
ATOM     85  C   UNL A   1      39.268  22.839  26.725  1.00  0.00     0.041 A 
ATOM     86  F   UNL A   1      39.214  24.884  27.857  1.00  0.00    -0.206 F 
ATOM     87  C   UNL A   1      39.923  21.671  26.357  1.00  0.00     0.022 A 
BRANCH  84  88
ATOM     88  S   UNL A   1      42.110  19.940  26.422  1.00  0.00     0.124 S 
ATOM     89  O   UNL A   1      43.415  20.429  25.991  1.00  0.00    -0.237 OA
ATOM     90  O   UNL A   1      42.075  19.241  27.703  1.00  0.00    -0.237 OA
ATOM     91  O   UNL A   1      41.299  19.332  25.368  1.00  0.00    -0.744 OA
ENDBRANCH  84  88
ENDBRANCH  67  81
BRANCH  68  92
ATOM     92  C   UNL A   1      47.149  32.296  31.213  1.00  0.00     0.023 A 
ATOM     93  C   UNL A   1      45.902  33.004  31.439  1.00  0.00     0.031 A 
ATOM     94  C   UNL A   1      48.316  32.928  31.624  1.00  0.00     0.131 A 
ATOM     95  C   UNL A   1      45.852  34.073  32.349  1.00  0.00     0.055 A 
ATOM     96  C   UNL A   1      48.261  34.109  32.386  1.00  0.00     0.041 A 
ATOM     97  F   UNL A   1      49.500  32.320  31.473  1.00  0.00    -0.206 F 
ATOM     98  C   UNL A   1      47.033  34.648  32.800  1.00  0.00     0.022 A 
BRANCH  95  99
ATOM     99  S   UNL A   1      44.310  34.339  33.336  1.00  0.00     0.124 S 
ATOM    100  O   UNL A   1      44.638  35.522  34.122  1.00  0.00    -0.237 OA
ATOM    101  O   UNL A   1      43.291  34.503  32.303  1.00  0.00    -0.237 OA
ATOM    102  O   UNL A   1      44.179  33.093  34.090  1.00  0.00    -0.744 OA
ENDBRANCH  95  99
ENDBRANCH  68  92
BRANCH  80 103
ATOM    103  C   UNL A   1      44.235  25.645  33.738  1.00  0.00     0.023 A 
ATOM    104  C   UNL A   1      45.004  24.601  34.252  1.00  0.00     0.031 A 
ATOM    105  C   UNL A   1      42.999  25.884  34.398  1.00  0.00     0.131 A 
ATOM    106  C   UNL A   1      44.658  24.000  35.470  1.00  0.00     0.055 A 
ATOM    107  C   UNL A   1      42.578  25.164  35.516  1.00  0.00     0.041 A 
ATOM    108  F   UNL A   1      42.156  26.850  34.005  1.00  0.00    -0.206 F 
ATOM    109  C   UNL A   1      43.437  24.248  36.093  1.00  0.00     0.022 A 
BRANCH 106 110
ATOM    110  S   UNL A   1      45.941  23.052  36.317  1.00  0.00     0.124 S 
ATOM    111  O   UNL A   1      45.683  23.359  37.718  1.00  0.00    -0.237 OA
ATOM    112  O   UNL A   1      45.619  21.689  35.897  1.00  0.00    -0.237 OA
ATOM    113  O   UNL A   1      47.184  23.590  35.770  1.00  0.00    -0.744 OA
ENDBRANCH 106 110
ENDBRANCH  80 103
ENDBRANCH  54  55
ENDBRANCH  47  49
ENDBRANCH  46  47
ENDBRANCH  45  46
ENDBRANCH  44  45
ENDBRANCH  43  44
ENDBRANCH  42  43
ENDBRANCH  41  42
ENDBRANCH   1  41
TORSDOF 29
ENDMDL
