MODEL 1
REMARK VINA RESULT:      -7.4      0.000      0.000
REMARK SMILES C[C@H]1CCCN1c1cccc(OCC(=O)OCCOCCOCCOCCOC(=O)c2ccc(-c3c4nc(c(-c5cc(S(=O)(=O)[O-])ccc5F)c5ccc([nH]5)c(-c5cc(S(=O)(=O)[O-])ccc5F)c5nc(c(-c6cc(S(=O)(=O)[O-])ccc6F)c6ccc3[nH]6)C=C5)C=C4)cc2)c1
REMARK SMILES IDX 22 1 21 2 20 3 19 4 18 5 17 6 16 7 14 8 15 9 13 10 12 11
REMARK SMILES IDX 11 12 7 13 8 14 94 15 9 16 10 17 6 18 1 19 2 20 3 21 4 22
REMARK SMILES IDX 5 23 23 24 24 25 25 26 26 27 27 28 28 29 29 30 30 31 31 32
REMARK SMILES IDX 32 33 93 34 33 35 92 36 34 37 35 38 36 39 86 40 37 41 91 42
REMARK SMILES IDX 85 43 87 44 38 45 90 46 84 47 83 48 39 50 71 51 51 52 70 53
REMARK SMILES IDX 52 54 55 55 69 56 88 57 53 58 54 59 68 61 89 62 56 63 40 64
REMARK SMILES IDX 41 65 49 66 42 67 48 68 50 69 47 70 43 71 44 72 45 73 46 74
REMARK SMILES IDX 72 75 73 76 81 77 74 78 80 79 82 80 79 81 75 82 76 83 77 84
REMARK SMILES IDX 78 85 57 86 58 87 66 88 59 89 65 90 67 91 64 92 60 93 61 94
REMARK SMILES IDX 62 95 63 96
REMARK H PARENT 87 49 55 60
REMARK Flexibility Score: inf
ROOT
ATOM      1  O   UNL A   1      40.570  25.468  27.675  1.00  0.00    -0.377 OA
ENDROOT
BRANCH   1   2
ATOM      2  C   UNL A   1      40.211  26.309  28.761  1.00  0.00     0.188 C 
BRANCH   2   3
ATOM      3  C   UNL A   1      39.315  27.506  28.359  1.00  0.00     0.188 C 
BRANCH   3   4
ATOM      4  O   UNL A   1      38.610  28.281  29.316  1.00  0.00    -0.376 OA
BRANCH   4   5
ATOM      5  C   UNL A   1      38.788  27.956  30.679  1.00  0.00     0.202 C 
BRANCH   5   6
ATOM      6  C   UNL A   1      39.727  28.832  31.532  1.00  0.00     0.261 C 
BRANCH   6   7
ATOM      7  O   UNL A   1      40.265  30.013  30.898  1.00  0.00    -0.461 OA
BRANCH   7   8
ATOM      8  C   UNL A   1      39.808  31.222  31.321  1.00  0.00     0.344 C 
ATOM      9  O   UNL A   1      39.942  31.653  32.461  1.00  0.00    -0.248 OA
BRANCH   8  10
ATOM     10  C   UNL A   1      39.061  32.010  30.217  1.00  0.00     0.351 C 
BRANCH  10  11
ATOM     11  O   UNL A   1      37.814  31.590  29.687  1.00  0.00    -0.482 OA
BRANCH  11  12
ATOM     12  C   UNL A   1      36.697  32.386  29.699  1.00  0.00     0.122 A 
ATOM     13  C   UNL A   1      35.028  33.889  30.714  1.00  0.00     0.041 A 
ATOM     14  C   UNL A   1      34.682  34.300  29.415  1.00  0.00     0.026 A 
ATOM     15  C   UNL A   1      36.000  32.871  30.822  1.00  0.00     0.072 A 
ATOM     16  C   UNL A   1      35.314  33.782  28.283  1.00  0.00     0.006 A 
ATOM     17  C   UNL A   1      36.334  32.849  28.431  1.00  0.00     0.046 A 
BRANCH  13  18
ATOM     18  N   UNL A   1      34.423  34.493  31.798  1.00  0.00    -0.369 N 
ATOM     19  C   UNL A   1      32.384  35.930  31.695  1.00  0.00     0.031 C 
ATOM     20  C   UNL A   1      33.900  35.867  31.911  1.00  0.00     0.079 C 
ATOM     21  C   UNL A   1      34.164  36.246  33.383  1.00  0.00     0.026 C 
ATOM     22  C   UNL A   1      34.889  35.058  33.997  1.00  0.00     0.023 C 
ATOM     23  C   UNL A   1      34.510  33.878  33.116  1.00  0.00     0.117 C 
ENDBRANCH  13  18
ENDBRANCH  11  12
ENDBRANCH  10  11
ENDBRANCH   8  10
ENDBRANCH   7   8
ENDBRANCH   6   7
ENDBRANCH   5   6
ENDBRANCH   4   5
ENDBRANCH   3   4
ENDBRANCH   2   3
ENDBRANCH   1   2
BRANCH   1  24
ATOM     24  C   UNL A   1      39.721  24.335  27.520  1.00  0.00     0.188 C 
BRANCH  24  25
ATOM     25  C   UNL A   1      40.492  23.028  27.297  1.00  0.00     0.188 C 
BRANCH  25  26
ATOM     26  O   UNL A   1      41.278  23.103  26.114  1.00  0.00    -0.376 OA
BRANCH  26  27
ATOM     27  C   UNL A   1      42.368  22.225  25.915  1.00  0.00     0.202 C 
BRANCH  27  28
ATOM     28  C   UNL A   1      43.637  22.886  25.393  1.00  0.00     0.261 C 
BRANCH  28  29
ATOM     29  O   UNL A   1      43.612  24.308  25.387  1.00  0.00    -0.460 OA
BRANCH  29  30
ATOM     30  C   UNL A   1      44.787  24.968  25.343  1.00  0.00     0.338 C 
ATOM     31  O   UNL A   1      45.713  24.808  24.570  1.00  0.00    -0.246 OA
BRANCH  30  32
ATOM     32  C   UNL A   1      44.592  26.111  26.244  1.00  0.00     0.060 A 
ATOM     33  C   UNL A   1      45.699  26.641  26.916  1.00  0.00     0.016 A 
ATOM     34  C   UNL A   1      43.339  26.736  26.288  1.00  0.00     0.016 A 
ATOM     35  C   UNL A   1      45.552  27.811  27.647  1.00  0.00     0.010 A 
ATOM     36  C   UNL A   1      43.185  27.891  27.032  1.00  0.00     0.010 A 
ATOM     37  C   UNL A   1      44.284  28.400  27.739  1.00  0.00    -0.014 A 
BRANCH  37  38
ATOM     38  C   UNL A   1      44.026  29.346  28.833  1.00  0.00     0.031 A 
ATOM     39  C   UNL A   1      43.802  28.741  30.188  1.00  0.00     0.074 A 
ATOM     40  C   UNL A   1      43.996  30.667  28.608  1.00  0.00     0.049 A 
ATOM     41  N   UNL A   1      43.506  29.320  31.316  1.00  0.00    -0.248 NA
ATOM     42  C   UNL A   1      43.920  27.273  30.274  1.00  0.00     0.031 C 
ATOM     43  C   UNL A   1      44.237  31.311  27.316  1.00  0.00     0.029 A 
ATOM     44  N   UNL A   1      43.742  31.701  29.463  1.00  0.00    -0.354 N 
ATOM     45  C   UNL A   1      43.409  28.289  32.244  1.00  0.00     0.074 A 
ATOM     46  C   UNL A   1      43.622  27.048  31.541  1.00  0.00     0.031 C 
ATOM     47  C   UNL A   1      44.111  32.641  27.468  1.00  0.00     0.029 A 
ATOM     48  C   UNL A   1      43.744  32.931  28.852  1.00  0.00     0.049 A 
ATOM     49  H   UNL A   1      43.574  31.578  30.425  1.00  0.00     0.167 HD
ATOM     50  C   UNL A   1      43.171  28.383  33.572  1.00  0.00     0.034 A 
ATOM     51  C   UNL A   1      43.457  34.141  29.368  1.00  0.00     0.034 A 
ATOM     52  C   UNL A   1      42.926  29.642  34.223  1.00  0.00     0.049 A 
ATOM     53  C   UNL A   1      43.110  34.212  30.838  1.00  0.00     0.074 A 
ATOM     54  C   UNL A   1      42.657  29.889  35.555  1.00  0.00     0.029 A 
ATOM     55  N   UNL A   1      42.907  30.872  33.572  1.00  0.00    -0.354 N 
ATOM     56  N   UNL A   1      43.032  33.238  31.719  1.00  0.00    -0.248 NA
ATOM     57  C   UNL A   1      42.823  35.542  31.385  1.00  0.00     0.031 C 
ATOM     58  C   UNL A   1      42.402  31.256  35.695  1.00  0.00     0.029 A 
ATOM     59  C   UNL A   1      42.599  31.878  34.469  1.00  0.00     0.049 A 
ATOM     60  H   UNL A   1      43.085  31.006  32.614  1.00  0.00     0.167 HD
ATOM     61  C   UNL A   1      42.723  33.843  32.933  1.00  0.00     0.074 A 
ATOM     62  C   UNL A   1      42.642  35.268  32.669  1.00  0.00     0.031 C 
ATOM     63  C   UNL A   1      42.525  33.287  34.156  1.00  0.00     0.034 A 
BRANCH  50  64
ATOM     64  C   UNL A   1      43.106  27.095  34.354  1.00  0.00     0.023 A 
ATOM     65  C   UNL A   1      44.269  26.417  34.763  1.00  0.00     0.031 A 
ATOM     66  C   UNL A   1      41.865  26.500  34.635  1.00  0.00     0.131 A 
ATOM     67  C   UNL A   1      44.169  25.153  35.363  1.00  0.00     0.055 A 
ATOM     68  C   UNL A   1      41.769  25.281  35.309  1.00  0.00     0.041 A 
ATOM     69  F   UNL A   1      40.723  27.080  34.235  1.00  0.00    -0.206 F 
ATOM     70  C   UNL A   1      42.926  24.593  35.664  1.00  0.00     0.022 A 
BRANCH  67  71
ATOM     71  S   UNL A   1      45.684  24.185  35.610  1.00  0.00     0.124 S 
ATOM     72  O   UNL A   1      45.142  22.885  36.000  1.00  0.00    -0.237 OA
ATOM     73  O   UNL A   1      46.315  24.245  34.297  1.00  0.00    -0.237 OA
ATOM     74  O   UNL A   1      46.381  24.905  36.673  1.00  0.00    -0.744 OA
ENDBRANCH  67  71
ENDBRANCH  50  64
BRANCH  51  75
ATOM     75  C   UNL A   1      43.458  35.357  28.507  1.00  0.00     0.023 A 
ATOM     76  C   UNL A   1      44.642  36.059  28.240  1.00  0.00     0.031 A 
ATOM     77  C   UNL A   1      42.259  35.865  27.971  1.00  0.00     0.131 A 
ATOM     78  C   UNL A   1      44.600  37.254  27.503  1.00  0.00     0.055 A 
ATOM     79  C   UNL A   1      42.229  37.022  27.190  1.00  0.00     0.041 A 
ATOM     80  F   UNL A   1      41.094  35.236  28.195  1.00  0.00    -0.206 F 
ATOM     81  C   UNL A   1      43.404  37.732  26.964  1.00  0.00     0.022 A 
BRANCH  78  82
ATOM     82  S   UNL A   1      46.122  38.227  27.339  1.00  0.00     0.124 S 
ATOM     83  O   UNL A   1      46.037  39.107  28.499  1.00  0.00    -0.237 OA
ATOM     84  O   UNL A   1      47.150  37.193  27.391  1.00  0.00    -0.237 OA
ATOM     85  O   UNL A   1      45.967  38.886  26.044  1.00  0.00    -0.744 OA
ENDBRANCH  78  82
ENDBRANCH  51  75
BRANCH  63  86
ATOM     86  C   UNL A   1      42.254  34.233  35.298  1.00  0.00     0.023 A 
ATOM     87  C   UNL A   1      43.294  34.782  36.065  1.00  0.00     0.031 A 
ATOM     88  C   UNL A   1      40.931  34.591  35.616  1.00  0.00     0.131 A 
ATOM     89  C   UNL A   1      42.991  35.613  37.152  1.00  0.00     0.055 A 
ATOM     90  C   UNL A   1      40.641  35.475  36.653  1.00  0.00     0.041 A 
ATOM     91  F   UNL A   1      39.901  34.093  34.914  1.00  0.00    -0.206 F 
ATOM     92  C   UNL A   1      41.674  35.980  37.438  1.00  0.00     0.022 A 
BRANCH  89  93
ATOM     93  S   UNL A   1      44.338  36.125  38.251  1.00  0.00     0.124 S 
ATOM     94  O   UNL A   1      43.779  35.839  39.568  1.00  0.00    -0.237 OA
ATOM     95  O   UNL A   1      45.435  35.264  37.824  1.00  0.00    -0.237 OA
ATOM     96  O   UNL A   1      44.510  37.544  37.944  1.00  0.00    -0.744 OA
ENDBRANCH  89  93
ENDBRANCH  63  86
ENDBRANCH  37  38
ENDBRANCH  30  32
ENDBRANCH  29  30
ENDBRANCH  28  29
ENDBRANCH  27  28
ENDBRANCH  26  27
ENDBRANCH  25  26
ENDBRANCH  24  25
ENDBRANCH   1  24
TORSDOF 26
ENDMDL
MODEL 2
REMARK VINA RESULT:      -7.4      5.274      8.795
REMARK SMILES C[C@H]1CCCN1c1cccc(OCC(=O)OCCOCCOCCOCCOC(=O)c2ccc(-c3c4nc(c(-c5cc(S(=O)(=O)[O-])ccc5F)c5ccc([nH]5)c(-c5cc(S(=O)(=O)[O-])ccc5F)c5nc(c(-c6cc(S(=O)(=O)[O-])ccc6F)c6ccc3[nH]6)C=C5)C=C4)cc2)c1
REMARK SMILES IDX 22 1 21 2 20 3 19 4 18 5 17 6 16 7 14 8 15 9 13 10 12 11
REMARK SMILES IDX 11 12 7 13 8 14 94 15 9 16 10 17 6 18 1 19 2 20 3 21 4 22
REMARK SMILES IDX 5 23 23 24 24 25 25 26 26 27 27 28 28 29 29 30 30 31 31 32
REMARK SMILES IDX 32 33 93 34 33 35 92 36 34 37 35 38 36 39 86 40 37 41 91 42
REMARK SMILES IDX 85 43 87 44 38 45 90 46 84 47 83 48 39 50 71 51 51 52 70 53
REMARK SMILES IDX 52 54 55 55 69 56 88 57 53 58 54 59 68 61 89 62 56 63 40 64
REMARK SMILES IDX 41 65 49 66 42 67 48 68 50 69 47 70 43 71 44 72 45 73 46 74
REMARK SMILES IDX 72 75 73 76 81 77 74 78 80 79 82 80 79 81 75 82 76 83 77 84
REMARK SMILES IDX 78 85 57 86 58 87 66 88 59 89 65 90 67 91 64 92 60 93 61 94
REMARK SMILES IDX 62 95 63 96
REMARK H PARENT 87 49 55 60
REMARK Flexibility Score: inf
ROOT
ATOM      1  O   UNL A   1      35.927  23.167  25.626  1.00  0.00    -0.377 OA
ENDROOT
BRANCH   1   2
ATOM      2  C   UNL A   1      35.120  22.751  26.717  1.00  0.00     0.188 C 
BRANCH   2   3
ATOM      3  C   UNL A   1      33.813  22.036  26.296  1.00  0.00     0.188 C 
BRANCH   3   4
ATOM      4  O   UNL A   1      33.473  20.739  26.762  1.00  0.00    -0.376 OA
BRANCH   4   5
ATOM      5  C   UNL A   1      33.172  19.756  25.795  1.00  0.00     0.202 C 
BRANCH   5   6
ATOM      6  C   UNL A   1      32.308  20.153  24.580  1.00  0.00     0.261 C 
BRANCH   6   7
ATOM      7  O   UNL A   1      32.777  21.265  23.787  1.00  0.00    -0.461 OA
BRANCH   7   8
ATOM      8  C   UNL A   1      32.054  21.606  22.687  1.00  0.00     0.344 C 
ATOM      9  O   UNL A   1      32.009  20.946  21.654  1.00  0.00    -0.248 OA
BRANCH   8  10
ATOM     10  C   UNL A   1      31.297  22.948  22.849  1.00  0.00     0.351 C 
BRANCH  10  11
ATOM     11  O   UNL A   1      31.965  24.186  23.031  1.00  0.00    -0.482 OA
BRANCH  11  12
ATOM     12  C   UNL A   1      31.782  24.971  24.142  1.00  0.00     0.122 A 
ATOM     13  C   UNL A   1      31.922  27.043  25.468  1.00  0.00     0.041 A 
ATOM     14  C   UNL A   1      30.922  26.516  26.304  1.00  0.00     0.026 A 
ATOM     15  C   UNL A   1      32.385  26.211  24.426  1.00  0.00     0.072 A 
ATOM     16  C   UNL A   1      30.358  25.259  26.079  1.00  0.00     0.006 A 
ATOM     17  C   UNL A   1      30.771  24.505  24.986  1.00  0.00     0.046 A 
BRANCH  13  18
ATOM     18  N   UNL A   1      32.388  28.323  25.694  1.00  0.00    -0.369 N 
ATOM     19  C   UNL A   1      34.615  28.894  26.668  1.00  0.00     0.031 C 
ATOM     20  C   UNL A   1      33.097  28.848  26.876  1.00  0.00     0.079 C 
ATOM     21  C   UNL A   1      32.609  30.307  26.985  1.00  0.00     0.026 C 
ATOM     22  C   UNL A   1      31.591  30.492  25.871  1.00  0.00     0.023 C 
ATOM     23  C   UNL A   1      31.939  29.421  24.849  1.00  0.00     0.117 C 
ENDBRANCH  13  18
ENDBRANCH  11  12
ENDBRANCH  10  11
ENDBRANCH   8  10
ENDBRANCH   7   8
ENDBRANCH   6   7
ENDBRANCH   5   6
ENDBRANCH   4   5
ENDBRANCH   3   4
ENDBRANCH   2   3
ENDBRANCH   1   2
BRANCH   1  24
ATOM     24  C   UNL A   1      36.177  22.139  24.672  1.00  0.00     0.188 C 
BRANCH  24  25
ATOM     25  C   UNL A   1      37.623  21.630  24.699  1.00  0.00     0.188 C 
BRANCH  25  26
ATOM     26  O   UNL A   1      37.657  20.209  24.656  1.00  0.00    -0.376 OA
BRANCH  26  27
ATOM     27  C   UNL A   1      38.663  19.490  25.342  1.00  0.00     0.202 C 
BRANCH  27  28
ATOM     28  C   UNL A   1      39.658  20.350  26.108  1.00  0.00     0.261 C 
BRANCH  28  29
ATOM     29  O   UNL A   1      40.781  19.648  26.627  1.00  0.00    -0.460 OA
BRANCH  29  30
ATOM     30  C   UNL A   1      41.992  19.884  26.081  1.00  0.00     0.338 C 
ATOM     31  O   UNL A   1      42.604  19.201  25.282  1.00  0.00    -0.246 OA
BRANCH  30  32
ATOM     32  C   UNL A   1      42.283  21.278  26.440  1.00  0.00     0.060 A 
ATOM     33  C   UNL A   1      42.276  22.252  25.434  1.00  0.00     0.016 A 
ATOM     34  C   UNL A   1      42.407  21.621  27.792  1.00  0.00     0.016 A 
ATOM     35  C   UNL A   1      42.397  23.588  25.785  1.00  0.00     0.010 A 
ATOM     36  C   UNL A   1      42.549  22.950  28.142  1.00  0.00     0.010 A 
ATOM     37  C   UNL A   1      42.582  23.924  27.133  1.00  0.00    -0.014 A 
BRANCH  37  38
ATOM     38  C   UNL A   1      43.143  25.241  27.460  1.00  0.00     0.031 A 
ATOM     39  C   UNL A   1      42.222  26.194  28.162  1.00  0.00     0.074 A 
ATOM     40  C   UNL A   1      44.408  25.549  27.138  1.00  0.00     0.049 A 
ATOM     41  N   UNL A   1      42.424  27.428  28.525  1.00  0.00    -0.248 NA
ATOM     42  C   UNL A   1      40.878  25.680  28.489  1.00  0.00     0.031 C 
ATOM     43  C   UNL A   1      45.358  24.650  26.483  1.00  0.00     0.029 A 
ATOM     44  N   UNL A   1      45.104  26.711  27.317  1.00  0.00    -0.354 N 
ATOM     45  C   UNL A   1      41.238  27.834  29.127  1.00  0.00     0.074 A 
ATOM     46  C   UNL A   1      40.304  26.738  29.033  1.00  0.00     0.031 C 
ATOM     47  C   UNL A   1      46.520  25.303  26.308  1.00  0.00     0.029 A 
ATOM     48  C   UNL A   1      46.377  26.671  26.803  1.00  0.00     0.049 A 
ATOM     49  H   UNL A   1      44.730  27.500  27.770  1.00  0.00     0.167 HD
ATOM     50  C   UNL A   1      40.965  29.020  29.716  1.00  0.00     0.034 A 
ATOM     51  C   UNL A   1      47.300  27.649  26.731  1.00  0.00     0.034 A 
ATOM     52  C   UNL A   1      41.917  30.098  29.752  1.00  0.00     0.049 A 
ATOM     53  C   UNL A   1      46.942  28.995  27.320  1.00  0.00     0.074 A 
ATOM     54  C   UNL A   1      41.776  31.358  30.298  1.00  0.00     0.029 A 
ATOM     55  N   UNL A   1      43.192  30.039  29.197  1.00  0.00    -0.354 N 
ATOM     56  N   UNL A   1      45.824  29.373  27.902  1.00  0.00    -0.248 NA
ATOM     57  C   UNL A   1      47.969  30.039  27.252  1.00  0.00     0.031 C 
ATOM     58  C   UNL A   1      42.935  32.084  30.009  1.00  0.00     0.029 A 
ATOM     59  C   UNL A   1      43.837  31.251  29.361  1.00  0.00     0.049 A 
ATOM     60  H   UNL A   1      43.577  29.250  28.753  1.00  0.00     0.167 HD
ATOM     61  C   UNL A   1      46.029  30.690  28.303  1.00  0.00     0.074 A 
ATOM     62  C   UNL A   1      47.382  31.032  27.905  1.00  0.00     0.031 C 
ATOM     63  C   UNL A   1      45.188  31.546  28.941  1.00  0.00     0.034 A 
BRANCH  50  64
ATOM     64  C   UNL A   1      39.583  29.204  30.288  1.00  0.00     0.023 A 
ATOM     65  C   UNL A   1      38.654  30.091  29.711  1.00  0.00     0.031 A 
ATOM     66  C   UNL A   1      39.210  28.538  31.467  1.00  0.00     0.131 A 
ATOM     67  C   UNL A   1      37.432  30.340  30.353  1.00  0.00     0.055 A 
ATOM     68  C   UNL A   1      37.958  28.727  32.055  1.00  0.00     0.041 A 
ATOM     69  F   UNL A   1      40.067  27.711  32.085  1.00  0.00    -0.206 F 
ATOM     70  C   UNL A   1      37.066  29.643  31.506  1.00  0.00     0.022 A 
BRANCH  67  71
ATOM     71  S   UNL A   1      36.391  31.696  29.744  1.00  0.00     0.124 S 
ATOM     72  O   UNL A   1      37.369  32.529  29.048  1.00  0.00    -0.237 OA
ATOM     73  O   UNL A   1      35.428  31.001  28.898  1.00  0.00    -0.237 OA
ATOM     74  O   UNL A   1      35.841  32.281  30.965  1.00  0.00    -0.744 OA
ENDBRANCH  67  71
ENDBRANCH  50  64
BRANCH  51  75
ATOM     75  C   UNL A   1      48.613  27.412  26.070  1.00  0.00     0.023 A 
ATOM     76  C   UNL A   1      48.857  27.846  24.759  1.00  0.00     0.031 A 
ATOM     77  C   UNL A   1      49.637  26.703  26.728  1.00  0.00     0.131 A 
ATOM     78  C   UNL A   1      50.071  27.527  24.127  1.00  0.00     0.055 A 
ATOM     79  C   UNL A   1      50.864  26.438  26.117  1.00  0.00     0.041 A 
ATOM     80  F   UNL A   1      49.460  26.262  27.983  1.00  0.00    -0.206 F 
ATOM     81  C   UNL A   1      51.081  26.839  24.802  1.00  0.00     0.022 A 
BRANCH  78  82
ATOM     82  S   UNL A   1      50.273  27.943  22.374  1.00  0.00     0.124 S 
ATOM     83  O   UNL A   1      50.877  26.725  21.847  1.00  0.00    -0.237 OA
ATOM     84  O   UNL A   1      48.897  28.207  21.965  1.00  0.00    -0.237 OA
ATOM     85  O   UNL A   1      51.148  29.113  22.399  1.00  0.00    -0.744 OA
ENDBRANCH  78  82
ENDBRANCH  51  75
BRANCH  63  86
ATOM     86  C   UNL A   1      45.736  32.906  29.287  1.00  0.00     0.023 A 
ATOM     87  C   UNL A   1      46.423  33.143  30.488  1.00  0.00     0.031 A 
ATOM     88  C   UNL A   1      45.567  33.980  28.394  1.00  0.00     0.131 A 
ATOM     89  C   UNL A   1      46.865  34.437  30.792  1.00  0.00     0.055 A 
ATOM     90  C   UNL A   1      46.073  35.248  28.670  1.00  0.00     0.041 A 
ATOM     91  F   UNL A   1      44.917  33.807  27.231  1.00  0.00    -0.206 F 
ATOM     92  C   UNL A   1      46.714  35.487  29.882  1.00  0.00     0.022 A 
BRANCH  89  93
ATOM     93  S   UNL A   1      47.550  34.753  32.440  1.00  0.00     0.124 S 
ATOM     94  O   UNL A   1      46.393  35.288  33.151  1.00  0.00    -0.237 OA
ATOM     95  O   UNL A   1      47.994  33.426  32.854  1.00  0.00    -0.237 OA
ATOM     96  O   UNL A   1      48.622  35.713  32.187  1.00  0.00    -0.744 OA
ENDBRANCH  89  93
ENDBRANCH  63  86
ENDBRANCH  37  38
ENDBRANCH  30  32
ENDBRANCH  29  30
ENDBRANCH  28  29
ENDBRANCH  27  28
ENDBRANCH  26  27
ENDBRANCH  25  26
ENDBRANCH  24  25
ENDBRANCH   1  24
TORSDOF 26
ENDMDL
MODEL 3
REMARK VINA RESULT:      -7.3      5.849     11.389
REMARK SMILES C[C@H]1CCCN1c1cccc(OCC(=O)OCCOCCOCCOCCOC(=O)c2ccc(-c3c4nc(c(-c5cc(S(=O)(=O)[O-])ccc5F)c5ccc([nH]5)c(-c5cc(S(=O)(=O)[O-])ccc5F)c5nc(c(-c6cc(S(=O)(=O)[O-])ccc6F)c6ccc3[nH]6)C=C5)C=C4)cc2)c1
REMARK SMILES IDX 22 1 21 2 20 3 19 4 18 5 17 6 16 7 14 8 15 9 13 10 12 11
REMARK SMILES IDX 11 12 7 13 8 14 94 15 9 16 10 17 6 18 1 19 2 20 3 21 4 22
REMARK SMILES IDX 5 23 23 24 24 25 25 26 26 27 27 28 28 29 29 30 30 31 31 32
REMARK SMILES IDX 32 33 93 34 33 35 92 36 34 37 35 38 36 39 86 40 37 41 91 42
REMARK SMILES IDX 85 43 87 44 38 45 90 46 84 47 83 48 39 50 71 51 51 52 70 53
REMARK SMILES IDX 52 54 55 55 69 56 88 57 53 58 54 59 68 61 89 62 56 63 40 64
REMARK SMILES IDX 41 65 49 66 42 67 48 68 50 69 47 70 43 71 44 72 45 73 46 74
REMARK SMILES IDX 72 75 73 76 81 77 74 78 80 79 82 80 79 81 75 82 76 83 77 84
REMARK SMILES IDX 78 85 57 86 58 87 66 88 59 89 65 90 67 91 64 92 60 93 61 94
REMARK SMILES IDX 62 95 63 96
REMARK H PARENT 87 49 55 60
REMARK Flexibility Score: inf
ROOT
ATOM      1  O   UNL A   1      36.096  30.354  27.874  1.00  0.00    -0.377 OA
ENDROOT
BRANCH   1   2
ATOM      2  C   UNL A   1      35.188  29.314  27.539  1.00  0.00     0.188 C 
BRANCH   2   3
ATOM      3  C   UNL A   1      34.083  29.742  26.543  1.00  0.00     0.188 C 
BRANCH   3   4
ATOM      4  O   UNL A   1      33.255  28.801  25.878  1.00  0.00    -0.376 OA
BRANCH   4   5
ATOM      5  C   UNL A   1      31.881  28.795  26.204  1.00  0.00     0.202 C 
BRANCH   5   6
ATOM      6  C   UNL A   1      31.363  27.746  27.209  1.00  0.00     0.261 C 
BRANCH   6   7
ATOM      7  O   UNL A   1      31.691  26.367  26.933  1.00  0.00    -0.461 OA
BRANCH   7   8
ATOM      8  C   UNL A   1      30.827  25.655  26.160  1.00  0.00     0.344 C 
ATOM      9  O   UNL A   1      29.693  25.337  26.500  1.00  0.00    -0.248 OA
BRANCH   8  10
ATOM     10  C   UNL A   1      31.430  25.247  24.793  1.00  0.00     0.351 C 
BRANCH  10  11
ATOM     11  O   UNL A   1      30.806  25.560  23.558  1.00  0.00    -0.482 OA
BRANCH  11  12
ATOM     12  C   UNL A   1      30.809  26.826  23.026  1.00  0.00     0.122 A 
ATOM     13  C   UNL A   1      29.867  29.047  22.523  1.00  0.00     0.041 A 
ATOM     14  C   UNL A   1      31.178  29.490  22.274  1.00  0.00     0.026 A 
ATOM     15  C   UNL A   1      29.706  27.679  22.833  1.00  0.00     0.072 A 
ATOM     16  C   UNL A   1      32.280  28.643  22.394  1.00  0.00     0.006 A 
ATOM     17  C   UNL A   1      32.094  27.324  22.794  1.00  0.00     0.046 A 
BRANCH  13  18
ATOM     18  N   UNL A   1      28.824  29.949  22.464  1.00  0.00    -0.369 N 
ATOM     19  C   UNL A   1      28.397  31.536  20.585  1.00  0.00     0.031 C 
ATOM     20  C   UNL A   1      28.854  31.360  22.038  1.00  0.00     0.079 C 
ATOM     21  C   UNL A   1      27.796  32.042  22.930  1.00  0.00     0.026 C 
ATOM     22  C   UNL A   1      27.275  30.958  23.862  1.00  0.00     0.023 C 
ATOM     23  C   UNL A   1      27.566  29.654  23.137  1.00  0.00     0.117 C 
ENDBRANCH  13  18
ENDBRANCH  11  12
ENDBRANCH  10  11
ENDBRANCH   8  10
ENDBRANCH   7   8
ENDBRANCH   6   7
ENDBRANCH   5   6
ENDBRANCH   4   5
ENDBRANCH   3   4
ENDBRANCH   2   3
ENDBRANCH   1   2
BRANCH   1  24
ATOM     24  C   UNL A   1      35.509  31.651  27.873  1.00  0.00     0.188 C 
BRANCH  24  25
ATOM     25  C   UNL A   1      36.301  32.673  28.699  1.00  0.00     0.188 C 
BRANCH  25  26
ATOM     26  O   UNL A   1      36.543  32.181  30.011  1.00  0.00    -0.376 OA
BRANCH  26  27
ATOM     27  C   UNL A   1      35.889  32.750  31.127  1.00  0.00     0.202 C 
BRANCH  27  28
ATOM     28  C   UNL A   1      36.583  32.522  32.463  1.00  0.00     0.261 C 
BRANCH  28  29
ATOM     29  O   UNL A   1      37.711  31.657  32.410  1.00  0.00    -0.460 OA
BRANCH  29  30
ATOM     30  C   UNL A   1      37.511  30.333  32.571  1.00  0.00     0.338 C 
ATOM     31  O   UNL A   1      36.464  29.716  32.511  1.00  0.00    -0.246 OA
BRANCH  30  32
ATOM     32  C   UNL A   1      38.862  29.759  32.552  1.00  0.00     0.060 A 
ATOM     33  C   UNL A   1      39.007  28.367  32.529  1.00  0.00     0.016 A 
ATOM     34  C   UNL A   1      39.962  30.613  32.401  1.00  0.00     0.016 A 
ATOM     35  C   UNL A   1      40.270  27.821  32.356  1.00  0.00     0.010 A 
ATOM     36  C   UNL A   1      41.224  30.071  32.248  1.00  0.00     0.010 A 
ATOM     37  C   UNL A   1      41.376  28.676  32.266  1.00  0.00    -0.014 A 
BRANCH  37  38
ATOM     38  C   UNL A   1      42.713  28.129  32.527  1.00  0.00     0.031 A 
ATOM     39  C   UNL A   1      43.531  27.781  31.318  1.00  0.00     0.074 A 
ATOM     40  C   UNL A   1      43.154  27.960  33.782  1.00  0.00     0.049 A 
ATOM     41  N   UNL A   1      44.713  27.240  31.243  1.00  0.00    -0.248 NA
ATOM     42  C   UNL A   1      42.917  28.077  30.009  1.00  0.00     0.031 C 
ATOM     43  C   UNL A   1      42.414  28.310  34.994  1.00  0.00     0.029 A 
ATOM     44  N   UNL A   1      44.333  27.442  34.239  1.00  0.00    -0.354 N 
ATOM     45  C   UNL A   1      44.985  27.138  29.884  1.00  0.00     0.074 A 
ATOM     46  C   UNL A   1      43.828  27.620  29.170  1.00  0.00     0.031 C 
ATOM     47  C   UNL A   1      43.161  27.987  36.065  1.00  0.00     0.029 A 
ATOM     48  C   UNL A   1      44.407  27.376  35.609  1.00  0.00     0.049 A 
ATOM     49  H   UNL A   1      45.059  27.145  33.645  1.00  0.00     0.167 HD
ATOM     50  C   UNL A   1      46.114  26.688  29.292  1.00  0.00     0.034 A 
ATOM     51  C   UNL A   1      45.375  26.854  36.387  1.00  0.00     0.034 A 
ATOM     52  C   UNL A   1      47.229  26.180  30.046  1.00  0.00     0.049 A 
ATOM     53  C   UNL A   1      46.592  26.278  35.700  1.00  0.00     0.074 A 
ATOM     54  C   UNL A   1      48.429  25.678  29.584  1.00  0.00     0.029 A 
ATOM     55  N   UNL A   1      47.266  26.099  31.435  1.00  0.00    -0.354 N 
ATOM     56  N   UNL A   1      46.856  26.195  34.414  1.00  0.00    -0.248 NA
ATOM     57  C   UNL A   1      47.644  25.736  36.566  1.00  0.00     0.031 C 
ATOM     58  C   UNL A   1      49.159  25.225  30.687  1.00  0.00     0.029 A 
ATOM     59  C   UNL A   1      48.455  25.526  31.846  1.00  0.00     0.049 A 
ATOM     60  H   UNL A   1      46.550  26.404  32.037  1.00  0.00     0.167 HD
ATOM     61  C   UNL A   1      48.121  25.624  34.319  1.00  0.00     0.074 A 
ATOM     62  C   UNL A   1      48.569  25.397  35.680  1.00  0.00     0.031 C 
ATOM     63  C   UNL A   1      48.855  25.315  33.218  1.00  0.00     0.034 A 
BRANCH  50  64
ATOM     64  C   UNL A   1      46.144  26.674  27.785  1.00  0.00     0.023 A 
ATOM     65  C   UNL A   1      45.926  25.494  27.050  1.00  0.00     0.031 A 
ATOM     66  C   UNL A   1      46.465  27.842  27.072  1.00  0.00     0.131 A 
ATOM     67  C   UNL A   1      46.102  25.492  25.658  1.00  0.00     0.055 A 
ATOM     68  C   UNL A   1      46.555  27.852  25.679  1.00  0.00     0.041 A 
ATOM     69  F   UNL A   1      46.723  28.988  27.720  1.00  0.00    -0.206 F 
ATOM     70  C   UNL A   1      46.388  26.669  24.965  1.00  0.00     0.022 A 
BRANCH  67  71
ATOM     71  S   UNL A   1      46.100  23.902  24.783  1.00  0.00     0.124 S 
ATOM     72  O   UNL A   1      47.150  24.111  23.789  1.00  0.00    -0.237 OA
ATOM     73  O   UNL A   1      46.408  22.954  25.847  1.00  0.00    -0.237 OA
ATOM     74  O   UNL A   1      44.746  23.812  24.240  1.00  0.00    -0.744 OA
ENDBRANCH  67  71
ENDBRANCH  50  64
BRANCH  51  75
ATOM     75  C   UNL A   1      45.230  26.827  37.869  1.00  0.00     0.023 A 
ATOM     76  C   UNL A   1      45.677  27.893  38.664  1.00  0.00     0.031 A 
ATOM     77  C   UNL A   1      44.677  25.708  38.522  1.00  0.00     0.131 A 
ATOM     78  C   UNL A   1      45.613  27.800  40.064  1.00  0.00     0.055 A 
ATOM     79  C   UNL A   1      44.563  25.645  39.912  1.00  0.00     0.041 A 
ATOM     80  F   UNL A   1      44.234  24.658  37.813  1.00  0.00    -0.206 F 
ATOM     81  C   UNL A   1      45.046  26.690  40.693  1.00  0.00     0.022 A 
BRANCH  78  82
ATOM     82  S   UNL A   1      46.372  29.115  41.057  1.00  0.00     0.124 S 
ATOM     83  O   UNL A   1      46.727  30.092  40.034  1.00  0.00    -0.237 OA
ATOM     84  O   UNL A   1      45.280  29.488  41.950  1.00  0.00    -0.237 OA
ATOM     85  O   UNL A   1      47.501  28.447  41.701  1.00  0.00    -0.744 OA
ENDBRANCH  78  82
ENDBRANCH  51  75
BRANCH  63  86
ATOM     86  C   UNL A   1      50.231  24.748  33.455  1.00  0.00     0.023 A 
ATOM     87  C   UNL A   1      50.491  23.371  33.353  1.00  0.00     0.031 A 
ATOM     88  C   UNL A   1      51.297  25.604  33.785  1.00  0.00     0.131 A 
ATOM     89  C   UNL A   1      51.773  22.883  33.638  1.00  0.00     0.055 A 
ATOM     90  C   UNL A   1      52.587  25.120  33.996  1.00  0.00     0.041 A 
ATOM     91  F   UNL A   1      51.103  26.928  33.895  1.00  0.00    -0.206 F 
ATOM     92  C   UNL A   1      52.828  23.750  33.938  1.00  0.00     0.022 A 
BRANCH  89  93
ATOM     93  S   UNL A   1      52.019  21.090  33.712  1.00  0.00     0.124 S 
ATOM     94  O   UNL A   1      52.499  20.907  35.079  1.00  0.00    -0.237 OA
ATOM     95  O   UNL A   1      50.682  20.578  33.433  1.00  0.00    -0.237 OA
ATOM     96  O   UNL A   1      53.010  20.837  32.668  1.00  0.00    -0.744 OA
ENDBRANCH  89  93
ENDBRANCH  63  86
ENDBRANCH  37  38
ENDBRANCH  30  32
ENDBRANCH  29  30
ENDBRANCH  28  29
ENDBRANCH  27  28
ENDBRANCH  26  27
ENDBRANCH  25  26
ENDBRANCH  24  25
ENDBRANCH   1  24
TORSDOF 26
ENDMDL
