MODEL 1
REMARK VINA RESULT:     -11.2      0.000      0.000
REMARK SMILES O=C1C[C@H](c2cn[nH]c2C(=O)OCCOCCOCCOCCOC(=O)c2ccc(-c3c4nc(c(-c5cc(S(=O)(=O)[O-])ccc5F)c5ccc([nH]5)c(-c5cc(S(=O)(=O)[O-])ccc5F)c5nc(c(-c6cc(S(=O)(=O)[O-])ccc6F)c6ccc3[nH]6)C=C5)C=C4)cc2)c2c(-c3cccs3)n[nH]c2N1
REMARK SMILES IDX 19 1 18 2 17 3 16 4 15 5 14 6 13 7 12 8 10 9 11 10 9 11 5 12
REMARK SMILES IDX 6 13 7 14 8 15 4 17 1 18 2 19 3 20 100 21 99 22 90 24 98 25
REMARK SMILES IDX 91 26 97 27 92 29 93 30 96 31 94 32 95 33 20 34 21 35 22 36
REMARK SMILES IDX 23 37 24 38 25 39 26 40 27 41 28 42 89 43 29 44 88 45 30 46
REMARK SMILES IDX 31 47 32 48 82 49 33 50 87 51 81 52 83 53 34 54 86 55 80 56
REMARK SMILES IDX 79 57 35 59 67 60 47 61 66 62 48 63 51 64 65 65 84 66 49 67
REMARK SMILES IDX 50 68 64 70 85 71 52 72 36 73 37 74 45 75 38 76 44 77 46 78
REMARK SMILES IDX 43 79 39 80 40 81 41 82 42 83 68 84 69 85 77 86 70 87 76 88
REMARK SMILES IDX 78 89 75 90 71 91 72 92 73 93 74 94 53 95 54 96 62 97 55 98
REMARK SMILES IDX 61 99 63 100 60 101 56 102 57 103 58 104 59 105
REMARK H PARENT 8 16 100 23 98 28 83 58 51 69
REMARK Flexibility Score: inf
ROOT
ATOM      1  C   UNL A   1      33.950  31.609  27.940  1.00  0.00     0.188 C 
ENDROOT
BRANCH   1   2
ATOM      2  O   UNL A   1      32.844  31.625  27.070  1.00  0.00    -0.377 OA
BRANCH   2   3
ATOM      3  C   UNL A   1      32.272  30.365  26.790  1.00  0.00     0.188 C 
BRANCH   3   4
ATOM      4  C   UNL A   1      33.155  29.269  26.148  1.00  0.00     0.188 C 
BRANCH   4   5
ATOM      5  O   UNL A   1      33.361  29.248  24.750  1.00  0.00    -0.376 OA
BRANCH   5   6
ATOM      6  C   UNL A   1      33.959  28.191  24.030  1.00  0.00     0.202 C 
BRANCH   6   7
ATOM      7  C   UNL A   1      33.321  27.486  22.833  1.00  0.00     0.261 C 
BRANCH   7   8
ATOM      8  O   UNL A   1      33.998  26.322  22.359  1.00  0.00    -0.459 OA
BRANCH   8   9
ATOM      9  C   UNL A   1      33.255  25.459  21.630  1.00  0.00     0.356 C 
ATOM     10  O   UNL A   1      32.970  25.623  20.441  1.00  0.00    -0.244 OA
BRANCH   9  11
ATOM     11  C   UNL A   1      33.013  24.219  22.323  1.00  0.00     0.147 A 
ATOM     12  C   UNL A   1      32.913  23.753  23.641  1.00  0.00     0.013 A 
ATOM     13  C   UNL A   1      32.612  22.365  23.461  1.00  0.00     0.140 A 
ATOM     14  N   UNL A   1      32.581  21.984  22.190  1.00  0.00    -0.183 NA
ATOM     15  N   UNL A   1      32.818  23.114  21.529  1.00  0.00    -0.271 N 
ATOM     16  H   UNL A   1      32.850  23.156  20.546  1.00  0.00     0.190 HD
BRANCH  12  17
ATOM     17  C   UNL A   1      32.941  24.382  25.033  1.00  0.00     0.069 C 
ATOM     18  O   UNL A   1      29.529  25.392  26.224  1.00  0.00    -0.275 OA
ATOM     19  C   UNL A   1      30.630  24.841  26.213  1.00  0.00     0.226 C 
ATOM     20  C   UNL A   1      31.742  25.333  25.292  1.00  0.00     0.114 C 
ATOM     21  N   UNL A   1      30.911  23.857  27.126  1.00  0.00    -0.311 N 
ATOM     22  C   UNL A   1      32.130  23.242  27.100  1.00  0.00     0.132 A 
ATOM     23  H   UNL A   1      30.239  23.596  27.796  1.00  0.00     0.171 HD
ATOM     24  C   UNL A   1      33.120  23.460  26.182  1.00  0.00     0.031 A 
ATOM     25  N   UNL A   1      32.571  22.269  27.940  1.00  0.00    -0.262 N 
ATOM     26  C   UNL A   1      34.169  22.592  26.578  1.00  0.00     0.108 A 
ATOM     27  N   UNL A   1      33.797  21.808  27.605  1.00  0.00    -0.173 NA
ATOM     28  H   UNL A   1      32.054  21.934  28.708  1.00  0.00     0.192 HD
BRANCH  26  29
ATOM     29  C   UNL A   1      35.454  22.406  25.834  1.00  0.00     0.055 A 
ATOM     30  C   UNL A   1      36.458  23.352  25.795  1.00  0.00     0.022 A 
ATOM     31  S   UNL A   1      35.912  20.962  25.048  1.00  0.00    -0.142 S 
ATOM     32  C   UNL A   1      37.666  22.819  25.254  1.00  0.00     0.012 A 
ATOM     33  C   UNL A   1      37.490  21.546  24.759  1.00  0.00     0.065 A 
ENDBRANCH  26  29
ENDBRANCH  12  17
ENDBRANCH   9  11
ENDBRANCH   8   9
ENDBRANCH   7   8
ENDBRANCH   6   7
ENDBRANCH   5   6
ENDBRANCH   4   5
ENDBRANCH   3   4
ENDBRANCH   2   3
ENDBRANCH   1   2
BRANCH   1  34
ATOM     34  C   UNL A   1      34.092  32.890  28.780  1.00  0.00     0.188 C 
BRANCH  34  35
ATOM     35  O   UNL A   1      35.014  33.017  29.857  1.00  0.00    -0.376 OA
BRANCH  35  36
ATOM     36  C   UNL A   1      35.203  32.067  30.899  1.00  0.00     0.202 C 
BRANCH  36  37
ATOM     37  C   UNL A   1      36.479  31.252  31.109  1.00  0.00     0.261 C 
BRANCH  37  38
ATOM     38  O   UNL A   1      36.667  30.230  30.165  1.00  0.00    -0.460 OA
BRANCH  38  39
ATOM     39  C   UNL A   1      37.551  30.561  29.209  1.00  0.00     0.338 C 
ATOM     40  O   UNL A   1      37.877  31.684  28.861  1.00  0.00    -0.246 OA
BRANCH  39  41
ATOM     41  C   UNL A   1      38.038  29.319  28.587  1.00  0.00     0.060 A 
ATOM     42  C   UNL A   1      38.282  28.327  29.531  1.00  0.00     0.016 A 
ATOM     43  C   UNL A   1      38.782  29.450  27.406  1.00  0.00     0.016 A 
ATOM     44  C   UNL A   1      39.554  27.830  29.552  1.00  0.00     0.010 A 
ATOM     45  C   UNL A   1      40.055  28.960  27.431  1.00  0.00     0.010 A 
ATOM     46  C   UNL A   1      40.452  28.277  28.576  1.00  0.00    -0.014 A 
BRANCH  46  47
ATOM     47  C   UNL A   1      41.838  27.941  28.757  1.00  0.00     0.031 A 
ATOM     48  C   UNL A   1      42.198  26.773  27.939  1.00  0.00     0.074 A 
ATOM     49  C   UNL A   1      42.666  28.668  29.528  1.00  0.00     0.049 A 
ATOM     50  N   UNL A   1      42.377  25.560  28.339  1.00  0.00    -0.248 NA
ATOM     51  C   UNL A   1      42.048  26.914  26.480  1.00  0.00     0.031 C 
ATOM     52  C   UNL A   1      42.445  29.975  30.148  1.00  0.00     0.029 A 
ATOM     53  N   UNL A   1      43.957  28.403  29.839  1.00  0.00    -0.354 N 
ATOM     54  C   UNL A   1      42.617  24.837  27.180  1.00  0.00     0.074 A 
ATOM     55  C   UNL A   1      42.124  25.641  26.099  1.00  0.00     0.031 C 
ATOM     56  C   UNL A   1      43.639  30.487  30.537  1.00  0.00     0.029 A 
ATOM     57  C   UNL A   1      44.676  29.491  30.312  1.00  0.00     0.049 A 
ATOM     58  H   UNL A   1      44.354  27.509  29.736  1.00  0.00     0.167 HD
ATOM     59  C   UNL A   1      43.469  23.779  27.184  1.00  0.00     0.034 A 
ATOM     60  C   UNL A   1      46.033  29.568  30.393  1.00  0.00     0.034 A 
ATOM     61  C   UNL A   1      43.693  23.307  28.534  1.00  0.00     0.049 A 
ATOM     62  C   UNL A   1      46.538  28.163  30.353  1.00  0.00     0.074 A 
ATOM     63  C   UNL A   1      42.869  22.797  29.520  1.00  0.00     0.029 A 
ATOM     64  N   UNL A   1      44.839  23.719  29.182  1.00  0.00    -0.354 N 
ATOM     65  N   UNL A   1      46.297  27.292  31.298  1.00  0.00    -0.248 NA
ATOM     66  C   UNL A   1      46.830  27.580  29.047  1.00  0.00     0.031 C 
ATOM     67  C   UNL A   1      43.346  23.372  30.734  1.00  0.00     0.029 A 
ATOM     68  C   UNL A   1      44.483  24.131  30.444  1.00  0.00     0.049 A 
ATOM     69  H   UNL A   1      45.749  23.718  28.807  1.00  0.00     0.167 HD
ATOM     70  C   UNL A   1      46.000  26.104  30.641  1.00  0.00     0.074 A 
ATOM     71  C   UNL A   1      46.416  26.325  29.256  1.00  0.00     0.031 C 
ATOM     72  C   UNL A   1      45.173  25.167  31.196  1.00  0.00     0.034 A 
BRANCH  59  73
ATOM     73  C   UNL A   1      44.387  23.436  26.033  1.00  0.00     0.023 A 
ATOM     74  C   UNL A   1      44.286  22.134  25.516  1.00  0.00     0.031 A 
ATOM     75  C   UNL A   1      45.511  24.181  25.600  1.00  0.00     0.131 A 
ATOM     76  C   UNL A   1      45.309  21.594  24.720  1.00  0.00     0.055 A 
ATOM     77  C   UNL A   1      46.492  23.661  24.754  1.00  0.00     0.041 A 
ATOM     78  F   UNL A   1      45.787  25.417  26.026  1.00  0.00    -0.206 F 
ATOM     79  C   UNL A   1      46.414  22.348  24.337  1.00  0.00     0.022 A 
BRANCH  76  80
ATOM     80  S   UNL A   1      45.252  19.827  24.346  1.00  0.00     0.124 S 
ATOM     81  O   UNL A   1      46.670  19.494  24.277  1.00  0.00    -0.237 OA
ATOM     82  O   UNL A   1      44.521  19.304  25.495  1.00  0.00    -0.237 OA
ATOM     83  O   UNL A   1      44.536  19.775  23.073  1.00  0.00    -0.744 OA
ENDBRANCH  76  80
ENDBRANCH  59  73
BRANCH  60  84
ATOM     84  C   UNL A   1      46.862  30.763  30.051  1.00  0.00     0.023 A 
ATOM     85  C   UNL A   1      47.151  31.161  28.727  1.00  0.00     0.031 A 
ATOM     86  C   UNL A   1      47.213  31.677  31.073  1.00  0.00     0.131 A 
ATOM     87  C   UNL A   1      47.778  32.410  28.478  1.00  0.00     0.055 A 
ATOM     88  C   UNL A   1      47.834  32.903  30.822  1.00  0.00     0.041 A 
ATOM     89  F   UNL A   1      46.891  31.443  32.355  1.00  0.00    -0.206 F 
ATOM     90  C   UNL A   1      48.114  33.277  29.519  1.00  0.00     0.022 A 
BRANCH  87  91
ATOM     91  S   UNL A   1      48.114  32.962  26.770  1.00  0.00     0.124 S 
ATOM     92  O   UNL A   1      46.857  32.670  26.094  1.00  0.00    -0.237 OA
ATOM     93  O   UNL A   1      48.439  34.372  26.958  1.00  0.00    -0.237 OA
ATOM     94  O   UNL A   1      49.242  32.126  26.356  1.00  0.00    -0.744 OA
ENDBRANCH  87  91
ENDBRANCH  60  84
BRANCH  72  95
ATOM     95  C   UNL A   1      44.782  25.313  32.656  1.00  0.00     0.023 A 
ATOM     96  C   UNL A   1      43.700  26.088  33.138  1.00  0.00     0.031 A 
ATOM     97  C   UNL A   1      45.456  24.492  33.578  1.00  0.00     0.131 A 
ATOM     98  C   UNL A   1      43.333  26.013  34.498  1.00  0.00     0.055 A 
ATOM     99  C   UNL A   1      45.074  24.404  34.914  1.00  0.00     0.041 A 
ATOM    100  F   UNL A   1      46.475  23.715  33.176  1.00  0.00    -0.206 F 
ATOM    101  C   UNL A   1      44.011  25.166  35.381  1.00  0.00     0.022 A 
BRANCH  98 102
ATOM    102  S   UNL A   1      41.962  27.020  35.158  1.00  0.00     0.124 S 
ATOM    103  O   UNL A   1      42.629  27.948  36.063  1.00  0.00    -0.237 OA
ATOM    104  O   UNL A   1      41.389  27.602  33.948  1.00  0.00    -0.237 OA
ATOM    105  O   UNL A   1      41.104  26.036  35.821  1.00  0.00    -0.744 OA
ENDBRANCH  98 102
ENDBRANCH  72  95
ENDBRANCH  46  47
ENDBRANCH  39  41
ENDBRANCH  38  39
ENDBRANCH  37  38
ENDBRANCH  36  37
ENDBRANCH  35  36
ENDBRANCH  34  35
ENDBRANCH   1  34
TORSDOF 25
ENDMDL
MODEL 2
REMARK VINA RESULT:     -10.4      2.490      7.221
REMARK SMILES O=C1C[C@H](c2cn[nH]c2C(=O)OCCOCCOCCOCCOC(=O)c2ccc(-c3c4nc(c(-c5cc(S(=O)(=O)[O-])ccc5F)c5ccc([nH]5)c(-c5cc(S(=O)(=O)[O-])ccc5F)c5nc(c(-c6cc(S(=O)(=O)[O-])ccc6F)c6ccc3[nH]6)C=C5)C=C4)cc2)c2c(-c3cccs3)n[nH]c2N1
REMARK SMILES IDX 19 1 18 2 17 3 16 4 15 5 14 6 13 7 12 8 10 9 11 10 9 11 5 12
REMARK SMILES IDX 6 13 7 14 8 15 4 17 1 18 2 19 3 20 100 21 99 22 90 24 98 25
REMARK SMILES IDX 91 26 97 27 92 29 93 30 96 31 94 32 95 33 20 34 21 35 22 36
REMARK SMILES IDX 23 37 24 38 25 39 26 40 27 41 28 42 89 43 29 44 88 45 30 46
REMARK SMILES IDX 31 47 32 48 82 49 33 50 87 51 81 52 83 53 34 54 86 55 80 56
REMARK SMILES IDX 79 57 35 59 67 60 47 61 66 62 48 63 51 64 65 65 84 66 49 67
REMARK SMILES IDX 50 68 64 70 85 71 52 72 36 73 37 74 45 75 38 76 44 77 46 78
REMARK SMILES IDX 43 79 39 80 40 81 41 82 42 83 68 84 69 85 77 86 70 87 76 88
REMARK SMILES IDX 78 89 75 90 71 91 72 92 73 93 74 94 53 95 54 96 62 97 55 98
REMARK SMILES IDX 61 99 63 100 60 101 56 102 57 103 58 104 59 105
REMARK H PARENT 8 16 100 23 98 28 83 58 51 69
REMARK Flexibility Score: inf
ROOT
ATOM      1  C   UNL A   1      35.230  33.815  29.587  1.00  0.00     0.188 C 
ENDROOT
BRANCH   1   2
ATOM      2  O   UNL A   1      34.396  32.749  29.199  1.00  0.00    -0.377 OA
BRANCH   2   3
ATOM      3  C   UNL A   1      34.594  32.267  27.888  1.00  0.00     0.188 C 
BRANCH   3   4
ATOM      4  C   UNL A   1      34.397  30.758  27.608  1.00  0.00     0.188 C 
BRANCH   4   5
ATOM      5  O   UNL A   1      33.879  30.325  26.367  1.00  0.00    -0.376 OA
BRANCH   5   6
ATOM      6  C   UNL A   1      32.531  29.985  26.119  1.00  0.00     0.202 C 
BRANCH   6   7
ATOM      7  C   UNL A   1      31.799  28.811  26.768  1.00  0.00     0.261 C 
BRANCH   7   8
ATOM      8  O   UNL A   1      32.594  27.661  27.056  1.00  0.00    -0.459 OA
BRANCH   8   9
ATOM      9  C   UNL A   1      32.804  26.812  26.024  1.00  0.00     0.356 C 
ATOM     10  O   UNL A   1      33.760  26.888  25.249  1.00  0.00    -0.244 OA
BRANCH   9  11
ATOM     11  C   UNL A   1      31.917  25.677  26.055  1.00  0.00     0.147 A 
ATOM     12  C   UNL A   1      30.995  25.039  25.214  1.00  0.00     0.013 A 
ATOM     13  C   UNL A   1      30.558  23.932  26.009  1.00  0.00     0.140 A 
ATOM     14  N   UNL A   1      31.091  23.901  27.224  1.00  0.00    -0.183 NA
ATOM     15  N   UNL A   1      31.906  24.953  27.224  1.00  0.00    -0.271 N 
ATOM     16  H   UNL A   1      32.459  25.195  28.002  1.00  0.00     0.190 HD
BRANCH  12  17
ATOM     17  C   UNL A   1      30.526  25.209  23.770  1.00  0.00     0.069 C 
ATOM     18  O   UNL A   1      29.258  28.671  23.069  1.00  0.00    -0.275 OA
ATOM     19  C   UNL A   1      29.929  27.645  22.958  1.00  0.00     0.226 C 
ATOM     20  C   UNL A   1      29.475  26.339  23.603  1.00  0.00     0.114 C 
ATOM     21  N   UNL A   1      31.031  27.633  22.142  1.00  0.00    -0.311 N 
ATOM     22  C   UNL A   1      31.777  26.495  22.034  1.00  0.00     0.132 A 
ATOM     23  H   UNL A   1      31.281  28.440  21.637  1.00  0.00     0.171 HD
ATOM     24  C   UNL A   1      31.580  25.336  22.733  1.00  0.00     0.031 A 
ATOM     25  N   UNL A   1      32.880  26.313  21.261  1.00  0.00    -0.262 N 
ATOM     26  C   UNL A   1      32.601  24.466  22.274  1.00  0.00     0.108 A 
ATOM     27  N   UNL A   1      33.442  25.095  21.434  1.00  0.00    -0.173 NA
ATOM     28  H   UNL A   1      33.232  26.993  20.642  1.00  0.00     0.192 HD
BRANCH  26  29
ATOM     29  C   UNL A   1      32.856  23.089  22.802  1.00  0.00     0.055 A 
ATOM     30  C   UNL A   1      33.735  22.815  23.830  1.00  0.00     0.022 A 
ATOM     31  S   UNL A   1      32.010  21.694  22.302  1.00  0.00    -0.142 S 
ATOM     32  C   UNL A   1      33.586  21.481  24.311  1.00  0.00     0.012 A 
ATOM     33  C   UNL A   1      32.721  20.746  23.533  1.00  0.00     0.065 A 
ENDBRANCH  26  29
ENDBRANCH  12  17
ENDBRANCH   9  11
ENDBRANCH   8   9
ENDBRANCH   7   8
ENDBRANCH   6   7
ENDBRANCH   5   6
ENDBRANCH   4   5
ENDBRANCH   3   4
ENDBRANCH   2   3
ENDBRANCH   1   2
BRANCH   1  34
ATOM     34  C   UNL A   1      34.671  34.642  30.757  1.00  0.00     0.188 C 
BRANCH  34  35
ATOM     35  O   UNL A   1      33.840  34.091  31.773  1.00  0.00    -0.376 OA
BRANCH  35  36
ATOM     36  C   UNL A   1      34.246  33.130  32.741  1.00  0.00     0.202 C 
BRANCH  36  37
ATOM     37  C   UNL A   1      35.655  32.552  32.850  1.00  0.00     0.261 C 
BRANCH  37  38
ATOM     38  O   UNL A   1      35.898  31.469  31.989  1.00  0.00    -0.460 OA
BRANCH  38  39
ATOM     39  C   UNL A   1      37.082  30.878  32.218  1.00  0.00     0.338 C 
ATOM     40  O   UNL A   1      37.590  30.635  33.301  1.00  0.00    -0.246 OA
BRANCH  39  41
ATOM     41  C   UNL A   1      37.718  30.610  30.918  1.00  0.00     0.060 A 
ATOM     42  C   UNL A   1      37.553  29.288  30.520  1.00  0.00     0.016 A 
ATOM     43  C   UNL A   1      38.854  31.368  30.599  1.00  0.00     0.016 A 
ATOM     44  C   UNL A   1      38.704  28.592  30.286  1.00  0.00     0.010 A 
ATOM     45  C   UNL A   1      40.006  30.672  30.372  1.00  0.00     0.010 A 
ATOM     46  C   UNL A   1      39.919  29.283  30.361  1.00  0.00    -0.014 A 
BRANCH  46  47
ATOM     47  C   UNL A   1      41.122  28.497  30.358  1.00  0.00     0.031 A 
ATOM     48  C   UNL A   1      41.662  28.372  31.721  1.00  0.00     0.074 A 
ATOM     49  C   UNL A   1      41.609  27.920  29.246  1.00  0.00     0.049 A 
ATOM     50  N   UNL A   1      42.674  28.994  32.224  1.00  0.00    -0.248 NA
ATOM     51  C   UNL A   1      40.801  27.712  32.718  1.00  0.00     0.031 C 
ATOM     52  C   UNL A   1      40.989  27.780  27.927  1.00  0.00     0.029 A 
ATOM     53  N   UNL A   1      42.768  27.234  29.106  1.00  0.00    -0.354 N 
ATOM     54  C   UNL A   1      42.716  28.588  33.550  1.00  0.00     0.074 A 
ATOM     55  C   UNL A   1      41.416  28.059  33.845  1.00  0.00     0.031 C 
ATOM     56  C   UNL A   1      41.667  26.845  27.217  1.00  0.00     0.029 A 
ATOM     57  C   UNL A   1      42.834  26.427  27.979  1.00  0.00     0.049 A 
ATOM     58  H   UNL A   1      43.506  27.302  29.753  1.00  0.00     0.167 HD
ATOM     59  C   UNL A   1      43.902  28.446  34.197  1.00  0.00     0.034 A 
ATOM     60  C   UNL A   1      43.731  25.422  27.777  1.00  0.00     0.034 A 
ATOM     61  C   UNL A   1      44.954  29.152  33.497  1.00  0.00     0.049 A 
ATOM     62  C   UNL A   1      44.867  25.677  28.712  1.00  0.00     0.074 A 
ATOM     63  C   UNL A   1      45.162  30.477  33.163  1.00  0.00     0.029 A 
ATOM     64  N   UNL A   1      45.779  28.425  32.664  1.00  0.00    -0.354 N 
ATOM     65  N   UNL A   1      45.653  26.717  28.610  1.00  0.00    -0.248 NA
ATOM     66  C   UNL A   1      44.793  25.096  30.049  1.00  0.00     0.031 C 
ATOM     67  C   UNL A   1      45.709  30.446  31.848  1.00  0.00     0.029 A 
ATOM     68  C   UNL A   1      45.889  29.111  31.478  1.00  0.00     0.049 A 
ATOM     69  H   UNL A   1      46.212  27.567  32.882  1.00  0.00     0.167 HD
ATOM     70  C   UNL A   1      45.843  27.168  29.911  1.00  0.00     0.074 A 
ATOM     71  C   UNL A   1      45.346  26.085  30.761  1.00  0.00     0.031 C 
ATOM     72  C   UNL A   1      46.096  28.484  30.182  1.00  0.00     0.034 A 
BRANCH  59  73
ATOM     73  C   UNL A   1      44.177  27.365  35.216  1.00  0.00     0.023 A 
ATOM     74  C   UNL A   1      44.695  26.156  34.725  1.00  0.00     0.031 A 
ATOM     75  C   UNL A   1      43.725  27.337  36.559  1.00  0.00     0.131 A 
ATOM     76  C   UNL A   1      44.644  24.984  35.496  1.00  0.00     0.055 A 
ATOM     77  C   UNL A   1      43.738  26.184  37.344  1.00  0.00     0.041 A 
ATOM     78  F   UNL A   1      43.162  28.383  37.171  1.00  0.00    -0.206 F 
ATOM     79  C   UNL A   1      44.167  24.988  36.803  1.00  0.00     0.022 A 
BRANCH  76  80
ATOM     80  S   UNL A   1      45.049  23.418  34.691  1.00  0.00     0.124 S 
ATOM     81  O   UNL A   1      45.367  23.856  33.337  1.00  0.00    -0.237 OA
ATOM     82  O   UNL A   1      46.170  22.950  35.499  1.00  0.00    -0.237 OA
ATOM     83  O   UNL A   1      43.817  22.643  34.823  1.00  0.00    -0.744 OA
ENDBRANCH  76  80
ENDBRANCH  59  73
BRANCH  60  84
ATOM     84  C   UNL A   1      43.427  24.089  27.175  1.00  0.00     0.023 A 
ATOM     85  C   UNL A   1      44.310  23.399  26.315  1.00  0.00     0.031 A 
ATOM     86  C   UNL A   1      42.302  23.363  27.633  1.00  0.00     0.131 A 
ATOM     87  C   UNL A   1      44.038  22.057  25.940  1.00  0.00     0.055 A 
ATOM     88  C   UNL A   1      42.037  22.045  27.257  1.00  0.00     0.041 A 
ATOM     89  F   UNL A   1      41.455  23.890  28.533  1.00  0.00    -0.206 F 
ATOM     90  C   UNL A   1      42.909  21.383  26.411  1.00  0.00     0.022 A 
BRANCH  87  91
ATOM     91  S   UNL A   1      45.193  21.134  24.869  1.00  0.00     0.124 S 
ATOM     92  O   UNL A   1      44.486  21.107  23.595  1.00  0.00    -0.237 OA
ATOM     93  O   UNL A   1      46.397  21.957  24.927  1.00  0.00    -0.237 OA
ATOM     94  O   UNL A   1      45.311  19.834  25.532  1.00  0.00    -0.744 OA
ENDBRANCH  87  91
ENDBRANCH  60  84
BRANCH  72  95
ATOM     95  C   UNL A   1      46.430  29.414  29.029  1.00  0.00     0.023 A 
ATOM     96  C   UNL A   1      45.537  30.344  28.445  1.00  0.00     0.031 A 
ATOM     97  C   UNL A   1      47.774  29.457  28.619  1.00  0.00     0.131 A 
ATOM     98  C   UNL A   1      46.011  31.270  27.492  1.00  0.00     0.055 A 
ATOM     99  C   UNL A   1      48.241  30.390  27.696  1.00  0.00     0.041 A 
ATOM    100  F   UNL A   1      48.675  28.616  29.155  1.00  0.00    -0.206 F 
ATOM    101  C   UNL A   1      47.360  31.299  27.126  1.00  0.00     0.022 A 
BRANCH  98 102
ATOM    102  S   UNL A   1      44.881  32.463  26.699  1.00  0.00     0.124 S 
ATOM    103  O   UNL A   1      44.161  33.047  27.824  1.00  0.00    -0.237 OA
ATOM    104  O   UNL A   1      45.803  33.350  25.996  1.00  0.00    -0.237 OA
ATOM    105  O   UNL A   1      44.061  31.624  25.822  1.00  0.00    -0.744 OA
ENDBRANCH  98 102
ENDBRANCH  72  95
ENDBRANCH  46  47
ENDBRANCH  39  41
ENDBRANCH  38  39
ENDBRANCH  37  38
ENDBRANCH  36  37
ENDBRANCH  35  36
ENDBRANCH  34  35
ENDBRANCH   1  34
TORSDOF 25
ENDMDL
MODEL 3
REMARK VINA RESULT:     -10.4      1.932      2.485
REMARK SMILES O=C1C[C@H](c2cn[nH]c2C(=O)OCCOCCOCCOCCOC(=O)c2ccc(-c3c4nc(c(-c5cc(S(=O)(=O)[O-])ccc5F)c5ccc([nH]5)c(-c5cc(S(=O)(=O)[O-])ccc5F)c5nc(c(-c6cc(S(=O)(=O)[O-])ccc6F)c6ccc3[nH]6)C=C5)C=C4)cc2)c2c(-c3cccs3)n[nH]c2N1
REMARK SMILES IDX 19 1 18 2 17 3 16 4 15 5 14 6 13 7 12 8 10 9 11 10 9 11 5 12
REMARK SMILES IDX 6 13 7 14 8 15 4 17 1 18 2 19 3 20 100 21 99 22 90 24 98 25
REMARK SMILES IDX 91 26 97 27 92 29 93 30 96 31 94 32 95 33 20 34 21 35 22 36
REMARK SMILES IDX 23 37 24 38 25 39 26 40 27 41 28 42 89 43 29 44 88 45 30 46
REMARK SMILES IDX 31 47 32 48 82 49 33 50 87 51 81 52 83 53 34 54 86 55 80 56
REMARK SMILES IDX 79 57 35 59 67 60 47 61 66 62 48 63 51 64 65 65 84 66 49 67
REMARK SMILES IDX 50 68 64 70 85 71 52 72 36 73 37 74 45 75 38 76 44 77 46 78
REMARK SMILES IDX 43 79 39 80 40 81 41 82 42 83 68 84 69 85 77 86 70 87 76 88
REMARK SMILES IDX 78 89 75 90 71 91 72 92 73 93 74 94 53 95 54 96 62 97 55 98
REMARK SMILES IDX 61 99 63 100 60 101 56 102 57 103 58 104 59 105
REMARK H PARENT 8 16 100 23 98 28 83 58 51 69
REMARK Flexibility Score: inf
ROOT
ATOM      1  C   UNL A   1      32.064  29.699  24.906  1.00  0.00     0.188 C 
ENDROOT
BRANCH   1   2
ATOM      2  O   UNL A   1      30.682  29.720  24.636  1.00  0.00    -0.377 OA
BRANCH   2   3
ATOM      3  C   UNL A   1      30.325  30.097  23.323  1.00  0.00     0.188 C 
BRANCH   3   4
ATOM      4  C   UNL A   1      29.161  29.356  22.624  1.00  0.00     0.188 C 
BRANCH   4   5
ATOM      5  O   UNL A   1      28.181  28.685  23.389  1.00  0.00    -0.376 OA
BRANCH   5   6
ATOM      6  C   UNL A   1      28.159  27.297  23.649  1.00  0.00     0.202 C 
BRANCH   6   7
ATOM      7  C   UNL A   1      29.374  26.475  24.079  1.00  0.00     0.261 C 
BRANCH   7   8
ATOM      8  O   UNL A   1      30.255  26.068  23.032  1.00  0.00    -0.459 OA
BRANCH   8   9
ATOM      9  C   UNL A   1      31.046  25.004  23.303  1.00  0.00     0.356 C 
ATOM     10  O   UNL A   1      30.882  23.879  22.825  1.00  0.00    -0.244 OA
BRANCH   9  11
ATOM     11  C   UNL A   1      32.231  25.371  24.035  1.00  0.00     0.147 A 
ATOM     12  C   UNL A   1      32.915  24.981  25.195  1.00  0.00     0.013 A 
ATOM     13  C   UNL A   1      34.053  25.849  25.197  1.00  0.00     0.140 A 
ATOM     14  N   UNL A   1      34.063  26.721  24.196  1.00  0.00    -0.183 NA
ATOM     15  N   UNL A   1      32.965  26.410  23.512  1.00  0.00    -0.271 N 
ATOM     16  H   UNL A   1      32.698  26.886  22.693  1.00  0.00     0.190 HD
BRANCH  12  17
ATOM     17  C   UNL A   1      32.759  23.879  26.242  1.00  0.00     0.069 C 
ATOM     18  O   UNL A   1      29.221  23.524  27.442  1.00  0.00    -0.275 OA
ATOM     19  C   UNL A   1      30.313  23.215  26.963  1.00  0.00     0.226 C 
ATOM     20  C   UNL A   1      31.539  24.098  27.176  1.00  0.00     0.114 C 
ATOM     21  N   UNL A   1      30.468  22.003  26.342  1.00  0.00    -0.311 N 
ATOM     22  C   UNL A   1      31.678  21.673  25.803  1.00  0.00     0.132 A 
ATOM     23  H   UNL A   1      29.712  21.375  26.285  1.00  0.00     0.171 HD
ATOM     24  C   UNL A   1      32.782  22.479  25.752  1.00  0.00     0.031 A 
ATOM     25  N   UNL A   1      32.002  20.512  25.173  1.00  0.00    -0.262 N 
ATOM     26  C   UNL A   1      33.767  21.692  25.103  1.00  0.00     0.108 A 
ATOM     27  N   UNL A   1      33.260  20.520  24.680  1.00  0.00    -0.173 NA
ATOM     28  H   UNL A   1      31.386  19.748  25.084  1.00  0.00     0.192 HD
BRANCH  26  29
ATOM     29  C   UNL A   1      35.139  22.165  24.739  1.00  0.00     0.055 A 
ATOM     30  C   UNL A   1      36.233  22.053  25.573  1.00  0.00     0.022 A 
ATOM     31  S   UNL A   1      35.571  22.784  23.207  1.00  0.00    -0.142 S 
ATOM     32  C   UNL A   1      37.452  22.327  24.886  1.00  0.00     0.012 A 
ATOM     33  C   UNL A   1      37.231  22.790  23.608  1.00  0.00     0.065 A 
ENDBRANCH  26  29
ENDBRANCH  12  17
ENDBRANCH   9  11
ENDBRANCH   8   9
ENDBRANCH   7   8
ENDBRANCH   6   7
ENDBRANCH   5   6
ENDBRANCH   4   5
ENDBRANCH   3   4
ENDBRANCH   2   3
ENDBRANCH   1   2
BRANCH   1  34
ATOM     34  C   UNL A   1      32.416  30.094  26.350  1.00  0.00     0.188 C 
BRANCH  34  35
ATOM     35  O   UNL A   1      33.752  30.156  26.837  1.00  0.00    -0.376 OA
BRANCH  35  36
ATOM     36  C   UNL A   1      34.305  31.224  27.599  1.00  0.00     0.202 C 
BRANCH  36  37
ATOM     37  C   UNL A   1      35.366  31.055  28.684  1.00  0.00     0.261 C 
BRANCH  37  38
ATOM     38  O   UNL A   1      36.678  30.957  28.192  1.00  0.00    -0.460 OA
BRANCH  38  39
ATOM     39  C   UNL A   1      37.526  30.411  29.080  1.00  0.00     0.338 C 
ATOM     40  O   UNL A   1      37.912  30.898  30.130  1.00  0.00    -0.246 OA
BRANCH  39  41
ATOM     41  C   UNL A   1      37.976  29.116  28.545  1.00  0.00     0.060 A 
ATOM     42  C   UNL A   1      38.467  28.282  29.544  1.00  0.00     0.016 A 
ATOM     43  C   UNL A   1      38.470  29.109  27.232  1.00  0.00     0.016 A 
ATOM     44  C   UNL A   1      39.753  27.853  29.379  1.00  0.00     0.010 A 
ATOM     45  C   UNL A   1      39.758  28.687  27.069  1.00  0.00     0.010 A 
ATOM     46  C   UNL A   1      40.414  28.195  28.193  1.00  0.00    -0.014 A 
BRANCH  46  47
ATOM     47  C   UNL A   1      41.830  27.953  28.138  1.00  0.00     0.031 A 
ATOM     48  C   UNL A   1      42.108  26.650  27.515  1.00  0.00     0.074 A 
ATOM     49  C   UNL A   1      42.737  28.855  28.551  1.00  0.00     0.049 A 
ATOM     50  N   UNL A   1      42.457  25.558  28.104  1.00  0.00    -0.248 NA
ATOM     51  C   UNL A   1      41.656  26.470  26.124  1.00  0.00     0.031 C 
ATOM     52  C   UNL A   1      42.544  30.257  28.927  1.00  0.00     0.029 A 
ATOM     53  N   UNL A   1      44.080  28.708  28.627  1.00  0.00    -0.354 N 
ATOM     54  C   UNL A   1      42.515  24.611  27.092  1.00  0.00     0.074 A 
ATOM     55  C   UNL A   1      41.753  25.149  26.002  1.00  0.00     0.031 C 
ATOM     56  C   UNL A   1      43.748  30.880  28.940  1.00  0.00     0.029 A 
ATOM     57  C   UNL A   1      44.793  29.895  28.706  1.00  0.00     0.049 A 
ATOM     58  H   UNL A   1      44.517  27.826  28.624  1.00  0.00     0.167 HD
ATOM     59  C   UNL A   1      43.430  23.608  27.128  1.00  0.00     0.034 A 
ATOM     60  C   UNL A   1      46.129  30.034  28.478  1.00  0.00     0.034 A 
ATOM     61  C   UNL A   1      43.958  23.445  28.466  1.00  0.00     0.049 A 
ATOM     62  C   UNL A   1      46.723  28.670  28.616  1.00  0.00     0.074 A 
ATOM     63  C   UNL A   1      43.392  23.129  29.687  1.00  0.00     0.029 A 
ATOM     64  N   UNL A   1      45.175  24.024  28.757  1.00  0.00    -0.354 N 
ATOM     65  N   UNL A   1      46.746  28.015  29.747  1.00  0.00    -0.248 NA
ATOM     66  C   UNL A   1      46.790  27.832  27.423  1.00  0.00     0.031 C 
ATOM     67  C   UNL A   1      44.057  23.966  30.630  1.00  0.00     0.029 A 
ATOM     68  C   UNL A   1      45.049  24.684  29.957  1.00  0.00     0.049 A 
ATOM     69  H   UNL A   1      45.989  23.973  28.205  1.00  0.00     0.167 HD
ATOM     70  C   UNL A   1      46.416  26.704  29.423  1.00  0.00     0.074 A 
ATOM     71  C   UNL A   1      46.527  26.638  27.965  1.00  0.00     0.031 C 
ATOM     72  C   UNL A   1      45.794  25.880  30.319  1.00  0.00     0.034 A 
BRANCH  59  73
ATOM     73  C   UNL A   1      44.121  23.058  25.901  1.00  0.00     0.023 A 
ATOM     74  C   UNL A   1      43.972  21.683  25.659  1.00  0.00     0.031 A 
ATOM     75  C   UNL A   1      45.113  23.711  25.128  1.00  0.00     0.131 A 
ATOM     76  C   UNL A   1      44.841  21.005  24.791  1.00  0.00     0.055 A 
ATOM     77  C   UNL A   1      45.932  23.044  24.216  1.00  0.00     0.041 A 
ATOM     78  F   UNL A   1      45.421  25.005  25.260  1.00  0.00    -0.206 F 
ATOM     79  C   UNL A   1      45.823  21.676  24.068  1.00  0.00     0.022 A 
BRANCH  76  80
ATOM     80  S   UNL A   1      44.778  19.199  24.762  1.00  0.00     0.124 S 
ATOM     81  O   UNL A   1      44.960  18.920  23.343  1.00  0.00    -0.237 OA
ATOM     82  O   UNL A   1      45.892  18.850  25.637  1.00  0.00    -0.237 OA
ATOM     83  O   UNL A   1      43.449  18.901  25.292  1.00  0.00    -0.744 OA
ENDBRANCH  76  80
ENDBRANCH  59  73
BRANCH  60  84
ATOM     84  C   UNL A   1      46.775  31.156  27.732  1.00  0.00     0.023 A 
ATOM     85  C   UNL A   1      46.054  32.190  27.096  1.00  0.00     0.031 A 
ATOM     86  C   UNL A   1      48.176  31.332  27.826  1.00  0.00     0.131 A 
ATOM     87  C   UNL A   1      46.736  33.320  26.576  1.00  0.00     0.055 A 
ATOM     88  C   UNL A   1      48.843  32.445  27.308  1.00  0.00     0.041 A 
ATOM     89  F   UNL A   1      48.942  30.459  28.499  1.00  0.00    -0.206 F 
ATOM     90  C   UNL A   1      48.123  33.449  26.684  1.00  0.00     0.022 A 
BRANCH  87  91
ATOM     91  S   UNL A   1      45.815  34.690  25.795  1.00  0.00     0.124 S 
ATOM     92  O   UNL A   1      44.750  34.940  26.758  1.00  0.00    -0.237 OA
ATOM     93  O   UNL A   1      46.838  35.723  25.674  1.00  0.00    -0.237 OA
ATOM     94  O   UNL A   1      45.369  34.121  24.523  1.00  0.00    -0.744 OA
ENDBRANCH  87  91
ENDBRANCH  60  84
BRANCH  72  95
ATOM     95  C   UNL A   1      45.695  26.322  31.768  1.00  0.00     0.023 A 
ATOM     96  C   UNL A   1      44.568  26.944  32.357  1.00  0.00     0.031 A 
ATOM     97  C   UNL A   1      46.748  25.942  32.620  1.00  0.00     0.131 A 
ATOM     98  C   UNL A   1      44.532  27.157  33.751  1.00  0.00     0.055 A 
ATOM     99  C   UNL A   1      46.695  26.132  33.998  1.00  0.00     0.041 A 
ATOM    100  F   UNL A   1      47.833  25.325  32.123  1.00  0.00    -0.206 F 
ATOM    101  C   UNL A   1      45.588  26.744  34.570  1.00  0.00     0.022 A 
BRANCH  98 102
ATOM    102  S   UNL A   1      43.108  27.982  34.539  1.00  0.00     0.124 S 
ATOM    103  O   UNL A   1      42.145  28.107  33.451  1.00  0.00    -0.237 OA
ATOM    104  O   UNL A   1      42.754  27.050  35.606  1.00  0.00    -0.237 OA
ATOM    105  O   UNL A   1      43.665  29.253  35.006  1.00  0.00    -0.744 OA
ENDBRANCH  98 102
ENDBRANCH  72  95
ENDBRANCH  46  47
ENDBRANCH  39  41
ENDBRANCH  38  39
ENDBRANCH  37  38
ENDBRANCH  36  37
ENDBRANCH  35  36
ENDBRANCH  34  35
ENDBRANCH   1  34
TORSDOF 25
ENDMDL
