MODEL 1
REMARK VINA RESULT:     -10.3      0.000      0.000
REMARK SMILES Cc1[nH]c2ccccc2c1[C@@H](C(=O)OCCOCCOCCOCCOC(=O)c1ccc(-c2c3nc(c(-c4cc(S(=O)(=O)[O-])ccc4F)c4ccc([nH]4)c(-c4cc(S(=O)(=O)[O-])ccc4F)c4nc(c(-c5cc(S(=O)(=O)[O-])ccc5F)c5ccc2[nH]5)C=C4)C=C3)cc1)[NH+]1CCCC1
REMARK SMILES IDX 21 1 20 2 19 3 18 4 17 5 16 6 15 7 14 8 12 9 13 10 11 11
REMARK SMILES IDX 10 12 1 13 2 14 3 15 4 16 9 18 5 19 8 20 6 21 7 22 92 23
REMARK SMILES IDX 93 24 96 25 94 27 95 28 22 29 23 30 24 31 25 32 26 33 27 34
REMARK SMILES IDX 28 35 29 36 30 37 91 38 31 39 90 40 32 41 33 42 34 43 84 44
REMARK SMILES IDX 35 45 89 46 83 47 85 48 36 49 88 50 82 51 81 52 37 54 69 55
REMARK SMILES IDX 49 56 68 57 50 58 53 59 67 60 86 61 51 62 52 63 66 65 87 66
REMARK SMILES IDX 54 67 38 68 39 69 47 70 40 71 46 72 48 73 45 74 41 75 42 76
REMARK SMILES IDX 43 77 44 78 70 79 71 80 79 81 72 82 78 83 80 84 77 85 73 86
REMARK SMILES IDX 74 87 75 88 76 89 55 90 56 91 64 92 57 93 63 94 65 95 62 96
REMARK SMILES IDX 58 97 59 98 60 99 61 100
REMARK H PARENT 3 17 92 26 85 53 53 64
REMARK Flexibility Score: inf
ROOT
ATOM      1  C   UNL A   1      31.620  29.444  25.228  1.00  0.00     0.188 C 
ENDROOT
BRANCH   1   2
ATOM      2  O   UNL A   1      30.982  30.314  24.313  1.00  0.00    -0.377 OA
BRANCH   2   3
ATOM      3  C   UNL A   1      29.976  29.733  23.513  1.00  0.00     0.188 C 
BRANCH   3   4
ATOM      4  C   UNL A   1      30.028  28.200  23.425  1.00  0.00     0.188 C 
BRANCH   4   5
ATOM      5  O   UNL A   1      28.849  27.410  23.550  1.00  0.00    -0.376 OA
BRANCH   5   6
ATOM      6  C   UNL A   1      28.918  26.115  24.122  1.00  0.00     0.202 C 
BRANCH   6   7
ATOM      7  C   UNL A   1      30.184  25.737  24.916  1.00  0.00     0.261 C 
BRANCH   7   8
ATOM      8  O   UNL A   1      31.034  24.690  24.389  1.00  0.00    -0.459 OA
BRANCH   8   9
ATOM      9  C   UNL A   1      31.956  24.181  25.257  1.00  0.00     0.370 C 
ATOM     10  O   UNL A   1      32.049  24.582  26.420  1.00  0.00    -0.245 OA
BRANCH   9  11
ATOM     11  C   UNL A   1      32.963  23.164  24.634  1.00  0.00     0.328 C 
BRANCH  11  12
ATOM     12  C   UNL A   1      33.111  21.719  25.183  1.00  0.00     0.049 A 
ATOM     13  C   UNL A   1      33.661  22.348  27.691  1.00  0.00     0.065 C 
ATOM     14  C   UNL A   1      33.412  21.455  26.526  1.00  0.00     0.022 A 
ATOM     15  N   UNL A   1      33.424  20.102  26.728  1.00  0.00    -0.358 N 
ATOM     16  C   UNL A   1      33.043  19.435  25.600  1.00  0.00     0.046 A 
ATOM     17  H   UNL A   1      33.676  19.668  27.576  1.00  0.00     0.166 HD
ATOM     18  C   UNL A   1      32.873  20.391  24.593  1.00  0.00     0.009 A 
ATOM     19  C   UNL A   1      32.846  18.054  25.426  1.00  0.00     0.027 A 
ATOM     20  C   UNL A   1      32.514  19.866  23.326  1.00  0.00     0.011 A 
ATOM     21  C   UNL A   1      32.441  17.597  24.176  1.00  0.00     0.002 A 
ATOM     22  C   UNL A   1      32.277  18.494  23.133  1.00  0.00     0.001 A 
ENDBRANCH  11  12
BRANCH  11  23
ATOM     23  N   UNL A   1      34.239  23.842  24.322  1.00  0.00    -0.319 N 
ATOM     24  C   UNL A   1      35.080  23.263  23.296  1.00  0.00     0.263 C 
ATOM     25  C   UNL A   1      35.062  24.334  25.412  1.00  0.00     0.263 C 
ATOM     26  H   UNL A   1      33.790  24.665  23.922  1.00  0.00     0.349 HD
ATOM     27  C   UNL A   1      36.285  22.744  24.048  1.00  0.00     0.067 C 
ATOM     28  C   UNL A   1      36.441  23.715  25.207  1.00  0.00     0.067 C 
ENDBRANCH  11  23
ENDBRANCH   9  11
ENDBRANCH   8   9
ENDBRANCH   7   8
ENDBRANCH   6   7
ENDBRANCH   5   6
ENDBRANCH   4   5
ENDBRANCH   3   4
ENDBRANCH   2   3
ENDBRANCH   1   2
BRANCH   1  29
ATOM     29  C   UNL A   1      32.753  30.075  26.048  1.00  0.00     0.188 C 
BRANCH  29  30
ATOM     30  O   UNL A   1      32.289  30.868  27.143  1.00  0.00    -0.376 OA
BRANCH  30  31
ATOM     31  C   UNL A   1      31.510  32.020  26.840  1.00  0.00     0.202 C 
BRANCH  31  32
ATOM     32  C   UNL A   1      32.172  33.379  27.118  1.00  0.00     0.261 C 
BRANCH  32  33
ATOM     33  O   UNL A   1      32.455  33.693  28.486  1.00  0.00    -0.460 OA
BRANCH  33  34
ATOM     34  C   UNL A   1      33.323  34.688  28.764  1.00  0.00     0.338 C 
ATOM     35  O   UNL A   1      33.104  35.886  28.740  1.00  0.00    -0.246 OA
BRANCH  34  36
ATOM     36  C   UNL A   1      34.519  34.044  29.341  1.00  0.00     0.060 A 
ATOM     37  C   UNL A   1      34.345  32.967  30.219  1.00  0.00     0.016 A 
ATOM     38  C   UNL A   1      35.800  34.445  28.947  1.00  0.00     0.016 A 
ATOM     39  C   UNL A   1      35.457  32.287  30.711  1.00  0.00     0.010 A 
ATOM     40  C   UNL A   1      36.913  33.783  29.466  1.00  0.00     0.010 A 
ATOM     41  C   UNL A   1      36.745  32.715  30.364  1.00  0.00    -0.014 A 
BRANCH  41  42
ATOM     42  C   UNL A   1      37.914  32.196  31.107  1.00  0.00     0.031 A 
ATOM     43  C   UNL A   1      38.639  31.017  30.525  1.00  0.00     0.074 A 
ATOM     44  C   UNL A   1      38.313  32.755  32.264  1.00  0.00     0.049 A 
ATOM     45  N   UNL A   1      39.643  30.337  31.006  1.00  0.00    -0.248 NA
ATOM     46  C   UNL A   1      38.156  30.541  29.217  1.00  0.00     0.031 C 
ATOM     47  C   UNL A   1      37.705  33.929  32.889  1.00  0.00     0.029 A 
ATOM     48  N   UNL A   1      39.320  32.399  33.123  1.00  0.00    -0.354 N 
ATOM     49  C   UNL A   1      39.915  29.353  30.061  1.00  0.00     0.074 A 
ATOM     50  C   UNL A   1      38.948  29.504  28.998  1.00  0.00     0.031 C 
ATOM     51  C   UNL A   1      38.344  34.185  34.044  1.00  0.00     0.029 A 
ATOM     52  C   UNL A   1      39.376  33.171  34.261  1.00  0.00     0.049 A 
ATOM     53  H   UNL A   1      39.945  31.660  32.944  1.00  0.00     0.167 HD
ATOM     54  C   UNL A   1      40.889  28.412  30.082  1.00  0.00     0.034 A 
ATOM     55  C   UNL A   1      40.149  33.046  35.359  1.00  0.00     0.034 A 
ATOM     56  C   UNL A   1      41.822  28.262  31.169  1.00  0.00     0.049 A 
ATOM     57  C   UNL A   1      41.157  31.918  35.409  1.00  0.00     0.074 A 
ATOM     58  C   UNL A   1      42.858  27.356  31.296  1.00  0.00     0.029 A 
ATOM     59  N   UNL A   1      41.814  29.028  32.329  1.00  0.00    -0.354 N 
ATOM     60  N   UNL A   1      41.424  31.006  34.500  1.00  0.00    -0.248 NA
ATOM     61  C   UNL A   1      41.963  31.799  36.631  1.00  0.00     0.031 C 
ATOM     62  C   UNL A   1      43.424  27.519  32.566  1.00  0.00     0.029 A 
ATOM     63  C   UNL A   1      42.797  28.582  33.197  1.00  0.00     0.049 A 
ATOM     64  H   UNL A   1      41.201  29.776  32.507  1.00  0.00     0.167 HD
ATOM     65  C   UNL A   1      42.446  30.224  35.032  1.00  0.00     0.074 A 
ATOM     66  C   UNL A   1      42.756  30.780  36.334  1.00  0.00     0.031 C 
ATOM     67  C   UNL A   1      43.076  29.146  34.498  1.00  0.00     0.034 A 
BRANCH  54  68
ATOM     68  C   UNL A   1      40.940  27.444  28.927  1.00  0.00     0.023 A 
ATOM     69  C   UNL A   1      41.885  27.572  27.894  1.00  0.00     0.031 A 
ATOM     70  C   UNL A   1      39.999  26.402  28.836  1.00  0.00     0.131 A 
ATOM     71  C   UNL A   1      41.826  26.716  26.783  1.00  0.00     0.055 A 
ATOM     72  C   UNL A   1      39.996  25.506  27.767  1.00  0.00     0.041 A 
ATOM     73  F   UNL A   1      39.054  26.251  29.777  1.00  0.00    -0.206 F 
ATOM     74  C   UNL A   1      40.904  25.668  26.724  1.00  0.00     0.022 A 
BRANCH  71  75
ATOM     75  S   UNL A   1      42.877  27.081  25.350  1.00  0.00     0.124 S 
ATOM     76  O   UNL A   1      42.235  28.278  24.811  1.00  0.00    -0.237 OA
ATOM     77  O   UNL A   1      44.186  27.279  25.961  1.00  0.00    -0.237 OA
ATOM     78  O   UNL A   1      42.751  25.887  24.518  1.00  0.00    -0.744 OA
ENDBRANCH  71  75
ENDBRANCH  54  68
BRANCH  55  79
ATOM     79  C   UNL A   1      39.975  33.963  36.524  1.00  0.00     0.023 A 
ATOM     80  C   UNL A   1      40.929  34.946  36.831  1.00  0.00     0.031 A 
ATOM     81  C   UNL A   1      38.874  33.824  37.391  1.00  0.00     0.131 A 
ATOM     82  C   UNL A   1      40.791  35.718  37.997  1.00  0.00     0.055 A 
ATOM     83  C   UNL A   1      38.712  34.632  38.517  1.00  0.00     0.041 A 
ATOM     84  F   UNL A   1      37.935  32.894  37.153  1.00  0.00    -0.206 F 
ATOM     85  C   UNL A   1      39.682  35.578  38.833  1.00  0.00     0.022 A 
BRANCH  82  86
ATOM     86  S   UNL A   1      42.134  36.847  38.457  1.00  0.00     0.124 S 
ATOM     87  O   UNL A   1      41.405  37.920  39.122  1.00  0.00    -0.237 OA
ATOM     88  O   UNL A   1      42.958  36.002  39.315  1.00  0.00    -0.237 OA
ATOM     89  O   UNL A   1      42.735  37.202  37.173  1.00  0.00    -0.744 OA
ENDBRANCH  82  86
ENDBRANCH  55  79
BRANCH  67  90
ATOM     90  C   UNL A   1      44.182  28.519  35.310  1.00  0.00     0.023 A 
ATOM     91  C   UNL A   1      43.984  27.331  36.034  1.00  0.00     0.031 A 
ATOM     92  C   UNL A   1      45.458  29.109  35.340  1.00  0.00     0.131 A 
ATOM     93  C   UNL A   1      45.034  26.792  36.791  1.00  0.00     0.055 A 
ATOM     94  C   UNL A   1      46.515  28.536  36.047  1.00  0.00     0.041 A 
ATOM     95  F   UNL A   1      45.702  30.245  34.668  1.00  0.00    -0.206 F 
ATOM     96  C   UNL A   1      46.304  27.376  36.786  1.00  0.00     0.022 A 
BRANCH  93  97
ATOM     97  S   UNL A   1      44.701  25.353  37.842  1.00  0.00     0.124 S 
ATOM     98  O   UNL A   1      45.703  24.399  37.375  1.00  0.00    -0.237 OA
ATOM     99  O   UNL A   1      44.908  25.889  39.183  1.00  0.00    -0.237 OA
ATOM    100  O   UNL A   1      43.318  25.006  37.521  1.00  0.00    -0.744 OA
ENDBRANCH  93  97
ENDBRANCH  67  90
ENDBRANCH  41  42
ENDBRANCH  34  36
ENDBRANCH  33  34
ENDBRANCH  32  33
ENDBRANCH  31  32
ENDBRANCH  30  31
ENDBRANCH  29  30
ENDBRANCH   1  29
TORSDOF 25
ENDMDL
MODEL 2
REMARK VINA RESULT:     -10.2      2.414      7.745
REMARK SMILES Cc1[nH]c2ccccc2c1[C@@H](C(=O)OCCOCCOCCOCCOC(=O)c1ccc(-c2c3nc(c(-c4cc(S(=O)(=O)[O-])ccc4F)c4ccc([nH]4)c(-c4cc(S(=O)(=O)[O-])ccc4F)c4nc(c(-c5cc(S(=O)(=O)[O-])ccc5F)c5ccc2[nH]5)C=C4)C=C3)cc1)[NH+]1CCCC1
REMARK SMILES IDX 21 1 20 2 19 3 18 4 17 5 16 6 15 7 14 8 12 9 13 10 11 11
REMARK SMILES IDX 10 12 1 13 2 14 3 15 4 16 9 18 5 19 8 20 6 21 7 22 92 23
REMARK SMILES IDX 93 24 96 25 94 27 95 28 22 29 23 30 24 31 25 32 26 33 27 34
REMARK SMILES IDX 28 35 29 36 30 37 91 38 31 39 90 40 32 41 33 42 34 43 84 44
REMARK SMILES IDX 35 45 89 46 83 47 85 48 36 49 88 50 82 51 81 52 37 54 69 55
REMARK SMILES IDX 49 56 68 57 50 58 53 59 67 60 86 61 51 62 52 63 66 65 87 66
REMARK SMILES IDX 54 67 38 68 39 69 47 70 40 71 46 72 48 73 45 74 41 75 42 76
REMARK SMILES IDX 43 77 44 78 70 79 71 80 79 81 72 82 78 83 80 84 77 85 73 86
REMARK SMILES IDX 74 87 75 88 76 89 55 90 56 91 64 92 57 93 63 94 65 95 62 96
REMARK SMILES IDX 58 97 59 98 60 99 61 100
REMARK H PARENT 3 17 92 26 85 53 53 64
REMARK Flexibility Score: inf
ROOT
ATOM      1  C   UNL A   1      31.073  29.464  24.796  1.00  0.00     0.188 C 
ENDROOT
BRANCH   1   2
ATOM      2  O   UNL A   1      30.436  30.373  23.920  1.00  0.00    -0.377 OA
BRANCH   2   3
ATOM      3  C   UNL A   1      29.558  29.803  22.974  1.00  0.00     0.188 C 
BRANCH   3   4
ATOM      4  C   UNL A   1      29.511  28.267  22.984  1.00  0.00     0.188 C 
BRANCH   4   5
ATOM      5  O   UNL A   1      28.369  27.564  23.462  1.00  0.00    -0.376 OA
BRANCH   5   6
ATOM      6  C   UNL A   1      28.517  26.282  24.052  1.00  0.00     0.202 C 
BRANCH   6   7
ATOM      7  C   UNL A   1      29.892  25.906  24.636  1.00  0.00     0.261 C 
BRANCH   7   8
ATOM      8  O   UNL A   1      30.486  24.650  24.230  1.00  0.00    -0.459 OA
BRANCH   8   9
ATOM      9  C   UNL A   1      31.146  23.962  25.207  1.00  0.00     0.370 C 
ATOM     10  O   UNL A   1      30.789  23.999  26.386  1.00  0.00    -0.245 OA
BRANCH   9  11
ATOM     11  C   UNL A   1      32.453  23.244  24.745  1.00  0.00     0.328 C 
BRANCH  11  12
ATOM     12  C   UNL A   1      32.793  21.797  25.191  1.00  0.00     0.049 A 
ATOM     13  C   UNL A   1      33.334  22.324  27.724  1.00  0.00     0.065 C 
ATOM     14  C   UNL A   1      33.162  21.485  26.507  1.00  0.00     0.022 A 
ATOM     15  N   UNL A   1      33.346  20.134  26.616  1.00  0.00    -0.358 N 
ATOM     16  C   UNL A   1      33.016  19.499  25.454  1.00  0.00     0.046 A 
ATOM     17  H   UNL A   1      33.673  19.680  27.427  1.00  0.00     0.166 HD
ATOM     18  C   UNL A   1      32.702  20.490  24.517  1.00  0.00     0.009 A 
ATOM     19  C   UNL A   1      32.985  18.119  25.190  1.00  0.00     0.027 A 
ATOM     20  C   UNL A   1      32.374  20.008  23.225  1.00  0.00     0.011 A 
ATOM     21  C   UNL A   1      32.603  17.697  23.920  1.00  0.00     0.002 A 
ATOM     22  C   UNL A   1      32.301  18.633  22.944  1.00  0.00     0.001 A 
ENDBRANCH  11  12
BRANCH  11  23
ATOM     23  N   UNL A   1      33.591  24.188  24.787  1.00  0.00    -0.319 N 
ATOM     24  C   UNL A   1      33.728  25.031  25.955  1.00  0.00     0.263 C 
ATOM     25  C   UNL A   1      33.927  24.942  23.594  1.00  0.00     0.263 C 
ATOM     26  H   UNL A   1      34.295  23.452  24.856  1.00  0.00     0.349 HD
ATOM     27  C   UNL A   1      33.429  26.425  25.448  1.00  0.00     0.067 C 
ATOM     28  C   UNL A   1      33.930  26.409  24.012  1.00  0.00     0.067 C 
ENDBRANCH  11  23
ENDBRANCH   9  11
ENDBRANCH   8   9
ENDBRANCH   7   8
ENDBRANCH   6   7
ENDBRANCH   5   6
ENDBRANCH   4   5
ENDBRANCH   3   4
ENDBRANCH   2   3
ENDBRANCH   1   2
BRANCH   1  29
ATOM     29  C   UNL A   1      32.369  29.975  25.438  1.00  0.00     0.188 C 
BRANCH  29  30
ATOM     30  O   UNL A   1      32.157  30.690  26.657  1.00  0.00    -0.376 OA
BRANCH  30  31
ATOM     31  C   UNL A   1      31.339  31.854  26.606  1.00  0.00     0.202 C 
BRANCH  31  32
ATOM     32  C   UNL A   1      32.041  33.189  26.898  1.00  0.00     0.261 C 
BRANCH  32  33
ATOM     33  O   UNL A   1      32.647  33.334  28.188  1.00  0.00    -0.460 OA
BRANCH  33  34
ATOM     34  C   UNL A   1      33.608  34.265  28.360  1.00  0.00     0.338 C 
ATOM     35  O   UNL A   1      33.512  35.465  28.180  1.00  0.00    -0.246 OA
BRANCH  34  36
ATOM     36  C   UNL A   1      34.726  33.584  29.043  1.00  0.00     0.060 A 
ATOM     37  C   UNL A   1      36.034  34.009  28.779  1.00  0.00     0.016 A 
ATOM     38  C   UNL A   1      34.475  32.596  30.000  1.00  0.00     0.016 A 
ATOM     39  C   UNL A   1      37.100  33.442  29.474  1.00  0.00     0.010 A 
ATOM     40  C   UNL A   1      35.546  32.007  30.671  1.00  0.00     0.010 A 
ATOM     41  C   UNL A   1      36.863  32.415  30.396  1.00  0.00    -0.014 A 
BRANCH  41  42
ATOM     42  C   UNL A   1      37.996  31.613  30.907  1.00  0.00     0.031 A 
ATOM     43  C   UNL A   1      38.545  31.972  32.258  1.00  0.00     0.074 A 
ATOM     44  C   UNL A   1      38.521  30.604  30.189  1.00  0.00     0.049 A 
ATOM     45  N   UNL A   1      39.567  31.475  32.900  1.00  0.00    -0.248 NA
ATOM     46  C   UNL A   1      37.841  33.046  32.980  1.00  0.00     0.031 C 
ATOM     47  C   UNL A   1      38.032  30.148  28.889  1.00  0.00     0.029 A 
ATOM     48  N   UNL A   1      39.590  29.787  30.453  1.00  0.00    -0.354 N 
ATOM     49  C   UNL A   1      39.629  32.172  34.102  1.00  0.00     0.074 A 
ATOM     50  C   UNL A   1      38.564  33.149  34.083  1.00  0.00     0.031 C 
ATOM     51  C   UNL A   1      38.813  29.141  28.460  1.00  0.00     0.029 A 
ATOM     52  C   UNL A   1      39.880  28.910  29.432  1.00  0.00     0.049 A 
ATOM     53  H   UNL A   1      40.103  29.824  31.292  1.00  0.00     0.167 HD
ATOM     54  C   UNL A   1      40.497  32.006  35.128  1.00  0.00     0.034 A 
ATOM     55  C   UNL A   1      40.909  28.048  29.294  1.00  0.00     0.034 A 
ATOM     56  C   UNL A   1      41.570  31.045  35.109  1.00  0.00     0.049 A 
ATOM     57  C   UNL A   1      41.931  27.957  30.406  1.00  0.00     0.074 A 
ATOM     58  C   UNL A   1      42.503  30.776  36.093  1.00  0.00     0.029 A 
ATOM     59  N   UNL A   1      41.866  30.211  34.038  1.00  0.00    -0.354 N 
ATOM     60  N   UNL A   1      41.968  28.603  31.551  1.00  0.00    -0.248 NA
ATOM     61  C   UNL A   1      43.050  27.027  30.208  1.00  0.00     0.031 C 
ATOM     62  C   UNL A   1      43.411  29.840  35.587  1.00  0.00     0.029 A 
ATOM     63  C   UNL A   1      42.997  29.462  34.319  1.00  0.00     0.049 A 
ATOM     64  H   UNL A   1      41.349  30.160  33.203  1.00  0.00     0.167 HD
ATOM     65  C   UNL A   1      43.099  28.137  32.217  1.00  0.00     0.074 A 
ATOM     66  C   UNL A   1      43.707  27.145  31.352  1.00  0.00     0.031 C 
ATOM     67  C   UNL A   1      43.592  28.489  33.432  1.00  0.00     0.034 A 
BRANCH  54  68
ATOM     68  C   UNL A   1      40.350  32.926  36.313  1.00  0.00     0.023 A 
ATOM     69  C   UNL A   1      39.574  32.576  37.432  1.00  0.00     0.031 A 
ATOM     70  C   UNL A   1      40.963  34.192  36.305  1.00  0.00     0.131 A 
ATOM     71  C   UNL A   1      39.374  33.507  38.463  1.00  0.00     0.055 A 
ATOM     72  C   UNL A   1      40.825  35.082  37.370  1.00  0.00     0.041 A 
ATOM     73  F   UNL A   1      41.690  34.592  35.250  1.00  0.00    -0.206 F 
ATOM     74  C   UNL A   1      40.015  34.748  38.453  1.00  0.00     0.022 A 
BRANCH  71  75
ATOM     75  S   UNL A   1      38.152  33.128  39.749  1.00  0.00     0.124 S 
ATOM     76  O   UNL A   1      36.949  32.898  38.954  1.00  0.00    -0.237 OA
ATOM     77  O   UNL A   1      38.726  31.953  40.393  1.00  0.00    -0.237 OA
ATOM     78  O   UNL A   1      38.128  34.339  40.567  1.00  0.00    -0.744 OA
ENDBRANCH  71  75
ENDBRANCH  54  68
BRANCH  55  79
ATOM     79  C   UNL A   1      41.070  27.245  28.045  1.00  0.00     0.023 A 
ATOM     80  C   UNL A   1      40.770  25.874  28.014  1.00  0.00     0.031 A 
ATOM     81  C   UNL A   1      41.591  27.830  26.876  1.00  0.00     0.131 A 
ATOM     82  C   UNL A   1      41.036  25.124  26.855  1.00  0.00     0.055 A 
ATOM     83  C   UNL A   1      41.801  27.093  25.709  1.00  0.00     0.041 A 
ATOM     84  F   UNL A   1      41.906  29.135  26.850  1.00  0.00    -0.206 F 
ATOM     85  C   UNL A   1      41.535  25.727  25.699  1.00  0.00     0.022 A 
BRANCH  82  86
ATOM     86  S   UNL A   1      40.809  23.325  26.912  1.00  0.00     0.124 S 
ATOM     87  O   UNL A   1      41.343  23.000  28.230  1.00  0.00    -0.237 OA
ATOM     88  O   UNL A   1      39.364  23.198  26.755  1.00  0.00    -0.237 OA
ATOM     89  O   UNL A   1      41.602  22.847  25.782  1.00  0.00    -0.744 OA
ENDBRANCH  82  86
ENDBRANCH  55  79
BRANCH  67  90
ATOM     90  C   UNL A   1      44.833  27.775  33.907  1.00  0.00     0.023 A 
ATOM     91  C   UNL A   1      46.120  28.244  33.593  1.00  0.00     0.031 A 
ATOM     92  C   UNL A   1      44.724  26.622  34.704  1.00  0.00     0.131 A 
ATOM     93  C   UNL A   1      47.247  27.540  34.040  1.00  0.00     0.055 A 
ATOM     94  C   UNL A   1      45.849  25.960  35.196  1.00  0.00     0.041 A 
ATOM     95  F   UNL A   1      43.518  26.130  35.033  1.00  0.00    -0.206 F 
ATOM     96  C   UNL A   1      47.120  26.412  34.856  1.00  0.00     0.022 A 
BRANCH  93  97
ATOM     97  S   UNL A   1      48.887  28.076  33.483  1.00  0.00     0.124 S 
ATOM     98  O   UNL A   1      49.256  27.011  32.555  1.00  0.00    -0.237 OA
ATOM     99  O   UNL A   1      48.605  29.375  32.882  1.00  0.00    -0.237 OA
ATOM    100  O   UNL A   1      49.670  28.123  34.717  1.00  0.00    -0.744 OA
ENDBRANCH  93  97
ENDBRANCH  67  90
ENDBRANCH  41  42
ENDBRANCH  34  36
ENDBRANCH  33  34
ENDBRANCH  32  33
ENDBRANCH  31  32
ENDBRANCH  30  31
ENDBRANCH  29  30
ENDBRANCH   1  29
TORSDOF 25
ENDMDL
MODEL 3
REMARK VINA RESULT:     -10.2      6.333     11.241
REMARK SMILES Cc1[nH]c2ccccc2c1[C@@H](C(=O)OCCOCCOCCOCCOC(=O)c1ccc(-c2c3nc(c(-c4cc(S(=O)(=O)[O-])ccc4F)c4ccc([nH]4)c(-c4cc(S(=O)(=O)[O-])ccc4F)c4nc(c(-c5cc(S(=O)(=O)[O-])ccc5F)c5ccc2[nH]5)C=C4)C=C3)cc1)[NH+]1CCCC1
REMARK SMILES IDX 21 1 20 2 19 3 18 4 17 5 16 6 15 7 14 8 12 9 13 10 11 11
REMARK SMILES IDX 10 12 1 13 2 14 3 15 4 16 9 18 5 19 8 20 6 21 7 22 92 23
REMARK SMILES IDX 93 24 96 25 94 27 95 28 22 29 23 30 24 31 25 32 26 33 27 34
REMARK SMILES IDX 28 35 29 36 30 37 91 38 31 39 90 40 32 41 33 42 34 43 84 44
REMARK SMILES IDX 35 45 89 46 83 47 85 48 36 49 88 50 82 51 81 52 37 54 69 55
REMARK SMILES IDX 49 56 68 57 50 58 53 59 67 60 86 61 51 62 52 63 66 65 87 66
REMARK SMILES IDX 54 67 38 68 39 69 47 70 40 71 46 72 48 73 45 74 41 75 42 76
REMARK SMILES IDX 43 77 44 78 70 79 71 80 79 81 72 82 78 83 80 84 77 85 73 86
REMARK SMILES IDX 74 87 75 88 76 89 55 90 56 91 64 92 57 93 63 94 65 95 62 96
REMARK SMILES IDX 58 97 59 98 60 99 61 100
REMARK H PARENT 3 17 92 26 85 53 53 64
REMARK Flexibility Score: inf
ROOT
ATOM      1  C   UNL A   1      40.104  23.035  26.396  1.00  0.00     0.188 C 
ENDROOT
BRANCH   1   2
ATOM      2  O   UNL A   1      38.698  23.075  26.534  1.00  0.00    -0.377 OA
BRANCH   2   3
ATOM      3  C   UNL A   1      37.966  22.310  25.601  1.00  0.00     0.188 C 
BRANCH   3   4
ATOM      4  C   UNL A   1      36.951  23.109  24.770  1.00  0.00     0.188 C 
BRANCH   4   5
ATOM      5  O   UNL A   1      36.215  22.500  23.713  1.00  0.00    -0.376 OA
BRANCH   5   6
ATOM      6  C   UNL A   1      34.798  22.470  23.757  1.00  0.00     0.202 C 
BRANCH   6   7
ATOM      7  C   UNL A   1      34.024  23.565  22.999  1.00  0.00     0.261 C 
BRANCH   7   8
ATOM      8  O   UNL A   1      33.089  24.381  23.744  1.00  0.00    -0.459 OA
BRANCH   8   9
ATOM      9  C   UNL A   1      32.333  25.244  23.004  1.00  0.00     0.370 C 
ATOM     10  O   UNL A   1      32.327  25.214  21.771  1.00  0.00    -0.245 OA
BRANCH   9  11
ATOM     11  C   UNL A   1      31.594  26.348  23.823  1.00  0.00     0.328 C 
BRANCH  11  12
ATOM     12  C   UNL A   1      31.243  27.728  23.204  1.00  0.00     0.049 A 
ATOM     13  C   UNL A   1      33.673  28.381  22.393  1.00  0.00     0.065 C 
ATOM     14  C   UNL A   1      32.208  28.545  22.599  1.00  0.00     0.022 A 
ATOM     15  N   UNL A   1      31.601  29.665  22.098  1.00  0.00    -0.358 N 
ATOM     16  C   UNL A   1      30.246  29.595  22.247  1.00  0.00     0.046 A 
ATOM     17  H   UNL A   1      32.080  30.420  21.686  1.00  0.00     0.166 HD
ATOM     18  C   UNL A   1      29.969  28.427  22.965  1.00  0.00     0.009 A 
ATOM     19  C   UNL A   1      29.269  30.497  21.789  1.00  0.00     0.027 A 
ATOM     20  C   UNL A   1      28.597  28.214  23.251  1.00  0.00     0.011 A 
ATOM     21  C   UNL A   1      27.933  30.211  22.050  1.00  0.00     0.002 A 
ATOM     22  C   UNL A   1      27.598  29.081  22.776  1.00  0.00     0.001 A 
ENDBRANCH  11  12
BRANCH  11  23
ATOM     23  N   UNL A   1      32.134  26.406  25.198  1.00  0.00    -0.319 N 
ATOM     24  C   UNL A   1      31.207  26.671  26.278  1.00  0.00     0.263 C 
ATOM     25  C   UNL A   1      33.382  27.106  25.438  1.00  0.00     0.263 C 
ATOM     26  H   UNL A   1      32.364  25.413  25.229  1.00  0.00     0.349 HD
ATOM     27  C   UNL A   1      31.585  28.052  26.765  1.00  0.00     0.067 C 
ATOM     28  C   UNL A   1      33.086  28.126  26.533  1.00  0.00     0.067 C 
ENDBRANCH  11  23
ENDBRANCH   9  11
ENDBRANCH   8   9
ENDBRANCH   7   8
ENDBRANCH   6   7
ENDBRANCH   5   6
ENDBRANCH   4   5
ENDBRANCH   3   4
ENDBRANCH   2   3
ENDBRANCH   1   2
BRANCH   1  29
ATOM     29  C   UNL A   1      40.805  21.902  27.157  1.00  0.00     0.188 C 
BRANCH  29  30
ATOM     30  O   UNL A   1      41.099  20.766  26.341  1.00  0.00    -0.376 OA
BRANCH  30  31
ATOM     31  C   UNL A   1      41.794  19.681  26.945  1.00  0.00     0.202 C 
BRANCH  31  32
ATOM     32  C   UNL A   1      42.831  18.965  26.066  1.00  0.00     0.261 C 
BRANCH  32  33
ATOM     33  O   UNL A   1      43.215  19.623  24.853  1.00  0.00    -0.460 OA
BRANCH  33  34
ATOM     34  C   UNL A   1      44.527  19.786  24.583  1.00  0.00     0.338 C 
ATOM     35  O   UNL A   1      45.264  19.005  24.009  1.00  0.00    -0.246 OA
BRANCH  34  36
ATOM     36  C   UNL A   1      44.842  21.194  24.897  1.00  0.00     0.060 A 
ATOM     37  C   UNL A   1      45.362  21.500  26.161  1.00  0.00     0.016 A 
ATOM     38  C   UNL A   1      44.706  22.185  23.920  1.00  0.00     0.016 A 
ATOM     39  C   UNL A   1      45.747  22.807  26.453  1.00  0.00     0.010 A 
ATOM     40  C   UNL A   1      45.062  23.498  24.226  1.00  0.00     0.010 A 
ATOM     41  C   UNL A   1      45.566  23.816  25.499  1.00  0.00    -0.014 A 
BRANCH  41  42
ATOM     42  C   UNL A   1      45.689  25.234  25.902  1.00  0.00     0.031 A 
ATOM     43  C   UNL A   1      47.060  25.846  25.873  1.00  0.00     0.074 A 
ATOM     44  C   UNL A   1      44.617  25.951  26.283  1.00  0.00     0.049 A 
ATOM     45  N   UNL A   1      47.448  27.038  26.237  1.00  0.00    -0.248 NA
ATOM     46  C   UNL A   1      48.144  24.985  25.366  1.00  0.00     0.031 C 
ATOM     47  C   UNL A   1      43.238  25.464  26.301  1.00  0.00     0.029 A 
ATOM     48  N   UNL A   1      44.525  27.241  26.738  1.00  0.00    -0.354 N 
ATOM     49  C   UNL A   1      48.819  27.074  26.002  1.00  0.00     0.074 A 
ATOM     50  C   UNL A   1      49.198  25.773  25.499  1.00  0.00     0.031 C 
ATOM     51  C   UNL A   1      42.438  26.442  26.763  1.00  0.00     0.029 A 
ATOM     52  C   UNL A   1      43.251  27.606  27.112  1.00  0.00     0.049 A 
ATOM     53  H   UNL A   1      45.297  27.850  26.793  1.00  0.00     0.167 HD
ATOM     54  C   UNL A   1      49.678  28.103  26.188  1.00  0.00     0.034 A 
ATOM     55  C   UNL A   1      42.809  28.737  27.698  1.00  0.00     0.034 A 
ATOM     56  C   UNL A   1      49.280  29.381  26.721  1.00  0.00     0.049 A 
ATOM     57  C   UNL A   1      43.807  29.834  28.000  1.00  0.00     0.074 A 
ATOM     58  C   UNL A   1      50.056  30.502  26.942  1.00  0.00     0.029 A 
ATOM     59  N   UNL A   1      47.993  29.696  27.139  1.00  0.00    -0.354 N 
ATOM     60  N   UNL A   1      45.098  29.869  27.751  1.00  0.00    -0.248 NA
ATOM     61  C   UNL A   1      43.293  31.040  28.661  1.00  0.00     0.031 C 
ATOM     62  C   UNL A   1      49.259  31.467  27.568  1.00  0.00     0.029 A 
ATOM     63  C   UNL A   1      47.965  30.979  27.661  1.00  0.00     0.049 A 
ATOM     64  H   UNL A   1      47.215  29.097  27.073  1.00  0.00     0.167 HD
ATOM     65  C   UNL A   1      45.541  31.109  28.204  1.00  0.00     0.074 A 
ATOM     66  C   UNL A   1      44.378  31.798  28.726  1.00  0.00     0.031 C 
ATOM     67  C   UNL A   1      46.793  31.637  28.189  1.00  0.00     0.034 A 
BRANCH  54  68
ATOM     68  C   UNL A   1      51.132  27.856  25.872  1.00  0.00     0.023 A 
ATOM     69  C   UNL A   1      51.637  27.973  24.565  1.00  0.00     0.031 A 
ATOM     70  C   UNL A   1      52.017  27.455  26.889  1.00  0.00     0.131 A 
ATOM     71  C   UNL A   1      52.970  27.626  24.298  1.00  0.00     0.055 A 
ATOM     72  C   UNL A   1      53.362  27.188  26.629  1.00  0.00     0.041 A 
ATOM     73  F   UNL A   1      51.584  27.296  28.149  1.00  0.00    -0.206 F 
ATOM     74  C   UNL A   1      53.843  27.259  25.325  1.00  0.00     0.022 A 
BRANCH  71  75
ATOM     75  S   UNL A   1      53.509  27.524  22.569  1.00  0.00     0.124 S 
ATOM     76  O   UNL A   1      53.253  26.119  22.262  1.00  0.00    -0.237 OA
ATOM     77  O   UNL A   1      52.639  28.490  21.909  1.00  0.00    -0.237 OA
ATOM     78  O   UNL A   1      54.922  27.894  22.627  1.00  0.00    -0.744 OA
ENDBRANCH  71  75
ENDBRANCH  54  68
BRANCH  55  79
ATOM     79  C   UNL A   1      41.377  28.881  28.097  1.00  0.00     0.023 A 
ATOM     80  C   UNL A   1      40.972  28.735  29.433  1.00  0.00     0.031 A 
ATOM     81  C   UNL A   1      40.380  29.104  27.129  1.00  0.00     0.131 A 
ATOM     82  C   UNL A   1      39.605  28.766  29.758  1.00  0.00     0.055 A 
ATOM     83  C   UNL A   1      39.028  29.191  27.465  1.00  0.00     0.041 A 
ATOM     84  F   UNL A   1      40.707  29.242  25.834  1.00  0.00    -0.206 F 
ATOM     85  C   UNL A   1      38.633  29.008  28.787  1.00  0.00     0.022 A 
BRANCH  82  86
ATOM     86  S   UNL A   1      39.108  28.390  31.462  1.00  0.00     0.124 S 
ATOM     87  O   UNL A   1      40.392  28.382  32.152  1.00  0.00    -0.237 OA
ATOM     88  O   UNL A   1      38.219  29.505  31.771  1.00  0.00    -0.237 OA
ATOM     89  O   UNL A   1      38.453  27.088  31.346  1.00  0.00    -0.744 OA
ENDBRANCH  82  86
ENDBRANCH  55  79
BRANCH  67  90
ATOM     90  C   UNL A   1      46.957  33.037  28.727  1.00  0.00     0.023 A 
ATOM     91  C   UNL A   1      46.830  34.165  27.899  1.00  0.00     0.031 A 
ATOM     92  C   UNL A   1      47.224  33.244  30.092  1.00  0.00     0.131 A 
ATOM     93  C   UNL A   1      47.008  35.448  28.435  1.00  0.00     0.055 A 
ATOM     94  C   UNL A   1      47.342  34.525  30.632  1.00  0.00     0.041 A 
ATOM     95  F   UNL A   1      47.357  32.201  30.928  1.00  0.00    -0.206 F 
ATOM     96  C   UNL A   1      47.243  35.636  29.801  1.00  0.00     0.022 A 
BRANCH  93  97
ATOM     97  S   UNL A   1      46.999  36.872  27.313  1.00  0.00     0.124 S 
ATOM     98  O   UNL A   1      48.423  37.072  27.065  1.00  0.00    -0.237 OA
ATOM     99  O   UNL A   1      46.219  36.376  26.183  1.00  0.00    -0.237 OA
ATOM    100  O   UNL A   1      46.351  37.923  28.096  1.00  0.00    -0.744 OA
ENDBRANCH  93  97
ENDBRANCH  67  90
ENDBRANCH  41  42
ENDBRANCH  34  36
ENDBRANCH  33  34
ENDBRANCH  32  33
ENDBRANCH  31  32
ENDBRANCH  30  31
ENDBRANCH  29  30
ENDBRANCH   1  29
TORSDOF 25
ENDMDL
