MODEL 1
REMARK VINA RESULT:     -10.3      0.000      0.000
REMARK SMILES C[C@@]1(CN2C(=O)c3ccc(C(=O)OCCOCCOCCOCCOC(=O)c4ccc(-c5c6nc(c(-c7cc(S(=O)(=O)[O-])ccc7F)c7ccc([nH]7)c(-c7cc(S(=O)(=O)[O-])ccc7F)c7nc(c(-c8cc(S(=O)(=O)[O-])ccc8F)c8ccc5[nH]8)C=C7)C=C6)cc4)cc3C2=O)CCCO1
REMARK SMILES IDX 20 1 19 2 18 3 17 4 16 5 15 6 14 7 13 8 11 9 12 10 10 11
REMARK SMILES IDX 4 12 5 13 93 14 6 15 7 16 92 17 94 18 8 19 91 20 9 21 3 22
REMARK SMILES IDX 2 23 1 24 95 25 98 26 96 27 97 28 21 29 22 30 23 31 24 32
REMARK SMILES IDX 25 33 26 34 27 35 28 36 29 37 90 38 30 39 89 40 31 41 32 42
REMARK SMILES IDX 33 43 83 44 34 45 88 46 82 47 84 48 35 49 87 50 81 51 80 52
REMARK SMILES IDX 36 54 68 55 48 56 67 57 49 58 52 59 66 60 85 61 50 62 51 63
REMARK SMILES IDX 65 65 86 66 53 67 37 68 38 69 46 70 39 71 45 72 47 73 44 74
REMARK SMILES IDX 40 75 41 76 42 77 43 78 69 79 70 80 78 81 71 82 77 83 79 84
REMARK SMILES IDX 76 85 72 86 73 87 74 88 75 89 54 90 55 91 63 92 56 93 62 94
REMARK SMILES IDX 64 95 61 96 57 97 58 98 59 99 60 100
REMARK H PARENT 84 53 52 64
REMARK Flexibility Score: inf
ROOT
ATOM      1  C   UNL A   1      35.486  23.470  23.917  1.00  0.00     0.188 C 
ENDROOT
BRANCH   1   2
ATOM      2  O   UNL A   1      34.905  24.775  23.972  1.00  0.00    -0.377 OA
BRANCH   2   3
ATOM      3  C   UNL A   1      34.013  25.195  22.953  1.00  0.00     0.188 C 
BRANCH   3   4
ATOM      4  C   UNL A   1      33.822  26.709  22.741  1.00  0.00     0.188 C 
BRANCH   4   5
ATOM      5  O   UNL A   1      32.467  27.115  22.732  1.00  0.00    -0.376 OA
BRANCH   5   6
ATOM      6  C   UNL A   1      32.065  28.279  23.428  1.00  0.00     0.202 C 
BRANCH   6   7
ATOM      7  C   UNL A   1      31.057  28.209  24.587  1.00  0.00     0.261 C 
BRANCH   7   8
ATOM      8  O   UNL A   1      30.227  27.045  24.644  1.00  0.00    -0.460 OA
BRANCH   8   9
ATOM      9  C   UNL A   1      30.479  26.144  25.615  1.00  0.00     0.338 C 
ATOM     10  O   UNL A   1      30.212  26.243  26.798  1.00  0.00    -0.246 OA
BRANCH   9  11
ATOM     11  C   UNL A   1      30.936  24.892  24.957  1.00  0.00     0.060 A 
ATOM     12  N   UNL A   1      33.133  20.895  24.521  1.00  0.00    -0.271 N 
ATOM     13  C   UNL A   1      32.299  21.214  23.487  1.00  0.00     0.261 C 
ATOM     14  C   UNL A   1      33.016  21.779  25.558  1.00  0.00     0.261 C 
ATOM     15  O   UNL A   1      32.085  20.598  22.455  1.00  0.00    -0.269 OA
ATOM     16  C   UNL A   1      31.689  22.497  23.825  1.00  0.00     0.053 A 
ATOM     17  C   UNL A   1      32.134  22.847  25.088  1.00  0.00     0.054 A 
ATOM     18  O   UNL A   1      33.490  21.729  26.676  1.00  0.00    -0.269 OA
ATOM     19  C   UNL A   1      30.856  23.314  23.086  1.00  0.00     0.015 A 
ATOM     20  C   UNL A   1      31.774  24.036  25.689  1.00  0.00     0.030 A 
ATOM     21  C   UNL A   1      30.475  24.530  23.667  1.00  0.00     0.016 A 
BRANCH  12  22
ATOM     22  C   UNL A   1      34.068  19.780  24.502  1.00  0.00     0.164 C 
BRANCH  22  23
ATOM     23  C   UNL A   1      33.377  18.406  24.757  1.00  0.00     0.084 C 
ATOM     24  C   UNL A   1      32.676  18.340  26.115  1.00  0.00     0.044 C 
ATOM     25  C   UNL A   1      34.373  17.252  24.615  1.00  0.00     0.039 C 
ATOM     26  O   UNL A   1      32.385  18.179  23.734  1.00  0.00    -0.373 OA
ATOM     27  C   UNL A   1      34.323  16.937  23.141  1.00  0.00     0.031 C 
ATOM     28  C   UNL A   1      32.880  17.224  22.787  1.00  0.00     0.161 C 
ENDBRANCH  22  23
ENDBRANCH  12  22
ENDBRANCH   9  11
ENDBRANCH   8   9
ENDBRANCH   7   8
ENDBRANCH   6   7
ENDBRANCH   5   6
ENDBRANCH   4   5
ENDBRANCH   3   4
ENDBRANCH   2   3
ENDBRANCH   1   2
BRANCH   1  29
ATOM     29  C   UNL A   1      36.794  23.110  24.665  1.00  0.00     0.188 C 
BRANCH  29  30
ATOM     30  O   UNL A   1      36.780  21.854  25.322  1.00  0.00    -0.376 OA
BRANCH  30  31
ATOM     31  C   UNL A   1      37.895  21.003  25.129  1.00  0.00     0.202 C 
BRANCH  31  32
ATOM     32  C   UNL A   1      39.142  21.296  25.975  1.00  0.00     0.261 C 
BRANCH  32  33
ATOM     33  O   UNL A   1      39.812  20.155  26.533  1.00  0.00    -0.460 OA
BRANCH  33  34
ATOM     34  C   UNL A   1      41.126  19.999  26.249  1.00  0.00     0.338 C 
ATOM     35  O   UNL A   1      41.645  19.050  25.692  1.00  0.00    -0.246 OA
BRANCH  34  36
ATOM     36  C   UNL A   1      41.794  21.280  26.568  1.00  0.00     0.060 A 
ATOM     37  C   UNL A   1      42.093  21.591  27.902  1.00  0.00     0.016 A 
ATOM     38  C   UNL A   1      42.173  22.146  25.540  1.00  0.00     0.016 A 
ATOM     39  C   UNL A   1      42.782  22.768  28.208  1.00  0.00     0.010 A 
ATOM     40  C   UNL A   1      42.839  23.335  25.852  1.00  0.00     0.010 A 
ATOM     41  C   UNL A   1      43.140  23.659  27.186  1.00  0.00    -0.014 A 
BRANCH  41  42
ATOM     42  C   UNL A   1      43.719  24.986  27.508  1.00  0.00     0.031 A 
ATOM     43  C   UNL A   1      42.813  26.060  28.043  1.00  0.00     0.074 A 
ATOM     44  C   UNL A   1      45.026  25.242  27.309  1.00  0.00     0.049 A 
ATOM     45  N   UNL A   1      43.065  27.321  28.280  1.00  0.00    -0.248 NA
ATOM     46  C   UNL A   1      41.433  25.651  28.345  1.00  0.00     0.031 C 
ATOM     47  C   UNL A   1      46.014  24.268  26.848  1.00  0.00     0.029 A 
ATOM     48  N   UNL A   1      45.742  26.405  27.455  1.00  0.00    -0.354 N 
ATOM     49  C   UNL A   1      41.875  27.861  28.754  1.00  0.00     0.074 A 
ATOM     50  C   UNL A   1      40.895  26.795  28.739  1.00  0.00     0.031 C 
ATOM     51  C   UNL A   1      47.205  24.881  26.733  1.00  0.00     0.029 A 
ATOM     52  C   UNL A   1      47.055  26.298  27.057  1.00  0.00     0.049 A 
ATOM     53  H   UNL A   1      45.352  27.236  27.809  1.00  0.00     0.167 HD
ATOM     54  C   UNL A   1      41.626  29.129  29.165  1.00  0.00     0.034 A 
ATOM     55  C   UNL A   1      48.010  27.243  26.930  1.00  0.00     0.034 A 
ATOM     56  C   UNL A   1      42.611  30.184  29.153  1.00  0.00     0.049 A 
ATOM     57  C   UNL A   1      47.675  28.676  27.276  1.00  0.00     0.074 A 
ATOM     58  C   UNL A   1      42.469  31.498  29.564  1.00  0.00     0.029 A 
ATOM     59  N   UNL A   1      43.912  30.054  28.686  1.00  0.00    -0.354 N 
ATOM     60  N   UNL A   1      46.550  29.176  27.736  1.00  0.00    -0.248 NA
ATOM     61  C   UNL A   1      48.738  29.673  27.084  1.00  0.00     0.031 C 
ATOM     62  C   UNL A   1      43.652  32.181  29.263  1.00  0.00     0.029 A 
ATOM     63  C   UNL A   1      44.566  31.276  28.750  1.00  0.00     0.049 A 
ATOM     64  H   UNL A   1      44.312  29.217  28.356  1.00  0.00     0.167 HD
ATOM     65  C   UNL A   1      46.781  30.540  27.910  1.00  0.00     0.074 A 
ATOM     66  C   UNL A   1      48.157  30.778  27.528  1.00  0.00     0.031 C 
ATOM     67  C   UNL A   1      45.934  31.507  28.347  1.00  0.00     0.034 A 
BRANCH  54  68
ATOM     68  C   UNL A   1      40.219  29.454  29.605  1.00  0.00     0.023 A 
ATOM     69  C   UNL A   1      39.860  29.513  30.962  1.00  0.00     0.031 A 
ATOM     70  C   UNL A   1      39.215  29.688  28.648  1.00  0.00     0.131 A 
ATOM     71  C   UNL A   1      38.521  29.732  31.323  1.00  0.00     0.055 A 
ATOM     72  C   UNL A   1      37.902  29.987  29.015  1.00  0.00     0.041 A 
ATOM     73  F   UNL A   1      39.491  29.620  27.336  1.00  0.00    -0.206 F 
ATOM     74  C   UNL A   1      37.545  29.996  30.360  1.00  0.00     0.022 A 
BRANCH  71  75
ATOM     75  S   UNL A   1      38.046  29.516  33.061  1.00  0.00     0.124 S 
ATOM     76  O   UNL A   1      37.412  28.201  33.033  1.00  0.00    -0.237 OA
ATOM     77  O   UNL A   1      39.329  29.592  33.749  1.00  0.00    -0.237 OA
ATOM     78  O   UNL A   1      37.137  30.633  33.309  1.00  0.00    -0.744 OA
ENDBRANCH  71  75
ENDBRANCH  54  68
BRANCH  55  79
ATOM     79  C   UNL A   1      49.359  26.892  26.395  1.00  0.00     0.023 A 
ATOM     80  C   UNL A   1      50.458  26.718  27.252  1.00  0.00     0.031 A 
ATOM     81  C   UNL A   1      49.585  26.795  25.009  1.00  0.00     0.131 A 
ATOM     82  C   UNL A   1      51.738  26.502  26.715  1.00  0.00     0.055 A 
ATOM     83  C   UNL A   1      50.848  26.517  24.484  1.00  0.00     0.041 A 
ATOM     84  F   UNL A   1      48.575  26.964  24.142  1.00  0.00    -0.206 F 
ATOM     85  C   UNL A   1      51.937  26.383  25.338  1.00  0.00     0.022 A 
BRANCH  82  86
ATOM     86  S   UNL A   1      53.159  26.477  27.842  1.00  0.00     0.124 S 
ATOM     87  O   UNL A   1      52.507  26.309  29.135  1.00  0.00    -0.237 OA
ATOM     88  O   UNL A   1      53.915  25.330  27.351  1.00  0.00    -0.237 OA
ATOM     89  O   UNL A   1      53.788  27.777  27.624  1.00  0.00    -0.744 OA
ENDBRANCH  82  86
ENDBRANCH  55  79
BRANCH  67  90
ATOM     90  C   UNL A   1      46.485  32.909  28.464  1.00  0.00     0.023 A 
ATOM     91  C   UNL A   1      46.705  33.714  27.332  1.00  0.00     0.031 A 
ATOM     92  C   UNL A   1      46.796  33.449  29.725  1.00  0.00     0.131 A 
ATOM     93  C   UNL A   1      47.269  34.991  27.478  1.00  0.00     0.055 A 
ATOM     94  C   UNL A   1      47.292  34.745  29.870  1.00  0.00     0.041 A 
ATOM     95  F   UNL A   1      46.613  32.726  30.842  1.00  0.00    -0.206 F 
ATOM     96  C   UNL A   1      47.545  35.519  28.742  1.00  0.00     0.022 A 
BRANCH  93  97
ATOM     97  S   UNL A   1      47.730  35.915  25.988  1.00  0.00     0.124 S 
ATOM     98  O   UNL A   1      47.608  34.897  24.950  1.00  0.00    -0.237 OA
ATOM     99  O   UNL A   1      46.732  36.979  25.958  1.00  0.00    -0.237 OA
ATOM    100  O   UNL A   1      49.096  36.356  26.266  1.00  0.00    -0.744 OA
ENDBRANCH  93  97
ENDBRANCH  67  90
ENDBRANCH  41  42
ENDBRANCH  34  36
ENDBRANCH  33  34
ENDBRANCH  32  33
ENDBRANCH  31  32
ENDBRANCH  30  31
ENDBRANCH  29  30
ENDBRANCH   1  29
TORSDOF 25
ENDMDL
MODEL 2
REMARK VINA RESULT:     -10.1      3.017      8.093
REMARK SMILES C[C@@]1(CN2C(=O)c3ccc(C(=O)OCCOCCOCCOCCOC(=O)c4ccc(-c5c6nc(c(-c7cc(S(=O)(=O)[O-])ccc7F)c7ccc([nH]7)c(-c7cc(S(=O)(=O)[O-])ccc7F)c7nc(c(-c8cc(S(=O)(=O)[O-])ccc8F)c8ccc5[nH]8)C=C7)C=C6)cc4)cc3C2=O)CCCO1
REMARK SMILES IDX 20 1 19 2 18 3 17 4 16 5 15 6 14 7 13 8 11 9 12 10 10 11
REMARK SMILES IDX 4 12 5 13 93 14 6 15 7 16 92 17 94 18 8 19 91 20 9 21 3 22
REMARK SMILES IDX 2 23 1 24 95 25 98 26 96 27 97 28 21 29 22 30 23 31 24 32
REMARK SMILES IDX 25 33 26 34 27 35 28 36 29 37 90 38 30 39 89 40 31 41 32 42
REMARK SMILES IDX 33 43 83 44 34 45 88 46 82 47 84 48 35 49 87 50 81 51 80 52
REMARK SMILES IDX 36 54 68 55 48 56 67 57 49 58 52 59 66 60 85 61 50 62 51 63
REMARK SMILES IDX 65 65 86 66 53 67 37 68 38 69 46 70 39 71 45 72 47 73 44 74
REMARK SMILES IDX 40 75 41 76 42 77 43 78 69 79 70 80 78 81 71 82 77 83 79 84
REMARK SMILES IDX 76 85 72 86 73 87 74 88 75 89 54 90 55 91 63 92 56 93 62 94
REMARK SMILES IDX 64 95 61 96 57 97 58 98 59 99 60 100
REMARK H PARENT 84 53 52 64
REMARK Flexibility Score: inf
ROOT
ATOM      1  C   UNL A   1      34.650  23.526  22.822  1.00  0.00     0.188 C 
ENDROOT
BRANCH   1   2
ATOM      2  O   UNL A   1      34.249  24.893  22.698  1.00  0.00    -0.377 OA
BRANCH   2   3
ATOM      3  C   UNL A   1      32.921  25.208  22.315  1.00  0.00     0.188 C 
BRANCH   3   4
ATOM      4  C   UNL A   1      32.590  26.680  21.999  1.00  0.00     0.188 C 
BRANCH   4   5
ATOM      5  O   UNL A   1      31.258  27.042  22.306  1.00  0.00    -0.376 OA
BRANCH   5   6
ATOM      6  C   UNL A   1      30.951  28.363  22.709  1.00  0.00     0.202 C 
BRANCH   6   7
ATOM      7  C   UNL A   1      31.807  29.099  23.754  1.00  0.00     0.261 C 
BRANCH   7   8
ATOM      8  O   UNL A   1      31.669  28.670  25.111  1.00  0.00    -0.460 OA
BRANCH   8   9
ATOM      9  C   UNL A   1      32.673  27.942  25.642  1.00  0.00     0.338 C 
ATOM     10  O   UNL A   1      33.705  28.360  26.134  1.00  0.00    -0.246 OA
BRANCH   9  11
ATOM     11  C   UNL A   1      32.204  26.535  25.740  1.00  0.00     0.060 A 
ATOM     12  N   UNL A   1      32.515  21.994  26.269  1.00  0.00    -0.271 N 
ATOM     13  C   UNL A   1      31.242  22.486  26.216  1.00  0.00     0.261 C 
ATOM     14  C   UNL A   1      33.445  22.997  26.309  1.00  0.00     0.261 C 
ATOM     15  O   UNL A   1      30.183  21.881  26.259  1.00  0.00    -0.269 OA
ATOM     16  C   UNL A   1      31.361  23.934  26.068  1.00  0.00     0.053 A 
ATOM     17  C   UNL A   1      32.708  24.246  26.115  1.00  0.00     0.054 A 
ATOM     18  O   UNL A   1      34.644  22.936  26.498  1.00  0.00    -0.269 OA
ATOM     19  C   UNL A   1      30.390  24.895  25.863  1.00  0.00     0.015 A 
ATOM     20  C   UNL A   1      33.168  25.538  25.960  1.00  0.00     0.030 A 
ATOM     21  C   UNL A   1      30.824  26.216  25.698  1.00  0.00     0.016 A 
BRANCH  12  22
ATOM     22  C   UNL A   1      32.846  20.578  26.237  1.00  0.00     0.164 C 
BRANCH  22  23
ATOM     23  C   UNL A   1      32.968  20.019  24.787  1.00  0.00     0.084 C 
ATOM     24  C   UNL A   1      32.465  21.003  23.729  1.00  0.00     0.044 C 
ATOM     25  C   UNL A   1      32.248  18.675  24.649  1.00  0.00     0.039 C 
ATOM     26  O   UNL A   1      34.355  19.736  24.505  1.00  0.00    -0.373 OA
ATOM     27  C   UNL A   1      33.302  17.678  25.060  1.00  0.00     0.031 C 
ATOM     28  C   UNL A   1      34.579  18.322  24.566  1.00  0.00     0.161 C 
ENDBRANCH  22  23
ENDBRANCH  12  22
ENDBRANCH   9  11
ENDBRANCH   8   9
ENDBRANCH   7   8
ENDBRANCH   6   7
ENDBRANCH   5   6
ENDBRANCH   4   5
ENDBRANCH   3   4
ENDBRANCH   2   3
ENDBRANCH   1   2
BRANCH   1  29
ATOM     29  C   UNL A   1      36.099  23.115  23.184  1.00  0.00     0.188 C 
BRANCH  29  30
ATOM     30  O   UNL A   1      36.202  22.055  24.119  1.00  0.00    -0.376 OA
BRANCH  30  31
ATOM     31  C   UNL A   1      37.497  21.707  24.574  1.00  0.00     0.202 C 
BRANCH  31  32
ATOM     32  C   UNL A   1      38.092  22.574  25.691  1.00  0.00     0.261 C 
BRANCH  32  33
ATOM     33  O   UNL A   1      39.081  21.946  26.522  1.00  0.00    -0.460 OA
BRANCH  33  34
ATOM     34  C   UNL A   1      40.380  22.240  26.283  1.00  0.00     0.338 C 
ATOM     35  O   UNL A   1      41.183  21.559  25.674  1.00  0.00    -0.246 OA
BRANCH  34  36
ATOM     36  C   UNL A   1      40.599  23.633  26.731  1.00  0.00     0.060 A 
ATOM     37  C   UNL A   1      40.621  24.669  25.787  1.00  0.00     0.016 A 
ATOM     38  C   UNL A   1      40.726  23.918  28.093  1.00  0.00     0.016 A 
ATOM     39  C   UNL A   1      40.761  25.995  26.206  1.00  0.00     0.010 A 
ATOM     40  C   UNL A   1      40.892  25.242  28.506  1.00  0.00     0.010 A 
ATOM     41  C   UNL A   1      40.920  26.288  27.567  1.00  0.00    -0.014 A 
BRANCH  41  42
ATOM     42  C   UNL A   1      41.237  27.667  28.012  1.00  0.00     0.031 A 
ATOM     43  C   UNL A   1      42.679  28.087  28.096  1.00  0.00     0.074 A 
ATOM     44  C   UNL A   1      40.262  28.529  28.357  1.00  0.00     0.049 A 
ATOM     45  N   UNL A   1      43.199  29.189  28.567  1.00  0.00    -0.248 NA
ATOM     46  C   UNL A   1      43.663  27.123  27.580  1.00  0.00     0.031 C 
ATOM     47  C   UNL A   1      38.828  28.259  28.266  1.00  0.00     0.029 A 
ATOM     48  N   UNL A   1      40.333  29.802  28.869  1.00  0.00    -0.354 N 
ATOM     49  C   UNL A   1      44.575  29.053  28.412  1.00  0.00     0.074 A 
ATOM     50  C   UNL A   1      44.805  27.746  27.832  1.00  0.00     0.031 C 
ATOM     51  C   UNL A   1      38.155  29.329  28.724  1.00  0.00     0.029 A 
ATOM     52  C   UNL A   1      39.106  30.336  29.191  1.00  0.00     0.049 A 
ATOM     53  H   UNL A   1      41.181  30.285  28.994  1.00  0.00     0.167 HD
ATOM     54  C   UNL A   1      45.553  29.939  28.723  1.00  0.00     0.034 A 
ATOM     55  C   UNL A   1      38.792  31.484  29.827  1.00  0.00     0.034 A 
ATOM     56  C   UNL A   1      45.306  31.229  29.321  1.00  0.00     0.049 A 
ATOM     57  C   UNL A   1      39.906  32.402  30.278  1.00  0.00     0.074 A 
ATOM     58  C   UNL A   1      46.221  32.210  29.661  1.00  0.00     0.029 A 
ATOM     59  N   UNL A   1      44.056  31.710  29.690  1.00  0.00    -0.354 N 
ATOM     60  N   UNL A   1      41.204  32.271  30.116  1.00  0.00    -0.248 NA
ATOM     61  C   UNL A   1      39.513  33.620  31.000  1.00  0.00     0.031 C 
ATOM     62  C   UNL A   1      45.538  33.241  30.314  1.00  0.00     0.029 A 
ATOM     63  C   UNL A   1      44.184  32.950  30.300  1.00  0.00     0.049 A 
ATOM     64  H   UNL A   1      43.204  31.240  29.541  1.00  0.00     0.167 HD
ATOM     65  C   UNL A   1      41.776  33.403  30.694  1.00  0.00     0.074 A 
ATOM     66  C   UNL A   1      40.683  34.213  31.187  1.00  0.00     0.031 C 
ATOM     67  C   UNL A   1      43.087  33.741  30.807  1.00  0.00     0.034 A 
BRANCH  54  68
ATOM     68  C   UNL A   1      46.980  29.514  28.477  1.00  0.00     0.023 A 
ATOM     69  C   UNL A   1      47.756  28.901  29.476  1.00  0.00     0.031 A 
ATOM     70  C   UNL A   1      47.581  29.746  27.226  1.00  0.00     0.131 A 
ATOM     71  C   UNL A   1      49.105  28.604  29.230  1.00  0.00     0.055 A 
ATOM     72  C   UNL A   1      48.900  29.372  26.962  1.00  0.00     0.041 A 
ATOM     73  F   UNL A   1      46.899  30.351  26.241  1.00  0.00    -0.206 F 
ATOM     74  C   UNL A   1      49.675  28.810  27.971  1.00  0.00     0.022 A 
BRANCH  71  75
ATOM     75  S   UNL A   1      50.145  28.083  30.623  1.00  0.00     0.124 S 
ATOM     76  O   UNL A   1      50.286  29.332  31.368  1.00  0.00    -0.237 OA
ATOM     77  O   UNL A   1      49.331  27.051  31.254  1.00  0.00    -0.237 OA
ATOM     78  O   UNL A   1      51.368  27.609  29.979  1.00  0.00    -0.744 OA
ENDBRANCH  71  75
ENDBRANCH  54  68
BRANCH  55  79
ATOM     79  C   UNL A   1      37.370  31.815  30.139  1.00  0.00     0.023 A 
ATOM     80  C   UNL A   1      36.556  32.477  29.204  1.00  0.00     0.031 A 
ATOM     81  C   UNL A   1      36.823  31.536  31.405  1.00  0.00     0.131 A 
ATOM     82  C   UNL A   1      35.259  32.877  29.565  1.00  0.00     0.055 A 
ATOM     83  C   UNL A   1      35.512  31.881  31.736  1.00  0.00     0.041 A 
ATOM     84  F   UNL A   1      37.558  30.917  32.342  1.00  0.00    -0.206 F 
ATOM     85  C   UNL A   1      34.726  32.569  30.818  1.00  0.00     0.022 A 
BRANCH  82  86
ATOM     86  S   UNL A   1      34.312  33.898  28.403  1.00  0.00     0.124 S 
ATOM     87  O   UNL A   1      33.904  35.011  29.253  1.00  0.00    -0.237 OA
ATOM     88  O   UNL A   1      35.310  34.202  27.383  1.00  0.00    -0.237 OA
ATOM     89  O   UNL A   1      33.233  33.012  27.973  1.00  0.00    -0.744 OA
ENDBRANCH  82  86
ENDBRANCH  55  79
BRANCH  67  90
ATOM     90  C   UNL A   1      43.405  35.064  31.464  1.00  0.00     0.023 A 
ATOM     91  C   UNL A   1      43.529  36.250  30.719  1.00  0.00     0.031 A 
ATOM     92  C   UNL A   1      43.586  35.142  32.858  1.00  0.00     0.131 A 
ATOM     93  C   UNL A   1      43.879  37.449  31.360  1.00  0.00     0.055 A 
ATOM     94  C   UNL A   1      43.866  36.349  33.499  1.00  0.00     0.041 A 
ATOM     95  F   UNL A   1      43.485  34.042  33.622  1.00  0.00    -0.206 F 
ATOM     96  C   UNL A   1      44.027  37.509  32.749  1.00  0.00     0.022 A 
BRANCH  93  97
ATOM     97  S   UNL A   1      44.233  38.908  30.345  1.00  0.00     0.124 S 
ATOM     98  O   UNL A   1      45.498  38.542  29.717  1.00  0.00    -0.237 OA
ATOM     99  O   UNL A   1      43.075  38.964  29.460  1.00  0.00    -0.237 OA
ATOM    100  O   UNL A   1      44.318  39.993  31.322  1.00  0.00    -0.744 OA
ENDBRANCH  93  97
ENDBRANCH  67  90
ENDBRANCH  41  42
ENDBRANCH  34  36
ENDBRANCH  33  34
ENDBRANCH  32  33
ENDBRANCH  31  32
ENDBRANCH  30  31
ENDBRANCH  29  30
ENDBRANCH   1  29
TORSDOF 25
ENDMDL
MODEL 3
REMARK VINA RESULT:      -9.3      2.737      7.749
REMARK SMILES C[C@@]1(CN2C(=O)c3ccc(C(=O)OCCOCCOCCOCCOC(=O)c4ccc(-c5c6nc(c(-c7cc(S(=O)(=O)[O-])ccc7F)c7ccc([nH]7)c(-c7cc(S(=O)(=O)[O-])ccc7F)c7nc(c(-c8cc(S(=O)(=O)[O-])ccc8F)c8ccc5[nH]8)C=C7)C=C6)cc4)cc3C2=O)CCCO1
REMARK SMILES IDX 20 1 19 2 18 3 17 4 16 5 15 6 14 7 13 8 11 9 12 10 10 11
REMARK SMILES IDX 4 12 5 13 93 14 6 15 7 16 92 17 94 18 8 19 91 20 9 21 3 22
REMARK SMILES IDX 2 23 1 24 95 25 98 26 96 27 97 28 21 29 22 30 23 31 24 32
REMARK SMILES IDX 25 33 26 34 27 35 28 36 29 37 90 38 30 39 89 40 31 41 32 42
REMARK SMILES IDX 33 43 83 44 34 45 88 46 82 47 84 48 35 49 87 50 81 51 80 52
REMARK SMILES IDX 36 54 68 55 48 56 67 57 49 58 52 59 66 60 85 61 50 62 51 63
REMARK SMILES IDX 65 65 86 66 53 67 37 68 38 69 46 70 39 71 45 72 47 73 44 74
REMARK SMILES IDX 40 75 41 76 42 77 43 78 69 79 70 80 78 81 71 82 77 83 79 84
REMARK SMILES IDX 76 85 72 86 73 87 74 88 75 89 54 90 55 91 63 92 56 93 62 94
REMARK SMILES IDX 64 95 61 96 57 97 58 98 59 99 60 100
REMARK H PARENT 84 53 52 64
REMARK Flexibility Score: inf
ROOT
ATOM      1  C   UNL A   1      34.978  23.299  23.003  1.00  0.00     0.188 C 
ENDROOT
BRANCH   1   2
ATOM      2  O   UNL A   1      34.691  24.694  22.888  1.00  0.00    -0.377 OA
BRANCH   2   3
ATOM      3  C   UNL A   1      33.424  25.119  22.413  1.00  0.00     0.188 C 
BRANCH   3   4
ATOM      4  C   UNL A   1      33.235  26.617  22.102  1.00  0.00     0.188 C 
BRANCH   4   5
ATOM      5  O   UNL A   1      31.916  27.080  22.321  1.00  0.00    -0.376 OA
BRANCH   5   6
ATOM      6  C   UNL A   1      31.688  28.407  22.754  1.00  0.00     0.202 C 
BRANCH   6   7
ATOM      7  C   UNL A   1      32.483  29.015  23.922  1.00  0.00     0.261 C 
BRANCH   7   8
ATOM      8  O   UNL A   1      32.139  28.562  25.235  1.00  0.00    -0.460 OA
BRANCH   8   9
ATOM      9  C   UNL A   1      33.028  27.777  25.878  1.00  0.00     0.338 C 
ATOM     10  O   UNL A   1      34.009  28.136  26.503  1.00  0.00    -0.246 OA
BRANCH   9  11
ATOM     11  C   UNL A   1      32.478  26.397  25.895  1.00  0.00     0.060 A 
ATOM     12  N   UNL A   1      32.510  21.829  26.255  1.00  0.00    -0.271 N 
ATOM     13  C   UNL A   1      31.270  22.394  26.156  1.00  0.00     0.261 C 
ATOM     14  C   UNL A   1      33.490  22.775  26.382  1.00  0.00     0.261 C 
ATOM     15  O   UNL A   1      30.179  21.849  26.121  1.00  0.00    -0.269 OA
ATOM     16  C   UNL A   1      31.476  23.837  26.073  1.00  0.00     0.053 A 
ATOM     17  C   UNL A   1      32.834  24.070  26.202  1.00  0.00     0.054 A 
ATOM     18  O   UNL A   1      34.672  22.638  26.629  1.00  0.00    -0.269 OA
ATOM     19  C   UNL A   1      30.572  24.859  25.859  1.00  0.00     0.015 A 
ATOM     20  C   UNL A   1      33.372  25.339  26.123  1.00  0.00     0.030 A 
ATOM     21  C   UNL A   1      31.086  26.158  25.770  1.00  0.00     0.016 A 
BRANCH  12  22
ATOM     22  C   UNL A   1      32.763  20.398  26.181  1.00  0.00     0.164 C 
BRANCH  22  23
ATOM     23  C   UNL A   1      33.053  19.909  24.730  1.00  0.00     0.084 C 
ATOM     24  C   UNL A   1      32.527  20.873  23.664  1.00  0.00     0.044 C 
ATOM     25  C   UNL A   1      32.492  18.503  24.497  1.00  0.00     0.039 C 
ATOM     26  O   UNL A   1      34.479  19.783  24.549  1.00  0.00    -0.373 OA
ATOM     27  C   UNL A   1      33.614  17.607  24.961  1.00  0.00     0.031 C 
ATOM     28  C   UNL A   1      34.848  18.399  24.587  1.00  0.00     0.161 C 
ENDBRANCH  22  23
ENDBRANCH  12  22
ENDBRANCH   9  11
ENDBRANCH   8   9
ENDBRANCH   7   8
ENDBRANCH   6   7
ENDBRANCH   5   6
ENDBRANCH   4   5
ENDBRANCH   3   4
ENDBRANCH   2   3
ENDBRANCH   1   2
BRANCH   1  29
ATOM     29  C   UNL A   1      36.398  22.766  23.317  1.00  0.00     0.188 C 
BRANCH  29  30
ATOM     30  O   UNL A   1      36.435  21.628  24.161  1.00  0.00    -0.376 OA
BRANCH  30  31
ATOM     31  C   UNL A   1      37.706  21.167  24.583  1.00  0.00     0.202 C 
BRANCH  31  32
ATOM     32  C   UNL A   1      38.292  21.817  25.844  1.00  0.00     0.261 C 
BRANCH  32  33
ATOM     33  O   UNL A   1      39.019  20.948  26.726  1.00  0.00    -0.460 OA
BRANCH  33  34
ATOM     34  C   UNL A   1      40.358  20.856  26.553  1.00  0.00     0.338 C 
ATOM     35  O   UNL A   1      40.978  19.893  26.141  1.00  0.00    -0.246 OA
BRANCH  34  36
ATOM     36  C   UNL A   1      40.917  22.208  26.775  1.00  0.00     0.060 A 
ATOM     37  C   UNL A   1      41.514  22.516  28.005  1.00  0.00     0.016 A 
ATOM     38  C   UNL A   1      40.900  23.150  25.744  1.00  0.00     0.016 A 
ATOM     39  C   UNL A   1      42.103  23.768  28.203  1.00  0.00     0.010 A 
ATOM     40  C   UNL A   1      41.466  24.410  25.954  1.00  0.00     0.010 A 
ATOM     41  C   UNL A   1      42.063  24.731  27.186  1.00  0.00    -0.014 A 
BRANCH  41  42
ATOM     42  C   UNL A   1      42.532  26.117  27.436  1.00  0.00     0.031 A 
ATOM     43  C   UNL A   1      43.933  26.490  27.036  1.00  0.00     0.074 A 
ATOM     44  C   UNL A   1      41.734  27.025  28.027  1.00  0.00     0.049 A 
ATOM     45  N   UNL A   1      44.597  27.593  27.261  1.00  0.00    -0.248 NA
ATOM     46  C   UNL A   1      44.683  25.472  26.285  1.00  0.00     0.031 C 
ATOM     47  C   UNL A   1      40.340  26.801  28.409  1.00  0.00     0.029 A 
ATOM     48  N   UNL A   1      41.988  28.316  28.424  1.00  0.00    -0.354 N 
ATOM     49  C   UNL A   1      45.849  27.404  26.685  1.00  0.00     0.074 A 
ATOM     50  C   UNL A   1      45.857  26.066  26.130  1.00  0.00     0.031 C 
ATOM     51  C   UNL A   1      39.868  27.912  29.001  1.00  0.00     0.029 A 
ATOM     52  C   UNL A   1      40.938  28.904  29.091  1.00  0.00     0.049 A 
ATOM     53  H   UNL A   1      42.840  28.775  28.249  1.00  0.00     0.167 HD
ATOM     54  C   UNL A   1      46.892  28.267  26.625  1.00  0.00     0.034 A 
ATOM     55  C   UNL A   1      40.864  30.089  29.733  1.00  0.00     0.034 A 
ATOM     56  C   UNL A   1      46.872  29.590  27.203  1.00  0.00     0.049 A 
ATOM     57  C   UNL A   1      42.080  30.986  29.761  1.00  0.00     0.074 A 
ATOM     58  C   UNL A   1      47.866  30.553  27.184  1.00  0.00     0.029 A 
ATOM     59  N   UNL A   1      45.813  30.129  27.924  1.00  0.00    -0.354 N 
ATOM     60  N   UNL A   1      43.257  30.805  29.203  1.00  0.00    -0.248 NA
ATOM     61  C   UNL A   1      41.961  32.247  30.506  1.00  0.00     0.031 C 
ATOM     62  C   UNL A   1      47.445  31.633  27.966  1.00  0.00     0.029 A 
ATOM     63  C   UNL A   1      46.152  31.388  28.397  1.00  0.00     0.049 A 
ATOM     64  H   UNL A   1      44.950  29.682  28.077  1.00  0.00     0.167 HD
ATOM     65  C   UNL A   1      44.004  31.940  29.511  1.00  0.00     0.074 A 
ATOM     66  C   UNL A   1      43.140  32.807  30.282  1.00  0.00     0.031 C 
ATOM     67  C   UNL A   1      45.289  32.238  29.184  1.00  0.00     0.034 A 
BRANCH  54  68
ATOM     68  C   UNL A   1      48.158  27.784  25.961  1.00  0.00     0.023 A 
ATOM     69  C   UNL A   1      48.356  27.886  24.574  1.00  0.00     0.031 A 
ATOM     70  C   UNL A   1      49.177  27.192  26.729  1.00  0.00     0.131 A 
ATOM     71  C   UNL A   1      49.510  27.344  23.990  1.00  0.00     0.055 A 
ATOM     72  C   UNL A   1      50.361  26.729  26.152  1.00  0.00     0.041 A 
ATOM     73  F   UNL A   1      49.035  27.043  28.056  1.00  0.00    -0.206 F 
ATOM     74  C   UNL A   1      50.527  26.790  24.772  1.00  0.00     0.022 A 
BRANCH  71  75
ATOM     75  S   UNL A   1      49.597  27.237  22.181  1.00  0.00     0.124 S 
ATOM     76  O   UNL A   1      48.625  26.183  21.900  1.00  0.00    -0.237 OA
ATOM     77  O   UNL A   1      49.218  28.583  21.767  1.00  0.00    -0.237 OA
ATOM     78  O   UNL A   1      50.989  26.874  21.925  1.00  0.00    -0.744 OA
ENDBRANCH  71  75
ENDBRANCH  54  68
BRANCH  55  79
ATOM     79  C   UNL A   1      39.621  30.481  30.462  1.00  0.00     0.023 A 
ATOM     80  C   UNL A   1      38.617  31.235  29.833  1.00  0.00     0.031 A 
ATOM     81  C   UNL A   1      39.450  30.167  31.823  1.00  0.00     0.131 A 
ATOM     82  C   UNL A   1      37.513  31.688  30.574  1.00  0.00     0.055 A 
ATOM     83  C   UNL A   1      38.321  30.566  32.539  1.00  0.00     0.041 A 
ATOM     84  F   UNL A   1      40.383  29.459  32.480  1.00  0.00    -0.206 F 
ATOM     85  C   UNL A   1      37.349  31.344  31.918  1.00  0.00     0.022 A 
BRANCH  82  86
ATOM     86  S   UNL A   1      36.339  32.820  29.779  1.00  0.00     0.124 S 
ATOM     87  O   UNL A   1      36.494  34.022  30.591  1.00  0.00    -0.237 OA
ATOM     88  O   UNL A   1      36.862  32.892  28.419  1.00  0.00    -0.237 OA
ATOM     89  O   UNL A   1      35.058  32.133  29.918  1.00  0.00    -0.744 OA
ENDBRANCH  82  86
ENDBRANCH  55  79
BRANCH  67  90
ATOM     90  C   UNL A   1      45.825  33.576  29.638  1.00  0.00     0.023 A 
ATOM     91  C   UNL A   1      46.394  33.751  30.911  1.00  0.00     0.031 A 
ATOM     92  C   UNL A   1      45.766  34.693  28.784  1.00  0.00     0.131 A 
ATOM     93  C   UNL A   1      46.831  35.023  31.316  1.00  0.00     0.055 A 
ATOM     94  C   UNL A   1      46.265  35.939  29.166  1.00  0.00     0.041 A 
ATOM     95  F   UNL A   1      45.228  34.588  27.559  1.00  0.00    -0.206 F 
ATOM     96  C   UNL A   1      46.789  36.113  30.442  1.00  0.00     0.022 A 
BRANCH  93  97
ATOM     97  S   UNL A   1      47.367  35.255  33.032  1.00  0.00     0.124 S 
ATOM     98  O   UNL A   1      46.129  35.024  33.770  1.00  0.00    -0.237 OA
ATOM     99  O   UNL A   1      48.397  34.232  33.181  1.00  0.00    -0.237 OA
ATOM    100  O   UNL A   1      47.856  36.633  33.056  1.00  0.00    -0.744 OA
ENDBRANCH  93  97
ENDBRANCH  67  90
ENDBRANCH  41  42
ENDBRANCH  34  36
ENDBRANCH  33  34
ENDBRANCH  32  33
ENDBRANCH  31  32
ENDBRANCH  30  31
ENDBRANCH  29  30
ENDBRANCH   1  29
TORSDOF 25
ENDMDL
