MODEL 1
REMARK VINA RESULT:     -10.0      0.000      0.000
REMARK SMILES O=C(Cc1c(C(=O)c2cc3c(cn2)CCCC3)[nH]c2cc(Cl)ccc12)OCCOCCOCCOCCOC(=O)c1ccc(-c2c3nc(c(-c4cc(S(=O)(=O)[O-])ccc4F)c4ccc([nH]4)c(-c4cc(S(=O)(=O)[O-])ccc4F)c4nc(c(-c5cc(S(=O)(=O)[O-])ccc5F)c5ccc2[nH]5)C=C4)C=C3)cc1
REMARK SMILES IDX 32 1 31 2 30 3 29 4 28 5 27 6 26 7 2 8 1 9 3 10 4 11 5 12
REMARK SMILES IDX 25 13 18 14 19 15 24 16 20 18 23 19 21 20 22 21 6 22 7 23
REMARK SMILES IDX 8 24 9 25 13 26 10 27 12 28 11 29 17 30 14 31 16 32 15 33
REMARK SMILES IDX 33 34 34 35 35 36 36 37 37 38 38 39 39 40 40 41 41 42 42 43
REMARK SMILES IDX 103 44 43 45 102 46 44 47 45 48 46 49 96 50 47 51 101 52
REMARK SMILES IDX 95 53 97 54 48 55 100 56 94 57 93 58 49 60 81 61 61 62 80 63
REMARK SMILES IDX 62 64 65 65 79 66 98 67 63 68 64 69 78 71 99 72 66 73 50 74
REMARK SMILES IDX 51 75 59 76 52 77 58 78 60 79 57 80 53 81 54 82 55 83 56 84
REMARK SMILES IDX 82 85 83 86 91 87 84 88 90 89 92 90 89 91 85 92 86 93 87 94
REMARK SMILES IDX 88 95 67 96 68 97 76 98 69 99 75 100 77 101 74 102 70 103
REMARK SMILES IDX 71 104 72 105 73 106
REMARK H PARENT 18 17 97 59 65 70
REMARK Flexibility Score: inf
ROOT
ATOM      1  O   UNL A   1      33.152  29.117  24.618  1.00  0.00    -0.377 OA
ENDROOT
BRANCH   1   2
ATOM      2  C   UNL A   1      32.367  28.579  23.564  1.00  0.00     0.188 C 
BRANCH   2   3
ATOM      3  C   UNL A   1      30.860  28.617  23.823  1.00  0.00     0.188 C 
BRANCH   3   4
ATOM      4  O   UNL A   1      30.220  27.518  24.444  1.00  0.00    -0.376 OA
BRANCH   4   5
ATOM      5  C   UNL A   1      30.776  26.634  25.394  1.00  0.00     0.202 C 
BRANCH   5   6
ATOM      6  C   UNL A   1      30.234  25.244  25.709  1.00  0.00     0.261 C 
BRANCH   6   7
ATOM      7  O   UNL A   1      30.942  24.093  25.229  1.00  0.00    -0.463 OA
BRANCH   7   8
ATOM      8  C   UNL A   1      32.161  23.636  25.572  1.00  0.00     0.310 C 
ATOM      9  O   UNL A   1      32.469  23.636  26.768  1.00  0.00    -0.252 OA
BRANCH   8  10
ATOM     10  C   UNL A   1      33.193  23.283  24.516  1.00  0.00     0.161 C 
BRANCH  10  11
ATOM     11  C   UNL A   1      34.003  22.051  24.752  1.00  0.00     0.000 A 
ATOM     12  C   UNL A   1      35.273  22.021  25.303  1.00  0.00     0.093 A 
ATOM     13  C   UNL A   1      33.644  20.711  24.410  1.00  0.00     0.004 A 
ATOM     14  N   UNL A   1      35.633  20.698  25.421  1.00  0.00    -0.351 N 
ATOM     15  C   UNL A   1      34.691  19.890  24.822  1.00  0.00     0.048 A 
ATOM     16  C   UNL A   1      32.514  20.122  23.802  1.00  0.00     0.012 A 
ATOM     17  H   UNL A   1      36.448  20.375  25.869  1.00  0.00     0.167 HD
ATOM     18  C   UNL A   1      34.681  18.503  24.620  1.00  0.00     0.047 A 
ATOM     19  C   UNL A   1      32.479  18.738  23.605  1.00  0.00     0.021 A 
ATOM     20  C   UNL A   1      33.557  17.949  23.996  1.00  0.00     0.043 A 
ATOM     21  Cl  UNL A   1      33.508  16.253  23.703  1.00  0.00    -0.084 Cl
BRANCH  12  22
ATOM     22  C   UNL A   1      36.063  23.183  25.652  1.00  0.00     0.227 C 
ATOM     23  O   UNL A   1      35.627  24.332  25.624  1.00  0.00    -0.285 OA
BRANCH  22  24
ATOM     24  C   UNL A   1      37.495  23.053  25.859  1.00  0.00     0.113 A 
ATOM     25  C   UNL A   1      38.092  24.155  26.438  1.00  0.00     0.036 A 
ATOM     26  N   UNL A   1      38.070  21.847  25.665  1.00  0.00    -0.252 NA
ATOM     27  C   UNL A   1      39.379  24.006  26.912  1.00  0.00    -0.041 A 
ATOM     28  C   UNL A   1      39.327  21.726  26.138  1.00  0.00     0.115 A 
ATOM     29  C   UNL A   1      40.021  22.766  26.761  1.00  0.00    -0.026 A 
ATOM     30  C   UNL A   1      40.024  25.190  27.570  1.00  0.00     0.036 C 
ATOM     31  C   UNL A   1      41.386  22.527  27.343  1.00  0.00     0.037 C 
ATOM     32  C   UNL A   1      41.242  24.804  28.393  1.00  0.00     0.005 C 
ATOM     33  C   UNL A   1      42.126  23.837  27.613  1.00  0.00     0.005 C 
ENDBRANCH  22  24
ENDBRANCH  12  22
ENDBRANCH  10  11
ENDBRANCH   8  10
ENDBRANCH   7   8
ENDBRANCH   6   7
ENDBRANCH   5   6
ENDBRANCH   4   5
ENDBRANCH   3   4
ENDBRANCH   2   3
ENDBRANCH   1   2
BRANCH   1  34
ATOM     34  C   UNL A   1      32.448  30.023  25.443  1.00  0.00     0.188 C 
BRANCH  34  35
ATOM     35  C   UNL A   1      32.918  30.048  26.909  1.00  0.00     0.188 C 
BRANCH  35  36
ATOM     36  O   UNL A   1      34.194  30.542  27.280  1.00  0.00    -0.376 OA
BRANCH  36  37
ATOM     37  C   UNL A   1      34.386  31.569  28.235  1.00  0.00     0.202 C 
BRANCH  37  38
ATOM     38  C   UNL A   1      35.731  32.198  28.627  1.00  0.00     0.261 C 
BRANCH  38  39
ATOM     39  O   UNL A   1      36.085  32.180  30.000  1.00  0.00    -0.460 OA
BRANCH  39  40
ATOM     40  C   UNL A   1      37.138  31.396  30.320  1.00  0.00     0.338 C 
ATOM     41  O   UNL A   1      37.683  30.571  29.607  1.00  0.00    -0.246 OA
BRANCH  40  42
ATOM     42  C   UNL A   1      37.665  31.884  31.612  1.00  0.00     0.060 A 
ATOM     43  C   UNL A   1      38.581  31.126  32.347  1.00  0.00     0.016 A 
ATOM     44  C   UNL A   1      37.160  33.087  32.125  1.00  0.00     0.016 A 
ATOM     45  C   UNL A   1      39.032  31.602  33.577  1.00  0.00     0.010 A 
ATOM     46  C   UNL A   1      37.596  33.553  33.363  1.00  0.00     0.010 A 
ATOM     47  C   UNL A   1      38.567  32.835  34.073  1.00  0.00    -0.014 A 
BRANCH  47  48
ATOM     48  C   UNL A   1      39.321  33.499  35.160  1.00  0.00     0.031 A 
ATOM     49  C   UNL A   1      40.457  34.434  34.908  1.00  0.00     0.074 A 
ATOM     50  C   UNL A   1      38.934  33.204  36.416  1.00  0.00     0.049 A 
ATOM     51  N   UNL A   1      41.088  35.191  35.767  1.00  0.00    -0.248 NA
ATOM     52  C   UNL A   1      40.965  34.529  33.532  1.00  0.00     0.031 C 
ATOM     53  C   UNL A   1      37.875  32.248  36.751  1.00  0.00     0.029 A 
ATOM     54  N   UNL A   1      39.356  33.675  37.629  1.00  0.00    -0.354 N 
ATOM     55  C   UNL A   1      42.057  35.870  35.042  1.00  0.00     0.074 A 
ATOM     56  C   UNL A   1      41.961  35.398  33.675  1.00  0.00     0.031 C 
ATOM     57  C   UNL A   1      37.696  32.239  38.077  1.00  0.00     0.029 A 
ATOM     58  C   UNL A   1      38.641  33.166  38.690  1.00  0.00     0.049 A 
ATOM     59  H   UNL A   1      40.098  34.314  37.734  1.00  0.00     0.167 HD
ATOM     60  C   UNL A   1      42.924  36.810  35.488  1.00  0.00     0.034 A 
ATOM     61  C   UNL A   1      38.717  33.435  40.007  1.00  0.00     0.034 A 
ATOM     62  C   UNL A   1      42.993  37.246  36.864  1.00  0.00     0.049 A 
ATOM     63  C   UNL A   1      39.677  34.497  40.467  1.00  0.00     0.074 A 
ATOM     64  C   UNL A   1      43.787  38.244  37.404  1.00  0.00     0.029 A 
ATOM     65  N   UNL A   1      42.259  36.713  37.917  1.00  0.00    -0.354 N 
ATOM     66  N   UNL A   1      40.489  35.239  39.751  1.00  0.00    -0.248 NA
ATOM     67  C   UNL A   1      39.719  34.782  41.907  1.00  0.00     0.031 C 
ATOM     68  C   UNL A   1      43.597  38.257  38.785  1.00  0.00     0.029 A 
ATOM     69  C   UNL A   1      42.612  37.336  39.104  1.00  0.00     0.049 A 
ATOM     70  H   UNL A   1      41.588  35.999  37.832  1.00  0.00     0.167 HD
ATOM     71  C   UNL A   1      41.110  36.103  40.647  1.00  0.00     0.074 A 
ATOM     72  C   UNL A   1      40.561  35.805  41.954  1.00  0.00     0.031 C 
ATOM     73  C   UNL A   1      42.048  37.052  40.405  1.00  0.00     0.034 A 
BRANCH  60  74
ATOM     74  C   UNL A   1      43.860  37.478  34.508  1.00  0.00     0.023 A 
ATOM     75  C   UNL A   1      43.434  38.607  33.781  1.00  0.00     0.031 A 
ATOM     76  C   UNL A   1      45.086  36.887  34.155  1.00  0.00     0.131 A 
ATOM     77  C   UNL A   1      44.201  39.075  32.705  1.00  0.00     0.055 A 
ATOM     78  C   UNL A   1      45.868  37.384  33.111  1.00  0.00     0.041 A 
ATOM     79  F   UNL A   1      45.535  35.803  34.811  1.00  0.00    -0.206 F 
ATOM     80  C   UNL A   1      45.418  38.472  32.370  1.00  0.00     0.022 A 
BRANCH  77  81
ATOM     81  S   UNL A   1      43.611  40.423  31.645  1.00  0.00     0.124 S 
ATOM     82  O   UNL A   1      43.630  39.795  30.325  1.00  0.00    -0.237 OA
ATOM     83  O   UNL A   1      42.282  40.683  32.192  1.00  0.00    -0.237 OA
ATOM     84  O   UNL A   1      44.596  41.481  31.841  1.00  0.00    -0.744 OA
ENDBRANCH  77  81
ENDBRANCH  60  74
BRANCH  61  85
ATOM     85  C   UNL A   1      37.769  32.759  40.939  1.00  0.00     0.023 A 
ATOM     86  C   UNL A   1      36.481  33.279  41.165  1.00  0.00     0.031 A 
ATOM     87  C   UNL A   1      38.182  31.659  41.708  1.00  0.00     0.131 A 
ATOM     88  C   UNL A   1      35.680  32.737  42.179  1.00  0.00     0.055 A 
ATOM     89  C   UNL A   1      37.351  31.075  42.665  1.00  0.00     0.041 A 
ATOM     90  F   UNL A   1      39.412  31.144  41.547  1.00  0.00    -0.206 F 
ATOM     91  C   UNL A   1      36.099  31.626  42.916  1.00  0.00     0.022 A 
BRANCH  88  92
ATOM     92  S   UNL A   1      34.131  33.544  42.670  1.00  0.00     0.124 S 
ATOM     93  O   UNL A   1      34.559  34.357  43.803  1.00  0.00    -0.237 OA
ATOM     94  O   UNL A   1      33.782  34.283  41.459  1.00  0.00    -0.237 OA
ATOM     95  O   UNL A   1      33.247  32.428  42.990  1.00  0.00    -0.744 OA
ENDBRANCH  88  92
ENDBRANCH  61  85
BRANCH  73  96
ATOM     96  C   UNL A   1      42.557  37.880  41.564  1.00  0.00     0.023 A 
ATOM     97  C   UNL A   1      42.112  39.207  41.724  1.00  0.00     0.031 A 
ATOM     98  C   UNL A   1      43.584  37.420  42.406  1.00  0.00     0.131 A 
ATOM     99  C   UNL A   1      42.723  40.041  42.669  1.00  0.00     0.055 A 
ATOM    100  C   UNL A   1      44.149  38.237  43.387  1.00  0.00     0.041 A 
ATOM    101  F   UNL A   1      44.056  36.169  42.287  1.00  0.00    -0.206 F 
ATOM    102  C   UNL A   1      43.731  39.560  43.509  1.00  0.00     0.022 A 
BRANCH  99 103
ATOM    103  S   UNL A   1      42.310  41.805  42.768  1.00  0.00     0.124 S 
ATOM    104  O   UNL A   1      42.786  42.298  41.478  1.00  0.00    -0.237 OA
ATOM    105  O   UNL A   1      40.858  41.772  42.925  1.00  0.00    -0.237 OA
ATOM    106  O   UNL A   1      43.057  42.278  43.929  1.00  0.00    -0.744 OA
ENDBRANCH  99 103
ENDBRANCH  73  96
ENDBRANCH  47  48
ENDBRANCH  40  42
ENDBRANCH  39  40
ENDBRANCH  38  39
ENDBRANCH  37  38
ENDBRANCH  36  37
ENDBRANCH  35  36
ENDBRANCH  34  35
ENDBRANCH   1  34
TORSDOF 26
ENDMDL
MODEL 2
REMARK VINA RESULT:      -9.6      3.326      5.446
REMARK SMILES O=C(Cc1c(C(=O)c2cc3c(cn2)CCCC3)[nH]c2cc(Cl)ccc12)OCCOCCOCCOCCOC(=O)c1ccc(-c2c3nc(c(-c4cc(S(=O)(=O)[O-])ccc4F)c4ccc([nH]4)c(-c4cc(S(=O)(=O)[O-])ccc4F)c4nc(c(-c5cc(S(=O)(=O)[O-])ccc5F)c5ccc2[nH]5)C=C4)C=C3)cc1
REMARK SMILES IDX 32 1 31 2 30 3 29 4 28 5 27 6 26 7 2 8 1 9 3 10 4 11 5 12
REMARK SMILES IDX 25 13 18 14 19 15 24 16 20 18 23 19 21 20 22 21 6 22 7 23
REMARK SMILES IDX 8 24 9 25 13 26 10 27 12 28 11 29 17 30 14 31 16 32 15 33
REMARK SMILES IDX 33 34 34 35 35 36 36 37 37 38 38 39 39 40 40 41 41 42 42 43
REMARK SMILES IDX 103 44 43 45 102 46 44 47 45 48 46 49 96 50 47 51 101 52
REMARK SMILES IDX 95 53 97 54 48 55 100 56 94 57 93 58 49 60 81 61 61 62 80 63
REMARK SMILES IDX 62 64 65 65 79 66 98 67 63 68 64 69 78 71 99 72 66 73 50 74
REMARK SMILES IDX 51 75 59 76 52 77 58 78 60 79 57 80 53 81 54 82 55 83 56 84
REMARK SMILES IDX 82 85 83 86 91 87 84 88 90 89 92 90 89 91 85 92 86 93 87 94
REMARK SMILES IDX 88 95 67 96 68 97 76 98 69 99 75 100 77 101 74 102 70 103
REMARK SMILES IDX 71 104 72 105 73 106
REMARK H PARENT 18 17 97 59 65 70
REMARK Flexibility Score: inf
ROOT
ATOM      1  O   UNL A   1      33.586  28.497  24.237  1.00  0.00    -0.377 OA
ENDROOT
BRANCH   1   2
ATOM      2  C   UNL A   1      33.036  27.881  23.082  1.00  0.00     0.188 C 
BRANCH   2   3
ATOM      3  C   UNL A   1      31.541  28.137  22.886  1.00  0.00     0.188 C 
BRANCH   3   4
ATOM      4  O   UNL A   1      30.590  27.281  23.491  1.00  0.00    -0.376 OA
BRANCH   4   5
ATOM      5  C   UNL A   1      30.745  26.546  24.687  1.00  0.00     0.202 C 
BRANCH   5   6
ATOM      6  C   UNL A   1      30.083  25.201  24.971  1.00  0.00     0.261 C 
BRANCH   6   7
ATOM      7  O   UNL A   1      30.820  23.995  24.728  1.00  0.00    -0.463 OA
BRANCH   7   8
ATOM      8  C   UNL A   1      31.997  23.594  25.245  1.00  0.00     0.310 C 
ATOM      9  O   UNL A   1      32.127  23.603  26.473  1.00  0.00    -0.252 OA
BRANCH   8  10
ATOM     10  C   UNL A   1      33.186  23.294  24.350  1.00  0.00     0.161 C 
BRANCH  10  11
ATOM     11  C   UNL A   1      33.964  22.057  24.657  1.00  0.00     0.000 A 
ATOM     12  C   UNL A   1      35.200  22.022  25.279  1.00  0.00     0.093 A 
ATOM     13  C   UNL A   1      33.606  20.715  24.321  1.00  0.00     0.004 A 
ATOM     14  N   UNL A   1      35.534  20.697  25.444  1.00  0.00    -0.351 N 
ATOM     15  C   UNL A   1      34.616  19.889  24.809  1.00  0.00     0.048 A 
ATOM     16  C   UNL A   1      32.503  20.128  23.662  1.00  0.00     0.012 A 
ATOM     17  H   UNL A   1      36.317  20.373  25.944  1.00  0.00     0.167 HD
ATOM     18  C   UNL A   1      34.597  18.499  24.635  1.00  0.00     0.047 A 
ATOM     19  C   UNL A   1      32.461  18.741  23.491  1.00  0.00     0.021 A 
ATOM     20  C   UNL A   1      33.503  17.947  23.959  1.00  0.00     0.043 A 
ATOM     21  Cl  UNL A   1      33.447  16.245  23.697  1.00  0.00    -0.084 Cl
BRANCH  12  22
ATOM     22  C   UNL A   1      35.985  23.181  25.649  1.00  0.00     0.227 C 
ATOM     23  O   UNL A   1      35.543  24.328  25.647  1.00  0.00    -0.285 OA
BRANCH  22  24
ATOM     24  C   UNL A   1      37.419  23.054  25.851  1.00  0.00     0.113 A 
ATOM     25  C   UNL A   1      38.019  24.165  26.408  1.00  0.00     0.036 A 
ATOM     26  N   UNL A   1      37.992  21.844  25.673  1.00  0.00    -0.252 NA
ATOM     27  C   UNL A   1      39.309  24.023  26.876  1.00  0.00    -0.041 A 
ATOM     28  C   UNL A   1      39.251  21.731  26.141  1.00  0.00     0.115 A 
ATOM     29  C   UNL A   1      39.950  22.780  26.742  1.00  0.00    -0.026 A 
ATOM     30  C   UNL A   1      39.958  25.218  27.511  1.00  0.00     0.036 C 
ATOM     31  C   UNL A   1      41.317  22.550  27.319  1.00  0.00     0.037 C 
ATOM     32  C   UNL A   1      41.181  24.845  28.333  1.00  0.00     0.005 C 
ATOM     33  C   UNL A   1      42.060  23.865  27.563  1.00  0.00     0.005 C 
ENDBRANCH  22  24
ENDBRANCH  12  22
ENDBRANCH  10  11
ENDBRANCH   8  10
ENDBRANCH   7   8
ENDBRANCH   6   7
ENDBRANCH   5   6
ENDBRANCH   4   5
ENDBRANCH   3   4
ENDBRANCH   2   3
ENDBRANCH   1   2
BRANCH   1  34
ATOM     34  C   UNL A   1      32.765  29.511  24.783  1.00  0.00     0.188 C 
BRANCH  34  35
ATOM     35  C   UNL A   1      32.919  29.706  26.303  1.00  0.00     0.188 C 
BRANCH  35  36
ATOM     36  O   UNL A   1      34.132  30.156  26.882  1.00  0.00    -0.376 OA
BRANCH  36  37
ATOM     37  C   UNL A   1      34.209  31.243  27.787  1.00  0.00     0.202 C 
BRANCH  37  38
ATOM     38  C   UNL A   1      35.413  32.175  27.978  1.00  0.00     0.261 C 
BRANCH  38  39
ATOM     39  O   UNL A   1      36.163  32.037  29.174  1.00  0.00    -0.460 OA
BRANCH  39  40
ATOM     40  C   UNL A   1      37.321  31.351  29.060  1.00  0.00     0.338 C 
ATOM     41  O   UNL A   1      37.550  30.415  28.313  1.00  0.00    -0.246 OA
BRANCH  40  42
ATOM     42  C   UNL A   1      38.341  32.090  29.834  1.00  0.00     0.060 A 
ATOM     43  C   UNL A   1      39.538  31.477  30.214  1.00  0.00     0.016 A 
ATOM     44  C   UNL A   1      38.042  33.394  30.253  1.00  0.00     0.016 A 
ATOM     45  C   UNL A   1      40.462  32.194  30.973  1.00  0.00     0.010 A 
ATOM     46  C   UNL A   1      38.957  34.104  31.027  1.00  0.00     0.010 A 
ATOM     47  C   UNL A   1      40.190  33.522  31.351  1.00  0.00    -0.014 A 
BRANCH  47  48
ATOM     48  C   UNL A   1      41.307  34.380  31.808  1.00  0.00     0.031 A 
ATOM     49  C   UNL A   1      42.279  35.017  30.871  1.00  0.00     0.074 A 
ATOM     50  C   UNL A   1      41.416  34.552  33.139  1.00  0.00     0.049 A 
ATOM     51  N   UNL A   1      43.198  35.907  31.140  1.00  0.00    -0.248 NA
ATOM     52  C   UNL A   1      42.234  34.601  29.462  1.00  0.00     0.031 C 
ATOM     53  C   UNL A   1      40.546  33.910  34.129  1.00  0.00     0.029 A 
ATOM     54  N   UNL A   1      42.270  35.315  33.889  1.00  0.00    -0.354 N 
ATOM     55  C   UNL A   1      43.834  36.179  29.937  1.00  0.00     0.074 A 
ATOM     56  C   UNL A   1      43.223  35.320  28.941  1.00  0.00     0.031 C 
ATOM     57  C   UNL A   1      40.879  34.344  35.351  1.00  0.00     0.029 A 
ATOM     58  C   UNL A   1      41.999  35.272  35.237  1.00  0.00     0.049 A 
ATOM     59  H   UNL A   1      43.006  35.842  33.502  1.00  0.00     0.167 HD
ATOM     60  C   UNL A   1      44.819  37.078  29.700  1.00  0.00     0.034 A 
ATOM     61  C   UNL A   1      42.568  35.927  36.267  1.00  0.00     0.034 A 
ATOM     62  C   UNL A   1      45.406  37.909  30.726  1.00  0.00     0.049 A 
ATOM     63  C   UNL A   1      43.646  36.931  35.968  1.00  0.00     0.074 A 
ATOM     64  C   UNL A   1      46.359  38.902  30.577  1.00  0.00     0.029 A 
ATOM     65  N   UNL A   1      45.113  37.844  32.083  1.00  0.00    -0.354 N 
ATOM     66  N   UNL A   1      44.141  37.288  34.805  1.00  0.00    -0.248 NA
ATOM     67  C   UNL A   1      44.230  37.645  37.111  1.00  0.00     0.031 C 
ATOM     68  C   UNL A   1      46.703  39.375  31.843  1.00  0.00     0.029 A 
ATOM     69  C   UNL A   1      45.895  38.751  32.780  1.00  0.00     0.049 A 
ATOM     70  H   UNL A   1      44.449  37.242  32.488  1.00  0.00     0.167 HD
ATOM     71  C   UNL A   1      45.066  38.292  35.073  1.00  0.00     0.074 A 
ATOM     72  C   UNL A   1      45.043  38.500  36.506  1.00  0.00     0.031 C 
ATOM     73  C   UNL A   1      45.858  38.973  34.209  1.00  0.00     0.034 A 
BRANCH  60  74
ATOM     74  C   UNL A   1      45.328  37.264  28.290  1.00  0.00     0.023 A 
ATOM     75  C   UNL A   1      46.348  36.431  27.791  1.00  0.00     0.031 A 
ATOM     76  C   UNL A   1      44.946  38.377  27.520  1.00  0.00     0.131 A 
ATOM     77  C   UNL A   1      46.987  36.754  26.586  1.00  0.00     0.055 A 
ATOM     78  C   UNL A   1      45.555  38.670  26.298  1.00  0.00     0.041 A 
ATOM     79  F   UNL A   1      43.984  39.209  27.954  1.00  0.00    -0.206 F 
ATOM     80  C   UNL A   1      46.592  37.866  25.835  1.00  0.00     0.022 A 
BRANCH  77  81
ATOM     81  S   UNL A   1      48.409  35.799  25.989  1.00  0.00     0.124 S 
ATOM     82  O   UNL A   1      47.756  34.648  25.370  1.00  0.00    -0.237 OA
ATOM     83  O   UNL A   1      49.037  36.734  25.060  1.00  0.00    -0.237 OA
ATOM     84  O   UNL A   1      49.167  35.504  27.201  1.00  0.00    -0.744 OA
ENDBRANCH  77  81
ENDBRANCH  60  74
BRANCH  61  85
ATOM     85  C   UNL A   1      42.029  35.719  37.642  1.00  0.00     0.023 A 
ATOM     86  C   UNL A   1      41.033  36.565  38.165  1.00  0.00     0.031 A 
ATOM     87  C   UNL A   1      42.592  34.755  38.494  1.00  0.00     0.131 A 
ATOM     88  C   UNL A   1      40.677  36.468  39.516  1.00  0.00     0.055 A 
ATOM     89  C   UNL A   1      42.180  34.614  39.820  1.00  0.00     0.041 A 
ATOM     90  F   UNL A   1      43.564  33.944  38.049  1.00  0.00    -0.206 F 
ATOM     91  C   UNL A   1      41.230  35.486  40.342  1.00  0.00     0.022 A 
BRANCH  88  92
ATOM     92  S   UNL A   1      39.593  37.706  40.283  1.00  0.00     0.124 S 
ATOM     93  O   UNL A   1      40.534  38.775  40.603  1.00  0.00    -0.237 OA
ATOM     94  O   UNL A   1      38.656  37.993  39.200  1.00  0.00    -0.237 OA
ATOM     95  O   UNL A   1      39.022  37.002  41.426  1.00  0.00    -0.744 OA
ENDBRANCH  88  92
ENDBRANCH  61  85
BRANCH  73  96
ATOM     96  C   UNL A   1      46.778  40.042  34.757  1.00  0.00     0.023 A 
ATOM     97  C   UNL A   1      46.369  41.390  34.745  1.00  0.00     0.031 A 
ATOM     98  C   UNL A   1      48.098  39.754  35.142  1.00  0.00     0.131 A 
ATOM     99  C   UNL A   1      47.284  42.401  35.062  1.00  0.00     0.055 A 
ATOM    100  C   UNL A   1      48.989  40.761  35.516  1.00  0.00     0.041 A 
ATOM    101  F   UNL A   1      48.544  38.488  35.159  1.00  0.00    -0.206 F 
ATOM    102  C   UNL A   1      48.588  42.093  35.459  1.00  0.00     0.022 A 
BRANCH  99 103
ATOM    103  S   UNL A   1      46.850  44.152  34.868  1.00  0.00     0.124 S 
ATOM    104  O   UNL A   1      45.859  44.336  35.925  1.00  0.00    -0.237 OA
ATOM    105  O   UNL A   1      48.132  44.813  35.095  1.00  0.00    -0.237 OA
ATOM    106  O   UNL A   1      46.331  44.239  33.507  1.00  0.00    -0.744 OA
ENDBRANCH  99 103
ENDBRANCH  73  96
ENDBRANCH  47  48
ENDBRANCH  40  42
ENDBRANCH  39  40
ENDBRANCH  38  39
ENDBRANCH  37  38
ENDBRANCH  36  37
ENDBRANCH  35  36
ENDBRANCH  34  35
ENDBRANCH   1  34
TORSDOF 26
ENDMDL
MODEL 3
REMARK VINA RESULT:      -9.5      7.713     11.906
REMARK SMILES O=C(Cc1c(C(=O)c2cc3c(cn2)CCCC3)[nH]c2cc(Cl)ccc12)OCCOCCOCCOCCOC(=O)c1ccc(-c2c3nc(c(-c4cc(S(=O)(=O)[O-])ccc4F)c4ccc([nH]4)c(-c4cc(S(=O)(=O)[O-])ccc4F)c4nc(c(-c5cc(S(=O)(=O)[O-])ccc5F)c5ccc2[nH]5)C=C4)C=C3)cc1
REMARK SMILES IDX 32 1 31 2 30 3 29 4 28 5 27 6 26 7 2 8 1 9 3 10 4 11 5 12
REMARK SMILES IDX 25 13 18 14 19 15 24 16 20 18 23 19 21 20 22 21 6 22 7 23
REMARK SMILES IDX 8 24 9 25 13 26 10 27 12 28 11 29 17 30 14 31 16 32 15 33
REMARK SMILES IDX 33 34 34 35 35 36 36 37 37 38 38 39 39 40 40 41 41 42 42 43
REMARK SMILES IDX 103 44 43 45 102 46 44 47 45 48 46 49 96 50 47 51 101 52
REMARK SMILES IDX 95 53 97 54 48 55 100 56 94 57 93 58 49 60 81 61 61 62 80 63
REMARK SMILES IDX 62 64 65 65 79 66 98 67 63 68 64 69 78 71 99 72 66 73 50 74
REMARK SMILES IDX 51 75 59 76 52 77 58 78 60 79 57 80 53 81 54 82 55 83 56 84
REMARK SMILES IDX 82 85 83 86 91 87 84 88 90 89 92 90 89 91 85 92 86 93 87 94
REMARK SMILES IDX 88 95 67 96 68 97 76 98 69 99 75 100 77 101 74 102 70 103
REMARK SMILES IDX 71 104 72 105 73 106
REMARK H PARENT 18 17 97 59 65 70
REMARK Flexibility Score: inf
ROOT
ATOM      1  O   UNL A   1      42.233  24.674  27.131  1.00  0.00    -0.377 OA
ENDROOT
BRANCH   1   2
ATOM      2  C   UNL A   1      41.797  23.947  25.992  1.00  0.00     0.188 C 
BRANCH   2   3
ATOM      3  C   UNL A   1      41.747  22.432  26.197  1.00  0.00     0.188 C 
BRANCH   3   4
ATOM      4  O   UNL A   1      40.526  21.735  26.027  1.00  0.00    -0.376 OA
BRANCH   4   5
ATOM      5  C   UNL A   1      39.234  22.182  26.380  1.00  0.00     0.202 C 
BRANCH   5   6
ATOM      6  C   UNL A   1      38.000  22.057  25.492  1.00  0.00     0.261 C 
BRANCH   6   7
ATOM      7  O   UNL A   1      37.405  23.246  24.954  1.00  0.00    -0.463 OA
BRANCH   7   8
ATOM      8  C   UNL A   1      36.168  23.744  25.144  1.00  0.00     0.310 C 
ATOM      9  O   UNL A   1      35.667  23.646  26.268  1.00  0.00    -0.252 OA
BRANCH   8  10
ATOM     10  C   UNL A   1      35.344  24.262  23.980  1.00  0.00     0.161 C 
BRANCH  10  11
ATOM     11  C   UNL A   1      34.182  23.427  23.552  1.00  0.00     0.000 A 
ATOM     12  C   UNL A   1      33.118  23.869  22.785  1.00  0.00     0.093 A 
ATOM     13  C   UNL A   1      33.936  22.063  23.895  1.00  0.00     0.004 A 
ATOM     14  N   UNL A   1      32.309  22.781  22.549  1.00  0.00    -0.351 N 
ATOM     15  C   UNL A   1      32.748  21.692  23.270  1.00  0.00     0.048 A 
ATOM     16  C   UNL A   1      34.629  21.104  24.666  1.00  0.00     0.012 A 
ATOM     17  H   UNL A   1      31.528  22.781  21.951  1.00  0.00     0.167 HD
ATOM     18  C   UNL A   1      32.194  20.412  23.410  1.00  0.00     0.047 A 
ATOM     19  C   UNL A   1      34.098  19.818  24.808  1.00  0.00     0.021 A 
ATOM     20  C   UNL A   1      32.891  19.489  24.199  1.00  0.00     0.043 A 
ATOM     21  Cl  UNL A   1      32.237  17.912  24.423  1.00  0.00    -0.084 Cl
BRANCH  12  22
ATOM     22  C   UNL A   1      32.906  25.235  22.353  1.00  0.00     0.227 C 
ATOM     23  O   UNL A   1      33.736  25.880  21.716  1.00  0.00    -0.285 OA
BRANCH  22  24
ATOM     24  C   UNL A   1      31.758  25.982  22.839  1.00  0.00     0.113 A 
ATOM     25  C   UNL A   1      31.700  27.289  22.401  1.00  0.00     0.036 A 
ATOM     26  N   UNL A   1      30.779  25.314  23.486  1.00  0.00    -0.252 NA
ATOM     27  C   UNL A   1      30.515  27.971  22.592  1.00  0.00    -0.041 A 
ATOM     28  C   UNL A   1      29.632  26.001  23.659  1.00  0.00     0.115 A 
ATOM     29  C   UNL A   1      29.451  27.321  23.238  1.00  0.00    -0.026 A 
ATOM     30  C   UNL A   1      30.433  29.384  22.092  1.00  0.00     0.036 C 
ATOM     31  C   UNL A   1      28.114  27.989  23.386  1.00  0.00     0.037 C 
ATOM     32  C   UNL A   1      29.000  29.880  21.990  1.00  0.00     0.005 C 
ATOM     33  C   UNL A   1      28.218  29.508  23.245  1.00  0.00     0.005 C 
ENDBRANCH  22  24
ENDBRANCH  12  22
ENDBRANCH  10  11
ENDBRANCH   8  10
ENDBRANCH   7   8
ENDBRANCH   6   7
ENDBRANCH   5   6
ENDBRANCH   4   5
ENDBRANCH   3   4
ENDBRANCH   2   3
ENDBRANCH   1   2
BRANCH   1  34
ATOM     34  C   UNL A   1      41.487  24.397  28.299  1.00  0.00     0.188 C 
BRANCH  34  35
ATOM     35  C   UNL A   1      40.042  24.929  28.275  1.00  0.00     0.188 C 
BRANCH  35  36
ATOM     36  O   UNL A   1      39.740  26.261  27.891  1.00  0.00    -0.376 OA
BRANCH  36  37
ATOM     37  C   UNL A   1      39.209  27.228  28.781  1.00  0.00     0.202 C 
BRANCH  37  38
ATOM     38  C   UNL A   1      38.898  27.011  30.268  1.00  0.00     0.261 C 
BRANCH  38  39
ATOM     39  O   UNL A   1      38.198  28.043  30.945  1.00  0.00    -0.460 OA
BRANCH  39  40
ATOM     40  C   UNL A   1      38.831  28.573  32.014  1.00  0.00     0.338 C 
ATOM     41  O   UNL A   1      38.744  28.208  33.174  1.00  0.00    -0.246 OA
BRANCH  40  42
ATOM     42  C   UNL A   1      39.835  29.526  31.496  1.00  0.00     0.060 A 
ATOM     43  C   UNL A   1      41.035  29.747  32.177  1.00  0.00     0.016 A 
ATOM     44  C   UNL A   1      39.517  30.269  30.350  1.00  0.00     0.016 A 
ATOM     45  C   UNL A   1      41.943  30.679  31.678  1.00  0.00     0.010 A 
ATOM     46  C   UNL A   1      40.417  31.213  29.861  1.00  0.00     0.010 A 
ATOM     47  C   UNL A   1      41.653  31.389  30.497  1.00  0.00    -0.014 A 
BRANCH  47  48
ATOM     48  C   UNL A   1      42.755  32.069  29.781  1.00  0.00     0.031 A 
ATOM     49  C   UNL A   1      42.795  33.546  29.565  1.00  0.00     0.074 A 
ATOM     50  C   UNL A   1      43.735  31.275  29.310  1.00  0.00     0.049 A 
ATOM     51  N   UNL A   1      43.777  34.268  29.092  1.00  0.00    -0.248 NA
ATOM     52  C   UNL A   1      41.589  34.314  29.905  1.00  0.00     0.031 C 
ATOM     53  C   UNL A   1      43.739  29.813  29.419  1.00  0.00     0.029 A 
ATOM     54  N   UNL A   1      44.910  31.565  28.671  1.00  0.00    -0.354 N 
ATOM     55  C   UNL A   1      43.324  35.580  29.091  1.00  0.00     0.074 A 
ATOM     56  C   UNL A   1      41.955  35.547  29.568  1.00  0.00     0.031 C 
ATOM     57  C   UNL A   1      44.882  29.339  28.912  1.00  0.00     0.029 A 
ATOM     58  C   UNL A   1      45.682  30.454  28.418  1.00  0.00     0.049 A 
ATOM     59  H   UNL A   1      45.177  32.478  28.417  1.00  0.00     0.167 HD
ATOM     60  C   UNL A   1      44.005  36.696  28.738  1.00  0.00     0.034 A 
ATOM     61  C   UNL A   1      46.909  30.345  27.875  1.00  0.00     0.034 A 
ATOM     62  C   UNL A   1      45.368  36.682  28.258  1.00  0.00     0.049 A 
ATOM     63  C   UNL A   1      47.646  31.605  27.512  1.00  0.00     0.074 A 
ATOM     64  C   UNL A   1      46.171  37.765  27.943  1.00  0.00     0.029 A 
ATOM     65  N   UNL A   1      46.125  35.544  28.010  1.00  0.00    -0.354 N 
ATOM     66  N   UNL A   1      47.263  32.852  27.651  1.00  0.00    -0.248 NA
ATOM     67  C   UNL A   1      48.991  31.451  26.943  1.00  0.00     0.031 C 
ATOM     68  C   UNL A   1      47.375  37.283  27.428  1.00  0.00     0.029 A 
ATOM     69  C   UNL A   1      47.368  35.900  27.512  1.00  0.00     0.049 A 
ATOM     70  H   UNL A   1      45.822  34.620  28.165  1.00  0.00     0.167 HD
ATOM     71  C   UNL A   1      48.332  33.632  27.222  1.00  0.00     0.074 A 
ATOM     72  C   UNL A   1      49.385  32.714  26.841  1.00  0.00     0.031 C 
ATOM     73  C   UNL A   1      48.427  34.983  27.151  1.00  0.00     0.034 A 
BRANCH  60  74
ATOM     74  C   UNL A   1      43.338  38.044  28.876  1.00  0.00     0.023 A 
ATOM     75  C   UNL A   1      42.534  38.545  27.834  1.00  0.00     0.031 A 
ATOM     76  C   UNL A   1      43.655  38.907  29.941  1.00  0.00     0.131 A 
ATOM     77  C   UNL A   1      42.120  39.884  27.852  1.00  0.00     0.055 A 
ATOM     78  C   UNL A   1      43.202  40.227  29.977  1.00  0.00     0.041 A 
ATOM     79  F   UNL A   1      44.425  38.482  30.956  1.00  0.00    -0.206 F 
ATOM     80  C   UNL A   1      42.445  40.725  28.921  1.00  0.00     0.022 A 
BRANCH  77  81
ATOM     81  S   UNL A   1      41.220  40.611  26.455  1.00  0.00     0.124 S 
ATOM     82  O   UNL A   1      40.183  41.382  27.137  1.00  0.00    -0.237 OA
ATOM     83  O   UNL A   1      42.257  41.403  25.802  1.00  0.00    -0.237 OA
ATOM     84  O   UNL A   1      40.740  39.454  25.706  1.00  0.00    -0.744 OA
ENDBRANCH  77  81
ENDBRANCH  60  74
BRANCH  61  85
ATOM     85  C   UNL A   1      47.534  28.995  27.765  1.00  0.00     0.023 A 
ATOM     86  C   UNL A   1      47.387  28.222  26.597  1.00  0.00     0.031 A 
ATOM     87  C   UNL A   1      48.175  28.410  28.868  1.00  0.00     0.131 A 
ATOM     88  C   UNL A   1      47.821  26.891  26.586  1.00  0.00     0.055 A 
ATOM     89  C   UNL A   1      48.673  27.107  28.826  1.00  0.00     0.041 A 
ATOM     90  F   UNL A   1      48.315  29.098  30.013  1.00  0.00    -0.206 F 
ATOM     91  C   UNL A   1      48.480  26.334  27.685  1.00  0.00     0.022 A 
BRANCH  88  92
ATOM     92  S   UNL A   1      47.416  25.794  25.198  1.00  0.00     0.124 S 
ATOM     93  O   UNL A   1      48.634  25.857  24.397  1.00  0.00    -0.237 OA
ATOM     94  O   UNL A   1      47.174  24.525  25.880  1.00  0.00    -0.237 OA
ATOM     95  O   UNL A   1      46.235  26.412  24.603  1.00  0.00    -0.744 OA
ENDBRANCH  88  92
ENDBRANCH  61  85
BRANCH  73  96
ATOM     96  C   UNL A   1      49.720  35.594  26.658  1.00  0.00     0.023 A 
ATOM     97  C   UNL A   1      50.699  36.000  27.586  1.00  0.00     0.031 A 
ATOM     98  C   UNL A   1      49.917  35.915  25.305  1.00  0.00     0.131 A 
ATOM     99  C   UNL A   1      51.805  36.743  27.156  1.00  0.00     0.055 A 
ATOM    100  C   UNL A   1      51.052  36.604  24.872  1.00  0.00     0.041 A 
ATOM    101  F   UNL A   1      49.009  35.565  24.380  1.00  0.00    -0.206 F 
ATOM    102  C   UNL A   1      51.993  37.037  25.803  1.00  0.00     0.022 A 
BRANCH  99 103
ATOM    103  S   UNL A   1      52.981  37.447  28.345  1.00  0.00     0.124 S 
ATOM    104  O   UNL A   1      52.299  38.672  28.754  1.00  0.00    -0.237 OA
ATOM    105  O   UNL A   1      53.049  36.403  29.364  1.00  0.00    -0.237 OA
ATOM    106  O   UNL A   1      54.198  37.644  27.565  1.00  0.00    -0.744 OA
ENDBRANCH  99 103
ENDBRANCH  73  96
ENDBRANCH  47  48
ENDBRANCH  40  42
ENDBRANCH  39  40
ENDBRANCH  38  39
ENDBRANCH  37  38
ENDBRANCH  36  37
ENDBRANCH  35  36
ENDBRANCH  34  35
ENDBRANCH   1  34
TORSDOF 26
ENDMDL
