MODEL 1
REMARK VINA RESULT:      -9.9      0.000      0.000
REMARK SMILES O=C(OCCOCCOCCOCCOC(=O)[C@@H]1C=C[C@H](NC(=O)[C@@H]2Cc3ccccc3O2)C1)c1ccc(-c2c3nc(c(-c4cc(S(=O)(=O)[O-])ccc4F)c4ccc([nH]4)c(-c4cc(S(=O)(=O)[O-])ccc4F)c4nc(c(-c5cc(S(=O)(=O)[O-])ccc5F)c5ccc2[nH]5)C=C4)C=C3)cc1
REMARK SMILES IDX 8 1 7 2 6 3 5 4 4 5 3 6 2 7 1 8 35 9 36 10 97 11 37 12 96 13
REMARK SMILES IDX 38 14 39 15 40 16 90 17 41 18 95 19 89 20 91 21 42 22 94 23
REMARK SMILES IDX 88 24 87 25 43 27 75 28 55 29 74 30 56 31 59 32 73 33 92 34
REMARK SMILES IDX 57 35 58 36 72 38 93 39 60 40 44 41 45 42 53 43 46 44 52 45
REMARK SMILES IDX 54 46 51 47 47 48 48 49 49 50 50 51 76 52 77 53 85 54 78 55
REMARK SMILES IDX 84 56 86 57 83 58 79 59 80 60 81 61 82 62 61 63 62 64 70 65
REMARK SMILES IDX 63 66 69 67 71 68 68 69 64 70 65 71 66 72 67 73 9 74 10 75
REMARK SMILES IDX 11 76 12 77 13 78 14 79 15 80 16 81 17 82 18 83 19 84 34 85
REMARK SMILES IDX 20 86 21 87 22 88 23 89 24 91 25 92 26 93 33 94 27 95 32 96
REMARK SMILES IDX 28 97 31 98 29 99 30 100
REMARK H PARENT 91 26 59 37 22 90
REMARK Flexibility Score: inf
ROOT
ATOM      1  C   UNL A   1      34.316  34.080  28.468  1.00  0.00     0.188 C 
ENDROOT
BRANCH   1   2
ATOM      2  C   UNL A   1      34.363  33.559  29.905  1.00  0.00     0.188 C 
BRANCH   2   3
ATOM      3  O   UNL A   1      33.771  34.511  30.773  1.00  0.00    -0.376 OA
BRANCH   3   4
ATOM      4  C   UNL A   1      34.329  34.813  32.047  1.00  0.00     0.202 C 
BRANCH   4   5
ATOM      5  C   UNL A   1      34.032  33.833  33.164  1.00  0.00     0.261 C 
BRANCH   5   6
ATOM      6  O   UNL A   1      34.859  32.659  33.191  1.00  0.00    -0.460 OA
BRANCH   6   7
ATOM      7  C   UNL A   1      36.110  32.470  33.670  1.00  0.00     0.338 C 
ATOM      8  O   UNL A   1      36.363  32.872  34.805  1.00  0.00    -0.246 OA
BRANCH   7   9
ATOM      9  C   UNL A   1      37.203  31.797  32.917  1.00  0.00     0.060 A 
ATOM     10  C   UNL A   1      38.010  30.783  33.417  1.00  0.00     0.016 A 
ATOM     11  C   UNL A   1      37.341  32.115  31.560  1.00  0.00     0.016 A 
ATOM     12  C   UNL A   1      39.012  30.195  32.687  1.00  0.00     0.010 A 
ATOM     13  C   UNL A   1      38.296  31.465  30.772  1.00  0.00     0.010 A 
ATOM     14  C   UNL A   1      39.151  30.522  31.355  1.00  0.00    -0.014 A 
BRANCH  14  15
ATOM     15  C   UNL A   1      40.330  29.966  30.691  1.00  0.00     0.031 A 
ATOM     16  C   UNL A   1      41.612  30.707  30.873  1.00  0.00     0.074 A 
ATOM     17  C   UNL A   1      40.268  28.732  30.155  1.00  0.00     0.049 A 
ATOM     18  N   UNL A   1      42.770  30.496  30.324  1.00  0.00    -0.248 NA
ATOM     19  C   UNL A   1      41.587  31.837  31.824  1.00  0.00     0.031 C 
ATOM     20  C   UNL A   1      39.085  27.858  30.168  1.00  0.00     0.029 A 
ATOM     21  N   UNL A   1      41.225  27.978  29.538  1.00  0.00    -0.354 N 
ATOM     22  C   UNL A   1      43.596  31.499  30.811  1.00  0.00     0.074 A 
ATOM     23  C   UNL A   1      42.817  32.309  31.716  1.00  0.00     0.031 C 
ATOM     24  C   UNL A   1      39.397  26.687  29.591  1.00  0.00     0.029 A 
ATOM     25  C   UNL A   1      40.752  26.773  29.070  1.00  0.00     0.049 A 
ATOM     26  H   UNL A   1      42.160  28.268  29.437  1.00  0.00     0.167 HD
ATOM     27  C   UNL A   1      44.890  31.718  30.489  1.00  0.00     0.034 A 
ATOM     28  C   UNL A   1      41.344  25.889  28.246  1.00  0.00     0.034 A 
ATOM     29  C   UNL A   1      45.599  30.865  29.576  1.00  0.00     0.049 A 
ATOM     30  C   UNL A   1      42.737  26.239  27.779  1.00  0.00     0.074 A 
ATOM     31  C   UNL A   1      46.877  31.002  29.076  1.00  0.00     0.029 A 
ATOM     32  N   UNL A   1      45.067  29.703  29.020  1.00  0.00    -0.354 N 
ATOM     33  N   UNL A   1      43.493  27.257  28.136  1.00  0.00    -0.248 NA
ATOM     34  C   UNL A   1      43.352  25.345  26.797  1.00  0.00     0.031 C 
ATOM     35  C   UNL A   1      47.089  29.966  28.160  1.00  0.00     0.029 A 
ATOM     36  C   UNL A   1      45.979  29.131  28.155  1.00  0.00     0.049 A 
ATOM     37  H   UNL A   1      44.172  29.343  29.215  1.00  0.00     0.167 HD
ATOM     38  C   UNL A   1      44.683  27.111  27.435  1.00  0.00     0.074 A 
ATOM     39  C   UNL A   1      44.551  25.890  26.662  1.00  0.00     0.031 C 
ATOM     40  C   UNL A   1      45.785  27.905  27.416  1.00  0.00     0.034 A 
BRANCH  27  41
ATOM     41  C   UNL A   1      45.523  32.977  31.013  1.00  0.00     0.023 A 
ATOM     42  C   UNL A   1      45.298  34.236  30.430  1.00  0.00     0.031 A 
ATOM     43  C   UNL A   1      46.445  32.895  32.072  1.00  0.00     0.131 A 
ATOM     44  C   UNL A   1      46.029  35.349  30.873  1.00  0.00     0.055 A 
ATOM     45  C   UNL A   1      47.112  34.019  32.558  1.00  0.00     0.041 A 
ATOM     46  F   UNL A   1      46.735  31.709  32.632  1.00  0.00    -0.206 F 
ATOM     47  C   UNL A   1      46.914  35.254  31.950  1.00  0.00     0.022 A 
BRANCH  44  48
ATOM     48  S   UNL A   1      45.909  36.901  29.937  1.00  0.00     0.124 S 
ATOM     49  O   UNL A   1      46.892  36.681  28.878  1.00  0.00    -0.237 OA
ATOM     50  O   UNL A   1      44.513  36.913  29.519  1.00  0.00    -0.237 OA
ATOM     51  O   UNL A   1      46.276  37.922  30.918  1.00  0.00    -0.744 OA
ENDBRANCH  44  48
ENDBRANCH  27  41
BRANCH  28  52
ATOM     52  C   UNL A   1      40.613  24.698  27.717  1.00  0.00     0.023 A 
ATOM     53  C   UNL A   1      41.164  23.411  27.797  1.00  0.00     0.031 A 
ATOM     54  C   UNL A   1      39.391  24.839  27.028  1.00  0.00     0.131 A 
ATOM     55  C   UNL A   1      40.540  22.336  27.140  1.00  0.00     0.055 A 
ATOM     56  C   UNL A   1      38.735  23.755  26.441  1.00  0.00     0.041 A 
ATOM     57  F   UNL A   1      38.813  26.044  26.900  1.00  0.00    -0.206 F 
ATOM     58  C   UNL A   1      39.322  22.495  26.476  1.00  0.00     0.022 A 
BRANCH  55  59
ATOM     59  S   UNL A   1      41.426  20.755  27.039  1.00  0.00     0.124 S 
ATOM     60  O   UNL A   1      40.467  19.839  27.642  1.00  0.00    -0.237 OA
ATOM     61  O   UNL A   1      41.633  20.618  25.603  1.00  0.00    -0.237 OA
ATOM     62  O   UNL A   1      42.639  20.996  27.823  1.00  0.00    -0.744 OA
ENDBRANCH  55  59
ENDBRANCH  28  52
BRANCH  40  63
ATOM     63  C   UNL A   1      46.933  27.430  26.569  1.00  0.00     0.023 A 
ATOM     64  C   UNL A   1      47.944  26.612  27.095  1.00  0.00     0.031 A 
ATOM     65  C   UNL A   1      47.004  27.801  25.215  1.00  0.00     0.131 A 
ATOM     66  C   UNL A   1      49.021  26.239  26.284  1.00  0.00     0.055 A 
ATOM     67  C   UNL A   1      48.040  27.364  24.393  1.00  0.00     0.041 A 
ATOM     68  F   UNL A   1      46.060  28.584  24.668  1.00  0.00    -0.206 F 
ATOM     69  C   UNL A   1      49.065  26.590  24.932  1.00  0.00     0.022 A 
BRANCH  66  70
ATOM     70  S   UNL A   1      50.417  25.376  27.051  1.00  0.00     0.124 S 
ATOM     71  O   UNL A   1      50.883  26.358  28.024  1.00  0.00    -0.237 OA
ATOM     72  O   UNL A   1      49.784  24.183  27.602  1.00  0.00    -0.237 OA
ATOM     73  O   UNL A   1      51.325  25.133  25.930  1.00  0.00    -0.744 OA
ENDBRANCH  66  70
ENDBRANCH  40  63
ENDBRANCH  14  15
ENDBRANCH   7   9
ENDBRANCH   6   7
ENDBRANCH   5   6
ENDBRANCH   4   5
ENDBRANCH   3   4
ENDBRANCH   2   3
ENDBRANCH   1   2
BRANCH   1  74
ATOM     74  O   UNL A   1      35.144  33.362  27.553  1.00  0.00    -0.377 OA
BRANCH  74  75
ATOM     75  C   UNL A   1      35.980  32.369  28.138  1.00  0.00     0.188 C 
BRANCH  75  76
ATOM     76  C   UNL A   1      36.066  30.963  27.496  1.00  0.00     0.188 C 
BRANCH  76  77
ATOM     77  O   UNL A   1      34.828  30.293  27.403  1.00  0.00    -0.376 OA
BRANCH  77  78
ATOM     78  C   UNL A   1      34.759  28.954  26.932  1.00  0.00     0.202 C 
BRANCH  78  79
ATOM     79  C   UNL A   1      34.034  28.513  25.640  1.00  0.00     0.261 C 
BRANCH  79  80
ATOM     80  O   UNL A   1      32.603  28.490  25.659  1.00  0.00    -0.463 OA
BRANCH  80  81
ATOM     81  C   UNL A   1      31.983  27.290  25.830  1.00  0.00     0.312 C 
ATOM     82  O   UNL A   1      32.398  26.403  26.558  1.00  0.00    -0.252 OA
BRANCH  81  83
ATOM     83  C   UNL A   1      30.595  27.254  25.143  1.00  0.00     0.124 C 
ATOM     84  C   UNL A   1      30.022  25.937  24.723  1.00  0.00    -0.014 C 
ATOM     85  C   UNL A   1      30.498  28.049  23.832  1.00  0.00     0.048 C 
ATOM     86  C   UNL A   1      29.996  25.810  23.391  1.00  0.00    -0.006 C 
ATOM     87  C   UNL A   1      30.557  27.006  22.716  1.00  0.00     0.106 C 
BRANCH  87  88
ATOM     88  N   UNL A   1      31.911  26.859  22.187  1.00  0.00    -0.347 N 
ATOM     89  C   UNL A   1      32.980  26.024  22.350  1.00  0.00     0.261 C 
ATOM     90  H   UNL A   1      32.108  27.559  21.525  1.00  0.00     0.164 HD
ATOM     91  O   UNL A   1      33.995  26.320  21.712  1.00  0.00    -0.271 OA
BRANCH  89  92
ATOM     92  C   UNL A   1      32.929  24.781  23.249  1.00  0.00     0.266 C 
ATOM     93  C   UNL A   1      34.319  24.486  23.789  1.00  0.00     0.095 C 
ATOM     94  O   UNL A   1      32.482  23.547  22.620  1.00  0.00    -0.480 OA
ATOM     95  C   UNL A   1      34.165  23.066  24.109  1.00  0.00    -0.002 A 
ATOM     96  C   UNL A   1      33.112  22.574  23.366  1.00  0.00     0.123 A 
ATOM     97  C   UNL A   1      34.896  22.294  24.993  1.00  0.00     0.008 A 
ATOM     98  C   UNL A   1      32.777  21.244  23.435  1.00  0.00     0.047 A 
ATOM     99  C   UNL A   1      34.544  20.957  25.108  1.00  0.00     0.001 A 
ATOM    100  C   UNL A   1      33.501  20.432  24.322  1.00  0.00     0.004 A 
ENDBRANCH  89  92
ENDBRANCH  87  88
ENDBRANCH  81  83
ENDBRANCH  80  81
ENDBRANCH  79  80
ENDBRANCH  78  79
ENDBRANCH  77  78
ENDBRANCH  76  77
ENDBRANCH  75  76
ENDBRANCH  74  75
ENDBRANCH   1  74
TORSDOF 25
ENDMDL
MODEL 2
REMARK VINA RESULT:      -9.7      2.984      9.783
REMARK SMILES O=C(OCCOCCOCCOCCOC(=O)[C@@H]1C=C[C@H](NC(=O)[C@@H]2Cc3ccccc3O2)C1)c1ccc(-c2c3nc(c(-c4cc(S(=O)(=O)[O-])ccc4F)c4ccc([nH]4)c(-c4cc(S(=O)(=O)[O-])ccc4F)c4nc(c(-c5cc(S(=O)(=O)[O-])ccc5F)c5ccc2[nH]5)C=C4)C=C3)cc1
REMARK SMILES IDX 8 1 7 2 6 3 5 4 4 5 3 6 2 7 1 8 35 9 36 10 97 11 37 12 96 13
REMARK SMILES IDX 38 14 39 15 40 16 90 17 41 18 95 19 89 20 91 21 42 22 94 23
REMARK SMILES IDX 88 24 87 25 43 27 75 28 55 29 74 30 56 31 59 32 73 33 92 34
REMARK SMILES IDX 57 35 58 36 72 38 93 39 60 40 44 41 45 42 53 43 46 44 52 45
REMARK SMILES IDX 54 46 51 47 47 48 48 49 49 50 50 51 76 52 77 53 85 54 78 55
REMARK SMILES IDX 84 56 86 57 83 58 79 59 80 60 81 61 82 62 61 63 62 64 70 65
REMARK SMILES IDX 63 66 69 67 71 68 68 69 64 70 65 71 66 72 67 73 9 74 10 75
REMARK SMILES IDX 11 76 12 77 13 78 14 79 15 80 16 81 17 82 18 83 19 84 34 85
REMARK SMILES IDX 20 86 21 87 22 88 23 89 24 91 25 92 26 93 33 94 27 95 32 96
REMARK SMILES IDX 28 97 31 98 29 99 30 100
REMARK H PARENT 91 26 59 37 22 90
REMARK Flexibility Score: inf
ROOT
ATOM      1  C   UNL A   1      42.547  19.006  25.795  1.00  0.00     0.188 C 
ENDROOT
BRANCH   1   2
ATOM      2  C   UNL A   1      43.814  18.178  26.018  1.00  0.00     0.188 C 
BRANCH   2   3
ATOM      3  O   UNL A   1      44.749  18.458  24.989  1.00  0.00    -0.376 OA
BRANCH   3   4
ATOM      4  C   UNL A   1      44.811  19.734  24.361  1.00  0.00     0.202 C 
BRANCH   4   5
ATOM      5  C   UNL A   1      45.313  20.883  25.213  1.00  0.00     0.261 C 
BRANCH   5   6
ATOM      6  O   UNL A   1      44.303  21.795  25.672  1.00  0.00    -0.460 OA
BRANCH   6   7
ATOM      7  C   UNL A   1      43.795  22.912  25.102  1.00  0.00     0.338 C 
ATOM      8  O   UNL A   1      43.425  22.848  23.930  1.00  0.00    -0.246 OA
BRANCH   7   9
ATOM      9  C   UNL A   1      43.644  24.216  25.802  1.00  0.00     0.060 A 
ATOM     10  C   UNL A   1      43.202  25.394  25.212  1.00  0.00     0.016 A 
ATOM     11  C   UNL A   1      43.832  24.227  27.191  1.00  0.00     0.016 A 
ATOM     12  C   UNL A   1      43.084  26.576  25.898  1.00  0.00     0.010 A 
ATOM     13  C   UNL A   1      43.630  25.400  27.925  1.00  0.00     0.010 A 
ATOM     14  C   UNL A   1      43.283  26.583  27.262  1.00  0.00    -0.014 A 
BRANCH  14  15
ATOM     15  C   UNL A   1      43.284  27.904  27.890  1.00  0.00     0.031 A 
ATOM     16  C   UNL A   1      44.578  28.647  27.881  1.00  0.00     0.074 A 
ATOM     17  C   UNL A   1      42.115  28.476  28.233  1.00  0.00     0.049 A 
ATOM     18  N   UNL A   1      44.883  29.776  28.447  1.00  0.00    -0.248 NA
ATOM     19  C   UNL A   1      45.680  28.037  27.110  1.00  0.00     0.031 C 
ATOM     20  C   UNL A   1      40.786  27.878  28.033  1.00  0.00     0.029 A 
ATOM     21  N   UNL A   1      41.844  29.700  28.774  1.00  0.00    -0.354 N 
ATOM     22  C   UNL A   1      46.223  29.983  28.154  1.00  0.00     0.074 A 
ATOM     23  C   UNL A   1      46.673  28.877  27.344  1.00  0.00     0.031 C 
ATOM     24  C   UNL A   1      39.847  28.745  28.443  1.00  0.00     0.029 A 
ATOM     25  C   UNL A   1      40.507  29.898  29.034  1.00  0.00     0.049 A 
ATOM     26  H   UNL A   1      42.537  30.373  28.961  1.00  0.00     0.167 HD
ATOM     27  C   UNL A   1      46.998  31.011  28.566  1.00  0.00     0.034 A 
ATOM     28  C   UNL A   1      39.914  30.877  29.745  1.00  0.00     0.034 A 
ATOM     29  C   UNL A   1      46.476  32.078  29.374  1.00  0.00     0.049 A 
ATOM     30  C   UNL A   1      40.829  31.930  30.323  1.00  0.00     0.074 A 
ATOM     31  C   UNL A   1      47.145  33.139  29.948  1.00  0.00     0.029 A 
ATOM     32  N   UNL A   1      45.134  32.207  29.724  1.00  0.00    -0.354 N 
ATOM     33  N   UNL A   1      42.127  32.074  30.158  1.00  0.00    -0.248 NA
ATOM     34  C   UNL A   1      40.214  32.938  31.189  1.00  0.00     0.031 C 
ATOM     35  C   UNL A   1      46.221  33.864  30.708  1.00  0.00     0.029 A 
ATOM     36  C   UNL A   1      44.959  33.311  30.536  1.00  0.00     0.049 A 
ATOM     37  H   UNL A   1      44.415  31.600  29.436  1.00  0.00     0.167 HD
ATOM     38  C   UNL A   1      42.480  33.204  30.885  1.00  0.00     0.074 A 
ATOM     39  C   UNL A   1      41.250  33.716  31.460  1.00  0.00     0.031 C 
ATOM     40  C   UNL A   1      43.700  33.771  31.074  1.00  0.00     0.034 A 
BRANCH  27  41
ATOM     41  C   UNL A   1      48.469  30.924  28.266  1.00  0.00     0.023 A 
ATOM     42  C   UNL A   1      49.367  30.222  29.088  1.00  0.00     0.031 A 
ATOM     43  C   UNL A   1      48.992  31.638  27.173  1.00  0.00     0.131 A 
ATOM     44  C   UNL A   1      50.746  30.297  28.835  1.00  0.00     0.055 A 
ATOM     45  C   UNL A   1      50.356  31.648  26.884  1.00  0.00     0.041 A 
ATOM     46  F   UNL A   1      48.185  32.367  26.386  1.00  0.00    -0.206 F 
ATOM     47  C   UNL A   1      51.244  30.983  27.724  1.00  0.00     0.022 A 
BRANCH  44  48
ATOM     48  S   UNL A   1      51.896  29.599  30.054  1.00  0.00     0.124 S 
ATOM     49  O   UNL A   1      52.493  28.499  29.298  1.00  0.00    -0.237 OA
ATOM     50  O   UNL A   1      52.776  30.724  30.343  1.00  0.00    -0.237 OA
ATOM     51  O   UNL A   1      51.024  29.190  31.154  1.00  0.00    -0.744 OA
ENDBRANCH  44  48
ENDBRANCH  27  41
BRANCH  28  52
ATOM     52  C   UNL A   1      38.453  30.845  30.055  1.00  0.00     0.023 A 
ATOM     53  C   UNL A   1      37.510  31.387  29.170  1.00  0.00     0.031 A 
ATOM     54  C   UNL A   1      37.980  30.362  31.293  1.00  0.00     0.131 A 
ATOM     55  C   UNL A   1      36.164  31.502  29.560  1.00  0.00     0.055 A 
ATOM     56  C   UNL A   1      36.630  30.410  31.645  1.00  0.00     0.041 A 
ATOM     57  F   UNL A   1      38.829  29.843  32.193  1.00  0.00    -0.206 F 
ATOM     58  C   UNL A   1      35.715  31.004  30.784  1.00  0.00     0.022 A 
BRANCH  55  59
ATOM     59  S   UNL A   1      35.038  32.454  28.502  1.00  0.00     0.124 S 
ATOM     60  O   UNL A   1      35.972  33.147  27.624  1.00  0.00    -0.237 OA
ATOM     61  O   UNL A   1      34.238  31.401  27.890  1.00  0.00    -0.237 OA
ATOM     62  O   UNL A   1      34.322  33.309  29.452  1.00  0.00    -0.744 OA
ENDBRANCH  55  59
ENDBRANCH  28  52
BRANCH  40  63
ATOM     63  C   UNL A   1      43.728  35.031  31.894  1.00  0.00     0.023 A 
ATOM     64  C   UNL A   1      43.890  36.290  31.298  1.00  0.00     0.031 A 
ATOM     65  C   UNL A   1      43.582  34.961  33.290  1.00  0.00     0.131 A 
ATOM     66  C   UNL A   1      43.966  37.431  32.105  1.00  0.00     0.055 A 
ATOM     67  C   UNL A   1      43.581  36.108  34.081  1.00  0.00     0.041 A 
ATOM     68  F   UNL A   1      43.425  33.777  33.904  1.00  0.00    -0.206 F 
ATOM     69  C   UNL A   1      43.789  37.351  33.489  1.00  0.00     0.022 A 
BRANCH  66  70
ATOM     70  S   UNL A   1      44.401  39.008  31.328  1.00  0.00     0.124 S 
ATOM     71  O   UNL A   1      44.914  39.772  32.461  1.00  0.00    -0.237 OA
ATOM     72  O   UNL A   1      45.388  38.605  30.332  1.00  0.00    -0.237 OA
ATOM     73  O   UNL A   1      43.129  39.482  30.783  1.00  0.00    -0.744 OA
ENDBRANCH  66  70
ENDBRANCH  40  63
ENDBRANCH  14  15
ENDBRANCH   7   9
ENDBRANCH   6   7
ENDBRANCH   5   6
ENDBRANCH   4   5
ENDBRANCH   3   4
ENDBRANCH   2   3
ENDBRANCH   1   2
BRANCH   1  74
ATOM     74  O   UNL A   1      41.918  19.454  26.996  1.00  0.00    -0.377 OA
BRANCH  74  75
ATOM     75  C   UNL A   1      40.662  20.101  26.821  1.00  0.00     0.188 C 
BRANCH  75  76
ATOM     76  C   UNL A   1      40.618  21.583  26.376  1.00  0.00     0.188 C 
BRANCH  76  77
ATOM     77  O   UNL A   1      39.611  22.346  27.003  1.00  0.00    -0.376 OA
BRANCH  77  78
ATOM     78  C   UNL A   1      38.795  23.233  26.252  1.00  0.00     0.202 C 
BRANCH  78  79
ATOM     79  C   UNL A   1      37.251  23.178  26.200  1.00  0.00     0.261 C 
BRANCH  79  80
ATOM     80  O   UNL A   1      36.646  21.952  25.779  1.00  0.00    -0.463 OA
BRANCH  80  81
ATOM     81  C   UNL A   1      35.317  21.776  26.021  1.00  0.00     0.312 C 
ATOM     82  O   UNL A   1      34.735  22.214  27.000  1.00  0.00    -0.252 OA
BRANCH  81  83
ATOM     83  C   UNL A   1      34.594  21.120  24.819  1.00  0.00     0.124 C 
ATOM     84  C   UNL A   1      34.018  21.993  23.748  1.00  0.00    -0.014 C 
ATOM     85  C   UNL A   1      33.374  20.259  25.185  1.00  0.00     0.048 C 
ATOM     86  C   UNL A   1      32.680  21.981  23.765  1.00  0.00    -0.006 C 
ATOM     87  C   UNL A   1      32.154  21.117  24.850  1.00  0.00     0.106 C 
BRANCH  87  88
ATOM     88  N   UNL A   1      31.648  21.818  26.028  1.00  0.00    -0.347 N 
ATOM     89  C   UNL A   1      31.489  23.105  26.454  1.00  0.00     0.261 C 
ATOM     90  H   UNL A   1      31.331  21.180  26.708  1.00  0.00     0.164 HD
ATOM     91  O   UNL A   1      31.054  23.243  27.602  1.00  0.00    -0.271 OA
BRANCH  89  92
ATOM     92  C   UNL A   1      31.807  24.316  25.564  1.00  0.00     0.266 C 
ATOM     93  C   UNL A   1      33.013  25.054  26.122  1.00  0.00     0.095 C 
ATOM     94  O   UNL A   1      30.758  25.317  25.437  1.00  0.00    -0.480 OA
ATOM     95  C   UNL A   1      32.798  26.371  25.518  1.00  0.00    -0.002 A 
ATOM     96  C   UNL A   1      31.464  26.474  25.184  1.00  0.00     0.123 A 
ATOM     97  C   UNL A   1      33.719  27.375  25.283  1.00  0.00     0.008 A 
ATOM     98  C   UNL A   1      30.972  27.636  24.643  1.00  0.00     0.047 A 
ATOM     99  C   UNL A   1      33.249  28.541  24.696  1.00  0.00     0.001 A 
ATOM    100  C   UNL A   1      31.881  28.676  24.392  1.00  0.00     0.004 A 
ENDBRANCH  89  92
ENDBRANCH  87  88
ENDBRANCH  81  83
ENDBRANCH  80  81
ENDBRANCH  79  80
ENDBRANCH  78  79
ENDBRANCH  77  78
ENDBRANCH  76  77
ENDBRANCH  75  76
ENDBRANCH  74  75
ENDBRANCH   1  74
TORSDOF 25
ENDMDL
MODEL 3
REMARK VINA RESULT:      -9.7      4.272     10.127
REMARK SMILES O=C(OCCOCCOCCOCCOC(=O)[C@@H]1C=C[C@H](NC(=O)[C@@H]2Cc3ccccc3O2)C1)c1ccc(-c2c3nc(c(-c4cc(S(=O)(=O)[O-])ccc4F)c4ccc([nH]4)c(-c4cc(S(=O)(=O)[O-])ccc4F)c4nc(c(-c5cc(S(=O)(=O)[O-])ccc5F)c5ccc2[nH]5)C=C4)C=C3)cc1
REMARK SMILES IDX 8 1 7 2 6 3 5 4 4 5 3 6 2 7 1 8 35 9 36 10 97 11 37 12 96 13
REMARK SMILES IDX 38 14 39 15 40 16 90 17 41 18 95 19 89 20 91 21 42 22 94 23
REMARK SMILES IDX 88 24 87 25 43 27 75 28 55 29 74 30 56 31 59 32 73 33 92 34
REMARK SMILES IDX 57 35 58 36 72 38 93 39 60 40 44 41 45 42 53 43 46 44 52 45
REMARK SMILES IDX 54 46 51 47 47 48 48 49 49 50 50 51 76 52 77 53 85 54 78 55
REMARK SMILES IDX 84 56 86 57 83 58 79 59 80 60 81 61 82 62 61 63 62 64 70 65
REMARK SMILES IDX 63 66 69 67 71 68 68 69 64 70 65 71 66 72 67 73 9 74 10 75
REMARK SMILES IDX 11 76 12 77 13 78 14 79 15 80 16 81 17 82 18 83 19 84 34 85
REMARK SMILES IDX 20 86 21 87 22 88 23 89 24 91 25 92 26 93 33 94 27 95 32 96
REMARK SMILES IDX 28 97 31 98 29 99 30 100
REMARK H PARENT 91 26 59 37 22 90
REMARK Flexibility Score: inf
ROOT
ATOM      1  C   UNL A   1      43.542  22.277  25.242  1.00  0.00     0.188 C 
ENDROOT
BRANCH   1   2
ATOM      2  C   UNL A   1      43.962  23.152  26.424  1.00  0.00     0.188 C 
BRANCH   2   3
ATOM      3  O   UNL A   1      44.022  24.507  26.011  1.00  0.00    -0.376 OA
BRANCH   3   4
ATOM      4  C   UNL A   1      43.093  25.047  25.078  1.00  0.00     0.202 C 
BRANCH   4   5
ATOM      5  C   UNL A   1      42.047  25.992  25.636  1.00  0.00     0.261 C 
BRANCH   5   6
ATOM      6  O   UNL A   1      41.134  25.412  26.581  1.00  0.00    -0.460 OA
BRANCH   6   7
ATOM      7  C   UNL A   1      40.254  25.990  27.430  1.00  0.00     0.338 C 
ATOM      8  O   UNL A   1      39.173  25.430  27.615  1.00  0.00    -0.246 OA
BRANCH   7   9
ATOM      9  C   UNL A   1      40.509  27.257  28.167  1.00  0.00     0.060 A 
ATOM     10  C   UNL A   1      39.883  28.471  27.909  1.00  0.00     0.016 A 
ATOM     11  C   UNL A   1      41.341  27.192  29.292  1.00  0.00     0.016 A 
ATOM     12  C   UNL A   1      40.156  29.617  28.612  1.00  0.00     0.010 A 
ATOM     13  C   UNL A   1      41.563  28.327  30.078  1.00  0.00     0.010 A 
ATOM     14  C   UNL A   1      40.986  29.549  29.711  1.00  0.00    -0.014 A 
BRANCH  14  15
ATOM     15  C   UNL A   1      41.341  30.834  30.312  1.00  0.00     0.031 A 
ATOM     16  C   UNL A   1      42.495  31.560  29.706  1.00  0.00     0.074 A 
ATOM     17  C   UNL A   1      40.505  31.404  31.201  1.00  0.00     0.049 A 
ATOM     18  N   UNL A   1      43.078  32.653  30.097  1.00  0.00    -0.248 NA
ATOM     19  C   UNL A   1      43.063  30.977  28.473  1.00  0.00     0.031 C 
ATOM     20  C   UNL A   1      39.225  30.835  31.647  1.00  0.00     0.029 A 
ATOM     21  N   UNL A   1      40.577  32.601  31.854  1.00  0.00    -0.354 N 
ATOM     22  C   UNL A   1      44.116  32.858  29.199  1.00  0.00     0.074 A 
ATOM     23  C   UNL A   1      44.076  31.790  28.229  1.00  0.00     0.031 C 
ATOM     24  C   UNL A   1      38.634  31.692  32.496  1.00  0.00     0.029 A 
ATOM     25  C   UNL A   1      39.541  32.803  32.738  1.00  0.00     0.049 A 
ATOM     26  H   UNL A   1      41.298  33.254  31.708  1.00  0.00     0.167 HD
ATOM     27  C   UNL A   1      45.032  33.851  29.224  1.00  0.00     0.034 A 
ATOM     28  C   UNL A   1      39.403  33.750  33.684  1.00  0.00     0.034 A 
ATOM     29  C   UNL A   1      45.006  34.881  30.226  1.00  0.00     0.049 A 
ATOM     30  C   UNL A   1      40.521  34.759  33.788  1.00  0.00     0.074 A 
ATOM     31  C   UNL A   1      45.908  35.901  30.445  1.00  0.00     0.029 A 
ATOM     32  N   UNL A   1      44.006  35.010  31.188  1.00  0.00    -0.354 N 
ATOM     33  N   UNL A   1      41.582  34.894  33.020  1.00  0.00    -0.248 NA
ATOM     34  C   UNL A   1      40.441  35.728  34.883  1.00  0.00     0.031 C 
ATOM     35  C   UNL A   1      45.495  36.597  31.586  1.00  0.00     0.029 A 
ATOM     36  C   UNL A   1      44.288  36.071  32.026  1.00  0.00     0.049 A 
ATOM     37  H   UNL A   1      43.215  34.428  31.261  1.00  0.00     0.167 HD
ATOM     38  C   UNL A   1      42.285  35.979  33.529  1.00  0.00     0.074 A 
ATOM     39  C   UNL A   1      41.507  36.477  34.648  1.00  0.00     0.031 C 
ATOM     40  C   UNL A   1      43.464  36.519  33.125  1.00  0.00     0.034 A 
BRANCH  27  41
ATOM     41  C   UNL A   1      46.169  33.760  28.245  1.00  0.00     0.023 A 
ATOM     42  C   UNL A   1      47.359  33.070  28.532  1.00  0.00     0.031 A 
ATOM     43  C   UNL A   1      46.087  34.460  27.027  1.00  0.00     0.131 A 
ATOM     44  C   UNL A   1      48.439  33.142  27.637  1.00  0.00     0.055 A 
ATOM     45  C   UNL A   1      47.136  34.466  26.109  1.00  0.00     0.041 A 
ATOM     46  F   UNL A   1      44.993  35.178  26.726  1.00  0.00    -0.206 F 
ATOM     47  C   UNL A   1      48.326  33.813  26.416  1.00  0.00     0.022 A 
BRANCH  44  48
ATOM     48  S   UNL A   1      50.042  32.461  28.147  1.00  0.00     0.124 S 
ATOM     49  O   UNL A   1      50.186  33.022  29.489  1.00  0.00    -0.237 OA
ATOM     50  O   UNL A   1      49.813  31.023  28.079  1.00  0.00    -0.237 OA
ATOM     51  O   UNL A   1      50.973  32.993  27.153  1.00  0.00    -0.744 OA
ENDBRANCH  44  48
ENDBRANCH  27  41
BRANCH  28  52
ATOM     52  C   UNL A   1      38.274  33.722  34.663  1.00  0.00     0.023 A 
ATOM     53  C   UNL A   1      38.418  33.122  35.923  1.00  0.00     0.031 A 
ATOM     54  C   UNL A   1      36.995  34.206  34.316  1.00  0.00     0.131 A 
ATOM     55  C   UNL A   1      37.297  32.954  36.754  1.00  0.00     0.055 A 
ATOM     56  C   UNL A   1      35.901  34.104  35.177  1.00  0.00     0.041 A 
ATOM     57  F   UNL A   1      36.782  34.779  33.121  1.00  0.00    -0.206 F 
ATOM     58  C   UNL A   1      36.043  33.454  36.397  1.00  0.00     0.022 A 
BRANCH  55  59
ATOM     59  S   UNL A   1      37.474  31.934  38.245  1.00  0.00     0.124 S 
ATOM     60  O   UNL A   1      36.330  32.366  39.036  1.00  0.00    -0.237 OA
ATOM     61  O   UNL A   1      37.407  30.586  37.697  1.00  0.00    -0.237 OA
ATOM     62  O   UNL A   1      38.783  32.328  38.771  1.00  0.00    -0.744 OA
ENDBRANCH  55  59
ENDBRANCH  28  52
BRANCH  40  63
ATOM     63  C   UNL A   1      43.933  37.733  33.878  1.00  0.00     0.023 A 
ATOM     64  C   UNL A   1      43.397  39.005  33.625  1.00  0.00     0.031 A 
ATOM     65  C   UNL A   1      44.924  37.605  34.865  1.00  0.00     0.131 A 
ATOM     66  C   UNL A   1      43.902  40.115  34.311  1.00  0.00     0.055 A 
ATOM     67  C   UNL A   1      45.368  38.703  35.599  1.00  0.00     0.041 A 
ATOM     68  F   UNL A   1      45.466  36.408  35.141  1.00  0.00    -0.206 F 
ATOM     69  C   UNL A   1      44.867  39.969  35.312  1.00  0.00     0.022 A 
BRANCH  66  70
ATOM     70  S   UNL A   1      43.352  41.764  33.803  1.00  0.00     0.124 S 
ATOM     71  O   UNL A   1      43.795  42.588  34.922  1.00  0.00    -0.237 OA
ATOM     72  O   UNL A   1      44.067  41.959  32.546  1.00  0.00    -0.237 OA
ATOM     73  O   UNL A   1      41.903  41.616  33.675  1.00  0.00    -0.744 OA
ENDBRANCH  66  70
ENDBRANCH  40  63
ENDBRANCH  14  15
ENDBRANCH   7   9
ENDBRANCH   6   7
ENDBRANCH   5   6
ENDBRANCH   4   5
ENDBRANCH   3   4
ENDBRANCH   2   3
ENDBRANCH   1   2
BRANCH   1  74
ATOM     74  O   UNL A   1      42.298  21.601  25.423  1.00  0.00    -0.377 OA
BRANCH  74  75
ATOM     75  C   UNL A   1      42.130  20.958  26.682  1.00  0.00     0.188 C 
BRANCH  75  76
ATOM     76  C   UNL A   1      40.706  20.736  27.248  1.00  0.00     0.188 C 
BRANCH  76  77
ATOM     77  O   UNL A   1      39.805  21.786  26.975  1.00  0.00    -0.376 OA
BRANCH  77  78
ATOM     78  C   UNL A   1      39.083  21.827  25.752  1.00  0.00     0.202 C 
BRANCH  78  79
ATOM     79  C   UNL A   1      37.721  22.531  25.557  1.00  0.00     0.261 C 
BRANCH  79  80
ATOM     80  O   UNL A   1      36.596  22.004  26.268  1.00  0.00    -0.463 OA
BRANCH  80  81
ATOM     81  C   UNL A   1      35.398  22.637  26.132  1.00  0.00     0.312 C 
ATOM     82  O   UNL A   1      34.549  22.691  27.007  1.00  0.00    -0.252 OA
BRANCH  81  83
ATOM     83  C   UNL A   1      35.315  23.440  24.810  1.00  0.00     0.124 C 
ATOM     84  C   UNL A   1      34.841  24.859  24.846  1.00  0.00    -0.014 C 
ATOM     85  C   UNL A   1      34.381  22.844  23.745  1.00  0.00     0.048 C 
ATOM     86  C   UNL A   1      33.635  24.993  24.279  1.00  0.00    -0.006 C 
ATOM     87  C   UNL A   1      33.111  23.693  23.794  1.00  0.00     0.106 C 
BRANCH  87  88
ATOM     88  N   UNL A   1      32.081  23.075  24.625  1.00  0.00    -0.347 N 
ATOM     89  C   UNL A   1      31.766  21.832  25.096  1.00  0.00     0.261 C 
ATOM     90  H   UNL A   1      31.428  23.744  24.934  1.00  0.00     0.164 HD
ATOM     91  O   UNL A   1      30.720  21.752  25.747  1.00  0.00    -0.271 OA
BRANCH  89  92
ATOM     92  C   UNL A   1      32.659  20.606  24.856  1.00  0.00     0.266 C 
ATOM     93  C   UNL A   1      32.351  20.012  23.490  1.00  0.00     0.095 C 
ATOM     94  O   UNL A   1      32.518  19.509  25.802  1.00  0.00    -0.480 OA
ATOM     95  C   UNL A   1      32.845  18.649  23.696  1.00  0.00    -0.002 A 
ATOM     96  C   UNL A   1      32.875  18.408  25.054  1.00  0.00     0.123 A 
ATOM     97  C   UNL A   1      33.238  17.720  22.752  1.00  0.00     0.008 A 
ATOM     98  C   UNL A   1      33.254  17.177  25.531  1.00  0.00     0.047 A 
ATOM     99  C   UNL A   1      33.666  16.485  23.217  1.00  0.00     0.001 A 
ATOM    100  C   UNL A   1      33.658  16.210  24.597  1.00  0.00     0.004 A 
ENDBRANCH  89  92
ENDBRANCH  87  88
ENDBRANCH  81  83
ENDBRANCH  80  81
ENDBRANCH  79  80
ENDBRANCH  78  79
ENDBRANCH  77  78
ENDBRANCH  76  77
ENDBRANCH  75  76
ENDBRANCH  74  75
ENDBRANCH   1  74
TORSDOF 25
ENDMDL
