MODEL 1
REMARK VINA RESULT:      -9.8      0.000      0.000
REMARK SMILES Cc1cc(C)nc(SCC(=O)N2CCC[C@H](C(=O)OCCOCCOCCOCCOC(=O)c3ccc(-c4c5nc(c(-c6cc(S(=O)(=O)[O-])ccc6F)c6ccc([nH]6)c(-c6cc(S(=O)(=O)[O-])ccc6F)c6nc(c(-c7cc(S(=O)(=O)[O-])ccc7F)c7ccc4[nH]7)C=C6)C=C5)cc3)C2)n1
REMARK SMILES IDX 24 1 23 2 22 3 21 4 20 5 19 6 17 7 18 8 16 9 12 10 13 11
REMARK SMILES IDX 97 12 14 13 15 14 10 15 11 16 9 17 8 18 7 19 1 20 2 21 3 22
REMARK SMILES IDX 98 23 4 24 5 25 6 26 25 27 26 28 27 29 28 30 29 31 30 32
REMARK SMILES IDX 31 33 32 34 33 35 34 36 35 37 96 38 36 39 95 40 37 41 38 42
REMARK SMILES IDX 39 43 89 44 40 45 94 46 88 47 90 48 41 49 93 50 87 51 86 52
REMARK SMILES IDX 42 54 74 55 54 56 73 57 55 58 58 59 72 60 91 61 56 62 57 63
REMARK SMILES IDX 71 65 92 66 59 67 43 68 44 69 52 70 45 71 51 72 53 73 50 74
REMARK SMILES IDX 46 75 47 76 48 77 49 78 75 79 76 80 84 81 77 82 83 83 85 84
REMARK SMILES IDX 82 85 78 86 79 87 80 88 81 89 60 90 61 91 69 92 62 93 68 94
REMARK SMILES IDX 70 95 67 96 63 97 64 98 65 99 66 100
REMARK H PARENT 90 53 58 64
REMARK Flexibility Score: inf
ROOT
ATOM      1  C   UNL A   1      32.095  21.184  24.270  1.00  0.00     0.188 C 
ENDROOT
BRANCH   1   2
ATOM      2  C   UNL A   1      32.178  21.106  22.737  1.00  0.00     0.188 C 
BRANCH   2   3
ATOM      3  O   UNL A   1      32.228  22.302  22.000  1.00  0.00    -0.376 OA
BRANCH   3   4
ATOM      4  C   UNL A   1      33.207  23.288  22.261  1.00  0.00     0.202 C 
BRANCH   4   5
ATOM      5  C   UNL A   1      33.045  24.797  22.031  1.00  0.00     0.261 C 
BRANCH   5   6
ATOM      6  O   UNL A   1      32.636  25.659  23.089  1.00  0.00    -0.463 OA
BRANCH   6   7
ATOM      7  C   UNL A   1      31.487  25.327  23.721  1.00  0.00     0.310 C 
ATOM      8  O   UNL A   1      30.373  25.363  23.208  1.00  0.00    -0.252 OA
BRANCH   7   9
ATOM      9  C   UNL A   1      31.668  24.960  25.181  1.00  0.00     0.119 C 
ATOM     10  N   UNL A   1      31.672  27.267  26.003  1.00  0.00    -0.341 N 
ATOM     11  C   UNL A   1      33.023  27.162  26.559  1.00  0.00     0.119 C 
ATOM     12  C   UNL A   1      30.924  26.013  26.010  1.00  0.00     0.134 C 
ATOM     13  C   UNL A   1      33.863  26.097  25.863  1.00  0.00     0.022 C 
ATOM     14  C   UNL A   1      33.097  24.783  25.714  1.00  0.00     0.019 C 
BRANCH  10  15
ATOM     15  C   UNL A   1      31.386  28.320  25.126  1.00  0.00     0.233 C 
ATOM     16  O   UNL A   1      30.668  28.135  24.140  1.00  0.00    -0.274 OA
BRANCH  15  17
ATOM     17  C   UNL A   1      32.202  29.603  25.245  1.00  0.00     0.178 C 
BRANCH  17  18
ATOM     18  S   UNL A   1      31.707  30.846  26.457  1.00  0.00    -0.076 SA
BRANCH  18  19
ATOM     19  C   UNL A   1      33.229  31.284  27.247  1.00  0.00     0.188 A 
ATOM     20  C   UNL A   1      34.653  33.982  29.264  1.00  0.00     0.067 C 
ATOM     21  C   UNL A   1      34.540  32.714  28.470  1.00  0.00     0.042 A 
ATOM     22  C   UNL A   1      35.558  31.779  28.520  1.00  0.00     0.047 A 
ATOM     23  N   UNL A   1      33.372  32.483  27.827  1.00  0.00    -0.228 NA
ATOM     24  C   UNL A   1      35.320  30.574  27.892  1.00  0.00     0.042 A 
ATOM     25  C   UNL A   1      36.308  29.451  27.998  1.00  0.00     0.067 C 
ATOM     26  N   UNL A   1      34.175  30.326  27.232  1.00  0.00    -0.228 NA
ENDBRANCH  18  19
ENDBRANCH  17  18
ENDBRANCH  15  17
ENDBRANCH  10  15
ENDBRANCH   7   9
ENDBRANCH   6   7
ENDBRANCH   5   6
ENDBRANCH   4   5
ENDBRANCH   3   4
ENDBRANCH   2   3
ENDBRANCH   1   2
BRANCH   1  27
ATOM     27  O   UNL A   1      32.334  20.026  25.049  1.00  0.00    -0.377 OA
BRANCH  27  28
ATOM     28  C   UNL A   1      33.376  19.997  26.017  1.00  0.00     0.188 C 
BRANCH  28  29
ATOM     29  C   UNL A   1      33.906  21.299  26.648  1.00  0.00     0.188 C 
BRANCH  29  30
ATOM     30  O   UNL A   1      35.150  21.744  26.137  1.00  0.00    -0.376 OA
BRANCH  30  31
ATOM     31  C   UNL A   1      35.847  20.893  25.240  1.00  0.00     0.202 C 
BRANCH  31  32
ATOM     32  C   UNL A   1      37.385  20.943  25.228  1.00  0.00     0.261 C 
BRANCH  32  33
ATOM     33  O   UNL A   1      38.007  22.022  25.946  1.00  0.00    -0.460 OA
BRANCH  33  34
ATOM     34  C   UNL A   1      39.301  21.878  26.316  1.00  0.00     0.338 C 
ATOM     35  O   UNL A   1      40.010  20.914  26.129  1.00  0.00    -0.246 OA
BRANCH  34  36
ATOM     36  C   UNL A   1      39.769  23.188  26.823  1.00  0.00     0.060 A 
ATOM     37  C   UNL A   1      39.189  24.361  26.320  1.00  0.00     0.016 A 
ATOM     38  C   UNL A   1      40.783  23.258  27.780  1.00  0.00     0.016 A 
ATOM     39  C   UNL A   1      39.653  25.609  26.741  1.00  0.00     0.010 A 
ATOM     40  C   UNL A   1      41.263  24.508  28.183  1.00  0.00     0.010 A 
ATOM     41  C   UNL A   1      40.727  25.689  27.636  1.00  0.00    -0.014 A 
BRANCH  41  42
ATOM     42  C   UNL A   1      41.429  26.984  27.830  1.00  0.00     0.031 A 
ATOM     43  C   UNL A   1      42.792  27.148  27.206  1.00  0.00     0.074 A 
ATOM     44  C   UNL A   1      40.868  27.997  28.516  1.00  0.00     0.049 A 
ATOM     45  N   UNL A   1      43.631  28.147  27.293  1.00  0.00    -0.248 NA
ATOM     46  C   UNL A   1      43.270  26.032  26.375  1.00  0.00     0.031 C 
ATOM     47  C   UNL A   1      39.533  27.978  29.111  1.00  0.00     0.029 A 
ATOM     48  N   UNL A   1      41.359  29.240  28.836  1.00  0.00    -0.354 N 
ATOM     49  C   UNL A   1      44.742  27.773  26.543  1.00  0.00     0.074 A 
ATOM     50  C   UNL A   1      44.479  26.448  26.027  1.00  0.00     0.031 C 
ATOM     51  C   UNL A   1      39.318  29.150  29.737  1.00  0.00     0.029 A 
ATOM     52  C   UNL A   1      40.515  29.982  29.630  1.00  0.00     0.049 A 
ATOM     53  H   UNL A   1      42.234  29.568  28.526  1.00  0.00     0.167 HD
ATOM     54  C   UNL A   1      45.876  28.474  26.308  1.00  0.00     0.034 A 
ATOM     55  C   UNL A   1      40.704  31.178  30.229  1.00  0.00     0.034 A 
ATOM     56  C   UNL A   1      46.124  29.796  26.827  1.00  0.00     0.049 A 
ATOM     57  C   UNL A   1      42.022  31.899  30.022  1.00  0.00     0.074 A 
ATOM     58  C   UNL A   1      47.229  30.603  26.626  1.00  0.00     0.029 A 
ATOM     59  N   UNL A   1      45.265  30.497  27.662  1.00  0.00    -0.354 N 
ATOM     60  N   UNL A   1      43.058  31.541  29.295  1.00  0.00    -0.248 NA
ATOM     61  C   UNL A   1      42.192  33.187  30.708  1.00  0.00     0.031 C 
ATOM     62  C   UNL A   1      47.079  31.751  27.408  1.00  0.00     0.029 A 
ATOM     63  C   UNL A   1      45.835  31.709  28.017  1.00  0.00     0.049 A 
ATOM     64  H   UNL A   1      44.380  30.181  27.957  1.00  0.00     0.167 HD
ATOM     65  C   UNL A   1      43.978  32.582  29.407  1.00  0.00     0.074 A 
ATOM     66  C   UNL A   1      43.370  33.586  30.253  1.00  0.00     0.031 C 
ATOM     67  C   UNL A   1      45.214  32.704  28.858  1.00  0.00     0.034 A 
BRANCH  54  68
ATOM     68  C   UNL A   1      46.966  27.807  25.505  1.00  0.00     0.023 A 
ATOM     69  C   UNL A   1      47.194  28.114  24.153  1.00  0.00     0.031 A 
ATOM     70  C   UNL A   1      47.808  26.862  26.119  1.00  0.00     0.131 A 
ATOM     71  C   UNL A   1      48.214  27.453  23.451  1.00  0.00     0.055 A 
ATOM     72  C   UNL A   1      48.865  26.262  25.436  1.00  0.00     0.041 A 
ATOM     73  F   UNL A   1      47.617  26.510  27.401  1.00  0.00    -0.206 F 
ATOM     74  C   UNL A   1      49.069  26.552  24.090  1.00  0.00     0.022 A 
BRANCH  71  75
ATOM     75  S   UNL A   1      48.347  27.708  21.660  1.00  0.00     0.124 S 
ATOM     76  O   UNL A   1      47.012  28.203  21.332  1.00  0.00    -0.237 OA
ATOM     77  O   UNL A   1      49.430  28.679  21.559  1.00  0.00    -0.237 OA
ATOM     78  O   UNL A   1      48.654  26.376  21.145  1.00  0.00    -0.744 OA
ENDBRANCH  71  75
ENDBRANCH  54  68
BRANCH  55  79
ATOM     79  C   UNL A   1      39.667  31.762  31.133  1.00  0.00     0.023 A 
ATOM     80  C   UNL A   1      39.681  31.514  32.515  1.00  0.00     0.031 A 
ATOM     81  C   UNL A   1      38.576  32.482  30.612  1.00  0.00     0.131 A 
ATOM     82  C   UNL A   1      38.595  31.909  33.313  1.00  0.00     0.055 A 
ATOM     83  C   UNL A   1      37.535  32.941  31.422  1.00  0.00     0.041 A 
ATOM     84  F   UNL A   1      38.497  32.740  29.296  1.00  0.00    -0.206 F 
ATOM     85  C   UNL A   1      37.530  32.635  32.779  1.00  0.00     0.022 A 
BRANCH  82  86
ATOM     86  S   UNL A   1      38.522  31.323  35.029  1.00  0.00     0.124 S 
ATOM     87  O   UNL A   1      37.446  32.143  35.575  1.00  0.00    -0.237 OA
ATOM     88  O   UNL A   1      38.223  29.906  34.853  1.00  0.00    -0.237 OA
ATOM     89  O   UNL A   1      39.857  31.618  35.546  1.00  0.00    -0.744 OA
ENDBRANCH  82  86
ENDBRANCH  55  79
BRANCH  67  90
ATOM     90  C   UNL A   1      45.960  33.996  29.098  1.00  0.00     0.023 A 
ATOM     91  C   UNL A   1      45.752  35.136  28.303  1.00  0.00     0.031 A 
ATOM     92  C   UNL A   1      46.897  34.083  30.144  1.00  0.00     0.131 A 
ATOM     93  C   UNL A   1      46.513  36.293  28.529  1.00  0.00     0.055 A 
ATOM     94  C   UNL A   1      47.599  35.259  30.408  1.00  0.00     0.041 A 
ATOM     95  F   UNL A   1      47.141  33.025  30.935  1.00  0.00    -0.206 F 
ATOM     96  C   UNL A   1      47.420  36.369  29.589  1.00  0.00     0.022 A 
BRANCH  93  97
ATOM     97  S   UNL A   1      46.380  37.668  27.352  1.00  0.00     0.124 S 
ATOM     98  O   UNL A   1      47.700  37.663  26.729  1.00  0.00    -0.237 OA
ATOM     99  O   UNL A   1      45.273  37.244  26.502  1.00  0.00    -0.237 OA
ATOM    100  O   UNL A   1      46.100  38.823  28.203  1.00  0.00    -0.744 OA
ENDBRANCH  93  97
ENDBRANCH  67  90
ENDBRANCH  41  42
ENDBRANCH  34  36
ENDBRANCH  33  34
ENDBRANCH  32  33
ENDBRANCH  31  32
ENDBRANCH  30  31
ENDBRANCH  29  30
ENDBRANCH  28  29
ENDBRANCH  27  28
ENDBRANCH   1  27
TORSDOF 27
ENDMDL
MODEL 2
REMARK VINA RESULT:      -9.8      2.253      7.750
REMARK SMILES Cc1cc(C)nc(SCC(=O)N2CCC[C@H](C(=O)OCCOCCOCCOCCOC(=O)c3ccc(-c4c5nc(c(-c6cc(S(=O)(=O)[O-])ccc6F)c6ccc([nH]6)c(-c6cc(S(=O)(=O)[O-])ccc6F)c6nc(c(-c7cc(S(=O)(=O)[O-])ccc7F)c7ccc4[nH]7)C=C6)C=C5)cc3)C2)n1
REMARK SMILES IDX 24 1 23 2 22 3 21 4 20 5 19 6 17 7 18 8 16 9 12 10 13 11
REMARK SMILES IDX 97 12 14 13 15 14 10 15 11 16 9 17 8 18 7 19 1 20 2 21 3 22
REMARK SMILES IDX 98 23 4 24 5 25 6 26 25 27 26 28 27 29 28 30 29 31 30 32
REMARK SMILES IDX 31 33 32 34 33 35 34 36 35 37 96 38 36 39 95 40 37 41 38 42
REMARK SMILES IDX 39 43 89 44 40 45 94 46 88 47 90 48 41 49 93 50 87 51 86 52
REMARK SMILES IDX 42 54 74 55 54 56 73 57 55 58 58 59 72 60 91 61 56 62 57 63
REMARK SMILES IDX 71 65 92 66 59 67 43 68 44 69 52 70 45 71 51 72 53 73 50 74
REMARK SMILES IDX 46 75 47 76 48 77 49 78 75 79 76 80 84 81 77 82 83 83 85 84
REMARK SMILES IDX 82 85 78 86 79 87 80 88 81 89 60 90 61 91 69 92 62 93 68 94
REMARK SMILES IDX 70 95 67 96 63 97 64 98 65 99 66 100
REMARK H PARENT 90 53 58 64
REMARK Flexibility Score: inf
ROOT
ATOM      1  C   UNL A   1      32.016  21.380  24.144  1.00  0.00     0.188 C 
ENDROOT
BRANCH   1   2
ATOM      2  C   UNL A   1      32.460  21.646  22.697  1.00  0.00     0.188 C 
BRANCH   2   3
ATOM      3  O   UNL A   1      32.882  22.939  22.344  1.00  0.00    -0.376 OA
BRANCH   3   4
ATOM      4  C   UNL A   1      33.996  23.546  22.969  1.00  0.00     0.202 C 
BRANCH   4   5
ATOM      5  C   UNL A   1      34.062  24.994  23.474  1.00  0.00     0.261 C 
BRANCH   5   6
ATOM      6  O   UNL A   1      34.331  25.279  24.844  1.00  0.00    -0.463 OA
BRANCH   6   7
ATOM      7  C   UNL A   1      33.258  25.340  25.665  1.00  0.00     0.310 C 
ATOM      8  O   UNL A   1      32.321  24.547  25.649  1.00  0.00    -0.252 OA
BRANCH   7   9
ATOM      9  C   UNL A   1      33.257  26.539  26.593  1.00  0.00     0.119 C 
ATOM     10  N   UNL A   1      31.372  27.670  25.513  1.00  0.00    -0.341 N 
ATOM     11  C   UNL A   1      32.164  28.853  25.166  1.00  0.00     0.119 C 
ATOM     12  C   UNL A   1      31.802  27.001  26.738  1.00  0.00     0.134 C 
ATOM     13  C   UNL A   1      33.653  28.549  25.051  1.00  0.00     0.022 C 
ATOM     14  C   UNL A   1      34.156  27.733  26.241  1.00  0.00     0.019 C 
BRANCH  10  15
ATOM     15  C   UNL A   1      30.656  27.020  24.501  1.00  0.00     0.233 C 
ATOM     16  O   UNL A   1      29.695  26.298  24.779  1.00  0.00    -0.274 OA
BRANCH  15  17
ATOM     17  C   UNL A   1      31.256  26.983  23.099  1.00  0.00     0.178 C 
BRANCH  17  18
ATOM     18  S   UNL A   1      31.260  28.494  22.109  1.00  0.00    -0.076 SA
BRANCH  18  19
ATOM     19  C   UNL A   1      29.694  29.233  22.475  1.00  0.00     0.188 A 
ATOM     20  C   UNL A   1      26.330  28.268  23.537  1.00  0.00     0.067 C 
ATOM     21  C   UNL A   1      27.486  29.109  23.077  1.00  0.00     0.042 A 
ATOM     22  C   UNL A   1      27.397  30.489  23.134  1.00  0.00     0.047 A 
ATOM     23  N   UNL A   1      28.628  28.467  22.738  1.00  0.00    -0.228 NA
ATOM     24  C   UNL A   1      28.547  31.193  22.844  1.00  0.00     0.042 A 
ATOM     25  C   UNL A   1      28.588  32.683  23.001  1.00  0.00     0.067 C 
ATOM     26  N   UNL A   1      29.690  30.579  22.488  1.00  0.00    -0.228 NA
ENDBRANCH  18  19
ENDBRANCH  17  18
ENDBRANCH  15  17
ENDBRANCH  10  15
ENDBRANCH   7   9
ENDBRANCH   6   7
ENDBRANCH   5   6
ENDBRANCH   4   5
ENDBRANCH   3   4
ENDBRANCH   2   3
ENDBRANCH   1   2
BRANCH   1  27
ATOM     27  O   UNL A   1      32.256  20.116  24.735  1.00  0.00    -0.377 OA
BRANCH  27  28
ATOM     28  C   UNL A   1      33.220  19.962  25.770  1.00  0.00     0.188 C 
BRANCH  28  29
ATOM     29  C   UNL A   1      33.944  21.185  26.366  1.00  0.00     0.188 C 
BRANCH  29  30
ATOM     30  O   UNL A   1      35.253  21.401  25.869  1.00  0.00    -0.376 OA
BRANCH  30  31
ATOM     31  C   UNL A   1      35.803  20.432  24.991  1.00  0.00     0.202 C 
BRANCH  31  32
ATOM     32  C   UNL A   1      37.334  20.337  24.871  1.00  0.00     0.261 C 
BRANCH  32  33
ATOM     33  O   UNL A   1      38.099  21.435  25.398  1.00  0.00    -0.460 OA
BRANCH  33  34
ATOM     34  C   UNL A   1      39.235  21.153  26.076  1.00  0.00     0.338 C 
ATOM     35  O   UNL A   1      39.851  20.109  26.065  1.00  0.00    -0.246 OA
BRANCH  34  36
ATOM     36  C   UNL A   1      39.714  22.412  26.690  1.00  0.00     0.060 A 
ATOM     37  C   UNL A   1      39.169  23.630  26.261  1.00  0.00     0.016 A 
ATOM     38  C   UNL A   1      40.703  22.390  27.674  1.00  0.00     0.016 A 
ATOM     39  C   UNL A   1      39.645  24.834  26.784  1.00  0.00     0.010 A 
ATOM     40  C   UNL A   1      41.196  23.597  28.180  1.00  0.00     0.010 A 
ATOM     41  C   UNL A   1      40.696  24.826  27.709  1.00  0.00    -0.014 A 
BRANCH  41  42
ATOM     42  C   UNL A   1      41.416  26.088  28.017  1.00  0.00     0.031 A 
ATOM     43  C   UNL A   1      40.659  27.175  28.738  1.00  0.00     0.074 A 
ATOM     44  C   UNL A   1      42.711  26.263  27.693  1.00  0.00     0.049 A 
ATOM     45  N   UNL A   1      41.039  28.385  29.052  1.00  0.00    -0.248 NA
ATOM     46  C   UNL A   1      39.286  26.848  29.158  1.00  0.00     0.031 C 
ATOM     47  C   UNL A   1      43.563  25.263  27.050  1.00  0.00     0.029 A 
ATOM     48  N   UNL A   1      43.534  27.351  27.852  1.00  0.00    -0.354 N 
ATOM     49  C   UNL A   1      39.949  28.970  29.690  1.00  0.00     0.074 A 
ATOM     50  C   UNL A   1      38.887  27.989  29.699  1.00  0.00     0.031 C 
ATOM     51  C   UNL A   1      44.785  25.792  26.857  1.00  0.00     0.029 A 
ATOM     52  C   UNL A   1      44.790  27.180  27.316  1.00  0.00     0.049 A 
ATOM     53  H   UNL A   1      43.251  28.177  28.307  1.00  0.00     0.167 HD
ATOM     54  C   UNL A   1      39.847  30.212  30.220  1.00  0.00     0.034 A 
ATOM     55  C   UNL A   1      45.810  28.056  27.180  1.00  0.00     0.034 A 
ATOM     56  C   UNL A   1      40.916  31.179  30.206  1.00  0.00     0.049 A 
ATOM     57  C   UNL A   1      45.634  29.469  27.702  1.00  0.00     0.074 A 
ATOM     58  C   UNL A   1      40.925  32.455  30.739  1.00  0.00     0.029 A 
ATOM     59  N   UNL A   1      42.157  30.985  29.617  1.00  0.00    -0.354 N 
ATOM     60  N   UNL A   1      44.603  30.003  28.319  1.00  0.00    -0.248 NA
ATOM     61  C   UNL A   1      46.761  30.393  27.515  1.00  0.00     0.031 C 
ATOM     62  C   UNL A   1      42.134  33.064  30.396  1.00  0.00     0.029 A 
ATOM     63  C   UNL A   1      42.923  32.134  29.737  1.00  0.00     0.049 A 
ATOM     64  H   UNL A   1      42.451  30.154  29.178  1.00  0.00     0.167 HD
ATOM     65  C   UNL A   1      44.981  31.309  28.629  1.00  0.00     0.074 A 
ATOM     66  C   UNL A   1      46.335  31.475  28.149  1.00  0.00     0.031 C 
ATOM     67  C   UNL A   1      44.276  32.284  29.258  1.00  0.00     0.034 A 
BRANCH  54  68
ATOM     68  C   UNL A   1      38.519  30.624  30.805  1.00  0.00     0.023 A 
ATOM     69  C   UNL A   1      37.546  31.301  30.049  1.00  0.00     0.031 A 
ATOM     70  C   UNL A   1      38.216  30.309  32.142  1.00  0.00     0.131 A 
ATOM     71  C   UNL A   1      36.332  31.672  30.649  1.00  0.00     0.055 A 
ATOM     72  C   UNL A   1      36.980  30.617  32.711  1.00  0.00     0.041 A 
ATOM     73  F   UNL A   1      39.120  29.690  32.919  1.00  0.00    -0.206 F 
ATOM     74  C   UNL A   1      36.031  31.309  31.964  1.00  0.00     0.022 A 
BRANCH  71  75
ATOM     75  S   UNL A   1      35.187  32.727  29.719  1.00  0.00     0.124 S 
ATOM     76  O   UNL A   1      36.083  33.768  29.221  1.00  0.00    -0.237 OA
ATOM     77  O   UNL A   1      34.655  31.811  28.718  1.00  0.00    -0.237 OA
ATOM     78  O   UNL A   1      34.230  33.170  30.731  1.00  0.00    -0.744 OA
ENDBRANCH  71  75
ENDBRANCH  54  68
BRANCH  55  79
ATOM     79  C   UNL A   1      47.070  27.671  26.475  1.00  0.00     0.023 A 
ATOM     80  C   UNL A   1      47.261  27.960  25.114  1.00  0.00     0.031 A 
ATOM     81  C   UNL A   1      48.055  26.902  27.122  1.00  0.00     0.131 A 
ATOM     82  C   UNL A   1      48.362  27.421  24.428  1.00  0.00     0.055 A 
ATOM     83  C   UNL A   1      49.188  26.434  26.454  1.00  0.00     0.041 A 
ATOM     84  F   UNL A   1      47.923  26.580  28.419  1.00  0.00    -0.206 F 
ATOM     85  C   UNL A   1      49.335  26.674  25.092  1.00  0.00     0.022 A 
BRANCH  82  86
ATOM     86  S   UNL A   1      48.420  27.583  22.621  1.00  0.00     0.124 S 
ATOM     87  O   UNL A   1      49.630  28.374  22.434  1.00  0.00    -0.237 OA
ATOM     88  O   UNL A   1      48.491  26.189  22.195  1.00  0.00    -0.237 OA
ATOM     89  O   UNL A   1      47.169  28.269  22.301  1.00  0.00    -0.744 OA
ENDBRANCH  82  86
ENDBRANCH  55  79
BRANCH  67  90
ATOM     90  C   UNL A   1      44.982  33.593  29.525  1.00  0.00     0.023 A 
ATOM     91  C   UNL A   1      44.898  34.681  28.638  1.00  0.00     0.031 A 
ATOM     92  C   UNL A   1      45.753  33.751  30.691  1.00  0.00     0.131 A 
ATOM     93  C   UNL A   1      45.621  35.854  28.902  1.00  0.00     0.055 A 
ATOM     94  C   UNL A   1      46.411  34.945  30.983  1.00  0.00     0.041 A 
ATOM     95  F   UNL A   1      45.872  32.746  31.574  1.00  0.00    -0.206 F 
ATOM     96  C   UNL A   1      46.360  36.001  30.079  1.00  0.00     0.022 A 
BRANCH  93  97
ATOM     97  S   UNL A   1      45.669  37.152  27.636  1.00  0.00     0.124 S 
ATOM     98  O   UNL A   1      46.044  38.326  28.417  1.00  0.00    -0.237 OA
ATOM     99  O   UNL A   1      46.684  36.650  26.714  1.00  0.00    -0.237 OA
ATOM    100  O   UNL A   1      44.307  37.167  27.106  1.00  0.00    -0.744 OA
ENDBRANCH  93  97
ENDBRANCH  67  90
ENDBRANCH  41  42
ENDBRANCH  34  36
ENDBRANCH  33  34
ENDBRANCH  32  33
ENDBRANCH  31  32
ENDBRANCH  30  31
ENDBRANCH  29  30
ENDBRANCH  28  29
ENDBRANCH  27  28
ENDBRANCH   1  27
TORSDOF 27
ENDMDL
MODEL 3
REMARK VINA RESULT:      -9.2      2.333      3.415
REMARK SMILES Cc1cc(C)nc(SCC(=O)N2CCC[C@H](C(=O)OCCOCCOCCOCCOC(=O)c3ccc(-c4c5nc(c(-c6cc(S(=O)(=O)[O-])ccc6F)c6ccc([nH]6)c(-c6cc(S(=O)(=O)[O-])ccc6F)c6nc(c(-c7cc(S(=O)(=O)[O-])ccc7F)c7ccc4[nH]7)C=C6)C=C5)cc3)C2)n1
REMARK SMILES IDX 24 1 23 2 22 3 21 4 20 5 19 6 17 7 18 8 16 9 12 10 13 11
REMARK SMILES IDX 97 12 14 13 15 14 10 15 11 16 9 17 8 18 7 19 1 20 2 21 3 22
REMARK SMILES IDX 98 23 4 24 5 25 6 26 25 27 26 28 27 29 28 30 29 31 30 32
REMARK SMILES IDX 31 33 32 34 33 35 34 36 35 37 96 38 36 39 95 40 37 41 38 42
REMARK SMILES IDX 39 43 89 44 40 45 94 46 88 47 90 48 41 49 93 50 87 51 86 52
REMARK SMILES IDX 42 54 74 55 54 56 73 57 55 58 58 59 72 60 91 61 56 62 57 63
REMARK SMILES IDX 71 65 92 66 59 67 43 68 44 69 52 70 45 71 51 72 53 73 50 74
REMARK SMILES IDX 46 75 47 76 48 77 49 78 75 79 76 80 84 81 77 82 83 83 85 84
REMARK SMILES IDX 82 85 78 86 79 87 80 88 81 89 60 90 61 91 69 92 62 93 68 94
REMARK SMILES IDX 70 95 67 96 63 97 64 98 65 99 66 100
REMARK H PARENT 90 53 58 64
REMARK Flexibility Score: inf
ROOT
ATOM      1  C   UNL A   1      32.167  21.334  23.913  1.00  0.00     0.188 C 
ENDROOT
BRANCH   1   2
ATOM      2  C   UNL A   1      32.256  21.705  22.424  1.00  0.00     0.188 C 
BRANCH   2   3
ATOM      3  O   UNL A   1      32.930  22.883  22.059  1.00  0.00    -0.376 OA
BRANCH   3   4
ATOM      4  C   UNL A   1      33.949  23.430  22.871  1.00  0.00     0.202 C 
BRANCH   4   5
ATOM      5  C   UNL A   1      33.957  24.843  23.471  1.00  0.00     0.261 C 
BRANCH   5   6
ATOM      6  O   UNL A   1      34.165  25.043  24.867  1.00  0.00    -0.463 OA
BRANCH   6   7
ATOM      7  C   UNL A   1      33.059  25.034  25.644  1.00  0.00     0.310 C 
ATOM      8  O   UNL A   1      32.208  24.150  25.635  1.00  0.00    -0.252 OA
BRANCH   7   9
ATOM      9  C   UNL A   1      32.900  26.268  26.510  1.00  0.00     0.119 C 
ATOM     10  N   UNL A   1      31.340  27.410  25.005  1.00  0.00    -0.341 N 
ATOM     11  C   UNL A   1      32.233  28.554  24.802  1.00  0.00     0.119 C 
ATOM     12  C   UNL A   1      31.468  26.779  26.316  1.00  0.00     0.134 C 
ATOM     13  C   UNL A   1      33.699  28.202  25.027  1.00  0.00     0.022 C 
ATOM     14  C   UNL A   1      33.899  27.420  26.324  1.00  0.00     0.019 C 
BRANCH  10  15
ATOM     15  C   UNL A   1      30.839  26.741  23.883  1.00  0.00     0.233 C 
ATOM     16  O   UNL A   1      30.178  25.708  24.014  1.00  0.00    -0.274 OA
BRANCH  15  17
ATOM     17  C   UNL A   1      31.364  27.140  22.507  1.00  0.00     0.178 C 
BRANCH  17  18
ATOM     18  S   UNL A   1      31.460  28.893  22.082  1.00  0.00    -0.076 SA
BRANCH  18  19
ATOM     19  C   UNL A   1      29.779  29.438  22.189  1.00  0.00     0.188 A 
ATOM     20  C   UNL A   1      26.562  28.324  23.526  1.00  0.00     0.067 C 
ATOM     21  C   UNL A   1      27.591  29.148  22.809  1.00  0.00     0.042 A 
ATOM     22  C   UNL A   1      27.280  30.435  22.405  1.00  0.00     0.047 A 
ATOM     23  N   UNL A   1      28.837  28.632  22.696  1.00  0.00    -0.228 NA
ATOM     24  C   UNL A   1      28.316  31.188  21.893  1.00  0.00     0.042 A 
ATOM     25  C   UNL A   1      28.110  32.632  21.547  1.00  0.00     0.067 C 
ATOM     26  N   UNL A   1      29.559  30.693  21.755  1.00  0.00    -0.228 NA
ENDBRANCH  18  19
ENDBRANCH  17  18
ENDBRANCH  15  17
ENDBRANCH  10  15
ENDBRANCH   7   9
ENDBRANCH   6   7
ENDBRANCH   5   6
ENDBRANCH   4   5
ENDBRANCH   3   4
ENDBRANCH   2   3
ENDBRANCH   1   2
BRANCH   1  27
ATOM     27  O   UNL A   1      32.562  20.045  24.344  1.00  0.00    -0.377 OA
BRANCH  27  28
ATOM     28  C   UNL A   1      33.628  19.877  25.271  1.00  0.00     0.188 C 
BRANCH  28  29
ATOM     29  C   UNL A   1      34.437  21.088  25.774  1.00  0.00     0.188 C 
BRANCH  29  30
ATOM     30  O   UNL A   1      35.791  21.112  25.357  1.00  0.00    -0.376 OA
BRANCH  30  31
ATOM     31  C   UNL A   1      36.367  19.905  24.883  1.00  0.00     0.202 C 
BRANCH  31  32
ATOM     32  C   UNL A   1      37.888  19.719  25.011  1.00  0.00     0.261 C 
BRANCH  32  33
ATOM     33  O   UNL A   1      38.662  20.883  25.348  1.00  0.00    -0.460 OA
BRANCH  33  34
ATOM     34  C   UNL A   1      39.739  20.721  26.150  1.00  0.00     0.338 C 
ATOM     35  O   UNL A   1      40.424  19.727  26.260  1.00  0.00    -0.246 OA
BRANCH  34  36
ATOM     36  C   UNL A   1      40.063  22.041  26.736  1.00  0.00     0.060 A 
ATOM     37  C   UNL A   1      39.256  23.144  26.421  1.00  0.00     0.016 A 
ATOM     38  C   UNL A   1      41.162  22.192  27.583  1.00  0.00     0.016 A 
ATOM     39  C   UNL A   1      39.575  24.409  26.916  1.00  0.00     0.010 A 
ATOM     40  C   UNL A   1      41.495  23.464  28.058  1.00  0.00     0.010 A 
ATOM     41  C   UNL A   1      40.725  24.585  27.695  1.00  0.00    -0.014 A 
BRANCH  41  42
ATOM     42  C   UNL A   1      41.242  25.955  27.946  1.00  0.00     0.031 A 
ATOM     43  C   UNL A   1      42.645  26.274  27.493  1.00  0.00     0.074 A 
ATOM     44  C   UNL A   1      40.486  26.902  28.533  1.00  0.00     0.049 A 
ATOM     45  N   UNL A   1      43.345  27.364  27.662  1.00  0.00    -0.248 NA
ATOM     46  C   UNL A   1      43.350  25.215  26.754  1.00  0.00     0.031 C 
ATOM     47  C   UNL A   1      39.097  26.730  28.958  1.00  0.00     0.029 A 
ATOM     48  N   UNL A   1      40.786  28.196  28.884  1.00  0.00    -0.354 N 
ATOM     49  C   UNL A   1      44.578  27.118  27.064  1.00  0.00     0.074 A 
ATOM     50  C   UNL A   1      44.537  25.767  26.550  1.00  0.00     0.031 C 
ATOM     51  C   UNL A   1      38.671  27.874  29.525  1.00  0.00     0.029 A 
ATOM     52  C   UNL A   1      39.768  28.840  29.549  1.00  0.00     0.049 A 
ATOM     53  H   UNL A   1      41.649  28.622  28.678  1.00  0.00     0.167 HD
ATOM     54  C   UNL A   1      45.645  27.945  26.956  1.00  0.00     0.034 A 
ATOM     55  C   UNL A   1      39.741  30.055  30.140  1.00  0.00     0.034 A 
ATOM     56  C   UNL A   1      45.670  29.291  27.473  1.00  0.00     0.049 A 
ATOM     57  C   UNL A   1      40.982  30.924  30.082  1.00  0.00     0.074 A 
ATOM     58  C   UNL A   1      46.691  30.221  27.392  1.00  0.00     0.029 A 
ATOM     59  N   UNL A   1      44.637  29.893  28.177  1.00  0.00    -0.354 N 
ATOM     60  N   UNL A   1      42.136  30.684  29.499  1.00  0.00    -0.248 NA
ATOM     61  C   UNL A   1      40.914  32.228  30.755  1.00  0.00     0.031 C 
ATOM     62  C   UNL A   1      46.312  31.349  28.123  1.00  0.00     0.029 A 
ATOM     63  C   UNL A   1      45.014  31.166  28.573  1.00  0.00     0.049 A 
ATOM     64  H   UNL A   1      43.765  29.477  28.367  1.00  0.00     0.167 HD
ATOM     65  C   UNL A   1      42.908  31.827  29.701  1.00  0.00     0.074 A 
ATOM     66  C   UNL A   1      42.086  32.759  30.441  1.00  0.00     0.031 C 
ATOM     67  C   UNL A   1      44.181  32.088  29.307  1.00  0.00     0.034 A 
BRANCH  54  68
ATOM     68  C   UNL A   1      46.897  27.404  26.311  1.00  0.00     0.023 A 
ATOM     69  C   UNL A   1      47.193  27.622  24.955  1.00  0.00     0.031 A 
ATOM     70  C   UNL A   1      47.821  26.676  27.082  1.00  0.00     0.131 A 
ATOM     71  C   UNL A   1      48.367  27.084  24.404  1.00  0.00     0.055 A 
ATOM     72  C   UNL A   1      49.020  26.207  26.545  1.00  0.00     0.041 A 
ATOM     73  F   UNL A   1      47.575  26.414  28.375  1.00  0.00    -0.206 F 
ATOM     74  C   UNL A   1      49.295  26.404  25.195  1.00  0.00     0.022 A 
BRANCH  71  75
ATOM     75  S   UNL A   1      48.619  27.195  22.611  1.00  0.00     0.124 S 
ATOM     76  O   UNL A   1      48.307  25.834  22.183  1.00  0.00    -0.237 OA
ATOM     77  O   UNL A   1      47.659  28.222  22.220  1.00  0.00    -0.237 OA
ATOM     78  O   UNL A   1      50.024  27.574  22.485  1.00  0.00    -0.744 OA
ENDBRANCH  71  75
ENDBRANCH  54  68
BRANCH  55  79
ATOM     79  C   UNL A   1      38.537  30.521  30.894  1.00  0.00     0.023 A 
ATOM     80  C   UNL A   1      37.453  31.125  30.236  1.00  0.00     0.031 A 
ATOM     81  C   UNL A   1      38.503  30.475  32.300  1.00  0.00     0.131 A 
ATOM     82  C   UNL A   1      36.425  31.726  30.981  1.00  0.00     0.055 A 
ATOM     83  C   UNL A   1      37.440  31.005  33.034  1.00  0.00     0.041 A 
ATOM     84  F   UNL A   1      39.516  29.923  32.988  1.00  0.00    -0.206 F 
ATOM     85  C   UNL A   1      36.402  31.656  32.374  1.00  0.00     0.022 A 
BRANCH  82  86
ATOM     86  S   UNL A   1      35.198  32.736  30.103  1.00  0.00     0.124 S 
ATOM     87  O   UNL A   1      35.879  34.023  30.022  1.00  0.00    -0.237 OA
ATOM     88  O   UNL A   1      35.048  32.007  28.848  1.00  0.00    -0.237 OA
ATOM     89  O   UNL A   1      34.034  32.699  30.987  1.00  0.00    -0.744 OA
ENDBRANCH  82  86
ENDBRANCH  55  79
BRANCH  67  90
ATOM     90  C   UNL A   1      44.737  33.461  29.609  1.00  0.00     0.023 A 
ATOM     91  C   UNL A   1      44.460  34.573  28.795  1.00  0.00     0.031 A 
ATOM     92  C   UNL A   1      45.559  33.655  30.734  1.00  0.00     0.131 A 
ATOM     93  C   UNL A   1      45.049  35.814  29.085  1.00  0.00     0.055 A 
ATOM     94  C   UNL A   1      46.083  34.907  31.056  1.00  0.00     0.041 A 
ATOM     95  F   UNL A   1      45.861  32.629  31.546  1.00  0.00    -0.206 F 
ATOM     96  C   UNL A   1      45.842  35.993  30.221  1.00  0.00     0.022 A 
BRANCH  93  97
ATOM     97  S   UNL A   1      44.850  37.171  27.897  1.00  0.00     0.124 S 
ATOM     98  O   UNL A   1      46.234  37.471  27.545  1.00  0.00    -0.237 OA
ATOM     99  O   UNL A   1      44.047  36.552  26.847  1.00  0.00    -0.237 OA
ATOM    100  O   UNL A   1      44.167  38.207  28.669  1.00  0.00    -0.744 OA
ENDBRANCH  93  97
ENDBRANCH  67  90
ENDBRANCH  41  42
ENDBRANCH  34  36
ENDBRANCH  33  34
ENDBRANCH  32  33
ENDBRANCH  31  32
ENDBRANCH  30  31
ENDBRANCH  29  30
ENDBRANCH  28  29
ENDBRANCH  27  28
ENDBRANCH   1  27
TORSDOF 27
ENDMDL
