MODEL 1
REMARK VINA RESULT:      -9.3      0.000      0.000
REMARK SMILES CCC1CN(c2cc(F)ccc2C(=O)OCCOCCOCCOCCOC(=O)c2ccc(-c3c4nc(c(-c5cc(S(=O)(=O)[O-])ccc5F)c5ccc([nH]5)c(-c5cc(S(=O)(=O)[O-])ccc5F)c5nc(c(-c6cc(S(=O)(=O)[O-])ccc6F)c6ccc3[nH]6)C=C5)C=C4)cc2)C1
REMARK SMILES IDX 22 1 21 2 20 3 19 4 18 5 17 6 16 7 15 8 13 9 14 10 12 11
REMARK SMILES IDX 6 12 7 13 8 14 11 15 9 16 10 17 5 18 3 19 4 20 93 21 2 22
REMARK SMILES IDX 1 23 23 24 24 25 25 26 26 27 27 28 28 29 29 30 30 31 31 32
REMARK SMILES IDX 92 33 32 34 91 35 33 36 34 37 35 38 85 39 36 40 90 41 84 42
REMARK SMILES IDX 86 43 37 44 89 45 83 46 82 47 38 49 70 50 50 51 69 52 51 53
REMARK SMILES IDX 54 54 68 55 87 56 52 57 53 58 67 60 88 61 55 62 39 63 40 64
REMARK SMILES IDX 48 65 41 66 47 67 49 68 46 69 42 70 43 71 44 72 45 73 71 74
REMARK SMILES IDX 72 75 80 76 73 77 79 78 81 79 78 80 74 81 75 82 76 83 77 84
REMARK SMILES IDX 56 85 57 86 65 87 58 88 64 89 66 90 63 91 59 92 60 93 61 94
REMARK SMILES IDX 62 95
REMARK H PARENT 86 48 54 59
REMARK Flexibility Score: inf
ROOT
ATOM      1  C   UNL A   1      32.732  28.682  25.394  1.00  0.00     0.188 C 
ENDROOT
BRANCH   1   2
ATOM      2  O   UNL A   1      32.865  27.892  24.219  1.00  0.00    -0.377 OA
BRANCH   2   3
ATOM      3  C   UNL A   1      31.721  27.524  23.465  1.00  0.00     0.188 C 
BRANCH   3   4
ATOM      4  C   UNL A   1      30.891  26.273  23.841  1.00  0.00     0.188 C 
BRANCH   4   5
ATOM      5  O   UNL A   1      31.624  25.074  23.975  1.00  0.00    -0.376 OA
BRANCH   5   6
ATOM      6  C   UNL A   1      31.373  23.952  23.153  1.00  0.00     0.202 C 
BRANCH   6   7
ATOM      7  C   UNL A   1      32.167  22.642  23.251  1.00  0.00     0.261 C 
BRANCH   7   8
ATOM      8  O   UNL A   1      33.521  22.769  23.675  1.00  0.00    -0.460 OA
BRANCH   8   9
ATOM      9  C   UNL A   1      33.770  22.763  25.001  1.00  0.00     0.340 C 
ATOM     10  O   UNL A   1      32.947  22.646  25.895  1.00  0.00    -0.246 OA
BRANCH   9  11
ATOM     11  C   UNL A   1      35.232  22.657  25.210  1.00  0.00     0.083 A 
ATOM     12  C   UNL A   1      35.932  21.437  25.318  1.00  0.00     0.054 A 
ATOM     13  C   UNL A   1      37.301  21.506  25.644  1.00  0.00     0.066 A 
ATOM     14  C   UNL A   1      37.938  22.726  25.856  1.00  0.00     0.125 A 
ATOM     15  C   UNL A   1      35.888  23.887  25.446  1.00  0.00     0.021 A 
ATOM     16  F   UNL A   1      39.247  22.746  26.140  1.00  0.00    -0.207 F 
ATOM     17  C   UNL A   1      37.241  23.919  25.774  1.00  0.00     0.040 A 
BRANCH  12  18
ATOM     18  N   UNL A   1      35.372  20.171  25.109  1.00  0.00    -0.370 N 
ATOM     19  C   UNL A   1      34.555  18.451  24.373  1.00  0.00     0.028 C 
ATOM     20  C   UNL A   1      34.063  19.626  25.245  1.00  0.00     0.122 C 
ATOM     21  C   UNL A   1      35.971  18.925  24.743  1.00  0.00     0.122 C 
BRANCH  19  22
ATOM     22  C   UNL A   1      34.141  17.048  24.788  1.00  0.00     0.004 C 
ATOM     23  C   UNL A   1      33.521  16.329  23.600  1.00  0.00     0.004 C 
ENDBRANCH  19  22
ENDBRANCH  12  18
ENDBRANCH   9  11
ENDBRANCH   8   9
ENDBRANCH   7   8
ENDBRANCH   6   7
ENDBRANCH   5   6
ENDBRANCH   4   5
ENDBRANCH   3   4
ENDBRANCH   2   3
ENDBRANCH   1   2
BRANCH   1  24
ATOM     24  C   UNL A   1      32.067  30.077  25.360  1.00  0.00     0.188 C 
BRANCH  24  25
ATOM     25  O   UNL A   1      31.661  30.568  26.626  1.00  0.00    -0.376 OA
BRANCH  25  26
ATOM     26  C   UNL A   1      31.699  31.967  26.838  1.00  0.00     0.202 C 
BRANCH  26  27
ATOM     27  C   UNL A   1      32.676  32.500  27.893  1.00  0.00     0.261 C 
BRANCH  27  28
ATOM     28  O   UNL A   1      33.193  33.818  27.677  1.00  0.00    -0.460 OA
BRANCH  28  29
ATOM     29  C   UNL A   1      33.384  34.595  28.765  1.00  0.00     0.338 C 
ATOM     30  O   UNL A   1      32.678  35.513  29.147  1.00  0.00    -0.246 OA
BRANCH  29  31
ATOM     31  C   UNL A   1      34.519  34.018  29.511  1.00  0.00     0.060 A 
ATOM     32  C   UNL A   1      35.825  34.187  29.033  1.00  0.00     0.016 A 
ATOM     33  C   UNL A   1      34.277  33.328  30.700  1.00  0.00     0.016 A 
ATOM     34  C   UNL A   1      36.897  33.635  29.737  1.00  0.00     0.010 A 
ATOM     35  C   UNL A   1      35.345  32.759  31.387  1.00  0.00     0.010 A 
ATOM     36  C   UNL A   1      36.655  32.882  30.892  1.00  0.00    -0.014 A 
BRANCH  36  37
ATOM     37  C   UNL A   1      37.716  32.035  31.481  1.00  0.00     0.031 A 
ATOM     38  C   UNL A   1      38.187  32.365  32.868  1.00  0.00     0.074 A 
ATOM     39  C   UNL A   1      38.270  31.022  30.795  1.00  0.00     0.049 A 
ATOM     40  N   UNL A   1      39.211  31.899  33.534  1.00  0.00    -0.248 NA
ATOM     41  C   UNL A   1      37.397  33.370  33.597  1.00  0.00     0.031 C 
ATOM     42  C   UNL A   1      37.848  30.560  29.475  1.00  0.00     0.029 A 
ATOM     43  N   UNL A   1      39.323  30.206  31.120  1.00  0.00    -0.354 N 
ATOM     44  C   UNL A   1      39.195  32.562  34.756  1.00  0.00     0.074 A 
ATOM     45  C   UNL A   1      38.082  33.485  34.724  1.00  0.00     0.031 C 
ATOM     46  C   UNL A   1      38.642  29.543  29.098  1.00  0.00     0.029 A 
ATOM     47  C   UNL A   1      39.658  29.321  30.126  1.00  0.00     0.049 A 
ATOM     48  H   UNL A   1      39.794  30.251  31.985  1.00  0.00     0.167 HD
ATOM     49  C   UNL A   1      40.032  32.407  35.811  1.00  0.00     0.034 A 
ATOM     50  C   UNL A   1      40.688  28.455  30.044  1.00  0.00     0.034 A 
ATOM     51  C   UNL A   1      41.147  31.496  35.818  1.00  0.00     0.049 A 
ATOM     52  C   UNL A   1      41.680  28.380  31.178  1.00  0.00     0.074 A 
ATOM     53  C   UNL A   1      42.069  31.270  36.824  1.00  0.00     0.029 A 
ATOM     54  N   UNL A   1      41.499  30.663  34.763  1.00  0.00    -0.354 N 
ATOM     55  N   UNL A   1      41.697  29.048  32.308  1.00  0.00    -0.248 NA
ATOM     56  C   UNL A   1      42.795  27.437  31.018  1.00  0.00     0.031 C 
ATOM     57  C   UNL A   1      43.016  30.354  36.352  1.00  0.00     0.029 A 
ATOM     58  C   UNL A   1      42.642  29.945  35.082  1.00  0.00     0.049 A 
ATOM     59  H   UNL A   1      41.008  30.592  33.912  1.00  0.00     0.167 HD
ATOM     60  C   UNL A   1      42.813  28.592  33.005  1.00  0.00     0.074 A 
ATOM     61  C   UNL A   1      43.437  27.585  32.168  1.00  0.00     0.031 C 
ATOM     62  C   UNL A   1      43.274  28.966  34.227  1.00  0.00     0.034 A 
BRANCH  49  63
ATOM     63  C   UNL A   1      39.791  33.287  37.013  1.00  0.00     0.023 A 
ATOM     64  C   UNL A   1      39.043  32.840  38.115  1.00  0.00     0.031 A 
ATOM     65  C   UNL A   1      40.288  34.602  37.040  1.00  0.00     0.131 A 
ATOM     66  C   UNL A   1      38.759  33.720  39.170  1.00  0.00     0.055 A 
ATOM     67  C   UNL A   1      40.067  35.448  38.128  1.00  0.00     0.041 A 
ATOM     68  F   UNL A   1      40.987  35.090  36.004  1.00  0.00    -0.206 F 
ATOM     69  C   UNL A   1      39.287  35.013  39.195  1.00  0.00     0.022 A 
BRANCH  66  70
ATOM     70  S   UNL A   1      37.590  33.192  40.451  1.00  0.00     0.124 S 
ATOM     71  O   UNL A   1      38.344  32.135  41.121  1.00  0.00    -0.237 OA
ATOM     72  O   UNL A   1      37.387  34.415  41.219  1.00  0.00    -0.237 OA
ATOM     73  O   UNL A   1      36.430  32.734  39.690  1.00  0.00    -0.744 OA
ENDBRANCH  66  70
ENDBRANCH  49  63
BRANCH  50  74
ATOM     74  C   UNL A   1      40.837  27.607  28.832  1.00  0.00     0.023 A 
ATOM     75  C   UNL A   1      41.808  27.909  27.865  1.00  0.00     0.031 A 
ATOM     76  C   UNL A   1      40.040  26.465  28.642  1.00  0.00     0.131 A 
ATOM     77  C   UNL A   1      41.957  27.075  26.747  1.00  0.00     0.055 A 
ATOM     78  C   UNL A   1      40.212  25.622  27.543  1.00  0.00     0.041 A 
ATOM     79  F   UNL A   1      39.104  26.133  29.546  1.00  0.00    -0.206 F 
ATOM     80  C   UNL A   1      41.177  25.927  26.586  1.00  0.00     0.022 A 
BRANCH  77  81
ATOM     81  S   UNL A   1      43.205  27.504  25.503  1.00  0.00     0.124 S 
ATOM     82  O   UNL A   1      42.383  28.081  24.445  1.00  0.00    -0.237 OA
ATOM     83  O   UNL A   1      44.058  28.436  26.233  1.00  0.00    -0.237 OA
ATOM     84  O   UNL A   1      43.823  26.219  25.185  1.00  0.00    -0.744 OA
ENDBRANCH  77  81
ENDBRANCH  50  74
BRANCH  62  85
ATOM     85  C   UNL A   1      44.507  28.267  34.745  1.00  0.00     0.023 A 
ATOM     86  C   UNL A   1      44.445  26.977  35.301  1.00  0.00     0.031 A 
ATOM     87  C   UNL A   1      45.764  28.894  34.671  1.00  0.00     0.131 A 
ATOM     88  C   UNL A   1      45.608  26.377  35.807  1.00  0.00     0.055 A 
ATOM     89  C   UNL A   1      46.928  28.267  35.118  1.00  0.00     0.041 A 
ATOM     90  F   UNL A   1      45.883  30.125  34.149  1.00  0.00    -0.206 F 
ATOM     91  C   UNL A   1      46.852  27.005  35.702  1.00  0.00     0.022 A 
BRANCH  88  92
ATOM     92  S   UNL A   1      45.461  24.794  36.678  1.00  0.00     0.124 S 
ATOM     93  O   UNL A   1      44.152  24.326  36.235  1.00  0.00    -0.237 OA
ATOM     94  O   UNL A   1      46.609  24.048  36.173  1.00  0.00    -0.237 OA
ATOM     95  O   UNL A   1      45.540  25.170  38.089  1.00  0.00    -0.744 OA
ENDBRANCH  88  92
ENDBRANCH  62  85
ENDBRANCH  36  37
ENDBRANCH  29  31
ENDBRANCH  28  29
ENDBRANCH  27  28
ENDBRANCH  26  27
ENDBRANCH  25  26
ENDBRANCH  24  25
ENDBRANCH   1  24
TORSDOF 25
ENDMDL
MODEL 2
REMARK VINA RESULT:      -8.7      5.981      9.843
REMARK SMILES CCC1CN(c2cc(F)ccc2C(=O)OCCOCCOCCOCCOC(=O)c2ccc(-c3c4nc(c(-c5cc(S(=O)(=O)[O-])ccc5F)c5ccc([nH]5)c(-c5cc(S(=O)(=O)[O-])ccc5F)c5nc(c(-c6cc(S(=O)(=O)[O-])ccc6F)c6ccc3[nH]6)C=C5)C=C4)cc2)C1
REMARK SMILES IDX 22 1 21 2 20 3 19 4 18 5 17 6 16 7 15 8 13 9 14 10 12 11
REMARK SMILES IDX 6 12 7 13 8 14 11 15 9 16 10 17 5 18 3 19 4 20 93 21 2 22
REMARK SMILES IDX 1 23 23 24 24 25 25 26 26 27 27 28 28 29 29 30 30 31 31 32
REMARK SMILES IDX 92 33 32 34 91 35 33 36 34 37 35 38 85 39 36 40 90 41 84 42
REMARK SMILES IDX 86 43 37 44 89 45 83 46 82 47 38 49 70 50 50 51 69 52 51 53
REMARK SMILES IDX 54 54 68 55 87 56 52 57 53 58 67 60 88 61 55 62 39 63 40 64
REMARK SMILES IDX 48 65 41 66 47 67 49 68 46 69 42 70 43 71 44 72 45 73 71 74
REMARK SMILES IDX 72 75 80 76 73 77 79 78 81 79 78 80 74 81 75 82 76 83 77 84
REMARK SMILES IDX 56 85 57 86 65 87 58 88 64 89 66 90 63 91 59 92 60 93 61 94
REMARK SMILES IDX 62 95
REMARK H PARENT 86 48 54 59
REMARK Flexibility Score: inf
ROOT
ATOM      1  C   UNL A   1      33.254  35.659  28.854  1.00  0.00     0.188 C 
ENDROOT
BRANCH   1   2
ATOM      2  O   UNL A   1      34.457  35.336  28.168  1.00  0.00    -0.377 OA
BRANCH   2   3
ATOM      3  C   UNL A   1      34.760  33.990  27.837  1.00  0.00     0.188 C 
BRANCH   3   4
ATOM      4  C   UNL A   1      33.663  32.899  27.866  1.00  0.00     0.188 C 
BRANCH   4   5
ATOM      5  O   UNL A   1      34.109  31.581  27.629  1.00  0.00    -0.376 OA
BRANCH   5   6
ATOM      6  C   UNL A   1      33.281  30.615  27.013  1.00  0.00     0.202 C 
BRANCH   6   7
ATOM      7  C   UNL A   1      33.823  29.336  26.362  1.00  0.00     0.261 C 
BRANCH   7   8
ATOM      8  O   UNL A   1      32.913  28.637  25.517  1.00  0.00    -0.460 OA
BRANCH   8   9
ATOM      9  C   UNL A   1      33.231  28.516  24.211  1.00  0.00     0.340 C 
ATOM     10  O   UNL A   1      33.956  29.256  23.566  1.00  0.00    -0.246 OA
BRANCH   9  11
ATOM     11  C   UNL A   1      32.776  27.189  23.733  1.00  0.00     0.083 A 
ATOM     12  C   UNL A   1      31.469  26.916  23.277  1.00  0.00     0.054 A 
ATOM     13  C   UNL A   1      31.158  25.575  22.978  1.00  0.00     0.066 A 
ATOM     14  C   UNL A   1      32.098  24.559  23.130  1.00  0.00     0.125 A 
ATOM     15  C   UNL A   1      33.714  26.146  23.900  1.00  0.00     0.021 A 
ATOM     16  F   UNL A   1      31.768  23.300  22.810  1.00  0.00    -0.207 F 
ATOM     17  C   UNL A   1      33.371  24.829  23.602  1.00  0.00     0.040 A 
BRANCH  12  18
ATOM     18  N   UNL A   1      30.469  27.878  23.084  1.00  0.00    -0.370 N 
ATOM     19  C   UNL A   1      29.156  29.436  23.198  1.00  0.00     0.028 C 
ATOM     20  C   UNL A   1      29.058  27.897  23.272  1.00  0.00     0.122 C 
ATOM     21  C   UNL A   1      30.525  29.197  22.538  1.00  0.00     0.122 C 
BRANCH  19  22
ATOM     22  C   UNL A   1      28.095  30.170  22.394  1.00  0.00     0.004 C 
ATOM     23  C   UNL A   1      27.562  31.341  23.205  1.00  0.00     0.004 C 
ENDBRANCH  19  22
ENDBRANCH  12  18
ENDBRANCH   9  11
ENDBRANCH   8   9
ENDBRANCH   7   8
ENDBRANCH   6   7
ENDBRANCH   5   6
ENDBRANCH   4   5
ENDBRANCH   3   4
ENDBRANCH   2   3
ENDBRANCH   1   2
BRANCH   1  24
ATOM     24  C   UNL A   1      33.219  35.825  30.390  1.00  0.00     0.188 C 
BRANCH  24  25
ATOM     25  O   UNL A   1      33.228  34.607  31.116  1.00  0.00    -0.376 OA
BRANCH  25  26
ATOM     26  C   UNL A   1      34.482  34.042  31.447  1.00  0.00     0.202 C 
BRANCH  26  27
ATOM     27  C   UNL A   1      34.666  32.537  31.218  1.00  0.00     0.261 C 
BRANCH  27  28
ATOM     28  O   UNL A   1      36.014  32.051  31.218  1.00  0.00    -0.460 OA
BRANCH  28  29
ATOM     29  C   UNL A   1      36.302  31.022  32.043  1.00  0.00     0.338 C 
ATOM     30  O   UNL A   1      36.200  29.831  31.798  1.00  0.00    -0.246 OA
BRANCH  29  31
ATOM     31  C   UNL A   1      36.930  31.598  33.247  1.00  0.00     0.060 A 
ATOM     32  C   UNL A   1      36.405  32.765  33.817  1.00  0.00     0.016 A 
ATOM     33  C   UNL A   1      38.031  30.958  33.819  1.00  0.00     0.016 A 
ATOM     34  C   UNL A   1      37.003  33.314  34.952  1.00  0.00     0.010 A 
ATOM     35  C   UNL A   1      38.641  31.519  34.937  1.00  0.00     0.010 A 
ATOM     36  C   UNL A   1      38.150  32.715  35.489  1.00  0.00    -0.014 A 
BRANCH  36  37
ATOM     37  C   UNL A   1      38.981  33.428  36.484  1.00  0.00     0.031 A 
ATOM     38  C   UNL A   1      38.576  33.341  37.928  1.00  0.00     0.074 A 
ATOM     39  C   UNL A   1      40.048  34.158  36.118  1.00  0.00     0.049 A 
ATOM     40  N   UNL A   1      39.021  34.006  38.961  1.00  0.00    -0.248 NA
ATOM     41  C   UNL A   1      37.510  32.376  38.242  1.00  0.00     0.031 C 
ATOM     42  C   UNL A   1      40.582  34.259  34.762  1.00  0.00     0.029 A 
ATOM     43  N   UNL A   1      40.864  34.967  36.867  1.00  0.00    -0.354 N 
ATOM     44  C   UNL A   1      38.283  33.549  40.046  1.00  0.00     0.074 A 
ATOM     45  C   UNL A   1      37.340  32.577  39.539  1.00  0.00     0.031 C 
ATOM     46  C   UNL A   1      41.637  35.091  34.774  1.00  0.00     0.029 A 
ATOM     47  C   UNL A   1      41.817  35.620  36.126  1.00  0.00     0.049 A 
ATOM     48  H   UNL A   1      40.776  35.068  37.842  1.00  0.00     0.167 HD
ATOM     49  C   UNL A   1      38.389  33.906  41.350  1.00  0.00     0.034 A 
ATOM     50  C   UNL A   1      42.708  36.562  36.493  1.00  0.00     0.034 A 
ATOM     51  C   UNL A   1      39.323  34.891  41.834  1.00  0.00     0.049 A 
ATOM     52  C   UNL A   1      42.734  37.035  37.924  1.00  0.00     0.074 A 
ATOM     53  C   UNL A   1      39.505  35.341  43.128  1.00  0.00     0.029 A 
ATOM     54  N   UNL A   1      40.228  35.585  41.040  1.00  0.00    -0.354 N 
ATOM     55  N   UNL A   1      41.997  36.643  38.938  1.00  0.00    -0.248 NA
ATOM     56  C   UNL A   1      43.709  38.082  38.256  1.00  0.00     0.031 C 
ATOM     57  C   UNL A   1      40.469  36.355  43.108  1.00  0.00     0.029 A 
ATOM     58  C   UNL A   1      40.948  36.483  41.813  1.00  0.00     0.049 A 
ATOM     59  H   UNL A   1      40.341  35.458  40.070  1.00  0.00     0.167 HD
ATOM     60  C   UNL A   1      42.432  37.383  40.035  1.00  0.00     0.074 A 
ATOM     61  C   UNL A   1      43.503  38.237  39.557  1.00  0.00     0.031 C 
ATOM     62  C   UNL A   1      41.992  37.352  41.320  1.00  0.00     0.034 A 
BRANCH  49  63
ATOM     63  C   UNL A   1      37.431  33.259  42.319  1.00  0.00     0.023 A 
ATOM     64  C   UNL A   1      36.162  33.805  42.576  1.00  0.00     0.031 A 
ATOM     65  C   UNL A   1      37.806  32.099  43.019  1.00  0.00     0.131 A 
ATOM     66  C   UNL A   1      35.339  33.229  43.555  1.00  0.00     0.055 A 
ATOM     67  C   UNL A   1      36.952  31.487  43.937  1.00  0.00     0.041 A 
ATOM     68  F   UNL A   1      39.016  31.549  42.832  1.00  0.00    -0.206 F 
ATOM     69  C   UNL A   1      35.715  32.058  44.219  1.00  0.00     0.022 A 
BRANCH  66  70
ATOM     70  S   UNL A   1      33.822  34.098  44.036  1.00  0.00     0.124 S 
ATOM     71  O   UNL A   1      33.097  33.052  44.752  1.00  0.00    -0.237 OA
ATOM     72  O   UNL A   1      34.331  35.195  44.852  1.00  0.00    -0.237 OA
ATOM     73  O   UNL A   1      33.234  34.493  42.759  1.00  0.00    -0.744 OA
ENDBRANCH  66  70
ENDBRANCH  49  63
BRANCH  50  74
ATOM     74  C   UNL A   1      43.634  37.130  35.477  1.00  0.00     0.023 A 
ATOM     75  C   UNL A   1      43.251  38.234  34.701  1.00  0.00     0.031 A 
ATOM     76  C   UNL A   1      44.924  36.602  35.294  1.00  0.00     0.131 A 
ATOM     77  C   UNL A   1      44.153  38.778  33.773  1.00  0.00     0.055 A 
ATOM     78  C   UNL A   1      45.828  37.165  34.391  1.00  0.00     0.041 A 
ATOM     79  F   UNL A   1      45.337  35.551  36.020  1.00  0.00    -0.206 F 
ATOM     80  C   UNL A   1      45.442  38.261  33.624  1.00  0.00     0.022 A 
BRANCH  77  81
ATOM     81  S   UNL A   1      43.620  40.190  32.769  1.00  0.00     0.124 S 
ATOM     82  O   UNL A   1      44.764  41.087  32.887  1.00  0.00    -0.237 OA
ATOM     83  O   UNL A   1      43.417  39.577  31.460  1.00  0.00    -0.237 OA
ATOM     84  O   UNL A   1      42.400  40.640  33.435  1.00  0.00    -0.744 OA
ENDBRANCH  77  81
ENDBRANCH  50  74
BRANCH  62  85
ATOM     85  C   UNL A   1      42.684  38.257  42.310  1.00  0.00     0.023 A 
ATOM     86  C   UNL A   1      43.818  37.836  43.027  1.00  0.00     0.031 A 
ATOM     87  C   UNL A   1      42.211  39.563  42.530  1.00  0.00     0.131 A 
ATOM     88  C   UNL A   1      44.410  38.694  43.967  1.00  0.00     0.055 A 
ATOM     89  C   UNL A   1      42.841  40.435  43.421  1.00  0.00     0.041 A 
ATOM     90  F   UNL A   1      41.133  40.019  41.873  1.00  0.00    -0.206 F 
ATOM     91  C   UNL A   1      43.940  39.997  44.154  1.00  0.00     0.022 A 
BRANCH  88  92
ATOM     92  S   UNL A   1      45.755  38.056  45.001  1.00  0.00     0.124 S 
ATOM     93  O   UNL A   1      46.426  39.285  45.415  1.00  0.00    -0.237 OA
ATOM     94  O   UNL A   1      45.035  37.339  46.048  1.00  0.00    -0.237 OA
ATOM     95  O   UNL A   1      46.521  37.212  44.085  1.00  0.00    -0.744 OA
ENDBRANCH  88  92
ENDBRANCH  62  85
ENDBRANCH  36  37
ENDBRANCH  29  31
ENDBRANCH  28  29
ENDBRANCH  27  28
ENDBRANCH  26  27
ENDBRANCH  25  26
ENDBRANCH  24  25
ENDBRANCH   1  24
TORSDOF 25
ENDMDL
MODEL 3
REMARK VINA RESULT:      -8.7      5.076      9.009
REMARK SMILES CCC1CN(c2cc(F)ccc2C(=O)OCCOCCOCCOCCOC(=O)c2ccc(-c3c4nc(c(-c5cc(S(=O)(=O)[O-])ccc5F)c5ccc([nH]5)c(-c5cc(S(=O)(=O)[O-])ccc5F)c5nc(c(-c6cc(S(=O)(=O)[O-])ccc6F)c6ccc3[nH]6)C=C5)C=C4)cc2)C1
REMARK SMILES IDX 22 1 21 2 20 3 19 4 18 5 17 6 16 7 15 8 13 9 14 10 12 11
REMARK SMILES IDX 6 12 7 13 8 14 11 15 9 16 10 17 5 18 3 19 4 20 93 21 2 22
REMARK SMILES IDX 1 23 23 24 24 25 25 26 26 27 27 28 28 29 29 30 30 31 31 32
REMARK SMILES IDX 92 33 32 34 91 35 33 36 34 37 35 38 85 39 36 40 90 41 84 42
REMARK SMILES IDX 86 43 37 44 89 45 83 46 82 47 38 49 70 50 50 51 69 52 51 53
REMARK SMILES IDX 54 54 68 55 87 56 52 57 53 58 67 60 88 61 55 62 39 63 40 64
REMARK SMILES IDX 48 65 41 66 47 67 49 68 46 69 42 70 43 71 44 72 45 73 71 74
REMARK SMILES IDX 72 75 80 76 73 77 79 78 81 79 78 80 74 81 75 82 76 83 77 84
REMARK SMILES IDX 56 85 57 86 65 87 58 88 64 89 66 90 63 91 59 92 60 93 61 94
REMARK SMILES IDX 62 95
REMARK H PARENT 86 48 54 59
REMARK Flexibility Score: inf
ROOT
ATOM      1  C   UNL A   1      33.137  35.399  28.900  1.00  0.00     0.188 C 
ENDROOT
BRANCH   1   2
ATOM      2  O   UNL A   1      34.397  35.115  28.304  1.00  0.00    -0.377 OA
BRANCH   2   3
ATOM      3  C   UNL A   1      34.742  33.787  27.943  1.00  0.00     0.188 C 
BRANCH   3   4
ATOM      4  C   UNL A   1      33.656  32.693  27.810  1.00  0.00     0.188 C 
BRANCH   4   5
ATOM      5  O   UNL A   1      34.108  31.364  27.961  1.00  0.00    -0.376 OA
BRANCH   5   6
ATOM      6  C   UNL A   1      33.428  30.275  27.370  1.00  0.00     0.202 C 
BRANCH   6   7
ATOM      7  C   UNL A   1      34.113  29.257  26.447  1.00  0.00     0.261 C 
BRANCH   7   8
ATOM      8  O   UNL A   1      33.251  28.314  25.817  1.00  0.00    -0.460 OA
BRANCH   8   9
ATOM      9  C   UNL A   1      33.167  28.339  24.470  1.00  0.00     0.340 C 
ATOM     10  O   UNL A   1      33.833  29.025  23.712  1.00  0.00    -0.246 OA
BRANCH   9  11
ATOM     11  C   UNL A   1      32.320  27.207  24.027  1.00  0.00     0.083 A 
ATOM     12  C   UNL A   1      30.954  27.322  23.694  1.00  0.00     0.054 A 
ATOM     13  C   UNL A   1      30.257  26.130  23.415  1.00  0.00     0.066 A 
ATOM     14  C   UNL A   1      30.886  24.889  23.469  1.00  0.00     0.125 A 
ATOM     15  C   UNL A   1      32.941  25.940  24.097  1.00  0.00     0.021 A 
ATOM     16  F   UNL A   1      30.191  23.783  23.173  1.00  0.00    -0.207 F 
ATOM     17  C   UNL A   1      32.220  24.780  23.822  1.00  0.00     0.040 A 
BRANCH  12  18
ATOM     18  N   UNL A   1      30.249  28.528  23.603  1.00  0.00    -0.370 N 
ATOM     19  C   UNL A   1      29.476  30.351  23.108  1.00  0.00     0.028 C 
ATOM     20  C   UNL A   1      30.357  29.794  24.246  1.00  0.00     0.122 C 
ATOM     21  C   UNL A   1      29.085  28.885  22.855  1.00  0.00     0.122 C 
BRANCH  19  22
ATOM     22  C   UNL A   1      28.375  31.328  23.486  1.00  0.00     0.004 C 
ATOM     23  C   UNL A   1      28.676  32.693  22.884  1.00  0.00     0.004 C 
ENDBRANCH  19  22
ENDBRANCH  12  18
ENDBRANCH   9  11
ENDBRANCH   8   9
ENDBRANCH   7   8
ENDBRANCH   6   7
ENDBRANCH   5   6
ENDBRANCH   4   5
ENDBRANCH   3   4
ENDBRANCH   2   3
ENDBRANCH   1   2
BRANCH   1  24
ATOM     24  C   UNL A   1      33.022  35.839  30.377  1.00  0.00     0.188 C 
BRANCH  24  25
ATOM     25  O   UNL A   1      33.106  34.780  31.316  1.00  0.00    -0.376 OA
BRANCH  25  26
ATOM     26  C   UNL A   1      34.394  34.326  31.688  1.00  0.00     0.202 C 
BRANCH  26  27
ATOM     27  C   UNL A   1      34.582  32.818  31.898  1.00  0.00     0.261 C 
BRANCH  27  28
ATOM     28  O   UNL A   1      35.933  32.343  31.942  1.00  0.00    -0.460 OA
BRANCH  28  29
ATOM     29  C   UNL A   1      36.535  32.299  33.150  1.00  0.00     0.338 C 
ATOM     30  O   UNL A   1      36.053  32.613  34.225  1.00  0.00    -0.246 OA
BRANCH  29  31
ATOM     31  C   UNL A   1      37.837  31.633  32.956  1.00  0.00     0.060 A 
ATOM     32  C   UNL A   1      38.893  31.896  33.839  1.00  0.00     0.016 A 
ATOM     33  C   UNL A   1      37.994  30.729  31.904  1.00  0.00     0.016 A 
ATOM     34  C   UNL A   1      40.127  31.270  33.651  1.00  0.00     0.010 A 
ATOM     35  C   UNL A   1      39.232  30.123  31.705  1.00  0.00     0.010 A 
ATOM     36  C   UNL A   1      40.312  30.416  32.557  1.00  0.00    -0.014 A 
BRANCH  36  37
ATOM     37  C   UNL A   1      41.668  29.986  32.153  1.00  0.00     0.031 A 
ATOM     38  C   UNL A   1      42.380  30.799  31.109  1.00  0.00     0.074 A 
ATOM     39  C   UNL A   1      42.244  28.889  32.671  1.00  0.00     0.049 A 
ATOM     40  N   UNL A   1      43.484  30.540  30.460  1.00  0.00    -0.248 NA
ATOM     41  C   UNL A   1      41.745  32.075  30.740  1.00  0.00     0.031 C 
ATOM     42  C   UNL A   1      41.686  28.064  33.740  1.00  0.00     0.029 A 
ATOM     43  N   UNL A   1      43.427  28.276  32.350  1.00  0.00    -0.354 N 
ATOM     44  C   UNL A   1      43.672  31.615  29.598  1.00  0.00     0.074 A 
ATOM     45  C   UNL A   1      42.549  32.509  29.784  1.00  0.00     0.031 C 
ATOM     46  C   UNL A   1      42.528  27.044  33.983  1.00  0.00     0.029 A 
ATOM     47  C   UNL A   1      43.652  27.117  33.050  1.00  0.00     0.049 A 
ATOM     48  H   UNL A   1      44.056  28.633  31.681  1.00  0.00     0.167 HD
ATOM     49  C   UNL A   1      44.693  31.837  28.735  1.00  0.00     0.034 A 
ATOM     50  C   UNL A   1      44.637  26.204  32.927  1.00  0.00     0.034 A 
ATOM     51  C   UNL A   1      45.793  30.925  28.550  1.00  0.00     0.049 A 
ATOM     52  C   UNL A   1      45.703  26.406  31.880  1.00  0.00     0.074 A 
ATOM     53  C   UNL A   1      46.872  31.041  27.693  1.00  0.00     0.029 A 
ATOM     54  N   UNL A   1      45.952  29.724  29.229  1.00  0.00    -0.354 N 
ATOM     55  N   UNL A   1      45.848  27.394  31.027  1.00  0.00    -0.248 NA
ATOM     56  C   UNL A   1      46.732  25.364  31.777  1.00  0.00     0.031 C 
ATOM     57  C   UNL A   1      47.645  29.879  27.802  1.00  0.00     0.029 A 
ATOM     58  C   UNL A   1      47.094  29.073  28.787  1.00  0.00     0.049 A 
ATOM     59  H   UNL A   1      45.343  29.383  29.924  1.00  0.00     0.167 HD
ATOM     60  C   UNL A   1      46.998  27.102  30.297  1.00  0.00     0.074 A 
ATOM     61  C   UNL A   1      47.510  25.850  30.820  1.00  0.00     0.031 C 
ATOM     62  C   UNL A   1      47.579  27.810  29.293  1.00  0.00     0.034 A 
BRANCH  49  63
ATOM     63  C   UNL A   1      44.624  33.089  27.897  1.00  0.00     0.023 A 
ATOM     64  C   UNL A   1      45.050  34.333  28.393  1.00  0.00     0.031 A 
ATOM     65  C   UNL A   1      44.092  33.043  26.596  1.00  0.00     0.131 A 
ATOM     66  C   UNL A   1      44.880  35.490  27.618  1.00  0.00     0.055 A 
ATOM     67  C   UNL A   1      43.996  34.186  25.801  1.00  0.00     0.041 A 
ATOM     68  F   UNL A   1      43.645  31.887  26.081  1.00  0.00    -0.206 F 
ATOM     69  C   UNL A   1      44.379  35.421  26.316  1.00  0.00     0.022 A 
BRANCH  66  70
ATOM     70  S   UNL A   1      45.209  37.102  28.381  1.00  0.00     0.124 S 
ATOM     71  O   UNL A   1      44.221  37.127  29.456  1.00  0.00    -0.237 OA
ATOM     72  O   UNL A   1      46.602  36.977  28.796  1.00  0.00    -0.237 OA
ATOM     73  O   UNL A   1      44.966  38.050  27.297  1.00  0.00    -0.744 OA
ENDBRANCH  66  70
ENDBRANCH  49  63
BRANCH  50  74
ATOM     74  C   UNL A   1      44.643  25.009  33.813  1.00  0.00     0.023 A 
ATOM     75  C   UNL A   1      45.085  25.108  35.140  1.00  0.00     0.031 A 
ATOM     76  C   UNL A   1      44.172  23.766  33.357  1.00  0.00     0.131 A 
ATOM     77  C   UNL A   1      45.048  23.977  35.971  1.00  0.00     0.055 A 
ATOM     78  C   UNL A   1      44.109  22.651  34.196  1.00  0.00     0.041 A 
ATOM     79  F   UNL A   1      43.731  23.627  32.097  1.00  0.00    -0.206 F 
ATOM     80  C   UNL A   1      44.550  22.755  35.513  1.00  0.00     0.022 A 
BRANCH  77  81
ATOM     81  S   UNL A   1      45.649  24.130  37.675  1.00  0.00     0.124 S 
ATOM     82  O   UNL A   1      46.880  24.890  37.489  1.00  0.00    -0.237 OA
ATOM     83  O   UNL A   1      44.550  24.836  38.325  1.00  0.00    -0.237 OA
ATOM     84  O   UNL A   1      45.828  22.743  38.097  1.00  0.00    -0.744 OA
ENDBRANCH  77  81
ENDBRANCH  50  74
BRANCH  62  85
ATOM     85  C   UNL A   1      48.853  27.255  28.704  1.00  0.00     0.023 A 
ATOM     86  C   UNL A   1      50.114  27.578  29.236  1.00  0.00     0.031 A 
ATOM     87  C   UNL A   1      48.806  26.380  27.604  1.00  0.00     0.131 A 
ATOM     88  C   UNL A   1      51.277  27.072  28.636  1.00  0.00     0.055 A 
ATOM     89  C   UNL A   1      49.962  25.830  27.049  1.00  0.00     0.041 A 
ATOM     90  F   UNL A   1      47.630  26.035  27.055  1.00  0.00    -0.206 F 
ATOM     91  C   UNL A   1      51.208  26.185  27.558  1.00  0.00     0.022 A 
BRANCH  88  92
ATOM     92  S   UNL A   1      52.887  27.652  29.233  1.00  0.00     0.124 S 
ATOM     93  O   UNL A   1      52.528  28.288  30.497  1.00  0.00    -0.237 OA
ATOM     94  O   UNL A   1      53.650  26.413  29.337  1.00  0.00    -0.237 OA
ATOM     95  O   UNL A   1      53.332  28.568  28.184  1.00  0.00    -0.744 OA
ENDBRANCH  88  92
ENDBRANCH  62  85
ENDBRANCH  36  37
ENDBRANCH  29  31
ENDBRANCH  28  29
ENDBRANCH  27  28
ENDBRANCH  26  27
ENDBRANCH  25  26
ENDBRANCH  24  25
ENDBRANCH   1  24
TORSDOF 25
ENDMDL
