MODEL 1
REMARK VINA RESULT:      -9.4      0.000      0.000
REMARK SMILES [NH3+][C@H]1C=C[C@H](C(=O)N2CC[NH+](CC(=O)OCCOCCOCCOCCOC(=O)c3ccc(-c4c5nc(c(-c6cc(S(=O)(=O)[O-])ccc6F)c6ccc([nH]6)c(-c6cc(S(=O)(=O)[O-])ccc6F)c6nc(c(-c7cc(S(=O)(=O)[O-])ccc7F)c7ccc4[nH]7)C=C6)C=C5)cc3)CC2)C1
REMARK SMILES IDX 21 1 20 2 19 3 18 4 17 5 16 6 15 7 13 8 14 9 12 10 11 11
REMARK SMILES IDX 6 12 7 13 8 14 9 15 94 16 10 17 93 18 5 20 2 21 3 22 95 23
REMARK SMILES IDX 4 24 1 25 22 29 23 30 24 31 25 32 26 33 27 34 28 35 29 36
REMARK SMILES IDX 30 37 31 38 92 39 32 40 91 41 33 42 34 43 35 44 85 45 36 46
REMARK SMILES IDX 90 47 84 48 86 49 37 50 89 51 83 52 82 53 38 55 70 56 50 57
REMARK SMILES IDX 69 58 51 59 54 60 68 61 87 62 52 63 53 64 67 66 88 67 55 68
REMARK SMILES IDX 39 69 40 70 48 71 41 72 47 73 49 74 46 75 42 76 43 77 44 78
REMARK SMILES IDX 45 79 71 80 72 81 80 82 73 83 79 84 81 85 78 86 74 87 75 88
REMARK SMILES IDX 76 89 77 90 56 91 57 92 65 93 58 94 64 95 66 96 63 97 59 98
REMARK SMILES IDX 60 99 61 100 62 101
REMARK H PARENT 11 19 1 26 1 27 1 28 86 54 54 65
REMARK Flexibility Score: inf
ROOT
ATOM      1  O   UNL A   1      34.425  36.637  32.692  1.00  0.00    -0.377 OA
ENDROOT
BRANCH   1   2
ATOM      2  C   UNL A   1      33.094  36.439  32.267  1.00  0.00     0.188 C 
BRANCH   2   3
ATOM      3  C   UNL A   1      32.924  36.469  30.753  1.00  0.00     0.188 C 
BRANCH   3   4
ATOM      4  O   UNL A   1      32.550  35.240  30.168  1.00  0.00    -0.376 OA
BRANCH   4   5
ATOM      5  C   UNL A   1      33.019  34.892  28.871  1.00  0.00     0.202 C 
BRANCH   5   6
ATOM      6  C   UNL A   1      34.494  34.904  28.383  1.00  0.00     0.261 C 
BRANCH   6   7
ATOM      7  O   UNL A   1      35.408  33.835  28.732  1.00  0.00    -0.459 OA
BRANCH   7   8
ATOM      8  C   UNL A   1      34.826  32.614  28.862  1.00  0.00     0.361 C 
ATOM      9  O   UNL A   1      34.480  32.162  29.958  1.00  0.00    -0.245 OA
BRANCH   8  10
ATOM     10  C   UNL A   1      34.417  31.851  27.602  1.00  0.00     0.386 C 
BRANCH  10  11
ATOM     11  N   UNL A   1      33.725  30.567  27.598  1.00  0.00    -0.323 N 
ATOM     12  C   UNL A   1      32.745  28.368  24.242  1.00  0.00     0.230 C 
ATOM     13  O   UNL A   1      33.389  29.209  23.594  1.00  0.00    -0.274 OA
ATOM     14  N   UNL A   1      32.786  28.622  25.614  1.00  0.00    -0.331 N 
ATOM     15  C   UNL A   1      32.126  29.912  25.841  1.00  0.00     0.181 C 
ATOM     16  C   UNL A   1      34.185  28.618  26.150  1.00  0.00     0.181 C 
ATOM     17  C   UNL A   1      32.321  30.504  27.227  1.00  0.00     0.284 C 
ATOM     18  C   UNL A   1      34.402  29.293  27.512  1.00  0.00     0.284 C 
ATOM     19  H   UNL A   1      33.803  30.710  28.605  1.00  0.00     0.348 HD
BRANCH  12  20
ATOM     20  C   UNL A   1      32.384  26.907  23.587  1.00  0.00     0.107 C 
ATOM     21  C   UNL A   1      29.638  26.129  24.914  1.00  0.00     0.205 C 
ATOM     22  C   UNL A   1      31.184  24.576  25.180  1.00  0.00     0.033 C 
ATOM     23  C   UNL A   1      30.540  27.480  23.787  1.00  0.00     0.087 C 
ATOM     24  C   UNL A   1      32.581  25.055  24.332  1.00  0.00    -0.012 C 
BRANCH  21  25
ATOM     25  N   UNL A   1      28.406  26.339  23.896  1.00  0.00    -0.352 N 
ATOM     26  H   UNL A   1      27.726  25.589  24.026  1.00  0.00     0.345 HD
ATOM     27  H   UNL A   1      28.752  26.320  22.936  1.00  0.00     0.345 HD
ATOM     28  H   UNL A   1      27.961  27.237  24.081  1.00  0.00     0.345 HD
ENDBRANCH  21  25
ENDBRANCH  12  20
ENDBRANCH  10  11
ENDBRANCH   8  10
ENDBRANCH   7   8
ENDBRANCH   6   7
ENDBRANCH   5   6
ENDBRANCH   4   5
ENDBRANCH   3   4
ENDBRANCH   2   3
ENDBRANCH   1   2
BRANCH   1  29
ATOM     29  C   UNL A   1      35.053  35.522  33.302  1.00  0.00     0.188 C 
BRANCH  29  30
ATOM     30  C   UNL A   1      34.404  34.144  33.161  1.00  0.00     0.188 C 
BRANCH  30  31
ATOM     31  O   UNL A   1      35.147  32.957  33.381  1.00  0.00    -0.376 OA
BRANCH  31  32
ATOM     32  C   UNL A   1      36.207  32.945  34.328  1.00  0.00     0.202 C 
BRANCH  32  33
ATOM     33  C   UNL A   1      37.425  32.075  34.025  1.00  0.00     0.261 C 
BRANCH  33  34
ATOM     34  O   UNL A   1      38.650  32.811  34.132  1.00  0.00    -0.460 OA
BRANCH  34  35
ATOM     35  C   UNL A   1      38.878  33.810  33.232  1.00  0.00     0.338 C 
ATOM     36  O   UNL A   1      38.564  34.970  33.499  1.00  0.00    -0.246 OA
BRANCH  35  37
ATOM     37  C   UNL A   1      39.464  33.332  31.603  1.00  0.00     0.060 A 
ATOM     38  C   UNL A   1      41.094  33.684  32.114  1.00  0.00     0.016 A 
ATOM     39  C   UNL A   1      38.869  33.990  29.753  1.00  0.00     0.016 A 
ATOM     40  C   UNL A   1      42.067  34.520  31.155  1.00  0.00     0.010 A 
ATOM     41  C   UNL A   1      40.067  34.993  28.904  1.00  0.00     0.010 A 
ATOM     42  C   UNL A   1      41.635  35.080  29.643  1.00  0.00    -0.014 A 
BRANCH  42  43
ATOM     43  C   UNL A   1      42.784  35.294  28.738  1.00  0.00     0.031 A 
ATOM     44  C   UNL A   1      43.643  34.120  28.588  1.00  0.00     0.074 A 
ATOM     45  C   UNL A   1      43.110  36.542  28.319  1.00  0.00     0.049 A 
ATOM     46  N   UNL A   1      44.892  34.077  28.255  1.00  0.00    -0.248 NA
ATOM     47  C   UNL A   1      43.012  32.826  28.894  1.00  0.00     0.031 C 
ATOM     48  C   UNL A   1      42.258  37.743  28.341  1.00  0.00     0.029 A 
ATOM     49  N   UNL A   1      44.329  37.054  27.948  1.00  0.00    -0.354 N 
ATOM     50  C   UNL A   1      45.199  32.734  28.284  1.00  0.00     0.074 A 
ATOM     51  C   UNL A   1      44.053  32.020  28.801  1.00  0.00     0.031 C 
ATOM     52  C   UNL A   1      43.012  38.848  28.224  1.00  0.00     0.029 A 
ATOM     53  C   UNL A   1      44.386  38.439  28.007  1.00  0.00     0.049 A 
ATOM     54  H   UNL A   1      45.088  36.495  27.667  1.00  0.00     0.167 HD
ATOM     55  C   UNL A   1      46.334  32.167  27.834  1.00  0.00     0.034 A 
ATOM     56  C   UNL A   1      45.442  39.270  27.903  1.00  0.00     0.034 A 
ATOM     57  C   UNL A   1      47.441  32.948  27.368  1.00  0.00     0.049 A 
ATOM     58  C   UNL A   1      46.760  38.618  27.575  1.00  0.00     0.074 A 
ATOM     59  C   UNL A   1      48.649  32.515  26.872  1.00  0.00     0.029 A 
ATOM     60  N   UNL A   1      47.473  34.341  27.369  1.00  0.00    -0.354 N 
ATOM     61  N   UNL A   1      47.041  37.335  27.511  1.00  0.00    -0.248 NA
ATOM     62  C   UNL A   1      47.875  39.504  27.233  1.00  0.00     0.031 C 
ATOM     63  C   UNL A   1      49.447  33.642  26.660  1.00  0.00     0.029 A 
ATOM     64  C   UNL A   1      48.699  34.784  26.919  1.00  0.00     0.049 A 
ATOM     65  H   UNL A   1      46.730  34.923  27.648  1.00  0.00     0.167 HD
ATOM     66  C   UNL A   1      48.341  37.259  27.034  1.00  0.00     0.074 A 
ATOM     67  C   UNL A   1      48.789  38.627  26.847  1.00  0.00     0.031 C 
ATOM     68  C   UNL A   1      49.092  36.164  26.749  1.00  0.00     0.034 A 
BRANCH  55  69
ATOM     69  C   UNL A   1      46.376  30.674  27.869  1.00  0.00     0.023 A 
ATOM     70  C   UNL A   1      46.069  29.918  26.722  1.00  0.00     0.031 A 
ATOM     71  C   UNL A   1      46.602  30.001  29.075  1.00  0.00     0.131 A 
ATOM     72  C   UNL A   1      45.907  28.533  26.829  1.00  0.00     0.055 A 
ATOM     73  C   UNL A   1      46.536  28.612  29.152  1.00  0.00     0.041 A 
ATOM     74  F   UNL A   1      46.841  30.685  30.206  1.00  0.00    -0.206 F 
ATOM     75  C   UNL A   1      46.172  27.870  28.030  1.00  0.00     0.022 A 
BRANCH  72  76
ATOM     76  S   UNL A   1      45.171  27.642  25.432  1.00  0.00     0.124 S 
ATOM     77  O   UNL A   1      43.830  28.218  25.390  1.00  0.00    -0.237 OA
ATOM     78  O   UNL A   1      46.054  28.000  24.328  1.00  0.00    -0.237 OA
ATOM     79  O   UNL A   1      45.231  26.243  25.851  1.00  0.00    -0.744 OA
ENDBRANCH  72  76
ENDBRANCH  55  69
BRANCH  56  80
ATOM     80  C   UNL A   1      45.325  40.758  28.021  1.00  0.00     0.023 A 
ATOM     81  C   UNL A   1      45.172  41.363  29.280  1.00  0.00     0.031 A 
ATOM     82  C   UNL A   1      45.259  41.593  26.891  1.00  0.00     0.131 A 
ATOM     83  C   UNL A   1      44.875  42.733  29.381  1.00  0.00     0.055 A 
ATOM     84  C   UNL A   1      45.018  42.970  26.998  1.00  0.00     0.041 A 
ATOM     85  F   UNL A   1      45.408  41.082  25.658  1.00  0.00    -0.206 F 
ATOM     86  C   UNL A   1      44.805  43.544  28.249  1.00  0.00     0.022 A 
BRANCH  83  87
ATOM     87  S   UNL A   1      44.446  43.406  31.012  1.00  0.00     0.124 S 
ATOM     88  O   UNL A   1      45.705  44.021  31.415  1.00  0.00    -0.237 OA
ATOM     89  O   UNL A   1      43.360  44.323  30.682  1.00  0.00    -0.237 OA
ATOM     90  O   UNL A   1      44.053  42.224  31.776  1.00  0.00    -0.744 OA
ENDBRANCH  83  87
ENDBRANCH  56  80
BRANCH  68  91
ATOM     91  C   UNL A   1      50.443  36.413  26.142  1.00  0.00     0.023 A 
ATOM     92  C   UNL A   1      51.598  36.508  26.930  1.00  0.00     0.031 A 
ATOM     93  C   UNL A   1      50.570  36.533  24.746  1.00  0.00     0.131 A 
ATOM     94  C   UNL A   1      52.828  36.778  26.320  1.00  0.00     0.055 A 
ATOM     95  C   UNL A   1      51.810  36.704  24.139  1.00  0.00     0.041 A 
ATOM     96  F   UNL A   1      49.490  36.460  23.951  1.00  0.00    -0.206 F 
ATOM     97  C   UNL A   1      52.947  36.843  24.928  1.00  0.00     0.022 A 
BRANCH  94  98
ATOM     98  S   UNL A   1      54.241  37.168  27.380  1.00  0.00     0.124 S 
ATOM     99  O   UNL A   1      55.319  36.433  26.725  1.00  0.00    -0.237 OA
ATOM    100  O   UNL A   1      54.313  38.621  27.285  1.00  0.00    -0.237 OA
ATOM    101  O   UNL A   1      53.840  36.649  28.687  1.00  0.00    -0.744 OA
ENDBRANCH  94  98
ENDBRANCH  68  91
ENDBRANCH  42  43
ENDBRANCH  35  37
ENDBRANCH  34  35
ENDBRANCH  33  34
ENDBRANCH  32  33
ENDBRANCH  31  32
ENDBRANCH  30  31
ENDBRANCH  29  30
ENDBRANCH   1  29
TORSDOF 26
ENDMDL
MODEL 2
REMARK VINA RESULT:      -9.3      7.823     11.051
REMARK SMILES [NH3+][C@H]1C=C[C@H](C(=O)N2CC[NH+](CC(=O)OCCOCCOCCOCCOC(=O)c3ccc(-c4c5nc(c(-c6cc(S(=O)(=O)[O-])ccc6F)c6ccc([nH]6)c(-c6cc(S(=O)(=O)[O-])ccc6F)c6nc(c(-c7cc(S(=O)(=O)[O-])ccc7F)c7ccc4[nH]7)C=C6)C=C5)cc3)CC2)C1
REMARK SMILES IDX 21 1 20 2 19 3 18 4 17 5 16 6 15 7 13 8 14 9 12 10 11 11
REMARK SMILES IDX 6 12 7 13 8 14 9 15 94 16 10 17 93 18 5 20 2 21 3 22 95 23
REMARK SMILES IDX 4 24 1 25 22 29 23 30 24 31 25 32 26 33 27 34 28 35 29 36
REMARK SMILES IDX 30 37 31 38 92 39 32 40 91 41 33 42 34 43 35 44 85 45 36 46
REMARK SMILES IDX 90 47 84 48 86 49 37 50 89 51 83 52 82 53 38 55 70 56 50 57
REMARK SMILES IDX 69 58 51 59 54 60 68 61 87 62 52 63 53 64 67 66 88 67 55 68
REMARK SMILES IDX 39 69 40 70 48 71 41 72 47 73 49 74 46 75 42 76 43 77 44 78
REMARK SMILES IDX 45 79 71 80 72 81 80 82 73 83 79 84 81 85 78 86 74 87 75 88
REMARK SMILES IDX 76 89 77 90 56 91 57 92 65 93 58 94 64 95 66 96 63 97 59 98
REMARK SMILES IDX 60 99 61 100 62 101
REMARK H PARENT 11 19 1 26 1 27 1 28 86 54 54 65
REMARK Flexibility Score: inf
ROOT
ATOM      1  O   UNL A   1      34.906  32.018  28.500  1.00  0.00    -0.377 OA
ENDROOT
BRANCH   1   2
ATOM      2  C   UNL A   1      35.676  31.185  27.661  1.00  0.00     0.188 C 
BRANCH   2   3
ATOM      3  C   UNL A   1      35.440  29.697  27.893  1.00  0.00     0.188 C 
BRANCH   3   4
ATOM      4  O   UNL A   1      34.166  29.227  27.508  1.00  0.00    -0.376 OA
BRANCH   4   5
ATOM      5  C   UNL A   1      33.985  28.601  26.243  1.00  0.00     0.202 C 
BRANCH   5   6
ATOM      6  C   UNL A   1      32.637  28.366  25.509  1.00  0.00     0.261 C 
BRANCH   6   7
ATOM      7  O   UNL A   1      32.497  28.637  24.092  1.00  0.00    -0.459 OA
BRANCH   7   8
ATOM      8  C   UNL A   1      31.306  28.260  23.558  1.00  0.00     0.361 C 
ATOM      9  O   UNL A   1      30.238  28.778  23.901  1.00  0.00    -0.245 OA
BRANCH   8  10
ATOM     10  C   UNL A   1      31.297  27.303  22.368  1.00  0.00     0.386 C 
BRANCH  10  11
ATOM     11  N   UNL A   1      31.808  25.937  22.397  1.00  0.00    -0.323 N 
ATOM     12  C   UNL A   1      33.809  24.178  25.554  1.00  0.00     0.230 C 
ATOM     13  O   UNL A   1      33.553  25.211  26.194  1.00  0.00    -0.274 OA
ATOM     14  N   UNL A   1      33.258  24.209  24.271  1.00  0.00    -0.331 N 
ATOM     15  C   UNL A   1      33.897  25.312  23.547  1.00  0.00     0.181 C 
ATOM     16  C   UNL A   1      31.768  24.358  24.297  1.00  0.00     0.181 C 
ATOM     17  C   UNL A   1      33.233  25.695  22.234  1.00  0.00     0.284 C 
ATOM     18  C   UNL A   1      31.101  24.829  22.997  1.00  0.00     0.284 C 
ATOM     19  H   UNL A   1      31.356  25.926  21.483  1.00  0.00     0.348 HD
BRANCH  12  20
ATOM     20  C   UNL A   1      34.256  22.803  26.331  1.00  0.00     0.107 C 
ATOM     21  C   UNL A   1      37.098  22.144  25.150  1.00  0.00     0.205 C 
ATOM     22  C   UNL A   1      35.684  20.460  24.959  1.00  0.00     0.033 C 
ATOM     23  C   UNL A   1      36.057  23.502  26.141  1.00  0.00     0.087 C 
ATOM     24  C   UNL A   1      34.225  20.891  25.726  1.00  0.00    -0.012 C 
BRANCH  21  25
ATOM     25  N   UNL A   1      38.274  22.526  26.184  1.00  0.00    -0.352 N 
ATOM     26  H   UNL A   1      38.811  23.310  25.814  1.00  0.00     0.345 HD
ATOM     27  H   UNL A   1      38.890  21.722  26.309  1.00  0.00     0.345 HD
ATOM     28  H   UNL A   1      37.866  22.786  27.081  1.00  0.00     0.345 HD
ENDBRANCH  21  25
ENDBRANCH  12  20
ENDBRANCH  10  11
ENDBRANCH   8  10
ENDBRANCH   7   8
ENDBRANCH   6   7
ENDBRANCH   5   6
ENDBRANCH   4   5
ENDBRANCH   3   4
ENDBRANCH   2   3
ENDBRANCH   1   2
BRANCH   1  29
ATOM     29  C   UNL A   1      34.569  33.289  27.969  1.00  0.00     0.188 C 
BRANCH  29  30
ATOM     30  C   UNL A   1      33.111  33.748  28.028  1.00  0.00     0.188 C 
BRANCH  30  31
ATOM     31  O   UNL A   1      32.704  34.788  28.901  1.00  0.00    -0.376 OA
BRANCH  31  32
ATOM     32  C   UNL A   1      33.663  35.456  29.709  1.00  0.00     0.202 C 
BRANCH  32  33
ATOM     33  C   UNL A   1      33.397  35.541  31.211  1.00  0.00     0.261 C 
BRANCH  33  34
ATOM     34  O   UNL A   1      34.474  34.986  31.979  1.00  0.00    -0.460 OA
BRANCH  34  35
ATOM     35  C   UNL A   1      34.502  33.635  32.161  1.00  0.00     0.338 C 
ATOM     36  O   UNL A   1      33.788  33.109  33.014  1.00  0.00    -0.246 OA
BRANCH  35  37
ATOM     37  C   UNL A   1      35.744  32.708  31.254  1.00  0.00     0.060 A 
ATOM     38  C   UNL A   1      35.801  31.554  32.560  1.00  0.00     0.016 A 
ATOM     39  C   UNL A   1      37.522  33.342  30.448  1.00  0.00     0.016 A 
ATOM     40  C   UNL A   1      37.215  31.041  33.111  1.00  0.00     0.010 A 
ATOM     41  C   UNL A   1      38.969  32.735  31.282  1.00  0.00     0.010 A 
ATOM     42  C   UNL A   1      38.689  31.525  32.494  1.00  0.00    -0.014 A 
BRANCH  42  43
ATOM     43  C   UNL A   1      39.777  30.551  32.725  1.00  0.00     0.031 A 
ATOM     44  C   UNL A   1      40.791  31.012  33.673  1.00  0.00     0.074 A 
ATOM     45  C   UNL A   1      39.913  29.465  31.923  1.00  0.00     0.049 A 
ATOM     46  N   UNL A   1      42.025  30.641  33.770  1.00  0.00    -0.248 NA
ATOM     47  C   UNL A   1      40.356  32.062  34.608  1.00  0.00     0.031 C 
ATOM     48  C   UNL A   1      38.900  28.884  31.026  1.00  0.00     0.029 A 
ATOM     49  N   UNL A   1      41.039  28.750  31.596  1.00  0.00    -0.354 N 
ATOM     50  C   UNL A   1      42.521  31.399  34.809  1.00  0.00     0.074 A 
ATOM     51  C   UNL A   1      41.499  32.341  35.207  1.00  0.00     0.031 C 
ATOM     52  C   UNL A   1      39.487  28.083  30.121  1.00  0.00     0.029 A 
ATOM     53  C   UNL A   1      40.900  28.003  30.436  1.00  0.00     0.049 A 
ATOM     54  H   UNL A   1      41.863  28.764  32.133  1.00  0.00     0.167 HD
ATOM     55  C   UNL A   1      43.714  31.243  35.410  1.00  0.00     0.034 A 
ATOM     56  C   UNL A   1      41.825  27.340  29.713  1.00  0.00     0.034 A 
ATOM     57  C   UNL A   1      44.689  30.307  34.933  1.00  0.00     0.049 A 
ATOM     58  C   UNL A   1      43.215  27.313  30.294  1.00  0.00     0.074 A 
ATOM     59  C   UNL A   1      45.936  30.029  35.445  1.00  0.00     0.029 A 
ATOM     60  N   UNL A   1      44.523  29.511  33.801  1.00  0.00    -0.354 N 
ATOM     61  N   UNL A   1      43.673  27.964  31.340  1.00  0.00    -0.248 NA
ATOM     62  C   UNL A   1      44.185  26.418  29.659  1.00  0.00     0.031 C 
ATOM     63  C   UNL A   1      46.561  29.134  34.573  1.00  0.00     0.029 A 
ATOM     64  C   UNL A   1      45.664  28.769  33.575  1.00  0.00     0.049 A 
ATOM     65  H   UNL A   1      43.711  29.480  33.246  1.00  0.00     0.167 HD
ATOM     66  C   UNL A   1      44.961  27.489  31.543  1.00  0.00     0.074 A 
ATOM     67  C   UNL A   1      45.206  26.512  30.497  1.00  0.00     0.031 C 
ATOM     68  C   UNL A   1      45.853  27.805  32.516  1.00  0.00     0.034 A 
BRANCH  55  69
ATOM     69  C   UNL A   1      43.969  32.117  36.594  1.00  0.00     0.023 A 
ATOM     70  C   UNL A   1      43.488  31.763  37.869  1.00  0.00     0.031 A 
ATOM     71  C   UNL A   1      44.584  33.364  36.433  1.00  0.00     0.131 A 
ATOM     72  C   UNL A   1      43.550  32.689  38.915  1.00  0.00     0.055 A 
ATOM     73  C   UNL A   1      44.731  34.243  37.504  1.00  0.00     0.041 A 
ATOM     74  F   UNL A   1      45.005  33.767  35.223  1.00  0.00    -0.206 F 
ATOM     75  C   UNL A   1      44.200  33.914  38.750  1.00  0.00     0.022 A 
BRANCH  72  76
ATOM     76  S   UNL A   1      42.615  32.343  40.428  1.00  0.00     0.124 S 
ATOM     77  O   UNL A   1      43.414  31.279  41.030  1.00  0.00    -0.237 OA
ATOM     78  O   UNL A   1      42.640  33.627  41.117  1.00  0.00    -0.237 OA
ATOM     79  O   UNL A   1      41.305  31.926  39.931  1.00  0.00    -0.744 OA
ENDBRANCH  72  76
ENDBRANCH  55  69
BRANCH  56  80
ATOM     80  C   UNL A   1      41.500  26.600  28.453  1.00  0.00     0.023 A 
ATOM     81  C   UNL A   1      41.531  25.195  28.424  1.00  0.00     0.031 A 
ATOM     82  C   UNL A   1      41.255  27.266  27.238  1.00  0.00     0.131 A 
ATOM     83  C   UNL A   1      41.411  24.506  27.205  1.00  0.00     0.055 A 
ATOM     84  C   UNL A   1      41.081  26.572  26.033  1.00  0.00     0.041 A 
ATOM     85  F   UNL A   1      41.202  28.607  27.197  1.00  0.00    -0.206 F 
ATOM     86  C   UNL A   1      41.178  25.183  26.009  1.00  0.00     0.022 A 
BRANCH  83  87
ATOM     87  S   UNL A   1      41.704  22.713  27.194  1.00  0.00     0.124 S 
ATOM     88  O   UNL A   1      40.648  22.238  28.080  1.00  0.00    -0.237 OA
ATOM     89  O   UNL A   1      41.548  22.392  25.779  1.00  0.00    -0.237 OA
ATOM     90  O   UNL A   1      43.063  22.587  27.715  1.00  0.00    -0.744 OA
ENDBRANCH  83  87
ENDBRANCH  56  80
BRANCH  68  91
ATOM     91  C   UNL A   1      47.142  27.034  32.525  1.00  0.00     0.023 A 
ATOM     92  C   UNL A   1      47.281  25.842  33.248  1.00  0.00     0.031 A 
ATOM     93  C   UNL A   1      48.238  27.497  31.774  1.00  0.00     0.131 A 
ATOM     94  C   UNL A   1      48.514  25.180  33.255  1.00  0.00     0.055 A 
ATOM     95  C   UNL A   1      49.430  26.782  31.708  1.00  0.00     0.041 A 
ATOM     96  F   UNL A   1      48.155  28.641  31.075  1.00  0.00    -0.206 F 
ATOM     97  C   UNL A   1      49.578  25.624  32.463  1.00  0.00     0.022 A 
BRANCH  94  98
ATOM     98  S   UNL A   1      48.742  23.807  34.410  1.00  0.00     0.124 S 
ATOM     99  O   UNL A   1      49.087  24.506  35.644  1.00  0.00    -0.237 OA
ATOM    100  O   UNL A   1      47.435  23.161  34.390  1.00  0.00    -0.237 OA
ATOM    101  O   UNL A   1      49.827  23.033  33.810  1.00  0.00    -0.744 OA
ENDBRANCH  94  98
ENDBRANCH  68  91
ENDBRANCH  42  43
ENDBRANCH  35  37
ENDBRANCH  34  35
ENDBRANCH  33  34
ENDBRANCH  32  33
ENDBRANCH  31  32
ENDBRANCH  30  31
ENDBRANCH  29  30
ENDBRANCH   1  29
TORSDOF 26
ENDMDL
MODEL 3
REMARK VINA RESULT:      -8.8      2.889      8.533
REMARK SMILES [NH3+][C@H]1C=C[C@H](C(=O)N2CC[NH+](CC(=O)OCCOCCOCCOCCOC(=O)c3ccc(-c4c5nc(c(-c6cc(S(=O)(=O)[O-])ccc6F)c6ccc([nH]6)c(-c6cc(S(=O)(=O)[O-])ccc6F)c6nc(c(-c7cc(S(=O)(=O)[O-])ccc7F)c7ccc4[nH]7)C=C6)C=C5)cc3)CC2)C1
REMARK SMILES IDX 21 1 20 2 19 3 18 4 17 5 16 6 15 7 13 8 14 9 12 10 11 11
REMARK SMILES IDX 6 12 7 13 8 14 9 15 94 16 10 17 93 18 5 20 2 21 3 22 95 23
REMARK SMILES IDX 4 24 1 25 22 29 23 30 24 31 25 32 26 33 27 34 28 35 29 36
REMARK SMILES IDX 30 37 31 38 92 39 32 40 91 41 33 42 34 43 35 44 85 45 36 46
REMARK SMILES IDX 90 47 84 48 86 49 37 50 89 51 83 52 82 53 38 55 70 56 50 57
REMARK SMILES IDX 69 58 51 59 54 60 68 61 87 62 52 63 53 64 67 66 88 67 55 68
REMARK SMILES IDX 39 69 40 70 48 71 41 72 47 73 49 74 46 75 42 76 43 77 44 78
REMARK SMILES IDX 45 79 71 80 72 81 80 82 73 83 79 84 81 85 78 86 74 87 75 88
REMARK SMILES IDX 76 89 77 90 56 91 57 92 65 93 58 94 64 95 66 96 63 97 59 98
REMARK SMILES IDX 60 99 61 100 62 101
REMARK H PARENT 11 19 1 26 1 27 1 28 86 54 54 65
REMARK Flexibility Score: inf
ROOT
ATOM      1  O   UNL A   1      37.008  29.301  28.430  1.00  0.00    -0.377 OA
ENDROOT
BRANCH   1   2
ATOM      2  C   UNL A   1      36.091  29.936  27.564  1.00  0.00     0.188 C 
BRANCH   2   3
ATOM      3  C   UNL A   1      34.774  29.185  27.410  1.00  0.00     0.188 C 
BRANCH   3   4
ATOM      4  O   UNL A   1      33.750  29.904  26.757  1.00  0.00    -0.376 OA
BRANCH   4   5
ATOM      5  C   UNL A   1      32.596  29.225  26.274  1.00  0.00     0.202 C 
BRANCH   5   6
ATOM      6  C   UNL A   1      31.611  29.731  25.185  1.00  0.00     0.261 C 
BRANCH   6   7
ATOM      7  O   UNL A   1      30.896  28.803  24.331  1.00  0.00    -0.459 OA
BRANCH   7   8
ATOM      8  C   UNL A   1      31.526  28.508  23.164  1.00  0.00     0.361 C 
ATOM      9  O   UNL A   1      32.578  29.060  22.826  1.00  0.00    -0.245 OA
BRANCH   8  10
ATOM     10  C   UNL A   1      31.026  27.329  22.330  1.00  0.00     0.386 C 
BRANCH  10  11
ATOM     11  N   UNL A   1      31.389  25.935  22.562  1.00  0.00    -0.323 N 
ATOM     12  C   UNL A   1      34.126  24.586  25.345  1.00  0.00     0.230 C 
ATOM     13  O   UNL A   1      34.190  25.761  25.741  1.00  0.00    -0.274 OA
ATOM     14  N   UNL A   1      33.196  24.432  24.314  1.00  0.00    -0.331 N 
ATOM     15  C   UNL A   1      33.668  25.227  23.176  1.00  0.00     0.181 C 
ATOM     16  C   UNL A   1      31.816  24.834  24.732  1.00  0.00     0.181 C 
ATOM     17  C   UNL A   1      32.655  25.425  22.060  1.00  0.00     0.284 C 
ATOM     18  C   UNL A   1      30.812  25.120  23.606  1.00  0.00     0.284 C 
ATOM     19  H   UNL A   1      30.666  25.803  21.853  1.00  0.00     0.348 HD
BRANCH  12  20
ATOM     20  C   UNL A   1      34.669  23.356  26.286  1.00  0.00     0.107 C 
ATOM     21  C   UNL A   1      37.202  22.280  24.759  1.00  0.00     0.205 C 
ATOM     22  C   UNL A   1      35.721  20.697  25.175  1.00  0.00     0.033 C 
ATOM     23  C   UNL A   1      36.422  23.874  25.631  1.00  0.00     0.087 C 
ATOM     24  C   UNL A   1      34.455  21.371  26.095  1.00  0.00    -0.012 C 
BRANCH  21  25
ATOM     25  N   UNL A   1      38.569  22.766  25.460  1.00  0.00    -0.352 N 
ATOM     26  H   UNL A   1      39.152  21.954  25.668  1.00  0.00     0.345 HD
ATOM     27  H   UNL A   1      38.350  23.257  26.328  1.00  0.00     0.345 HD
ATOM     28  H   UNL A   1      39.070  23.392  24.831  1.00  0.00     0.345 HD
ENDBRANCH  21  25
ENDBRANCH  12  20
ENDBRANCH  10  11
ENDBRANCH   8  10
ENDBRANCH   7   8
ENDBRANCH   6   7
ENDBRANCH   5   6
ENDBRANCH   4   5
ENDBRANCH   3   4
ENDBRANCH   2   3
ENDBRANCH   1   2
BRANCH   1  29
ATOM     29  C   UNL A   1      37.023  29.772  29.767  1.00  0.00     0.188 C 
BRANCH  29  30
ATOM     30  C   UNL A   1      38.120  30.751  30.190  1.00  0.00     0.188 C 
BRANCH  30  31
ATOM     31  O   UNL A   1      38.231  31.193  31.532  1.00  0.00    -0.376 OA
BRANCH  31  32
ATOM     32  C   UNL A   1      37.281  30.773  32.501  1.00  0.00     0.202 C 
BRANCH  32  33
ATOM     33  C   UNL A   1      36.335  31.826  33.077  1.00  0.00     0.261 C 
BRANCH  33  34
ATOM     34  O   UNL A   1      36.737  32.251  34.386  1.00  0.00    -0.460 OA
BRANCH  34  35
ATOM     35  C   UNL A   1      36.887  33.588  34.608  1.00  0.00     0.338 C 
ATOM     36  O   UNL A   1      35.943  34.356  34.429  1.00  0.00    -0.246 OA
BRANCH  35  37
ATOM     37  C   UNL A   1      38.542  34.181  34.975  1.00  0.00     0.060 A 
ATOM     38  C   UNL A   1      38.762  34.537  33.281  1.00  0.00     0.016 A 
ATOM     39  C   UNL A   1      40.075  33.251  35.973  1.00  0.00     0.016 A 
ATOM     40  C   UNL A   1      40.122  34.115  32.548  1.00  0.00     0.010 A 
ATOM     41  C   UNL A   1      41.443  32.772  34.945  1.00  0.00     0.010 A 
ATOM     42  C   UNL A   1      41.399  33.356  33.311  1.00  0.00    -0.014 A 
BRANCH  42  43
ATOM     43  C   UNL A   1      42.702  33.577  32.649  1.00  0.00     0.031 A 
ATOM     44  C   UNL A   1      43.117  34.979  32.617  1.00  0.00     0.074 A 
ATOM     45  C   UNL A   1      43.290  32.586  31.934  1.00  0.00     0.049 A 
ATOM     46  N   UNL A   1      43.924  35.558  31.788  1.00  0.00    -0.248 NA
ATOM     47  C   UNL A   1      42.507  35.847  33.637  1.00  0.00     0.031 C 
ATOM     48  C   UNL A   1      42.996  31.144  31.995  1.00  0.00     0.029 A 
ATOM     49  N   UNL A   1      44.151  32.664  30.867  1.00  0.00    -0.354 N 
ATOM     50  C   UNL A   1      43.943  36.872  32.203  1.00  0.00     0.074 A 
ATOM     51  C   UNL A   1      42.965  37.025  33.258  1.00  0.00     0.031 C 
ATOM     52  C   UNL A   1      43.473  30.527  30.902  1.00  0.00     0.029 A 
ATOM     53  C   UNL A   1      44.202  31.500  30.114  1.00  0.00     0.049 A 
ATOM     54  H   UNL A   1      44.682  33.466  30.658  1.00  0.00     0.167 HD
ATOM     55  C   UNL A   1      44.779  37.832  31.769  1.00  0.00     0.034 A 
ATOM     56  C   UNL A   1      44.773  31.266  28.915  1.00  0.00     0.034 A 
ATOM     57  C   UNL A   1      45.698  37.610  30.692  1.00  0.00     0.049 A 
ATOM     58  C   UNL A   1      45.567  32.407  28.333  1.00  0.00     0.074 A 
ATOM     59  C   UNL A   1      46.614  38.482  30.151  1.00  0.00     0.029 A 
ATOM     60  N   UNL A   1      45.792  36.418  29.976  1.00  0.00    -0.354 N 
ATOM     61  N   UNL A   1      45.664  33.641  28.774  1.00  0.00    -0.248 NA
ATOM     62  C   UNL A   1      46.382  32.116  27.151  1.00  0.00     0.031 C 
ATOM     63  C   UNL A   1      47.197  37.852  29.048  1.00  0.00     0.029 A 
ATOM     64  C   UNL A   1      46.725  36.547  28.967  1.00  0.00     0.049 A 
ATOM     65  H   UNL A   1      45.271  35.604  30.162  1.00  0.00     0.167 HD
ATOM     66  C   UNL A   1      46.620  34.252  27.976  1.00  0.00     0.074 A 
ATOM     67  C   UNL A   1      47.053  33.250  27.018  1.00  0.00     0.031 C 
ATOM     68  C   UNL A   1      47.120  35.512  28.040  1.00  0.00     0.034 A 
BRANCH  55  69
ATOM     69  C   UNL A   1      44.677  39.151  32.463  1.00  0.00     0.023 A 
ATOM     70  C   UNL A   1      43.730  40.109  32.054  1.00  0.00     0.031 A 
ATOM     71  C   UNL A   1      45.604  39.504  33.450  1.00  0.00     0.131 A 
ATOM     72  C   UNL A   1      43.791  41.407  32.570  1.00  0.00     0.055 A 
ATOM     73  C   UNL A   1      45.596  40.770  34.031  1.00  0.00     0.041 A 
ATOM     74  F   UNL A   1      46.561  38.641  33.829  1.00  0.00    -0.206 F 
ATOM     75  C   UNL A   1      44.697  41.735  33.582  1.00  0.00     0.022 A 
BRANCH  72  76
ATOM     76  S   UNL A   1      42.800  42.698  31.773  1.00  0.00     0.124 S 
ATOM     77  O   UNL A   1      42.288  43.431  32.929  1.00  0.00    -0.237 OA
ATOM     78  O   UNL A   1      43.786  43.400  30.960  1.00  0.00    -0.237 OA
ATOM     79  O   UNL A   1      41.796  41.944  31.025  1.00  0.00    -0.744 OA
ENDBRANCH  72  76
ENDBRANCH  55  69
BRANCH  56  80
ATOM     80  C   UNL A   1      44.706  29.940  28.224  1.00  0.00     0.023 A 
ATOM     81  C   UNL A   1      43.728  29.696  27.244  1.00  0.00     0.031 A 
ATOM     82  C   UNL A   1      45.536  28.864  28.591  1.00  0.00     0.131 A 
ATOM     83  C   UNL A   1      43.542  28.401  26.731  1.00  0.00     0.055 A 
ATOM     84  C   UNL A   1      45.383  27.586  28.034  1.00  0.00     0.041 A 
ATOM     85  F   UNL A   1      46.497  29.031  29.512  1.00  0.00    -0.206 F 
ATOM     86  C   UNL A   1      44.368  27.345  27.112  1.00  0.00     0.022 A 
BRANCH  83  87
ATOM     87  S   UNL A   1      42.111  28.096  25.656  1.00  0.00     0.124 S 
ATOM     88  O   UNL A   1      41.949  29.391  25.007  1.00  0.00    -0.237 OA
ATOM     89  O   UNL A   1      42.596  27.009  24.811  1.00  0.00    -0.237 OA
ATOM     90  O   UNL A   1      41.052  27.729  26.595  1.00  0.00    -0.744 OA
ENDBRANCH  83  87
ENDBRANCH  56  80
BRANCH  68  91
ATOM     91  C   UNL A   1      48.235  35.844  27.091  1.00  0.00     0.023 A 
ATOM     92  C   UNL A   1      49.559  35.466  27.349  1.00  0.00     0.031 A 
ATOM     93  C   UNL A   1      47.953  36.532  25.896  1.00  0.00     0.131 A 
ATOM     94  C   UNL A   1      50.568  35.832  26.451  1.00  0.00     0.055 A 
ATOM     95  C   UNL A   1      48.947  36.807  24.962  1.00  0.00     0.041 A 
ATOM     96  F   UNL A   1      46.701  36.925  25.611  1.00  0.00    -0.206 F 
ATOM     97  C   UNL A   1      50.266  36.470  25.243  1.00  0.00     0.022 A 
BRANCH  94  98
ATOM     98  S   UNL A   1      52.289  35.574  26.946  1.00  0.00     0.124 S 
ATOM     99  O   UNL A   1      52.973  35.561  25.656  1.00  0.00    -0.237 OA
ATOM    100  O   UNL A   1      52.549  36.733  27.791  1.00  0.00    -0.237 OA
ATOM    101  O   UNL A   1      52.254  34.290  27.644  1.00  0.00    -0.744 OA
ENDBRANCH  94  98
ENDBRANCH  68  91
ENDBRANCH  42  43
ENDBRANCH  35  37
ENDBRANCH  34  35
ENDBRANCH  33  34
ENDBRANCH  32  33
ENDBRANCH  31  32
ENDBRANCH  30  31
ENDBRANCH  29  30
ENDBRANCH   1  29
TORSDOF 26
ENDMDL
