MODEL 1
REMARK VINA RESULT:     -10.5      0.000      0.000
REMARK SMILES Cc1cccc(OCC(=O)Nc2cc(C(=O)OCCOCCOCCOCCOC(=O)c3ccc(-c4c5nc(c(-c6cc(S(=O)(=O)[O-])ccc6F)c6ccc([nH]6)c(-c6cc(S(=O)(=O)[O-])ccc6F)c6nc(c(-c7cc(S(=O)(=O)[O-])ccc7F)c7ccc4[nH]7)C=C6)C=C5)cc3)c(Cl)cc2Cl)c1
REMARK SMILES IDX 22 1 21 2 20 3 19 4 18 5 17 6 15 7 16 8 14 9 12 10 13 11
REMARK SMILES IDX 98 12 97 13 99 14 95 15 96 16 11 17 9 18 10 19 8 21 7 22
REMARK SMILES IDX 6 23 1 24 2 25 3 26 100 27 4 28 5 29 23 30 24 31 25 32 26 33
REMARK SMILES IDX 27 34 28 35 29 36 30 37 31 38 32 39 33 40 94 41 34 42 93 43
REMARK SMILES IDX 35 44 36 45 37 46 87 47 38 48 92 49 86 50 88 51 39 52 91 53
REMARK SMILES IDX 85 54 84 55 40 57 72 58 52 59 71 60 53 61 56 62 70 63 89 64
REMARK SMILES IDX 54 65 55 66 69 68 90 69 57 70 41 71 42 72 50 73 43 74 49 75
REMARK SMILES IDX 51 76 48 77 44 78 45 79 46 80 47 81 73 82 74 83 82 84 75 85
REMARK SMILES IDX 81 86 83 87 80 88 76 89 77 90 78 91 79 92 58 93 59 94 67 95
REMARK SMILES IDX 60 96 66 97 68 98 65 99 61 100 62 101 63 102 64 103
REMARK H PARENT 11 20 88 56 56 67
REMARK Flexibility Score: inf
ROOT
ATOM      1  C   UNL A   1      43.236  22.894  28.606  1.00  0.00     0.188 C 
ENDROOT
BRANCH   1   2
ATOM      2  C   UNL A   1      43.847  22.715  30.021  1.00  0.00     0.188 C 
BRANCH   2   3
ATOM      3  O   UNL A   1      44.104  23.961  31.091  1.00  0.00    -0.376 OA
BRANCH   3   4
ATOM      4  C   UNL A   1      44.353  23.976  32.816  1.00  0.00     0.202 C 
BRANCH   4   5
ATOM      5  C   UNL A   1      43.803  22.930  34.260  1.00  0.00     0.261 C 
BRANCH   5   6
ATOM      6  O   UNL A   1      44.664  21.499  35.078  1.00  0.00    -0.460 OA
BRANCH   6   7
ATOM      7  C   UNL A   1      46.079  20.752  35.260  1.00  0.00     0.339 C 
ATOM      8  O   UNL A   1      46.692  20.516  34.212  1.00  0.00    -0.246 OA
BRANCH   7   9
ATOM      9  C   UNL A   1      46.916  20.207  36.701  1.00  0.00     0.080 A 
ATOM     10  C   UNL A   1      47.254  18.618  38.769  1.00  0.00     0.061 A 
ATOM     11  C   UNL A   1      46.515  19.231  37.739  1.00  0.00     0.045 A 
ATOM     12  C   UNL A   1      48.410  19.323  39.063  1.00  0.00     0.066 A 
ATOM     13  C   UNL A   1      48.804  20.422  38.271  1.00  0.00     0.044 A 
ATOM     14  Cl  UNL A   1      49.337  18.951  40.478  1.00  0.00    -0.082 Cl
ATOM     15  C   UNL A   1      48.105  20.833  37.093  1.00  0.00     0.057 A 
ATOM     16  Cl  UNL A   1      48.793  22.214  36.318  1.00  0.00    -0.083 Cl
BRANCH  10  17
ATOM     17  N   UNL A   1      46.783  17.606  39.682  1.00  0.00    -0.322 N 
ATOM     18  C   UNL A   1      45.852  17.324  40.664  1.00  0.00     0.262 C 
ATOM     19  O   UNL A   1      46.160  16.342  41.367  1.00  0.00    -0.271 OA
ATOM     20  H   UNL A   1      47.341  16.805  39.558  1.00  0.00     0.170 HD
BRANCH  18  21
ATOM     21  C   UNL A   1      44.357  17.809  40.764  1.00  0.00     0.329 C 
BRANCH  21  22
ATOM     22  O   UNL A   1      43.135  17.108  40.560  1.00  0.00    -0.484 OA
BRANCH  22  23
ATOM     23  C   UNL A   1      42.710  15.973  41.190  1.00  0.00     0.120 A 
ATOM     24  C   UNL A   1      41.385  12.415  40.877  1.00  0.00     0.044 C 
ATOM     25  C   UNL A   1      41.991  13.665  41.437  1.00  0.00    -0.047 A 
ATOM     26  C   UNL A   1      42.486  13.616  42.747  1.00  0.00     0.003 A 
ATOM     27  C   UNL A   1      42.134  14.839  40.649  1.00  0.00     0.049 A 
ATOM     28  C   UNL A   1      42.945  14.773  43.336  1.00  0.00     0.004 A 
ATOM     29  C   UNL A   1      42.986  15.940  42.569  1.00  0.00     0.046 A 
ENDBRANCH  22  23
ENDBRANCH  21  22
ENDBRANCH  18  21
ENDBRANCH  10  17
ENDBRANCH   7   9
ENDBRANCH   6   7
ENDBRANCH   5   6
ENDBRANCH   4   5
ENDBRANCH   3   4
ENDBRANCH   2   3
ENDBRANCH   1   2
BRANCH   1  30
ATOM     30  O   UNL A   1      41.914  22.391  28.465  1.00  0.00    -0.377 OA
BRANCH  30  31
ATOM     31  C   UNL A   1      41.412  22.596  27.155  1.00  0.00     0.188 C 
BRANCH  31  32
ATOM     32  C   UNL A   1      42.291  21.952  26.105  1.00  0.00     0.188 C 
BRANCH  32  33
ATOM     33  O   UNL A   1      42.701  22.872  25.088  1.00  0.00    -0.376 OA
BRANCH  33  34
ATOM     34  C   UNL A   1      42.757  24.237  25.436  1.00  0.00     0.202 C 
BRANCH  34  35
ATOM     35  C   UNL A   1      44.082  24.864  24.996  1.00  0.00     0.261 C 
BRANCH  35  36
ATOM     36  O   UNL A   1      44.876  23.850  24.326  1.00  0.00    -0.460 OA
BRANCH  36  37
ATOM     37  C   UNL A   1      45.715  23.122  25.105  1.00  0.00     0.338 C 
ATOM     38  O   UNL A   1      45.742  21.880  25.132  1.00  0.00    -0.246 OA
BRANCH  37  39
ATOM     39  C   UNL A   1      46.448  24.000  26.076  1.00  0.00     0.060 A 
ATOM     40  C   UNL A   1      46.359  23.774  27.443  1.00  0.00     0.016 A 
ATOM     41  C   UNL A   1      46.989  25.223  25.665  1.00  0.00     0.016 A 
ATOM     42  C   UNL A   1      46.621  24.842  28.330  1.00  0.00     0.010 A 
ATOM     43  C   UNL A   1      47.030  26.326  26.549  1.00  0.00     0.010 A 
ATOM     44  C   UNL A   1      46.666  26.201  27.897  1.00  0.00    -0.014 A 
BRANCH  44  45
ATOM     45  C   UNL A   1      46.469  27.596  28.873  1.00  0.00     0.031 A 
ATOM     46  C   UNL A   1      44.738  27.689  28.468  1.00  0.00     0.074 A 
ATOM     47  C   UNL A   1      47.539  28.756  29.526  1.00  0.00     0.049 A 
ATOM     48  N   UNL A   1      44.121  28.754  28.014  1.00  0.00    -0.248 NA
ATOM     49  C   UNL A   1      43.805  26.557  28.258  1.00  0.00     0.031 C 
ATOM     50  C   UNL A   1      47.397  30.371  30.046  1.00  0.00     0.029 A 
ATOM     51  N   UNL A   1      49.052  29.030  29.474  1.00  0.00    -0.354 N 
ATOM     52  C   UNL A   1      42.798  28.607  28.172  1.00  0.00     0.074 A 
ATOM     53  C   UNL A   1      42.644  27.187  27.994  1.00  0.00     0.031 C 
ATOM     54  C   UNL A   1      48.499  31.107  30.117  1.00  0.00     0.029 A 
ATOM     55  C   UNL A   1      49.415  30.405  29.336  1.00  0.00     0.049 A 
ATOM     56  H   UNL A   1      49.722  28.311  29.531  1.00  0.00     0.167 HD
ATOM     57  C   UNL A   1      42.071  29.647  28.685  1.00  0.00     0.034 A 
ATOM     58  C   UNL A   1      49.918  31.049  28.236  1.00  0.00     0.034 A 
ATOM     59  C   UNL A   1      42.908  30.839  29.085  1.00  0.00     0.049 A 
ATOM     60  C   UNL A   1      48.848  32.172  27.779  1.00  0.00     0.074 A 
ATOM     61  C   UNL A   1      43.235  31.367  30.332  1.00  0.00     0.029 A 
ATOM     62  N   UNL A   1      43.773  31.515  28.187  1.00  0.00    -0.354 N 
ATOM     63  N   UNL A   1      47.545  32.063  27.990  1.00  0.00    -0.248 NA
ATOM     64  C   UNL A   1      49.138  33.531  27.353  1.00  0.00     0.031 C 
ATOM     65  C   UNL A   1      44.289  32.327  30.181  1.00  0.00     0.029 A 
ATOM     66  C   UNL A   1      44.654  32.410  28.836  1.00  0.00     0.049 A 
ATOM     67  H   UNL A   1      43.762  31.376  27.213  1.00  0.00     0.167 HD
ATOM     68  C   UNL A   1      46.849  33.249  27.875  1.00  0.00     0.074 A 
ATOM     69  C   UNL A   1      47.945  34.142  27.502  1.00  0.00     0.031 C 
ATOM     70  C   UNL A   1      45.481  33.429  28.111  1.00  0.00     0.034 A 
BRANCH  57  71
ATOM     71  C   UNL A   1      40.675  29.341  29.213  1.00  0.00     0.023 A 
ATOM     72  C   UNL A   1      40.414  29.248  30.593  1.00  0.00     0.031 A 
ATOM     73  C   UNL A   1      39.566  29.074  28.377  1.00  0.00     0.131 A 
ATOM     74  C   UNL A   1      39.173  28.780  31.076  1.00  0.00     0.055 A 
ATOM     75  C   UNL A   1      38.358  28.543  28.848  1.00  0.00     0.041 A 
ATOM     76  F   UNL A   1      39.597  29.361  27.067  1.00  0.00    -0.206 F 
ATOM     77  C   UNL A   1      38.161  28.379  30.208  1.00  0.00     0.022 A 
BRANCH  74  78
ATOM     78  S   UNL A   1      38.873  28.741  32.865  1.00  0.00     0.124 S 
ATOM     79  O   UNL A   1      37.580  28.070  32.951  1.00  0.00    -0.237 OA
ATOM     80  O   UNL A   1      40.022  27.991  33.359  1.00  0.00    -0.237 OA
ATOM     81  O   UNL A   1      38.860  30.156  33.238  1.00  0.00    -0.744 OA
ENDBRANCH  74  78
ENDBRANCH  57  71
BRANCH  58  82
ATOM     82  C   UNL A   1      50.916  30.218  27.460  1.00  0.00     0.023 A 
ATOM     83  C   UNL A   1      50.424  29.232  26.547  1.00  0.00     0.031 A 
ATOM     84  C   UNL A   1      52.278  30.518  27.371  1.00  0.00     0.131 A 
ATOM     85  C   UNL A   1      51.239  28.671  25.548  1.00  0.00     0.055 A 
ATOM     86  C   UNL A   1      53.073  30.010  26.328  1.00  0.00     0.041 A 
ATOM     87  F   UNL A   1      52.822  31.431  28.188  1.00  0.00    -0.206 F 
ATOM     88  C   UNL A   1      52.550  29.111  25.396  1.00  0.00     0.022 A 
BRANCH  85  89
ATOM     89  S   UNL A   1      50.559  27.469  24.351  1.00  0.00     0.124 S 
ATOM     90  O   UNL A   1      50.339  26.292  25.182  1.00  0.00    -0.237 OA
ATOM     91  O   UNL A   1      49.361  28.137  23.856  1.00  0.00    -0.237 OA
ATOM     92  O   UNL A   1      51.637  27.333  23.370  1.00  0.00    -0.744 OA
ENDBRANCH  85  89
ENDBRANCH  58  82
BRANCH  70  93
ATOM     93  C   UNL A   1      44.697  34.709  27.750  1.00  0.00     0.023 A 
ATOM     94  C   UNL A   1      44.823  35.915  28.439  1.00  0.00     0.031 A 
ATOM     95  C   UNL A   1      43.820  34.778  26.631  1.00  0.00     0.131 A 
ATOM     96  C   UNL A   1      44.148  37.085  28.052  1.00  0.00     0.055 A 
ATOM     97  C   UNL A   1      43.175  35.951  26.216  1.00  0.00     0.041 A 
ATOM     98  F   UNL A   1      43.553  33.721  25.852  1.00  0.00    -0.206 F 
ATOM     99  C   UNL A   1      43.341  37.124  26.928  1.00  0.00     0.022 A 
BRANCH  96 100
ATOM    100  S   UNL A   1      44.382  38.544  29.093  1.00  0.00     0.124 S 
ATOM    101  O   UNL A   1      43.927  38.060  30.393  1.00  0.00    -0.237 OA
ATOM    102  O   UNL A   1      45.820  38.775  28.977  1.00  0.00    -0.237 OA
ATOM    103  O   UNL A   1      43.535  39.554  28.466  1.00  0.00    -0.744 OA
ENDBRANCH  96 100
ENDBRANCH  70  93
ENDBRANCH  44  45
ENDBRANCH  37  39
ENDBRANCH  36  37
ENDBRANCH  35  36
ENDBRANCH  34  35
ENDBRANCH  33  34
ENDBRANCH  32  33
ENDBRANCH  31  32
ENDBRANCH  30  31
ENDBRANCH   1  30
TORSDOF 27
ENDMDL
MODEL 2
REMARK VINA RESULT:      -9.8      1.642      2.326
REMARK SMILES Cc1cccc(OCC(=O)Nc2cc(C(=O)OCCOCCOCCOCCOC(=O)c3ccc(-c4c5nc(c(-c6cc(S(=O)(=O)[O-])ccc6F)c6ccc([nH]6)c(-c6cc(S(=O)(=O)[O-])ccc6F)c6nc(c(-c7cc(S(=O)(=O)[O-])ccc7F)c7ccc4[nH]7)C=C6)C=C5)cc3)c(Cl)cc2Cl)c1
REMARK SMILES IDX 22 1 21 2 20 3 19 4 18 5 17 6 15 7 16 8 14 9 12 10 13 11
REMARK SMILES IDX 98 12 97 13 99 14 95 15 96 16 11 17 9 18 10 19 8 21 7 22
REMARK SMILES IDX 6 23 1 24 2 25 3 26 100 27 4 28 5 29 23 30 24 31 25 32 26 33
REMARK SMILES IDX 27 34 28 35 29 36 30 37 31 38 32 39 33 40 94 41 34 42 93 43
REMARK SMILES IDX 35 44 36 45 37 46 87 47 38 48 92 49 86 50 88 51 39 52 91 53
REMARK SMILES IDX 85 54 84 55 40 57 72 58 52 59 71 60 53 61 56 62 70 63 89 64
REMARK SMILES IDX 54 65 55 66 69 68 90 69 57 70 41 71 42 72 50 73 43 74 49 75
REMARK SMILES IDX 51 76 48 77 44 78 45 79 46 80 47 81 73 82 74 83 82 84 75 85
REMARK SMILES IDX 81 86 83 87 80 88 76 89 77 90 78 91 79 92 58 93 59 94 67 95
REMARK SMILES IDX 60 96 66 97 68 98 65 99 61 100 62 101 63 102 64 103
REMARK H PARENT 11 20 88 56 56 67
REMARK Flexibility Score: inf
ROOT
ATOM      1  C   UNL A   1      43.293  22.832  28.513  1.00  0.00     0.188 C 
ENDROOT
BRANCH   1   2
ATOM      2  C   UNL A   1      44.004  22.591  29.871  1.00  0.00     0.188 C 
BRANCH   2   3
ATOM      3  O   UNL A   1      43.657  23.423  31.267  1.00  0.00    -0.376 OA
BRANCH   3   4
ATOM      4  C   UNL A   1      44.478  23.508  32.802  1.00  0.00     0.202 C 
BRANCH   4   5
ATOM      5  C   UNL A   1      44.269  22.719  34.481  1.00  0.00     0.261 C 
BRANCH   5   6
ATOM      6  O   UNL A   1      44.705  21.000  35.040  1.00  0.00    -0.460 OA
BRANCH   6   7
ATOM      7  C   UNL A   1      45.906  19.937  35.194  1.00  0.00     0.339 C 
ATOM      8  O   UNL A   1      45.589  18.753  35.032  1.00  0.00    -0.246 OA
BRANCH   7   9
ATOM      9  C   UNL A   1      47.606  20.166  35.558  1.00  0.00     0.080 A 
ATOM     10  C   UNL A   1      49.627  20.619  37.178  1.00  0.00     0.061 A 
ATOM     11  C   UNL A   1      48.273  20.642  36.791  1.00  0.00     0.045 A 
ATOM     12  C   UNL A   1      50.472  20.475  36.089  1.00  0.00     0.066 A 
ATOM     13  C   UNL A   1      49.951  20.224  34.802  1.00  0.00     0.044 A 
ATOM     14  Cl  UNL A   1      52.180  20.713  36.256  1.00  0.00    -0.082 Cl
ATOM     15  C   UNL A   1      48.558  20.030  34.542  1.00  0.00     0.057 A 
ATOM     16  Cl  UNL A   1      48.191  19.751  32.878  1.00  0.00    -0.083 Cl
BRANCH  10  17
ATOM     17  N   UNL A   1      50.166  21.037  38.449  1.00  0.00    -0.322 N 
ATOM     18  C   UNL A   1      49.932  21.078  39.810  1.00  0.00     0.262 C 
ATOM     19  O   UNL A   1      50.646  21.907  40.408  1.00  0.00    -0.271 OA
ATOM     20  H   UNL A   1      51.042  21.455  38.281  1.00  0.00     0.170 HD
BRANCH  18  21
ATOM     21  C   UNL A   1      49.201  20.013  40.711  1.00  0.00     0.329 C 
BRANCH  21  22
ATOM     22  O   UNL A   1      48.869  18.651  40.459  1.00  0.00    -0.484 OA
BRANCH  22  23
ATOM     23  C   UNL A   1      47.622  18.097  40.392  1.00  0.00     0.120 A 
ATOM     24  C   UNL A   1      44.611  17.187  38.244  1.00  0.00     0.044 C 
ATOM     25  C   UNL A   1      45.588  17.240  39.378  1.00  0.00    -0.047 A 
ATOM     26  C   UNL A   1      45.378  16.370  40.457  1.00  0.00     0.003 A 
ATOM     27  C   UNL A   1      46.731  18.082  39.335  1.00  0.00     0.049 A 
ATOM     28  C   UNL A   1      46.186  16.469  41.567  1.00  0.00     0.004 A 
ATOM     29  C   UNL A   1      47.249  17.375  41.539  1.00  0.00     0.046 A 
ENDBRANCH  22  23
ENDBRANCH  21  22
ENDBRANCH  18  21
ENDBRANCH  10  17
ENDBRANCH   7   9
ENDBRANCH   6   7
ENDBRANCH   5   6
ENDBRANCH   4   5
ENDBRANCH   3   4
ENDBRANCH   2   3
ENDBRANCH   1   2
BRANCH   1  30
ATOM     30  O   UNL A   1      42.035  22.183  28.382  1.00  0.00    -0.377 OA
BRANCH  30  31
ATOM     31  C   UNL A   1      41.475  22.382  27.094  1.00  0.00     0.188 C 
BRANCH  31  32
ATOM     32  C   UNL A   1      42.397  21.898  25.995  1.00  0.00     0.188 C 
BRANCH  32  33
ATOM     33  O   UNL A   1      42.782  22.943  25.096  1.00  0.00    -0.376 OA
BRANCH  33  34
ATOM     34  C   UNL A   1      42.992  24.223  25.648  1.00  0.00     0.202 C 
BRANCH  34  35
ATOM     35  C   UNL A   1      44.180  24.921  24.982  1.00  0.00     0.261 C 
BRANCH  35  36
ATOM     36  O   UNL A   1      45.004  23.918  24.332  1.00  0.00    -0.460 OA
BRANCH  36  37
ATOM     37  C   UNL A   1      45.846  23.213  25.129  1.00  0.00     0.338 C 
ATOM     38  O   UNL A   1      45.882  21.972  25.183  1.00  0.00    -0.246 OA
BRANCH  37  39
ATOM     39  C   UNL A   1      46.570  24.117  26.082  1.00  0.00     0.060 A 
ATOM     40  C   UNL A   1      46.539  23.878  27.449  1.00  0.00     0.016 A 
ATOM     41  C   UNL A   1      47.038  25.368  25.665  1.00  0.00     0.016 A 
ATOM     42  C   UNL A   1      46.781  24.950  28.337  1.00  0.00     0.010 A 
ATOM     43  C   UNL A   1      47.057  26.465  26.556  1.00  0.00     0.010 A 
ATOM     44  C   UNL A   1      46.747  26.312  27.915  1.00  0.00    -0.014 A 
BRANCH  44  45
ATOM     45  C   UNL A   1      46.518  27.689  28.910  1.00  0.00     0.031 A 
ATOM     46  C   UNL A   1      44.792  27.769  28.478  1.00  0.00     0.074 A 
ATOM     47  C   UNL A   1      47.563  28.850  29.600  1.00  0.00     0.049 A 
ATOM     48  N   UNL A   1      44.171  28.835  28.031  1.00  0.00    -0.248 NA
ATOM     49  C   UNL A   1      43.876  26.630  28.235  1.00  0.00     0.031 C 
ATOM     50  C   UNL A   1      47.394  30.454  30.144  1.00  0.00     0.029 A 
ATOM     51  N   UNL A   1      49.074  29.142  29.577  1.00  0.00    -0.354 N 
ATOM     52  C   UNL A   1      42.847  28.670  28.165  1.00  0.00     0.074 A 
ATOM     53  C   UNL A   1      42.713  27.252  27.962  1.00  0.00     0.031 C 
ATOM     54  C   UNL A   1      48.486  31.201  30.244  1.00  0.00     0.029 A 
ATOM     55  C   UNL A   1      49.424  30.523  29.467  1.00  0.00     0.049 A 
ATOM     56  H   UNL A   1      49.751  28.429  29.634  1.00  0.00     0.167 HD
ATOM     57  C   UNL A   1      42.100  29.694  28.682  1.00  0.00     0.034 A 
ATOM     58  C   UNL A   1      49.937  31.190  28.387  1.00  0.00     0.034 A 
ATOM     59  C   UNL A   1      42.917  30.888  29.116  1.00  0.00     0.049 A 
ATOM     60  C   UNL A   1      48.862  32.309  27.930  1.00  0.00     0.074 A 
ATOM     61  C   UNL A   1      43.217  31.399  30.376  1.00  0.00     0.029 A 
ATOM     62  N   UNL A   1      43.789  31.589  28.243  1.00  0.00    -0.354 N 
ATOM     63  N   UNL A   1      47.557  32.182  28.118  1.00  0.00    -0.248 NA
ATOM     64  C   UNL A   1      49.143  33.678  27.532  1.00  0.00     0.031 C 
ATOM     65  C   UNL A   1      44.263  32.373  30.259  1.00  0.00     0.029 A 
ATOM     66  C   UNL A   1      44.649  32.482  28.922  1.00  0.00     0.049 A 
ATOM     67  H   UNL A   1      43.795  31.465  27.267  1.00  0.00     0.167 HD
ATOM     68  C   UNL A   1      46.850  33.362  28.011  1.00  0.00     0.074 A 
ATOM     69  C   UNL A   1      47.941  34.273  27.671  1.00  0.00     0.031 C 
ATOM     70  C   UNL A   1      45.476  33.523  28.227  1.00  0.00     0.034 A 
BRANCH  57  71
ATOM     71  C   UNL A   1      40.699  29.363  29.183  1.00  0.00     0.023 A 
ATOM     72  C   UNL A   1      40.390  29.359  30.555  1.00  0.00     0.031 A 
ATOM     73  C   UNL A   1      39.636  28.985  28.330  1.00  0.00     0.131 A 
ATOM     74  C   UNL A   1      39.153  28.871  31.028  1.00  0.00     0.055 A 
ATOM     75  C   UNL A   1      38.434  28.436  28.796  1.00  0.00     0.041 A 
ATOM     76  F   UNL A   1      39.705  29.178  27.004  1.00  0.00    -0.206 F 
ATOM     77  C   UNL A   1      38.193  28.362  30.157  1.00  0.00     0.022 A 
BRANCH  74  78
ATOM     78  S   UNL A   1      38.785  28.949  32.803  1.00  0.00     0.124 S 
ATOM     79  O   UNL A   1      39.853  28.139  33.380  1.00  0.00    -0.237 OA
ATOM     80  O   UNL A   1      38.846  30.382  33.072  1.00  0.00    -0.237 OA
ATOM     81  O   UNL A   1      37.448  28.365  32.900  1.00  0.00    -0.744 OA
ENDBRANCH  74  78
ENDBRANCH  57  71
BRANCH  58  82
ATOM     82  C   UNL A   1      50.957  30.383  27.614  1.00  0.00     0.023 A 
ATOM     83  C   UNL A   1      50.520  29.638  26.473  1.00  0.00     0.031 A 
ATOM     84  C   UNL A   1      52.339  30.518  27.771  1.00  0.00     0.131 A 
ATOM     85  C   UNL A   1      51.422  29.156  25.508  1.00  0.00     0.055 A 
ATOM     86  C   UNL A   1      53.235  30.098  26.771  1.00  0.00     0.041 A 
ATOM     87  F   UNL A   1      52.835  31.202  28.812  1.00  0.00    -0.206 F 
ATOM     88  C   UNL A   1      52.778  29.445  25.624  1.00  0.00     0.022 A 
BRANCH  85  89
ATOM     89  S   UNL A   1      50.824  28.272  24.026  1.00  0.00     0.124 S 
ATOM     90  O   UNL A   1      50.974  29.278  22.981  1.00  0.00    -0.237 OA
ATOM     91  O   UNL A   1      51.718  27.123  23.942  1.00  0.00    -0.237 OA
ATOM     92  O   UNL A   1      49.438  27.949  24.370  1.00  0.00    -0.744 OA
ENDBRANCH  85  89
ENDBRANCH  58  82
BRANCH  70  93
ATOM     93  C   UNL A   1      44.683  34.799  27.874  1.00  0.00     0.023 A 
ATOM     94  C   UNL A   1      44.745  35.979  28.614  1.00  0.00     0.031 A 
ATOM     95  C   UNL A   1      43.866  34.895  26.712  1.00  0.00     0.131 A 
ATOM     96  C   UNL A   1      44.065  37.149  28.238  1.00  0.00     0.055 A 
ATOM     97  C   UNL A   1      43.217  36.069  26.308  1.00  0.00     0.041 A 
ATOM     98  F   UNL A   1      43.665  33.865  25.880  1.00  0.00    -0.206 F 
ATOM     99  C   UNL A   1      43.319  37.216  27.073  1.00  0.00     0.022 A 
BRANCH  96 100
ATOM    100  S   UNL A   1      44.209  38.570  29.346  1.00  0.00     0.124 S 
ATOM    101  O   UNL A   1      45.625  38.905  29.218  1.00  0.00    -0.237 OA
ATOM    102  O   UNL A   1      43.282  39.525  28.740  1.00  0.00    -0.237 OA
ATOM    103  O   UNL A   1      43.802  38.040  30.643  1.00  0.00    -0.744 OA
ENDBRANCH  96 100
ENDBRANCH  70  93
ENDBRANCH  44  45
ENDBRANCH  37  39
ENDBRANCH  36  37
ENDBRANCH  35  36
ENDBRANCH  34  35
ENDBRANCH  33  34
ENDBRANCH  32  33
ENDBRANCH  31  32
ENDBRANCH  30  31
ENDBRANCH   1  30
TORSDOF 27
ENDMDL
MODEL 3
REMARK VINA RESULT:      -9.4      5.334     12.103
REMARK SMILES Cc1cccc(OCC(=O)Nc2cc(C(=O)OCCOCCOCCOCCOC(=O)c3ccc(-c4c5nc(c(-c6cc(S(=O)(=O)[O-])ccc6F)c6ccc([nH]6)c(-c6cc(S(=O)(=O)[O-])ccc6F)c6nc(c(-c7cc(S(=O)(=O)[O-])ccc7F)c7ccc4[nH]7)C=C6)C=C5)cc3)c(Cl)cc2Cl)c1
REMARK SMILES IDX 22 1 21 2 20 3 19 4 18 5 17 6 15 7 16 8 14 9 12 10 13 11
REMARK SMILES IDX 98 12 97 13 99 14 95 15 96 16 11 17 9 18 10 19 8 21 7 22
REMARK SMILES IDX 6 23 1 24 2 25 3 26 100 27 4 28 5 29 23 30 24 31 25 32 26 33
REMARK SMILES IDX 27 34 28 35 29 36 30 37 31 38 32 39 33 40 94 41 34 42 93 43
REMARK SMILES IDX 35 44 36 45 37 46 87 47 38 48 92 49 86 50 88 51 39 52 91 53
REMARK SMILES IDX 85 54 84 55 40 57 72 58 52 59 71 60 53 61 56 62 70 63 89 64
REMARK SMILES IDX 54 65 55 66 69 68 90 69 57 70 41 71 42 72 50 73 43 74 49 75
REMARK SMILES IDX 51 76 48 77 44 78 45 79 46 80 47 81 73 82 74 83 82 84 75 85
REMARK SMILES IDX 81 86 83 87 80 88 76 89 77 90 78 91 79 92 58 93 59 94 67 95
REMARK SMILES IDX 60 96 66 97 68 98 65 99 61 100 62 101 63 102 64 103
REMARK H PARENT 11 20 88 56 56 67
REMARK Flexibility Score: inf
ROOT
ATOM      1  C   UNL A   1      47.051  29.984  40.217  1.00  0.00     0.188 C 
ENDROOT
BRANCH   1   2
ATOM      2  C   UNL A   1      46.944  30.558  38.779  1.00  0.00     0.188 C 
BRANCH   2   3
ATOM      3  O   UNL A   1      47.778  29.962  37.471  1.00  0.00    -0.376 OA
BRANCH   3   4
ATOM      4  C   UNL A   1      47.272  28.985  36.120  1.00  0.00     0.202 C 
BRANCH   4   5
ATOM      5  C   UNL A   1      47.076  29.237  34.281  1.00  0.00     0.261 C 
BRANCH   5   6
ATOM      6  O   UNL A   1      46.147  30.561  33.363  1.00  0.00    -0.460 OA
BRANCH   6   7
ATOM      7  C   UNL A   1      46.296  31.949  32.560  1.00  0.00     0.339 C 
ATOM      8  O   UNL A   1      47.331  32.585  32.789  1.00  0.00    -0.246 OA
BRANCH   7   9
ATOM      9  C   UNL A   1      45.233  32.729  31.403  1.00  0.00     0.080 A 
ATOM     10  C   UNL A   1      44.176  33.044  29.016  1.00  0.00     0.061 A 
ATOM     11  C   UNL A   1      45.154  32.607  29.930  1.00  0.00     0.045 A 
ATOM     12  C   UNL A   1      43.383  34.047  29.551  1.00  0.00     0.066 A 
ATOM     13  C   UNL A   1      43.503  34.414  30.907  1.00  0.00     0.044 A 
ATOM     14  Cl  UNL A   1      42.307  34.956  28.542  1.00  0.00    -0.082 Cl
ATOM     15  C   UNL A   1      44.372  33.748  31.827  1.00  0.00     0.057 A 
ATOM     16  Cl  UNL A   1      44.335  34.405  33.424  1.00  0.00    -0.083 Cl
BRANCH  10  17
ATOM     17  N   UNL A   1      44.154  32.798  27.596  1.00  0.00    -0.322 N 
ATOM     18  C   UNL A   1      44.520  33.301  26.361  1.00  0.00     0.262 C 
ATOM     19  O   UNL A   1      43.905  32.774  25.413  1.00  0.00    -0.271 OA
ATOM     20  H   UNL A   1      43.704  31.935  27.447  1.00  0.00     0.170 HD
BRANCH  18  21
ATOM     21  C   UNL A   1      45.807  34.126  25.983  1.00  0.00     0.329 C 
BRANCH  21  22
ATOM     22  O   UNL A   1      47.167  33.959  26.367  1.00  0.00    -0.484 OA
BRANCH  22  23
ATOM     23  C   UNL A   1      47.735  32.874  26.973  1.00  0.00     0.120 A 
ATOM     24  C   UNL A   1      48.065  29.084  27.144  1.00  0.00     0.044 C 
ATOM     25  C   UNL A   1      48.327  30.546  27.332  1.00  0.00    -0.047 A 
ATOM     26  C   UNL A   1      49.507  30.914  27.994  1.00  0.00     0.003 A 
ATOM     27  C   UNL A   1      47.457  31.532  26.794  1.00  0.00     0.049 A 
ATOM     28  C   UNL A   1      49.726  32.241  28.287  1.00  0.00     0.004 A 
ATOM     29  C   UNL A   1      48.805  33.186  27.830  1.00  0.00     0.046 A 
ENDBRANCH  22  23
ENDBRANCH  21  22
ENDBRANCH  18  21
ENDBRANCH  10  17
ENDBRANCH   7   9
ENDBRANCH   6   7
ENDBRANCH   5   6
ENDBRANCH   4   5
ENDBRANCH   3   4
ENDBRANCH   2   3
ENDBRANCH   1   2
BRANCH   1  30
ATOM     30  O   UNL A   1      45.936  29.204  40.626  1.00  0.00    -0.377 OA
BRANCH  30  31
ATOM     31  C   UNL A   1      46.086  27.843  40.260  1.00  0.00     0.188 C 
BRANCH  31  32
ATOM     32  C   UNL A   1      45.055  26.959  40.929  1.00  0.00     0.188 C 
BRANCH  32  33
ATOM     33  O   UNL A   1      44.954  25.669  40.319  1.00  0.00    -0.376 OA
BRANCH  33  34
ATOM     34  C   UNL A   1      44.703  25.628  38.933  1.00  0.00     0.202 C 
BRANCH  34  35
ATOM     35  C   UNL A   1      45.402  24.433  38.281  1.00  0.00     0.261 C 
BRANCH  35  36
ATOM     36  O   UNL A   1      44.645  24.036  37.106  1.00  0.00    -0.460 OA
BRANCH  36  37
ATOM     37  C   UNL A   1      45.276  23.223  36.223  1.00  0.00     0.338 C 
ATOM     38  O   UNL A   1      45.804  22.140  36.525  1.00  0.00    -0.246 OA
BRANCH  37  39
ATOM     39  C   UNL A   1      45.438  23.895  34.891  1.00  0.00     0.060 A 
ATOM     40  C   UNL A   1      46.459  24.812  34.679  1.00  0.00     0.016 A 
ATOM     41  C   UNL A   1      44.415  23.847  33.938  1.00  0.00     0.016 A 
ATOM     42  C   UNL A   1      46.315  25.767  33.649  1.00  0.00     0.010 A 
ATOM     43  C   UNL A   1      44.190  24.937  33.066  1.00  0.00     0.010 A 
ATOM     44  C   UNL A   1      45.060  26.036  33.026  1.00  0.00    -0.014 A 
BRANCH  44  45
ATOM     45  C   UNL A   1      44.624  27.453  32.165  1.00  0.00     0.031 A 
ATOM     46  C   UNL A   1      43.614  28.019  33.518  1.00  0.00     0.074 A 
ATOM     47  C   UNL A   1      44.665  27.908  30.520  1.00  0.00     0.049 A 
ATOM     48  N   UNL A   1      42.362  28.397  33.422  1.00  0.00    -0.248 NA
ATOM     49  C   UNL A   1      43.881  27.852  34.966  1.00  0.00     0.031 C 
ATOM     50  C   UNL A   1      43.824  29.034  29.558  1.00  0.00     0.029 A 
ATOM     51  N   UNL A   1      45.058  27.243  29.189  1.00  0.00    -0.354 N 
ATOM     52  C   UNL A   1      42.024  29.104  34.511  1.00  0.00     0.074 A 
ATOM     53  C   UNL A   1      42.821  28.467  35.525  1.00  0.00     0.031 C 
ATOM     54  C   UNL A   1      43.811  28.850  28.244  1.00  0.00     0.029 A 
ATOM     55  C   UNL A   1      44.183  27.516  28.092  1.00  0.00     0.049 A 
ATOM     56  H   UNL A   1      45.854  26.671  29.099  1.00  0.00     0.167 HD
ATOM     57  C   UNL A   1      41.333  30.275  34.353  1.00  0.00     0.034 A 
ATOM     58  C   UNL A   1      43.277  26.680  27.495  1.00  0.00     0.034 A 
ATOM     59  C   UNL A   1      41.103  30.661  32.911  1.00  0.00     0.049 A 
ATOM     60  C   UNL A   1      41.800  27.301  27.715  1.00  0.00     0.074 A 
ATOM     61  C   UNL A   1      41.636  31.681  32.127  1.00  0.00     0.029 A 
ATOM     62  N   UNL A   1      40.445  29.818  31.979  1.00  0.00    -0.354 N 
ATOM     63  N   UNL A   1      41.476  28.054  28.756  1.00  0.00    -0.248 NA
ATOM     64  C   UNL A   1      40.732  27.380  26.734  1.00  0.00     0.031 C 
ATOM     65  C   UNL A   1      41.316  31.440  30.750  1.00  0.00     0.029 A 
ATOM     66  C   UNL A   1      40.587  30.255  30.642  1.00  0.00     0.049 A 
ATOM     67  H   UNL A   1      39.941  29.013  32.236  1.00  0.00     0.167 HD
ATOM     68  C   UNL A   1      40.317  28.783  28.591  1.00  0.00     0.074 A 
ATOM     69  C   UNL A   1      39.924  28.323  27.260  1.00  0.00     0.031 C 
ATOM     70  C   UNL A   1      39.785  29.704  29.502  1.00  0.00     0.034 A 
BRANCH  57  71
ATOM     71  C   UNL A   1      41.300  31.240  35.533  1.00  0.00     0.023 A 
ATOM     72  C   UNL A   1      40.114  31.484  36.250  1.00  0.00     0.031 A 
ATOM     73  C   UNL A   1      42.419  31.993  35.955  1.00  0.00     0.131 A 
ATOM     74  C   UNL A   1      40.038  32.512  37.214  1.00  0.00     0.055 A 
ATOM     75  C   UNL A   1      42.331  33.059  36.861  1.00  0.00     0.041 A 
ATOM     76  F   UNL A   1      43.658  31.694  35.537  1.00  0.00    -0.206 F 
ATOM     77  C   UNL A   1      41.128  33.334  37.486  1.00  0.00     0.022 A 
BRANCH  74  78
ATOM     78  S   UNL A   1      38.501  32.739  38.152  1.00  0.00     0.124 S 
ATOM     79  O   UNL A   1      37.515  32.079  37.303  1.00  0.00    -0.237 OA
ATOM     80  O   UNL A   1      38.807  32.079  39.417  1.00  0.00    -0.237 OA
ATOM     81  O   UNL A   1      38.366  34.193  38.239  1.00  0.00    -0.744 OA
ENDBRANCH  74  78
ENDBRANCH  57  71
BRANCH  58  82
ATOM     82  C   UNL A   1      43.774  25.258  27.358  1.00  0.00     0.023 A 
ATOM     83  C   UNL A   1      44.400  24.866  26.132  1.00  0.00     0.031 A 
ATOM     84  C   UNL A   1      43.906  24.371  28.430  1.00  0.00     0.131 A 
ATOM     85  C   UNL A   1      45.189  23.706  26.037  1.00  0.00     0.055 A 
ATOM     86  C   UNL A   1      44.753  23.251  28.354  1.00  0.00     0.041 A 
ATOM     87  F   UNL A   1      43.352  24.661  29.616  1.00  0.00    -0.206 F 
ATOM     88  C   UNL A   1      45.420  22.932  27.170  1.00  0.00     0.022 A 
BRANCH  85  89
ATOM     89  S   UNL A   1      46.034  23.274  24.476  1.00  0.00     0.124 S 
ATOM     90  O   UNL A   1      46.783  22.079  24.847  1.00  0.00    -0.237 OA
ATOM     91  O   UNL A   1      44.928  23.074  23.546  1.00  0.00    -0.237 OA
ATOM     92  O   UNL A   1      46.858  24.454  24.207  1.00  0.00    -0.744 OA
ENDBRANCH  85  89
ENDBRANCH  58  82
BRANCH  70  93
ATOM     93  C   UNL A   1      38.375  30.324  29.389  1.00  0.00     0.023 A 
ATOM     94  C   UNL A   1      37.746  31.010  30.427  1.00  0.00     0.031 A 
ATOM     95  C   UNL A   1      37.624  30.300  28.180  1.00  0.00     0.131 A 
ATOM     96  C   UNL A   1      36.490  31.622  30.282  1.00  0.00     0.055 A 
ATOM     97  C   UNL A   1      36.389  30.942  28.016  1.00  0.00     0.041 A 
ATOM     98  F   UNL A   1      38.049  29.676  27.074  1.00  0.00    -0.206 F 
ATOM     99  C   UNL A   1      35.812  31.618  29.074  1.00  0.00     0.022 A 
BRANCH  96 100
ATOM    100  S   UNL A   1      35.795  32.420  31.747  1.00  0.00     0.124 S 
ATOM    101  O   UNL A   1      34.396  32.582  31.364  1.00  0.00    -0.237 OA
ATOM    102  O   UNL A   1      36.050  31.425  32.787  1.00  0.00    -0.237 OA
ATOM    103  O   UNL A   1      36.563  33.656  31.864  1.00  0.00    -0.744 OA
ENDBRANCH  96 100
ENDBRANCH  70  93
ENDBRANCH  44  45
ENDBRANCH  37  39
ENDBRANCH  36  37
ENDBRANCH  35  36
ENDBRANCH  34  35
ENDBRANCH  33  34
ENDBRANCH  32  33
ENDBRANCH  31  32
ENDBRANCH  30  31
ENDBRANCH   1  30
TORSDOF 27
ENDMDL
