MODEL 1
REMARK VINA RESULT:      -9.0      0.000      0.000
REMARK SMILES O=CN[C@@H](CCS[C@@H]1CCO[C@]2(CCOC2)C1)C(=O)OCCOCCOCCOCCOC(=O)c1ccc(-c2c3nc(c(-c4cc(S(=O)(=O)[O-])ccc4F)c4ccc([nH]4)c(-c4cc(S(=O)(=O)[O-])ccc4F)c4nc(c(-c5cc(S(=O)(=O)[O-])ccc5F)c5ccc2[nH]5)C=C4)C=C3)cc1
REMARK SMILES IDX 25 1 24 2 23 3 22 4 21 5 20 6 18 7 19 8 4 9 3 10 1 11 2 12
REMARK SMILES IDX 5 14 6 15 7 16 8 17 9 18 17 19 10 20 12 21 11 22 13 23 16 24
REMARK SMILES IDX 14 25 15 26 26 27 27 28 28 29 29 30 30 31 31 32 32 33 33 34
REMARK SMILES IDX 34 35 35 36 36 37 97 38 37 39 96 40 38 41 39 42 40 43 90 44
REMARK SMILES IDX 41 45 95 46 89 47 91 48 42 49 94 50 88 51 87 52 43 54 75 55
REMARK SMILES IDX 55 56 74 57 56 58 59 59 73 60 92 61 57 62 58 63 72 65 93 66
REMARK SMILES IDX 60 67 44 68 45 69 53 70 46 71 52 72 54 73 51 74 47 75 48 76
REMARK SMILES IDX 49 77 50 78 76 79 77 80 85 81 78 82 84 83 86 84 83 85 79 86
REMARK SMILES IDX 80 87 81 88 82 89 61 90 62 91 70 92 63 93 69 94 71 95 68 96
REMARK SMILES IDX 64 97 65 98 66 99 67 100
REMARK H PARENT 3 13 91 53 59 64
REMARK Flexibility Score: inf
ROOT
ATOM      1  C   UNL A   1      31.703  24.463  26.547  1.00  0.00     0.188 C 
ENDROOT
BRANCH   1   2
ATOM      2  C   UNL A   1      33.187  24.049  26.493  1.00  0.00     0.188 C 
BRANCH   2   3
ATOM      3  O   UNL A   1      33.553  22.685  26.703  1.00  0.00    -0.376 OA
BRANCH   3   4
ATOM      4  C   UNL A   1      33.734  21.834  25.577  1.00  0.00     0.202 C 
BRANCH   4   5
ATOM      5  C   UNL A   1      33.812  22.504  24.207  1.00  0.00     0.261 C 
BRANCH   5   6
ATOM      6  O   UNL A   1      32.676  22.221  23.365  1.00  0.00    -0.462 OA
BRANCH   6   7
ATOM      7  C   UNL A   1      31.826  23.250  23.138  1.00  0.00     0.328 C 
ATOM      8  O   UNL A   1      30.614  23.210  23.326  1.00  0.00    -0.250 OA
BRANCH   7   9
ATOM      9  C   UNL A   1      32.501  24.469  22.491  1.00  0.00     0.192 C 
BRANCH   9  10
ATOM     10  N   UNL A   1      32.928  24.456  21.079  1.00  0.00    -0.345 N 
ATOM     11  O   UNL A   1      33.087  25.280  18.989  1.00  0.00    -0.279 OA
ATOM     12  C   UNL A   1      32.698  25.412  20.141  1.00  0.00     0.337 C 
ATOM     13  H   UNL A   1      33.438  23.667  20.784  1.00  0.00     0.164 HD
ENDBRANCH   9  10
BRANCH   9  14
ATOM     14  C   UNL A   1      31.828  25.791  22.912  1.00  0.00     0.048 C 
BRANCH  14  15
ATOM     15  C   UNL A   1      31.246  26.938  22.026  1.00  0.00     0.072 C 
BRANCH  15  16
ATOM     16  S   UNL A   1      31.104  28.767  22.216  1.00  0.00    -0.158 SA
BRANCH  16  17
ATOM     17  C   UNL A   1      29.980  29.143  23.651  1.00  0.00     0.052 C 
ATOM     18  C   UNL A   1      28.843  28.181  23.818  1.00  0.00     0.043 C 
ATOM     19  C   UNL A   1      29.432  30.564  23.827  1.00  0.00     0.052 C 
ATOM     20  C   UNL A   1      27.659  28.472  22.933  1.00  0.00     0.162 C 
ATOM     21  C   UNL A   1      28.101  30.822  23.090  1.00  0.00     0.095 C 
ATOM     22  O   UNL A   1      27.159  29.755  23.238  1.00  0.00    -0.372 OA
ATOM     23  C   UNL A   1      28.340  31.221  21.643  1.00  0.00     0.066 C 
ATOM     24  C   UNL A   1      27.400  32.072  23.621  1.00  0.00     0.195 C 
ATOM     25  C   UNL A   1      28.502  32.732  21.707  1.00  0.00     0.163 C 
ATOM     26  O   UNL A   1      28.002  33.183  22.966  1.00  0.00    -0.378 OA
ENDBRANCH  16  17
ENDBRANCH  15  16
ENDBRANCH  14  15
ENDBRANCH   9  14
ENDBRANCH   7   9
ENDBRANCH   6   7
ENDBRANCH   5   6
ENDBRANCH   4   5
ENDBRANCH   3   4
ENDBRANCH   2   3
ENDBRANCH   1   2
BRANCH   1  27
ATOM     27  O   UNL A   1      31.452  25.713  27.162  1.00  0.00    -0.377 OA
BRANCH  27  28
ATOM     28  C   UNL A   1      31.628  26.858  26.336  1.00  0.00     0.188 C 
BRANCH  28  29
ATOM     29  C   UNL A   1      32.657  27.891  26.823  1.00  0.00     0.188 C 
BRANCH  29  30
ATOM     30  O   UNL A   1      32.045  29.027  27.422  1.00  0.00    -0.376 OA
BRANCH  30  31
ATOM     31  C   UNL A   1      32.094  30.282  26.765  1.00  0.00     0.202 C 
BRANCH  31  32
ATOM     32  C   UNL A   1      33.284  31.218  27.031  1.00  0.00     0.261 C 
BRANCH  32  33
ATOM     33  O   UNL A   1      33.044  32.402  27.800  1.00  0.00    -0.460 OA
BRANCH  33  34
ATOM     34  C   UNL A   1      33.993  33.367  27.796  1.00  0.00     0.338 C 
ATOM     35  O   UNL A   1      33.913  34.466  27.302  1.00  0.00    -0.246 OA
BRANCH  34  36
ATOM     36  C   UNL A   1      35.096  32.884  28.661  1.00  0.00     0.060 A 
ATOM     37  C   UNL A   1      36.423  33.202  28.339  1.00  0.00     0.016 A 
ATOM     38  C   UNL A   1      34.807  32.112  29.786  1.00  0.00     0.016 A 
ATOM     39  C   UNL A   1      37.470  32.709  29.124  1.00  0.00     0.010 A 
ATOM     40  C   UNL A   1      35.853  31.599  30.553  1.00  0.00     0.010 A 
ATOM     41  C   UNL A   1      37.191  31.862  30.203  1.00  0.00    -0.014 A 
BRANCH  41  42
ATOM     42  C   UNL A   1      38.257  31.025  30.812  1.00  0.00     0.031 A 
ATOM     43  C   UNL A   1      38.695  31.377  32.208  1.00  0.00     0.074 A 
ATOM     44  C   UNL A   1      38.849  30.018  30.148  1.00  0.00     0.049 A 
ATOM     45  N   UNL A   1      39.728  30.958  32.890  1.00  0.00    -0.248 NA
ATOM     46  C   UNL A   1      37.854  32.351  32.923  1.00  0.00     0.031 C 
ATOM     47  C   UNL A   1      38.469  29.536  28.823  1.00  0.00     0.029 A 
ATOM     48  N   UNL A   1      39.924  29.235  30.497  1.00  0.00    -0.354 N 
ATOM     49  C   UNL A   1      39.671  31.629  34.108  1.00  0.00     0.074 A 
ATOM     50  C   UNL A   1      38.522  32.506  34.055  1.00  0.00     0.031 C 
ATOM     51  C   UNL A   1      39.316  28.556  28.458  1.00  0.00     0.029 A 
ATOM     52  C   UNL A   1      40.327  28.376  29.500  1.00  0.00     0.049 A 
ATOM     53  H   UNL A   1      40.363  29.284  31.376  1.00  0.00     0.167 HD
ATOM     54  C   UNL A   1      40.500  31.520  35.174  1.00  0.00     0.034 A 
ATOM     55  C   UNL A   1      41.413  27.577  29.427  1.00  0.00     0.034 A 
ATOM     56  C   UNL A   1      41.654  30.659  35.201  1.00  0.00     0.049 A 
ATOM     57  C   UNL A   1      42.399  27.563  30.578  1.00  0.00     0.074 A 
ATOM     58  C   UNL A   1      42.579  30.488  36.216  1.00  0.00     0.029 A 
ATOM     59  N   UNL A   1      42.047  29.827  34.160  1.00  0.00    -0.354 N 
ATOM     60  N   UNL A   1      42.359  28.227  31.711  1.00  0.00    -0.248 NA
ATOM     61  C   UNL A   1      43.578  26.697  30.438  1.00  0.00     0.031 C 
ATOM     62  C   UNL A   1      43.569  29.612  35.761  1.00  0.00     0.029 A 
ATOM     63  C   UNL A   1      43.212  29.160  34.501  1.00  0.00     0.049 A 
ATOM     64  H   UNL A   1      41.569  29.728  33.305  1.00  0.00     0.167 HD
ATOM     65  C   UNL A   1      43.476  27.811  32.437  1.00  0.00     0.074 A 
ATOM     66  C   UNL A   1      44.172  26.848  31.612  1.00  0.00     0.031 C 
ATOM     67  C   UNL A   1      43.882  28.182  33.677  1.00  0.00     0.034 A 
BRANCH  54  68
ATOM     68  C   UNL A   1      40.212  32.397  36.368  1.00  0.00     0.023 A 
ATOM     69  C   UNL A   1      39.240  32.047  37.321  1.00  0.00     0.031 A 
ATOM     70  C   UNL A   1      40.895  33.614  36.540  1.00  0.00     0.131 A 
ATOM     71  C   UNL A   1      38.928  32.935  38.360  1.00  0.00     0.055 A 
ATOM     72  C   UNL A   1      40.642  34.452  37.625  1.00  0.00     0.041 A 
ATOM     73  F   UNL A   1      41.814  34.014  35.646  1.00  0.00    -0.206 F 
ATOM     74  C   UNL A   1      39.642  34.123  38.536  1.00  0.00     0.022 A 
BRANCH  71  75
ATOM     75  S   UNL A   1      37.476  32.587  39.389  1.00  0.00     0.124 S 
ATOM     76  O   UNL A   1      36.387  32.774  38.433  1.00  0.00    -0.237 OA
ATOM     77  O   UNL A   1      37.717  31.214  39.821  1.00  0.00    -0.237 OA
ATOM     78  O   UNL A   1      37.552  33.596  40.441  1.00  0.00    -0.744 OA
ENDBRANCH  71  75
ENDBRANCH  54  68
BRANCH  55  79
ATOM     79  C   UNL A   1      41.676  26.751  28.210  1.00  0.00     0.023 A 
ATOM     80  C   UNL A   1      41.371  25.380  28.189  1.00  0.00     0.031 A 
ATOM     81  C   UNL A   1      42.320  27.297  27.086  1.00  0.00     0.131 A 
ATOM     82  C   UNL A   1      41.766  24.591  27.097  1.00  0.00     0.055 A 
ATOM     83  C   UNL A   1      42.642  26.522  25.969  1.00  0.00     0.041 A 
ATOM     84  F   UNL A   1      42.664  28.594  27.063  1.00  0.00    -0.206 F 
ATOM     85  C   UNL A   1      42.383  25.155  25.979  1.00  0.00     0.022 A 
BRANCH  82  86
ATOM     86  S   UNL A   1      41.583  22.789  27.219  1.00  0.00     0.124 S 
ATOM     87  O   UNL A   1      40.185  22.661  27.616  1.00  0.00    -0.237 OA
ATOM     88  O   UNL A   1      41.908  22.357  25.863  1.00  0.00    -0.237 OA
ATOM     89  O   UNL A   1      42.558  22.415  28.241  1.00  0.00    -0.744 OA
ENDBRANCH  82  86
ENDBRANCH  55  79
BRANCH  67  90
ATOM     90  C   UNL A   1      45.077  27.474  34.271  1.00  0.00     0.023 A 
ATOM     91  C   UNL A   1      44.959  26.287  35.013  1.00  0.00     0.031 A 
ATOM     92  C   UNL A   1      46.367  27.990  34.046  1.00  0.00     0.131 A 
ATOM     93  C   UNL A   1      46.112  25.673  35.531  1.00  0.00     0.055 A 
ATOM     94  C   UNL A   1      47.511  27.344  34.513  1.00  0.00     0.041 A 
ATOM     95  F   UNL A   1      46.536  29.123  33.345  1.00  0.00    -0.206 F 
ATOM     96  C   UNL A   1      47.387  26.182  35.268  1.00  0.00     0.022 A 
BRANCH  93  97
ATOM     97  S   UNL A   1      45.926  24.228  36.613  1.00  0.00     0.124 S 
ATOM     98  O   UNL A   1      44.581  24.417  37.146  1.00  0.00    -0.237 OA
ATOM     99  O   UNL A   1      46.092  23.116  35.682  1.00  0.00    -0.237 OA
ATOM    100  O   UNL A   1      47.006  24.386  37.585  1.00  0.00    -0.744 OA
ENDBRANCH  93  97
ENDBRANCH  67  90
ENDBRANCH  41  42
ENDBRANCH  34  36
ENDBRANCH  33  34
ENDBRANCH  32  33
ENDBRANCH  31  32
ENDBRANCH  30  31
ENDBRANCH  29  30
ENDBRANCH  28  29
ENDBRANCH  27  28
ENDBRANCH   1  27
TORSDOF 28
ENDMDL
MODEL 2
REMARK VINA RESULT:      -8.8      1.048      7.203
REMARK SMILES O=CN[C@@H](CCS[C@@H]1CCO[C@]2(CCOC2)C1)C(=O)OCCOCCOCCOCCOC(=O)c1ccc(-c2c3nc(c(-c4cc(S(=O)(=O)[O-])ccc4F)c4ccc([nH]4)c(-c4cc(S(=O)(=O)[O-])ccc4F)c4nc(c(-c5cc(S(=O)(=O)[O-])ccc5F)c5ccc2[nH]5)C=C4)C=C3)cc1
REMARK SMILES IDX 25 1 24 2 23 3 22 4 21 5 20 6 18 7 19 8 4 9 3 10 1 11 2 12
REMARK SMILES IDX 5 14 6 15 7 16 8 17 9 18 17 19 10 20 12 21 11 22 13 23 16 24
REMARK SMILES IDX 14 25 15 26 26 27 27 28 28 29 29 30 30 31 31 32 32 33 33 34
REMARK SMILES IDX 34 35 35 36 36 37 97 38 37 39 96 40 38 41 39 42 40 43 90 44
REMARK SMILES IDX 41 45 95 46 89 47 91 48 42 49 94 50 88 51 87 52 43 54 75 55
REMARK SMILES IDX 55 56 74 57 56 58 59 59 73 60 92 61 57 62 58 63 72 65 93 66
REMARK SMILES IDX 60 67 44 68 45 69 53 70 46 71 52 72 54 73 51 74 47 75 48 76
REMARK SMILES IDX 49 77 50 78 76 79 77 80 85 81 78 82 84 83 86 84 83 85 79 86
REMARK SMILES IDX 80 87 81 88 82 89 61 90 62 91 70 92 63 93 69 94 71 95 68 96
REMARK SMILES IDX 64 97 65 98 66 99 67 100
REMARK H PARENT 3 13 91 53 59 64
REMARK Flexibility Score: inf
ROOT
ATOM      1  C   UNL A   1      31.747  24.219  26.460  1.00  0.00     0.188 C 
ENDROOT
BRANCH   1   2
ATOM      2  C   UNL A   1      33.232  23.804  26.480  1.00  0.00     0.188 C 
BRANCH   2   3
ATOM      3  O   UNL A   1      33.582  22.421  26.495  1.00  0.00    -0.376 OA
BRANCH   3   4
ATOM      4  C   UNL A   1      34.358  21.890  25.427  1.00  0.00     0.202 C 
BRANCH   4   5
ATOM      5  C   UNL A   1      34.561  22.784  24.206  1.00  0.00     0.261 C 
BRANCH   5   6
ATOM      6  O   UNL A   1      33.736  22.416  23.083  1.00  0.00    -0.462 OA
BRANCH   6   7
ATOM      7  C   UNL A   1      32.574  23.096  22.943  1.00  0.00     0.328 C 
ATOM      8  O   UNL A   1      31.466  22.659  23.241  1.00  0.00    -0.250 OA
BRANCH   7   9
ATOM      9  C   UNL A   1      32.741  24.456  22.246  1.00  0.00     0.192 C 
BRANCH   9  10
ATOM     10  N   UNL A   1      32.956  24.555  20.790  1.00  0.00    -0.345 N 
ATOM     11  O   UNL A   1      32.776  25.522  18.764  1.00  0.00    -0.279 OA
ATOM     12  C   UNL A   1      32.558  25.560  19.967  1.00  0.00     0.337 C 
ATOM     13  H   UNL A   1      33.443  23.810  20.367  1.00  0.00     0.164 HD
ENDBRANCH   9  10
BRANCH   9  14
ATOM     14  C   UNL A   1      31.755  25.508  22.790  1.00  0.00     0.048 C 
BRANCH  14  15
ATOM     15  C   UNL A   1      31.132  26.750  22.078  1.00  0.00     0.072 C 
BRANCH  15  16
ATOM     16  S   UNL A   1      31.184  28.569  22.380  1.00  0.00    -0.158 SA
BRANCH  16  17
ATOM     17  C   UNL A   1      29.950  29.000  23.705  1.00  0.00     0.052 C 
ATOM     18  C   UNL A   1      28.773  28.076  23.781  1.00  0.00     0.043 C 
ATOM     19  C   UNL A   1      29.434  30.440  23.814  1.00  0.00     0.052 C 
ATOM     20  C   UNL A   1      27.682  28.390  22.792  1.00  0.00     0.162 C 
ATOM     21  C   UNL A   1      28.182  30.728  22.959  1.00  0.00     0.095 C 
ATOM     22  O   UNL A   1      27.198  29.692  23.035  1.00  0.00    -0.372 OA
ATOM     23  C   UNL A   1      28.561  31.097  21.535  1.00  0.00     0.066 C 
ATOM     24  C   UNL A   1      27.477  32.005  23.410  1.00  0.00     0.195 C 
ATOM     25  C   UNL A   1      28.765  32.603  21.594  1.00  0.00     0.163 C 
ATOM     26  O   UNL A   1      28.170  33.088  22.799  1.00  0.00    -0.378 OA
ENDBRANCH  16  17
ENDBRANCH  15  16
ENDBRANCH  14  15
ENDBRANCH   9  14
ENDBRANCH   7   9
ENDBRANCH   6   7
ENDBRANCH   5   6
ENDBRANCH   4   5
ENDBRANCH   3   4
ENDBRANCH   2   3
ENDBRANCH   1   2
BRANCH   1  27
ATOM     27  O   UNL A   1      31.458  25.441  27.114  1.00  0.00    -0.377 OA
BRANCH  27  28
ATOM     28  C   UNL A   1      31.177  26.549  26.266  1.00  0.00     0.188 C 
BRANCH  28  29
ATOM     29  C   UNL A   1      32.206  27.691  26.284  1.00  0.00     0.188 C 
BRANCH  29  30
ATOM     30  O   UNL A   1      31.807  28.769  27.121  1.00  0.00    -0.376 OA
BRANCH  30  31
ATOM     31  C   UNL A   1      32.126  30.100  26.755  1.00  0.00     0.202 C 
BRANCH  31  32
ATOM     32  C   UNL A   1      33.562  30.609  26.964  1.00  0.00     0.261 C 
BRANCH  32  33
ATOM     33  O   UNL A   1      33.837  31.362  28.151  1.00  0.00    -0.460 OA
BRANCH  33  34
ATOM     34  C   UNL A   1      34.607  32.469  28.038  1.00  0.00     0.338 C 
ATOM     35  O   UNL A   1      34.319  33.504  27.485  1.00  0.00    -0.246 OA
BRANCH  34  36
ATOM     36  C   UNL A   1      35.813  32.238  28.867  1.00  0.00     0.060 A 
ATOM     37  C   UNL A   1      36.998  32.930  28.582  1.00  0.00     0.016 A 
ATOM     38  C   UNL A   1      35.763  31.327  29.924  1.00  0.00     0.016 A 
ATOM     39  C   UNL A   1      38.153  32.680  29.330  1.00  0.00     0.010 A 
ATOM     40  C   UNL A   1      36.923  31.059  30.653  1.00  0.00     0.010 A 
ATOM     41  C   UNL A   1      38.132  31.704  30.334  1.00  0.00    -0.014 A 
BRANCH  41  42
ATOM     42  C   UNL A   1      39.395  31.144  30.879  1.00  0.00     0.031 A 
ATOM     43  C   UNL A   1      40.026  30.003  30.127  1.00  0.00     0.074 A 
ATOM     44  C   UNL A   1      39.949  31.594  32.019  1.00  0.00     0.049 A 
ATOM     45  N   UNL A   1      40.995  29.202  30.481  1.00  0.00    -0.248 NA
ATOM     46  C   UNL A   1      39.467  29.722  28.794  1.00  0.00     0.031 C 
ATOM     47  C   UNL A   1      39.476  32.733  32.799  1.00  0.00     0.029 A 
ATOM     48  N   UNL A   1      41.024  31.118  32.732  1.00  0.00    -0.354 N 
ATOM     49  C   UNL A   1      41.152  28.312  29.424  1.00  0.00     0.074 A 
ATOM     50  C   UNL A   1      40.155  28.652  28.433  1.00  0.00     0.031 C 
ATOM     51  C   UNL A   1      40.242  32.854  33.900  1.00  0.00     0.029 A 
ATOM     52  C   UNL A   1      41.225  31.770  33.927  1.00  0.00     0.049 A 
ATOM     53  H   UNL A   1      41.595  30.381  32.417  1.00  0.00     0.167 HD
ATOM     54  C   UNL A   1      42.049  27.305  29.291  1.00  0.00     0.034 A 
ATOM     55  C   UNL A   1      42.073  31.489  34.939  1.00  0.00     0.034 A 
ATOM     56  C   UNL A   1      43.020  26.965  30.299  1.00  0.00     0.049 A 
ATOM     57  C   UNL A   1      42.982  30.282  34.827  1.00  0.00     0.074 A 
ATOM     58  C   UNL A   1      43.960  25.950  30.283  1.00  0.00     0.029 A 
ATOM     59  N   UNL A   1      43.172  27.630  31.510  1.00  0.00    -0.354 N 
ATOM     60  N   UNL A   1      43.101  29.422  33.841  1.00  0.00    -0.248 NA
ATOM     61  C   UNL A   1      43.868  30.004  35.967  1.00  0.00     0.031 C 
ATOM     62  C   UNL A   1      44.627  25.954  31.511  1.00  0.00     0.029 A 
ATOM     63  C   UNL A   1      44.173  27.031  32.256  1.00  0.00     0.049 A 
ATOM     64  H   UNL A   1      42.644  28.410  31.795  1.00  0.00     0.167 HD
ATOM     65  C   UNL A   1      44.113  28.541  34.222  1.00  0.00     0.074 A 
ATOM     66  C   UNL A   1      44.566  28.967  35.528  1.00  0.00     0.031 C 
ATOM     67  C   UNL A   1      44.631  27.484  33.548  1.00  0.00     0.034 A 
BRANCH  54  68
ATOM     68  C   UNL A   1      41.975  26.473  28.035  1.00  0.00     0.023 A 
ATOM     69  C   UNL A   1      41.227  25.284  27.980  1.00  0.00     0.031 A 
ATOM     70  C   UNL A   1      42.687  26.857  26.884  1.00  0.00     0.131 A 
ATOM     71  C   UNL A   1      41.266  24.486  26.829  1.00  0.00     0.055 A 
ATOM     72  C   UNL A   1      42.650  26.102  25.711  1.00  0.00     0.041 A 
ATOM     73  F   UNL A   1      43.441  27.968  26.886  1.00  0.00    -0.206 F 
ATOM     74  C   UNL A   1      41.949  24.900  25.683  1.00  0.00     0.022 A 
BRANCH  71  75
ATOM     75  S   UNL A   1      40.536  22.828  26.901  1.00  0.00     0.124 S 
ATOM     76  O   UNL A   1      39.124  23.118  26.662  1.00  0.00    -0.237 OA
ATOM     77  O   UNL A   1      41.234  22.128  25.827  1.00  0.00    -0.237 OA
ATOM     78  O   UNL A   1      40.851  22.372  28.252  1.00  0.00    -0.744 OA
ENDBRANCH  71  75
ENDBRANCH  54  68
BRANCH  55  79
ATOM     79  C   UNL A   1      42.088  32.322  36.180  1.00  0.00     0.023 A 
ATOM     80  C   UNL A   1      41.084  32.186  37.153  1.00  0.00     0.031 A 
ATOM     81  C   UNL A   1      43.050  33.330  36.367  1.00  0.00     0.131 A 
ATOM     82  C   UNL A   1      41.028  33.080  38.233  1.00  0.00     0.055 A 
ATOM     83  C   UNL A   1      43.034  34.168  37.484  1.00  0.00     0.041 A 
ATOM     84  F   UNL A   1      44.014  33.527  35.455  1.00  0.00    -0.206 F 
ATOM     85  C   UNL A   1      42.007  34.059  38.416  1.00  0.00     0.022 A 
BRANCH  82  86
ATOM     86  S   UNL A   1      39.578  33.032  39.324  1.00  0.00     0.124 S 
ATOM     87  O   UNL A   1      38.643  32.235  38.537  1.00  0.00    -0.237 OA
ATOM     88  O   UNL A   1      40.118  32.393  40.520  1.00  0.00    -0.237 OA
ATOM     89  O   UNL A   1      39.221  34.440  39.479  1.00  0.00    -0.744 OA
ENDBRANCH  82  86
ENDBRANCH  55  79
BRANCH  67  90
ATOM     90  C   UNL A   1      45.817  26.771  34.154  1.00  0.00     0.023 A 
ATOM     91  C   UNL A   1      45.679  25.638  34.975  1.00  0.00     0.031 A 
ATOM     92  C   UNL A   1      47.117  27.223  33.861  1.00  0.00     0.131 A 
ATOM     93  C   UNL A   1      46.824  25.016  35.500  1.00  0.00     0.055 A 
ATOM     94  C   UNL A   1      48.251  26.566  34.340  1.00  0.00     0.041 A 
ATOM     95  F   UNL A   1      47.307  28.302  33.085  1.00  0.00    -0.206 F 
ATOM     96  C   UNL A   1      48.108  25.460  35.171  1.00  0.00     0.022 A 
BRANCH  93  97
ATOM     97  S   UNL A   1      46.618  23.652  36.678  1.00  0.00     0.124 S 
ATOM     98  O   UNL A   1      46.074  24.336  37.846  1.00  0.00    -0.237 OA
ATOM     99  O   UNL A   1      45.697  22.765  35.972  1.00  0.00    -0.237 OA
ATOM    100  O   UNL A   1      47.974  23.130  36.841  1.00  0.00    -0.744 OA
ENDBRANCH  93  97
ENDBRANCH  67  90
ENDBRANCH  41  42
ENDBRANCH  34  36
ENDBRANCH  33  34
ENDBRANCH  32  33
ENDBRANCH  31  32
ENDBRANCH  30  31
ENDBRANCH  29  30
ENDBRANCH  28  29
ENDBRANCH  27  28
ENDBRANCH   1  27
TORSDOF 28
ENDMDL
MODEL 3
REMARK VINA RESULT:      -8.1      6.466     11.314
REMARK SMILES O=CN[C@@H](CCS[C@@H]1CCO[C@]2(CCOC2)C1)C(=O)OCCOCCOCCOCCOC(=O)c1ccc(-c2c3nc(c(-c4cc(S(=O)(=O)[O-])ccc4F)c4ccc([nH]4)c(-c4cc(S(=O)(=O)[O-])ccc4F)c4nc(c(-c5cc(S(=O)(=O)[O-])ccc5F)c5ccc2[nH]5)C=C4)C=C3)cc1
REMARK SMILES IDX 25 1 24 2 23 3 22 4 21 5 20 6 18 7 19 8 4 9 3 10 1 11 2 12
REMARK SMILES IDX 5 14 6 15 7 16 8 17 9 18 17 19 10 20 12 21 11 22 13 23 16 24
REMARK SMILES IDX 14 25 15 26 26 27 27 28 28 29 29 30 30 31 31 32 32 33 33 34
REMARK SMILES IDX 34 35 35 36 36 37 97 38 37 39 96 40 38 41 39 42 40 43 90 44
REMARK SMILES IDX 41 45 95 46 89 47 91 48 42 49 94 50 88 51 87 52 43 54 75 55
REMARK SMILES IDX 55 56 74 57 56 58 59 59 73 60 92 61 57 62 58 63 72 65 93 66
REMARK SMILES IDX 60 67 44 68 45 69 53 70 46 71 52 72 54 73 51 74 47 75 48 76
REMARK SMILES IDX 49 77 50 78 76 79 77 80 85 81 78 82 84 83 86 84 83 85 79 86
REMARK SMILES IDX 80 87 81 88 82 89 61 90 62 91 70 92 63 93 69 94 71 95 68 96
REMARK SMILES IDX 64 97 65 98 66 99 67 100
REMARK H PARENT 3 13 91 53 59 64
REMARK Flexibility Score: inf
ROOT
ATOM      1  C   UNL A   1      38.932  32.624  37.398  1.00  0.00     0.188 C 
ENDROOT
BRANCH   1   2
ATOM      2  C   UNL A   1      40.307  32.173  36.867  1.00  0.00     0.188 C 
BRANCH   2   3
ATOM      3  O   UNL A   1      40.393  31.462  35.633  1.00  0.00    -0.376 OA
BRANCH   3   4
ATOM      4  C   UNL A   1      39.473  30.408  35.374  1.00  0.00     0.202 C 
BRANCH   4   5
ATOM      5  C   UNL A   1      38.882  30.334  33.968  1.00  0.00     0.261 C 
BRANCH   5   6
ATOM      6  O   UNL A   1      38.439  29.012  33.600  1.00  0.00    -0.462 OA
BRANCH   6   7
ATOM      7  C   UNL A   1      38.362  28.752  32.274  1.00  0.00     0.328 C 
ATOM      8  O   UNL A   1      38.466  27.637  31.772  1.00  0.00    -0.250 OA
BRANCH   7   9
ATOM      9  C   UNL A   1      38.254  30.017  31.408  1.00  0.00     0.192 C 
BRANCH   9  10
ATOM     10  N   UNL A   1      39.320  30.399  30.464  1.00  0.00    -0.345 N 
ATOM     11  O   UNL A   1      41.238  31.412  29.855  1.00  0.00    -0.279 OA
ATOM     12  C   UNL A   1      40.428  31.139  30.731  1.00  0.00     0.337 C 
ATOM     13  H   UNL A   1      39.218  30.082  29.537  1.00  0.00     0.164 HD
ENDBRANCH   9  10
BRANCH   9  14
ATOM     14  C   UNL A   1      36.835  30.203  30.835  1.00  0.00     0.048 C 
BRANCH  14  15
ATOM     15  C   UNL A   1      36.151  31.488  30.268  1.00  0.00     0.072 C 
BRANCH  15  16
ATOM     16  S   UNL A   1      34.739  32.543  30.813  1.00  0.00    -0.158 SA
BRANCH  16  17
ATOM     17  C   UNL A   1      34.869  32.832  32.646  1.00  0.00     0.052 C 
ATOM     18  C   UNL A   1      34.075  33.999  33.148  1.00  0.00     0.043 C 
ATOM     19  C   UNL A   1      36.253  32.878  33.305  1.00  0.00     0.052 C 
ATOM     20  C   UNL A   1      34.765  35.328  32.982  1.00  0.00     0.162 C 
ATOM     21  C   UNL A   1      36.893  34.283  33.330  1.00  0.00     0.095 C 
ATOM     22  O   UNL A   1      35.975  35.314  33.706  1.00  0.00    -0.372 OA
ATOM     23  C   UNL A   1      37.631  34.575  32.034  1.00  0.00     0.066 C 
ATOM     24  C   UNL A   1      38.039  34.358  34.337  1.00  0.00     0.195 C 
ATOM     25  C   UNL A   1      39.027  34.025  32.281  1.00  0.00     0.163 C 
ATOM     26  O   UNL A   1      39.187  33.824  33.687  1.00  0.00    -0.378 OA
ENDBRANCH  16  17
ENDBRANCH  15  16
ENDBRANCH  14  15
ENDBRANCH   9  14
ENDBRANCH   7   9
ENDBRANCH   6   7
ENDBRANCH   5   6
ENDBRANCH   4   5
ENDBRANCH   3   4
ENDBRANCH   2   3
ENDBRANCH   1   2
BRANCH   1  27
ATOM     27  O   UNL A   1      38.461  31.909  38.526  1.00  0.00    -0.377 OA
BRANCH  27  28
ATOM     28  C   UNL A   1      37.842  32.690  39.543  1.00  0.00     0.188 C 
BRANCH  28  29
ATOM     29  C   UNL A   1      38.397  34.110  39.737  1.00  0.00     0.188 C 
BRANCH  29  30
ATOM     30  O   UNL A   1      38.973  34.298  41.024  1.00  0.00    -0.376 OA
BRANCH  30  31
ATOM     31  C   UNL A   1      40.001  35.257  41.203  1.00  0.00     0.202 C 
BRANCH  31  32
ATOM     32  C   UNL A   1      41.208  35.243  40.251  1.00  0.00     0.261 C 
BRANCH  32  33
ATOM     33  O   UNL A   1      41.181  36.126  39.124  1.00  0.00    -0.460 OA
BRANCH  33  34
ATOM     34  C   UNL A   1      42.350  36.674  38.717  1.00  0.00     0.338 C 
ATOM     35  O   UNL A   1      43.080  37.394  39.356  1.00  0.00    -0.246 OA
BRANCH  34  36
ATOM     36  C   UNL A   1      42.656  36.089  37.390  1.00  0.00     0.060 A 
ATOM     37  C   UNL A   1      41.611  35.657  36.562  1.00  0.00     0.016 A 
ATOM     38  C   UNL A   1      43.983  35.966  36.976  1.00  0.00     0.016 A 
ATOM     39  C   UNL A   1      41.895  35.060  35.329  1.00  0.00     0.010 A 
ATOM     40  C   UNL A   1      44.267  35.347  35.758  1.00  0.00     0.010 A 
ATOM     41  C   UNL A   1      43.227  34.855  34.947  1.00  0.00    -0.014 A 
BRANCH  41  42
ATOM     42  C   UNL A   1      43.571  33.905  33.859  1.00  0.00     0.031 A 
ATOM     43  C   UNL A   1      43.701  34.467  32.468  1.00  0.00     0.074 A 
ATOM     44  C   UNL A   1      43.723  32.587  34.075  1.00  0.00     0.049 A 
ATOM     45  N   UNL A   1      43.784  33.848  31.321  1.00  0.00    -0.248 NA
ATOM     46  C   UNL A   1      43.722  35.935  32.365  1.00  0.00     0.031 C 
ATOM     47  C   UNL A   1      43.691  31.933  35.380  1.00  0.00     0.029 A 
ATOM     48  N   UNL A   1      43.909  31.557  33.184  1.00  0.00    -0.354 N 
ATOM     49  C   UNL A   1      43.852  34.849  30.358  1.00  0.00     0.074 A 
ATOM     50  C   UNL A   1      43.765  36.113  31.055  1.00  0.00     0.031 C 
ATOM     51  C   UNL A   1      43.825  30.605  35.203  1.00  0.00     0.029 A 
ATOM     52  C   UNL A   1      43.901  30.311  33.772  1.00  0.00     0.049 A 
ATOM     53  H   UNL A   1      44.035  31.696  32.218  1.00  0.00     0.167 HD
ATOM     54  C   UNL A   1      43.978  34.725  29.015  1.00  0.00     0.034 A 
ATOM     55  C   UNL A   1      43.907  29.084  33.209  1.00  0.00     0.034 A 
ATOM     56  C   UNL A   1      44.039  33.457  28.334  1.00  0.00     0.049 A 
ATOM     57  C   UNL A   1      43.921  28.965  31.698  1.00  0.00     0.074 A 
ATOM     58  C   UNL A   1      44.141  33.211  26.977  1.00  0.00     0.029 A 
ATOM     59  N   UNL A   1      43.998  32.218  28.962  1.00  0.00    -0.354 N 
ATOM     60  N   UNL A   1      43.948  29.915  30.792  1.00  0.00    -0.248 NA
ATOM     61  C   UNL A   1      43.900  27.607  31.135  1.00  0.00     0.031 C 
ATOM     62  C   UNL A   1      44.086  31.828  26.778  1.00  0.00     0.029 A 
ATOM     63  C   UNL A   1      44.048  31.207  28.016  1.00  0.00     0.049 A 
ATOM     64  H   UNL A   1      43.939  32.079  29.934  1.00  0.00     0.167 HD
ATOM     65  C   UNL A   1      44.005  29.265  29.558  1.00  0.00     0.074 A 
ATOM     66  C   UNL A   1      44.001  27.846  29.836  1.00  0.00     0.031 C 
ATOM     67  C   UNL A   1      44.069  29.794  28.310  1.00  0.00     0.034 A 
BRANCH  54  68
ATOM     68  C   UNL A   1      44.001  35.995  28.201  1.00  0.00     0.023 A 
ATOM     69  C   UNL A   1      45.208  36.612  27.832  1.00  0.00     0.031 A 
ATOM     70  C   UNL A   1      42.799  36.615  27.814  1.00  0.00     0.131 A 
ATOM     71  C   UNL A   1      45.188  37.845  27.164  1.00  0.00     0.055 A 
ATOM     72  C   UNL A   1      42.787  37.797  27.073  1.00  0.00     0.041 A 
ATOM     73  F   UNL A   1      41.615  36.087  28.162  1.00  0.00    -0.206 F 
ATOM     74  C   UNL A   1      43.986  38.428  26.757  1.00  0.00     0.022 A 
BRANCH  71  75
ATOM     75  S   UNL A   1      46.748  38.749  26.969  1.00  0.00     0.124 S 
ATOM     76  O   UNL A   1      46.285  40.134  26.953  1.00  0.00    -0.237 OA
ATOM     77  O   UNL A   1      47.499  38.341  28.152  1.00  0.00    -0.237 OA
ATOM     78  O   UNL A   1      47.271  38.259  25.697  1.00  0.00    -0.744 OA
ENDBRANCH  71  75
ENDBRANCH  54  68
BRANCH  55  79
ATOM     79  C   UNL A   1      43.850  27.854  34.054  1.00  0.00     0.023 A 
ATOM     80  C   UNL A   1      45.027  27.227  34.497  1.00  0.00     0.031 A 
ATOM     81  C   UNL A   1      42.624  27.233  34.353  1.00  0.00     0.131 A 
ATOM     82  C   UNL A   1      44.957  25.990  35.157  1.00  0.00     0.055 A 
ATOM     83  C   UNL A   1      42.556  26.041  35.077  1.00  0.00     0.041 A 
ATOM     84  F   UNL A   1      41.470  27.770  33.928  1.00  0.00    -0.206 F 
ATOM     85  C   UNL A   1      43.730  25.402  35.468  1.00  0.00     0.022 A 
BRANCH  82  86
ATOM     86  S   UNL A   1      46.501  25.095  35.486  1.00  0.00     0.124 S 
ATOM     87  O   UNL A   1      47.386  26.176  35.902  1.00  0.00    -0.237 OA
ATOM     88  O   UNL A   1      46.094  24.159  36.530  1.00  0.00    -0.237 OA
ATOM     89  O   UNL A   1      46.823  24.486  34.197  1.00  0.00    -0.744 OA
ENDBRANCH  82  86
ENDBRANCH  55  79
BRANCH  67  90
ATOM     90  C   UNL A   1      44.246  28.844  27.149  1.00  0.00     0.023 A 
ATOM     91  C   UNL A   1      45.507  28.387  26.732  1.00  0.00     0.031 A 
ATOM     92  C   UNL A   1      43.109  28.360  26.475  1.00  0.00     0.131 A 
ATOM     93  C   UNL A   1      45.602  27.496  25.649  1.00  0.00     0.055 A 
ATOM     94  C   UNL A   1      43.207  27.432  25.438  1.00  0.00     0.041 A 
ATOM     95  F   UNL A   1      41.880  28.766  26.830  1.00  0.00    -0.206 F 
ATOM     96  C   UNL A   1      44.459  27.001  25.014  1.00  0.00     0.022 A 
BRANCH  93  97
ATOM     97  S   UNL A   1      47.245  27.038  25.031  1.00  0.00     0.124 S 
ATOM     98  O   UNL A   1      47.687  28.275  24.395  1.00  0.00    -0.237 OA
ATOM     99  O   UNL A   1      47.947  26.664  26.255  1.00  0.00    -0.237 OA
ATOM    100  O   UNL A   1      46.971  25.933  24.114  1.00  0.00    -0.744 OA
ENDBRANCH  93  97
ENDBRANCH  67  90
ENDBRANCH  41  42
ENDBRANCH  34  36
ENDBRANCH  33  34
ENDBRANCH  32  33
ENDBRANCH  31  32
ENDBRANCH  30  31
ENDBRANCH  29  30
ENDBRANCH  28  29
ENDBRANCH  27  28
ENDBRANCH   1  27
TORSDOF 28
ENDMDL
