MODEL 1
REMARK VINA RESULT:     -10.1      0.000      0.000
REMARK SMILES Cc1ccc(S(=O)(=O)Nc2ccccn2)cc1C(=O)OCCOCCOCCOCCOC(=O)c1ccc(-c2c3nc(c(-c4cc(S(=O)(=O)[O-])ccc4F)c4ccc([nH]4)c(-c4cc(S(=O)(=O)[O-])ccc4F)c4nc(c(-c5cc(S(=O)(=O)[O-])ccc5F)c5ccc2[nH]5)C=C4)C=C3)cc1
REMARK SMILES IDX 26 1 25 2 24 3 23 4 22 5 21 6 20 7 18 8 19 9 17 10 1 11 2 12
REMARK SMILES IDX 3 13 4 14 16 15 5 16 6 17 7 18 8 19 9 20 10 22 11 23 15 24
REMARK SMILES IDX 12 25 14 26 13 27 27 28 28 29 29 30 30 31 31 32 32 33 33 34
REMARK SMILES IDX 34 35 35 36 36 37 97 38 37 39 96 40 38 41 39 42 40 43 90 44
REMARK SMILES IDX 41 45 95 46 89 47 91 48 42 49 94 50 88 51 87 52 43 54 75 55
REMARK SMILES IDX 55 56 74 57 56 58 59 59 73 60 92 61 57 62 58 63 72 65 93 66
REMARK SMILES IDX 60 67 44 68 45 69 53 70 46 71 52 72 54 73 51 74 47 75 48 76
REMARK SMILES IDX 49 77 50 78 76 79 77 80 85 81 78 82 84 83 86 84 83 85 79 86
REMARK SMILES IDX 80 87 81 88 82 89 61 90 62 91 70 92 63 93 69 94 71 95 68 96
REMARK SMILES IDX 64 97 65 98 66 99 67 100
REMARK H PARENT 9 21 91 53 59 64
REMARK Flexibility Score: inf
ROOT
ATOM      1  O   UNL A   1      37.110  22.438  26.018  1.00  0.00    -0.377 OA
ENDROOT
BRANCH   1   2
ATOM      2  C   UNL A   1      35.903  21.926  25.453  1.00  0.00     0.188 C 
BRANCH   2   3
ATOM      3  C   UNL A   1      34.770  21.800  26.448  1.00  0.00     0.188 C 
BRANCH   3   4
ATOM      4  O   UNL A   1      33.848  20.767  26.126  1.00  0.00    -0.376 OA
BRANCH   4   5
ATOM      5  C   UNL A   1      33.800  20.491  24.727  1.00  0.00     0.202 C 
BRANCH   5   6
ATOM      6  C   UNL A   1      32.570  20.956  23.934  1.00  0.00     0.261 C 
BRANCH   6   7
ATOM      7  O   UNL A   1      32.803  22.196  23.256  1.00  0.00    -0.460 OA
BRANCH   7   8
ATOM      8  C   UNL A   1      31.843  23.135  23.410  1.00  0.00     0.338 C 
ATOM      9  O   UNL A   1      30.666  23.027  23.192  1.00  0.00    -0.246 OA
BRANCH   8  10
ATOM     10  C   UNL A   1      32.358  24.113  24.401  1.00  0.00     0.064 A 
ATOM     11  C   UNL A   1      31.249  23.205  26.553  1.00  0.00     0.045 C 
ATOM     12  C   UNL A   1      32.051  24.211  25.774  1.00  0.00    -0.036 A 
ATOM     13  C   UNL A   1      32.437  25.381  26.452  1.00  0.00     0.006 A 
ATOM     14  C   UNL A   1      32.903  26.492  25.746  1.00  0.00     0.022 A 
ATOM     15  C   UNL A   1      32.953  25.188  23.726  1.00  0.00     0.038 A 
ATOM     16  C   UNL A   1      33.080  26.405  24.364  1.00  0.00     0.088 A 
BRANCH  16  17
ATOM     17  S   UNL A   1      33.171  27.888  23.394  1.00  0.00     0.263 S 
ATOM     18  O   UNL A   1      34.386  28.571  23.794  1.00  0.00    -0.201 OA
ATOM     19  O   UNL A   1      32.972  27.477  22.020  1.00  0.00    -0.201 OA
BRANCH  17  20
ATOM     20  N   UNL A   1      31.868  28.845  23.798  1.00  0.00    -0.263 N 
ATOM     21  H   UNL A   1      32.057  29.667  24.306  1.00  0.00     0.182 HD
BRANCH  20  22
ATOM     22  C   UNL A   1      30.521  28.586  23.478  1.00  0.00     0.139 A 
ATOM     23  C   UNL A   1      29.806  27.438  23.752  1.00  0.00     0.048 A 
ATOM     24  N   UNL A   1      29.957  29.713  23.008  1.00  0.00    -0.239 NA
ATOM     25  C   UNL A   1      28.429  27.455  23.501  1.00  0.00     0.005 A 
ATOM     26  C   UNL A   1      28.634  29.690  22.729  1.00  0.00     0.113 A 
ATOM     27  C   UNL A   1      27.829  28.592  22.964  1.00  0.00     0.020 A 
ENDBRANCH  20  22
ENDBRANCH  17  20
ENDBRANCH  16  17
ENDBRANCH   8  10
ENDBRANCH   7   8
ENDBRANCH   6   7
ENDBRANCH   5   6
ENDBRANCH   4   5
ENDBRANCH   3   4
ENDBRANCH   2   3
ENDBRANCH   1   2
BRANCH   1  28
ATOM     28  C   UNL A   1      38.317  21.758  25.672  1.00  0.00     0.188 C 
BRANCH  28  29
ATOM     29  C   UNL A   1      38.072  20.421  25.004  1.00  0.00     0.188 C 
BRANCH  29  30
ATOM     30  O   UNL A   1      39.083  19.475  25.357  1.00  0.00    -0.376 OA
BRANCH  30  31
ATOM     31  C   UNL A   1      40.031  19.918  26.320  1.00  0.00     0.202 C 
BRANCH  31  32
ATOM     32  C   UNL A   1      41.481  19.485  26.049  1.00  0.00     0.261 C 
BRANCH  32  33
ATOM     33  O   UNL A   1      42.409  20.420  26.636  1.00  0.00    -0.460 OA
BRANCH  33  34
ATOM     34  C   UNL A   1      43.060  21.226  25.749  1.00  0.00     0.338 C 
ATOM     35  O   UNL A   1      43.987  20.880  25.038  1.00  0.00    -0.246 OA
BRANCH  34  36
ATOM     36  C   UNL A   1      42.563  22.626  25.874  1.00  0.00     0.060 A 
ATOM     37  C   UNL A   1      43.055  23.638  25.031  1.00  0.00     0.016 A 
ATOM     38  C   UNL A   1      41.868  22.969  27.028  1.00  0.00     0.016 A 
ATOM     39  C   UNL A   1      43.020  24.979  25.447  1.00  0.00     0.010 A 
ATOM     40  C   UNL A   1      41.960  24.262  27.486  1.00  0.00     0.010 A 
ATOM     41  C   UNL A   1      42.567  25.275  26.730  1.00  0.00    -0.014 A 
BRANCH  41  42
ATOM     42  C   UNL A   1      42.812  26.527  27.473  1.00  0.00     0.031 A 
ATOM     43  C   UNL A   1      41.665  27.496  27.612  1.00  0.00     0.074 A 
ATOM     44  C   UNL A   1      43.871  26.543  28.327  1.00  0.00     0.049 A 
ATOM     45  N   UNL A   1      41.616  28.490  28.424  1.00  0.00    -0.248 NA
ATOM     46  C   UNL A   1      40.402  27.362  26.879  1.00  0.00     0.031 C 
ATOM     47  C   UNL A   1      44.034  27.353  29.536  1.00  0.00     0.029 A 
ATOM     48  N   UNL A   1      45.017  25.774  28.374  1.00  0.00    -0.354 N 
ATOM     49  C   UNL A   1      40.311  28.942  28.543  1.00  0.00     0.074 A 
ATOM     50  C   UNL A   1      39.601  28.225  27.519  1.00  0.00     0.031 C 
ATOM     51  C   UNL A   1      45.207  27.110  30.139  1.00  0.00     0.029 A 
ATOM     52  C   UNL A   1      45.987  26.380  29.182  1.00  0.00     0.049 A 
ATOM     53  H   UNL A   1      45.135  24.917  27.903  1.00  0.00     0.167 HD
ATOM     54  C   UNL A   1      39.997  29.799  29.567  1.00  0.00     0.034 A 
ATOM     55  C   UNL A   1      47.080  26.975  28.612  1.00  0.00     0.034 A 
ATOM     56  C   UNL A   1      41.225  30.299  30.217  1.00  0.00     0.049 A 
ATOM     57  C   UNL A   1      46.866  28.519  28.615  1.00  0.00     0.074 A 
ATOM     58  C   UNL A   1      41.675  30.408  31.517  1.00  0.00     0.029 A 
ATOM     59  N   UNL A   1      42.323  30.646  29.424  1.00  0.00    -0.354 N 
ATOM     60  N   UNL A   1      45.682  29.112  28.534  1.00  0.00    -0.248 NA
ATOM     61  C   UNL A   1      47.895  29.456  29.074  1.00  0.00     0.031 C 
ATOM     62  C   UNL A   1      43.100  30.541  31.474  1.00  0.00     0.029 A 
ATOM     63  C   UNL A   1      43.497  30.670  30.147  1.00  0.00     0.049 A 
ATOM     64  H   UNL A   1      42.266  30.849  28.462  1.00  0.00     0.167 HD
ATOM     65  C   UNL A   1      45.743  30.369  29.103  1.00  0.00     0.074 A 
ATOM     66  C   UNL A   1      47.169  30.553  29.360  1.00  0.00     0.031 C 
ATOM     67  C   UNL A   1      44.711  31.179  29.532  1.00  0.00     0.034 A 
BRANCH  54  68
ATOM     68  C   UNL A   1      38.597  30.104  30.132  1.00  0.00     0.023 A 
ATOM     69  C   UNL A   1      37.751  31.019  29.450  1.00  0.00     0.031 A 
ATOM     70  C   UNL A   1      38.074  29.646  31.363  1.00  0.00     0.131 A 
ATOM     71  C   UNL A   1      36.513  31.449  29.983  1.00  0.00     0.055 A 
ATOM     72  C   UNL A   1      36.812  30.025  31.862  1.00  0.00     0.041 A 
ATOM     73  F   UNL A   1      38.771  28.855  32.184  1.00  0.00    -0.206 F 
ATOM     74  C   UNL A   1      36.028  30.939  31.179  1.00  0.00     0.022 A 
BRANCH  71  75
ATOM     75  S   UNL A   1      35.547  32.724  29.111  1.00  0.00     0.124 S 
ATOM     76  O   UNL A   1      34.438  31.947  28.572  1.00  0.00    -0.237 OA
ATOM     77  O   UNL A   1      35.227  33.662  30.180  1.00  0.00    -0.237 OA
ATOM     78  O   UNL A   1      36.485  33.233  28.110  1.00  0.00    -0.744 OA
ENDBRANCH  71  75
ENDBRANCH  54  68
BRANCH  55  79
ATOM     79  C   UNL A   1      47.729  25.970  27.691  1.00  0.00     0.023 A 
ATOM     80  C   UNL A   1      47.443  26.206  26.311  1.00  0.00     0.031 A 
ATOM     81  C   UNL A   1      48.997  25.442  27.987  1.00  0.00     0.131 A 
ATOM     82  C   UNL A   1      48.478  26.224  25.355  1.00  0.00     0.055 A 
ATOM     83  C   UNL A   1      50.012  25.402  27.009  1.00  0.00     0.041 A 
ATOM     84  F   UNL A   1      49.346  25.175  29.253  1.00  0.00    -0.206 F 
ATOM     85  C   UNL A   1      49.778  25.872  25.715  1.00  0.00     0.022 A 
BRANCH  82  86
ATOM     86  S   UNL A   1      48.187  27.021  23.732  1.00  0.00     0.124 S 
ATOM     87  O   UNL A   1      49.198  28.072  23.724  1.00  0.00    -0.237 OA
ATOM     88  O   UNL A   1      48.405  25.928  22.793  1.00  0.00    -0.237 OA
ATOM     89  O   UNL A   1      46.800  27.473  23.834  1.00  0.00    -0.744 OA
ENDBRANCH  82  86
ENDBRANCH  55  79
BRANCH  67  90
ATOM     90  C   UNL A   1      44.757  32.684  29.355  1.00  0.00     0.023 A 
ATOM     91  C   UNL A   1      44.242  33.275  28.207  1.00  0.00     0.031 A 
ATOM     92  C   UNL A   1      45.140  33.580  30.394  1.00  0.00     0.131 A 
ATOM     93  C   UNL A   1      44.203  34.663  28.068  1.00  0.00     0.055 A 
ATOM     94  C   UNL A   1      44.996  34.964  30.295  1.00  0.00     0.041 A 
ATOM     95  F   UNL A   1      45.636  33.166  31.567  1.00  0.00    -0.206 F 
ATOM     96  C   UNL A   1      44.540  35.519  29.112  1.00  0.00     0.022 A 
BRANCH  93  97
ATOM     97  S   UNL A   1      43.794  35.285  26.431  1.00  0.00     0.124 S 
ATOM     98  O   UNL A   1      43.843  34.060  25.636  1.00  0.00    -0.237 OA
ATOM     99  O   UNL A   1      42.466  35.854  26.634  1.00  0.00    -0.237 OA
ATOM    100  O   UNL A   1      44.854  36.251  26.157  1.00  0.00    -0.744 OA
ENDBRANCH  93  97
ENDBRANCH  67  90
ENDBRANCH  41  42
ENDBRANCH  34  36
ENDBRANCH  33  34
ENDBRANCH  32  33
ENDBRANCH  31  32
ENDBRANCH  30  31
ENDBRANCH  29  30
ENDBRANCH  28  29
ENDBRANCH   1  28
TORSDOF 26
ENDMDL
MODEL 2
REMARK VINA RESULT:      -9.9      4.317      9.896
REMARK SMILES Cc1ccc(S(=O)(=O)Nc2ccccn2)cc1C(=O)OCCOCCOCCOCCOC(=O)c1ccc(-c2c3nc(c(-c4cc(S(=O)(=O)[O-])ccc4F)c4ccc([nH]4)c(-c4cc(S(=O)(=O)[O-])ccc4F)c4nc(c(-c5cc(S(=O)(=O)[O-])ccc5F)c5ccc2[nH]5)C=C4)C=C3)cc1
REMARK SMILES IDX 26 1 25 2 24 3 23 4 22 5 21 6 20 7 18 8 19 9 17 10 1 11 2 12
REMARK SMILES IDX 3 13 4 14 16 15 5 16 6 17 7 18 8 19 9 20 10 22 11 23 15 24
REMARK SMILES IDX 12 25 14 26 13 27 27 28 28 29 29 30 30 31 31 32 32 33 33 34
REMARK SMILES IDX 34 35 35 36 36 37 97 38 37 39 96 40 38 41 39 42 40 43 90 44
REMARK SMILES IDX 41 45 95 46 89 47 91 48 42 49 94 50 88 51 87 52 43 54 75 55
REMARK SMILES IDX 55 56 74 57 56 58 59 59 73 60 92 61 57 62 58 63 72 65 93 66
REMARK SMILES IDX 60 67 44 68 45 69 53 70 46 71 52 72 54 73 51 74 47 75 48 76
REMARK SMILES IDX 49 77 50 78 76 79 77 80 85 81 78 82 84 83 86 84 83 85 79 86
REMARK SMILES IDX 80 87 81 88 82 89 61 90 62 91 70 92 63 93 69 94 71 95 68 96
REMARK SMILES IDX 64 97 65 98 66 99 67 100
REMARK H PARENT 9 21 91 53 59 64
REMARK Flexibility Score: inf
ROOT
ATOM      1  O   UNL A   1      32.555  28.444  22.402  1.00  0.00    -0.377 OA
ENDROOT
BRANCH   1   2
ATOM      2  C   UNL A   1      31.256  28.965  22.680  1.00  0.00     0.188 C 
BRANCH   2   3
ATOM      3  C   UNL A   1      30.181  27.905  22.776  1.00  0.00     0.188 C 
BRANCH   3   4
ATOM      4  O   UNL A   1      29.682  27.723  24.095  1.00  0.00    -0.376 OA
BRANCH   4   5
ATOM      5  C   UNL A   1      30.530  26.897  24.893  1.00  0.00     0.202 C 
BRANCH   5   6
ATOM      6  C   UNL A   1      29.878  25.825  25.778  1.00  0.00     0.261 C 
BRANCH   6   7
ATOM      7  O   UNL A   1      30.843  25.112  26.560  1.00  0.00    -0.460 OA
BRANCH   7   8
ATOM      8  C   UNL A   1      30.962  23.794  26.282  1.00  0.00     0.338 C 
ATOM      9  O   UNL A   1      30.144  22.930  26.450  1.00  0.00    -0.246 OA
BRANCH   8  10
ATOM     10  C   UNL A   1      32.011  23.671  25.239  1.00  0.00     0.064 A 
ATOM     11  C   UNL A   1      30.550  23.793  23.109  1.00  0.00     0.045 C 
ATOM     12  C   UNL A   1      31.849  23.591  23.840  1.00  0.00    -0.036 A 
ATOM     13  C   UNL A   1      32.958  23.198  23.071  1.00  0.00     0.006 A 
ATOM     14  C   UNL A   1      34.106  22.692  23.685  1.00  0.00     0.022 A 
ATOM     15  C   UNL A   1      33.219  23.289  25.838  1.00  0.00     0.038 A 
ATOM     16  C   UNL A   1      34.189  22.669  25.077  1.00  0.00     0.088 A 
BRANCH  16  17
ATOM     17  S   UNL A   1      35.363  21.601  25.871  1.00  0.00     0.263 S 
ATOM     18  O   UNL A   1      36.629  22.308  25.875  1.00  0.00    -0.201 OA
ATOM     19  O   UNL A   1      34.746  21.182  27.112  1.00  0.00    -0.201 OA
BRANCH  17  20
ATOM     20  N   UNL A   1      35.524  20.232  24.935  1.00  0.00    -0.263 N 
ATOM     21  H   UNL A   1      36.362  20.133  24.426  1.00  0.00     0.182 HD
BRANCH  20  22
ATOM     22  C   UNL A   1      34.572  19.202  24.804  1.00  0.00     0.139 A 
ATOM     23  C   UNL A   1      33.199  19.336  24.774  1.00  0.00     0.048 A 
ATOM     24  N   UNL A   1      35.208  18.048  24.529  1.00  0.00    -0.239 NA
ATOM     25  C   UNL A   1      32.442  18.201  24.463  1.00  0.00     0.005 A 
ATOM     26  C   UNL A   1      34.453  16.954  24.279  1.00  0.00     0.113 A 
ATOM     27  C   UNL A   1      33.073  16.981  24.227  1.00  0.00     0.020 A 
ENDBRANCH  20  22
ENDBRANCH  17  20
ENDBRANCH  16  17
ENDBRANCH   8  10
ENDBRANCH   7   8
ENDBRANCH   6   7
ENDBRANCH   5   6
ENDBRANCH   4   5
ENDBRANCH   3   4
ENDBRANCH   2   3
ENDBRANCH   1   2
BRANCH   1  28
ATOM     28  C   UNL A   1      33.634  28.972  23.174  1.00  0.00     0.188 C 
BRANCH  28  29
ATOM     29  C   UNL A   1      33.527  28.636  24.647  1.00  0.00     0.188 C 
BRANCH  29  30
ATOM     30  O   UNL A   1      32.885  29.687  25.371  1.00  0.00    -0.376 OA
BRANCH  30  31
ATOM     31  C   UNL A   1      33.517  30.074  26.585  1.00  0.00     0.202 C 
BRANCH  31  32
ATOM     32  C   UNL A   1      34.553  29.074  27.123  1.00  0.00     0.261 C 
BRANCH  32  33
ATOM     33  O   UNL A   1      35.865  29.672  27.163  1.00  0.00    -0.460 OA
BRANCH  33  34
ATOM     34  C   UNL A   1      36.251  30.146  28.381  1.00  0.00     0.338 C 
ATOM     35  O   UNL A   1      35.503  30.628  29.214  1.00  0.00    -0.246 OA
BRANCH  34  36
ATOM     36  C   UNL A   1      37.737  30.115  28.493  1.00  0.00     0.060 A 
ATOM     37  C   UNL A   1      38.523  29.608  27.441  1.00  0.00     0.016 A 
ATOM     38  C   UNL A   1      38.299  30.283  29.752  1.00  0.00     0.016 A 
ATOM     39  C   UNL A   1      39.802  29.091  27.706  1.00  0.00     0.010 A 
ATOM     40  C   UNL A   1      39.491  29.655  30.025  1.00  0.00     0.010 A 
ATOM     41  C   UNL A   1      40.240  29.018  29.026  1.00  0.00    -0.014 A 
BRANCH  41  42
ATOM     42  C   UNL A   1      41.344  28.179  29.532  1.00  0.00     0.031 A 
ATOM     43  C   UNL A   1      41.420  26.753  29.050  1.00  0.00     0.074 A 
ATOM     44  C   UNL A   1      42.431  28.825  30.034  1.00  0.00     0.049 A 
ATOM     45  N   UNL A   1      42.432  25.970  29.174  1.00  0.00    -0.248 NA
ATOM     46  C   UNL A   1      40.353  26.102  28.284  1.00  0.00     0.031 C 
ATOM     47  C   UNL A   1      43.814  28.346  30.080  1.00  0.00     0.029 A 
ATOM     48  N   UNL A   1      42.582  30.101  30.540  1.00  0.00    -0.354 N 
ATOM     49  C   UNL A   1      42.298  24.883  28.325  1.00  0.00     0.074 A 
ATOM     50  C   UNL A   1      40.956  24.997  27.824  1.00  0.00     0.031 C 
ATOM     51  C   UNL A   1      44.631  29.248  30.644  1.00  0.00     0.029 A 
ATOM     52  C   UNL A   1      43.769  30.204  31.276  1.00  0.00     0.049 A 
ATOM     53  H   UNL A   1      41.942  30.837  30.402  1.00  0.00     0.167 HD
ATOM     54  C   UNL A   1      43.389  24.085  28.094  1.00  0.00     0.034 A 
ATOM     55  C   UNL A   1      43.725  30.271  32.642  1.00  0.00     0.034 A 
ATOM     56  C   UNL A   1      44.475  24.406  29.042  1.00  0.00     0.049 A 
ATOM     57  C   UNL A   1      44.104  28.873  33.221  1.00  0.00     0.074 A 
ATOM     58  C   UNL A   1      45.825  24.675  28.937  1.00  0.00     0.029 A 
ATOM     59  N   UNL A   1      44.158  24.661  30.380  1.00  0.00    -0.354 N 
ATOM     60  N   UNL A   1      43.861  27.719  32.613  1.00  0.00    -0.248 NA
ATOM     61  C   UNL A   1      45.081  28.706  34.300  1.00  0.00     0.031 C 
ATOM     62  C   UNL A   1      46.227  25.351  30.134  1.00  0.00     0.029 A 
ATOM     63  C   UNL A   1      45.161  25.353  31.027  1.00  0.00     0.049 A 
ATOM     64  H   UNL A   1      43.318  24.381  30.810  1.00  0.00     0.167 HD
ATOM     65  C   UNL A   1      44.756  26.760  33.047  1.00  0.00     0.074 A 
ATOM     66  C   UNL A   1      45.448  27.420  34.151  1.00  0.00     0.031 C 
ATOM     67  C   UNL A   1      45.085  25.553  32.464  1.00  0.00     0.034 A 
BRANCH  54  68
ATOM     68  C   UNL A   1      43.597  23.104  26.925  1.00  0.00     0.023 A 
ATOM     69  C   UNL A   1      42.992  21.820  26.973  1.00  0.00     0.031 A 
ATOM     70  C   UNL A   1      44.445  23.297  25.811  1.00  0.00     0.131 A 
ATOM     71  C   UNL A   1      43.251  20.822  26.005  1.00  0.00     0.055 A 
ATOM     72  C   UNL A   1      44.652  22.326  24.811  1.00  0.00     0.041 A 
ATOM     73  F   UNL A   1      45.170  24.409  25.650  1.00  0.00    -0.206 F 
ATOM     74  C   UNL A   1      44.064  21.076  24.908  1.00  0.00     0.022 A 
BRANCH  71  75
ATOM     75  S   UNL A   1      42.541  19.157  26.208  1.00  0.00     0.124 S 
ATOM     76  O   UNL A   1      43.601  18.308  25.679  1.00  0.00    -0.237 OA
ATOM     77  O   UNL A   1      42.308  19.088  27.646  1.00  0.00    -0.237 OA
ATOM     78  O   UNL A   1      41.327  19.205  25.393  1.00  0.00    -0.744 OA
ENDBRANCH  71  75
ENDBRANCH  54  68
BRANCH  55  79
ATOM     79  C   UNL A   1      42.781  31.385  33.024  1.00  0.00     0.023 A 
ATOM     80  C   UNL A   1      41.480  30.919  33.387  1.00  0.00     0.031 A 
ATOM     81  C   UNL A   1      43.252  32.521  33.704  1.00  0.00     0.131 A 
ATOM     82  C   UNL A   1      40.861  31.365  34.572  1.00  0.00     0.055 A 
ATOM     83  C   UNL A   1      42.593  33.003  34.853  1.00  0.00     0.041 A 
ATOM     84  F   UNL A   1      44.456  33.036  33.418  1.00  0.00    -0.206 F 
ATOM     85  C   UNL A   1      41.444  32.374  35.337  1.00  0.00     0.022 A 
BRANCH  82  86
ATOM     86  S   UNL A   1      39.473  30.401  35.277  1.00  0.00     0.124 S 
ATOM     87  O   UNL A   1      38.938  29.731  34.097  1.00  0.00    -0.237 OA
ATOM     88  O   UNL A   1      40.139  29.538  36.245  1.00  0.00    -0.237 OA
ATOM     89  O   UNL A   1      38.621  31.435  35.862  1.00  0.00    -0.744 OA
ENDBRANCH  82  86
ENDBRANCH  55  79
BRANCH  67  90
ATOM     90  C   UNL A   1      45.362  24.317  33.297  1.00  0.00     0.023 A 
ATOM     91  C   UNL A   1      46.594  24.148  33.919  1.00  0.00     0.031 A 
ATOM     92  C   UNL A   1      44.357  23.371  33.648  1.00  0.00     0.131 A 
ATOM     93  C   UNL A   1      46.834  23.056  34.755  1.00  0.00     0.055 A 
ATOM     94  C   UNL A   1      44.567  22.346  34.570  1.00  0.00     0.041 A 
ATOM     95  F   UNL A   1      43.114  23.410  33.148  1.00  0.00    -0.206 F 
ATOM     96  C   UNL A   1      45.824  22.170  35.119  1.00  0.00     0.022 A 
BRANCH  93  97
ATOM     97  S   UNL A   1      48.543  22.797  35.251  1.00  0.00     0.124 S 
ATOM     98  O   UNL A   1      49.068  22.060  34.104  1.00  0.00    -0.237 OA
ATOM     99  O   UNL A   1      49.035  24.162  35.404  1.00  0.00    -0.237 OA
ATOM    100  O   UNL A   1      48.428  22.030  36.488  1.00  0.00    -0.744 OA
ENDBRANCH  93  97
ENDBRANCH  67  90
ENDBRANCH  41  42
ENDBRANCH  34  36
ENDBRANCH  33  34
ENDBRANCH  32  33
ENDBRANCH  31  32
ENDBRANCH  30  31
ENDBRANCH  29  30
ENDBRANCH  28  29
ENDBRANCH   1  28
TORSDOF 26
ENDMDL
MODEL 3
REMARK VINA RESULT:      -9.6      3.670      9.215
REMARK SMILES Cc1ccc(S(=O)(=O)Nc2ccccn2)cc1C(=O)OCCOCCOCCOCCOC(=O)c1ccc(-c2c3nc(c(-c4cc(S(=O)(=O)[O-])ccc4F)c4ccc([nH]4)c(-c4cc(S(=O)(=O)[O-])ccc4F)c4nc(c(-c5cc(S(=O)(=O)[O-])ccc5F)c5ccc2[nH]5)C=C4)C=C3)cc1
REMARK SMILES IDX 26 1 25 2 24 3 23 4 22 5 21 6 20 7 18 8 19 9 17 10 1 11 2 12
REMARK SMILES IDX 3 13 4 14 16 15 5 16 6 17 7 18 8 19 9 20 10 22 11 23 15 24
REMARK SMILES IDX 12 25 14 26 13 27 27 28 28 29 29 30 30 31 31 32 32 33 33 34
REMARK SMILES IDX 34 35 35 36 36 37 97 38 37 39 96 40 38 41 39 42 40 43 90 44
REMARK SMILES IDX 41 45 95 46 89 47 91 48 42 49 94 50 88 51 87 52 43 54 75 55
REMARK SMILES IDX 55 56 74 57 56 58 59 59 73 60 92 61 57 62 58 63 72 65 93 66
REMARK SMILES IDX 60 67 44 68 45 69 53 70 46 71 52 72 54 73 51 74 47 75 48 76
REMARK SMILES IDX 49 77 50 78 76 79 77 80 85 81 78 82 84 83 86 84 83 85 79 86
REMARK SMILES IDX 80 87 81 88 82 89 61 90 62 91 70 92 63 93 69 94 71 95 68 96
REMARK SMILES IDX 64 97 65 98 66 99 67 100
REMARK H PARENT 9 21 91 53 59 64
REMARK Flexibility Score: inf
ROOT
ATOM      1  O   UNL A   1      32.750  27.087  23.202  1.00  0.00    -0.377 OA
ENDROOT
BRANCH   1   2
ATOM      2  C   UNL A   1      31.663  27.993  23.020  1.00  0.00     0.188 C 
BRANCH   2   3
ATOM      3  C   UNL A   1      30.376  27.324  22.590  1.00  0.00     0.188 C 
BRANCH   3   4
ATOM      4  O   UNL A   1      29.441  27.161  23.648  1.00  0.00    -0.376 OA
BRANCH   4   5
ATOM      5  C   UNL A   1      30.071  27.052  24.924  1.00  0.00     0.202 C 
BRANCH   5   6
ATOM      6  C   UNL A   1      29.740  25.834  25.798  1.00  0.00     0.261 C 
BRANCH   6   7
ATOM      7  O   UNL A   1      30.906  25.288  26.427  1.00  0.00    -0.460 OA
BRANCH   7   8
ATOM      8  C   UNL A   1      31.066  23.952  26.300  1.00  0.00     0.338 C 
ATOM      9  O   UNL A   1      30.290  23.085  26.600  1.00  0.00    -0.246 OA
BRANCH   8  10
ATOM     10  C   UNL A   1      32.082  23.743  25.237  1.00  0.00     0.064 A 
ATOM     11  C   UNL A   1      30.573  23.841  23.141  1.00  0.00     0.045 C 
ATOM     12  C   UNL A   1      31.881  23.613  23.848  1.00  0.00    -0.036 A 
ATOM     13  C   UNL A   1      32.953  23.144  23.068  1.00  0.00     0.006 A 
ATOM     14  C   UNL A   1      34.095  22.615  23.675  1.00  0.00     0.022 A 
ATOM     15  C   UNL A   1      33.289  23.334  25.823  1.00  0.00     0.038 A 
ATOM     16  C   UNL A   1      34.213  22.644  25.065  1.00  0.00     0.088 A 
BRANCH  16  17
ATOM     17  S   UNL A   1      35.362  21.560  25.873  1.00  0.00     0.263 S 
ATOM     18  O   UNL A   1      36.633  22.256  25.907  1.00  0.00    -0.201 OA
ATOM     19  O   UNL A   1      34.717  21.138  27.098  1.00  0.00    -0.201 OA
BRANCH  17  20
ATOM     20  N   UNL A   1      35.530  20.197  24.930  1.00  0.00    -0.263 N 
ATOM     21  H   UNL A   1      36.378  20.093  24.439  1.00  0.00     0.182 HD
BRANCH  20  22
ATOM     22  C   UNL A   1      34.570  19.178  24.769  1.00  0.00     0.139 A 
ATOM     23  C   UNL A   1      33.206  19.334  24.635  1.00  0.00     0.048 A 
ATOM     24  N   UNL A   1      35.201  18.005  24.584  1.00  0.00    -0.239 NA
ATOM     25  C   UNL A   1      32.451  18.200  24.312  1.00  0.00     0.005 A 
ATOM     26  C   UNL A   1      34.446  16.914  24.321  1.00  0.00     0.113 A 
ATOM     27  C   UNL A   1      33.074  16.962  24.168  1.00  0.00     0.020 A 
ENDBRANCH  20  22
ENDBRANCH  17  20
ENDBRANCH  16  17
ENDBRANCH   8  10
ENDBRANCH   7   8
ENDBRANCH   6   7
ENDBRANCH   5   6
ENDBRANCH   4   5
ENDBRANCH   3   4
ENDBRANCH   2   3
ENDBRANCH   1   2
BRANCH   1  28
ATOM     28  C   UNL A   1      33.839  27.546  24.003  1.00  0.00     0.188 C 
BRANCH  28  29
ATOM     29  C   UNL A   1      33.439  27.836  25.435  1.00  0.00     0.188 C 
BRANCH  29  30
ATOM     30  O   UNL A   1      32.849  29.131  25.554  1.00  0.00    -0.376 OA
BRANCH  30  31
ATOM     31  C   UNL A   1      33.448  29.995  26.512  1.00  0.00     0.202 C 
BRANCH  31  32
ATOM     32  C   UNL A   1      34.488  29.326  27.426  1.00  0.00     0.261 C 
BRANCH  32  33
ATOM     33  O   UNL A   1      35.782  29.941  27.260  1.00  0.00    -0.460 OA
BRANCH  33  34
ATOM     34  C   UNL A   1      36.384  30.348  28.414  1.00  0.00     0.338 C 
ATOM     35  O   UNL A   1      35.803  30.802  29.385  1.00  0.00    -0.246 OA
BRANCH  34  36
ATOM     36  C   UNL A   1      37.866  30.284  28.265  1.00  0.00     0.060 A 
ATOM     37  C   UNL A   1      38.449  29.535  27.226  1.00  0.00     0.016 A 
ATOM     38  C   UNL A   1      38.646  30.696  29.338  1.00  0.00     0.016 A 
ATOM     39  C   UNL A   1      39.755  29.038  27.367  1.00  0.00     0.010 A 
ATOM     40  C   UNL A   1      39.868  30.095  29.526  1.00  0.00     0.010 A 
ATOM     41  C   UNL A   1      40.425  29.231  28.572  1.00  0.00    -0.014 A 
BRANCH  41  42
ATOM     42  C   UNL A   1      41.604  28.478  29.045  1.00  0.00     0.031 A 
ATOM     43  C   UNL A   1      41.542  26.973  28.991  1.00  0.00     0.074 A 
ATOM     44  C   UNL A   1      42.788  29.146  29.088  1.00  0.00     0.049 A 
ATOM     45  N   UNL A   1      42.543  26.175  29.112  1.00  0.00    -0.248 NA
ATOM     46  C   UNL A   1      40.316  26.225  28.698  1.00  0.00     0.031 C 
ATOM     47  C   UNL A   1      44.135  28.587  28.967  1.00  0.00     0.029 A 
ATOM     48  N   UNL A   1      43.072  30.495  29.159  1.00  0.00    -0.354 N 
ATOM     49  C   UNL A   1      42.198  24.910  28.664  1.00  0.00     0.074 A 
ATOM     50  C   UNL A   1      40.778  24.990  28.457  1.00  0.00     0.031 C 
ATOM     51  C   UNL A   1      45.075  29.540  29.053  1.00  0.00     0.029 A 
ATOM     52  C   UNL A   1      44.400  30.701  29.555  1.00  0.00     0.049 A 
ATOM     53  H   UNL A   1      42.429  31.214  28.957  1.00  0.00     0.167 HD
ATOM     54  C   UNL A   1      43.192  23.992  28.440  1.00  0.00     0.034 A 
ATOM     55  C   UNL A   1      44.677  31.148  30.819  1.00  0.00     0.034 A 
ATOM     56  C   UNL A   1      44.474  24.474  28.994  1.00  0.00     0.049 A 
ATOM     57  C   UNL A   1      45.157  29.940  31.679  1.00  0.00     0.074 A 
ATOM     58  C   UNL A   1      45.766  24.591  28.523  1.00  0.00     0.029 A 
ATOM     59  N   UNL A   1      44.481  25.115  30.236  1.00  0.00    -0.354 N 
ATOM     60  N   UNL A   1      44.762  28.686  31.499  1.00  0.00    -0.248 NA
ATOM     61  C   UNL A   1      46.356  29.999  32.520  1.00  0.00     0.031 C 
ATOM     62  C   UNL A   1      46.447  25.538  29.355  1.00  0.00     0.029 A 
ATOM     63  C   UNL A   1      45.618  25.875  30.420  1.00  0.00     0.049 A 
ATOM     64  H   UNL A   1      43.760  25.035  30.902  1.00  0.00     0.167 HD
ATOM     65  C   UNL A   1      45.718  27.815  31.985  1.00  0.00     0.074 A 
ATOM     66  C   UNL A   1      46.658  28.696  32.672  1.00  0.00     0.031 C 
ATOM     67  C   UNL A   1      45.883  26.471  31.718  1.00  0.00     0.034 A 
BRANCH  54  68
ATOM     68  C   UNL A   1      43.107  22.711  27.588  1.00  0.00     0.023 A 
ATOM     69  C   UNL A   1      44.054  22.496  26.552  1.00  0.00     0.031 A 
ATOM     70  C   UNL A   1      42.086  21.735  27.646  1.00  0.00     0.131 A 
ATOM     71  C   UNL A   1      43.954  21.415  25.645  1.00  0.00     0.055 A 
ATOM     72  C   UNL A   1      42.023  20.622  26.783  1.00  0.00     0.041 A 
ATOM     73  F   UNL A   1      41.058  21.827  28.495  1.00  0.00    -0.206 F 
ATOM     74  C   UNL A   1      42.952  20.462  25.769  1.00  0.00     0.022 A 
BRANCH  71  75
ATOM     75  S   UNL A   1      45.133  21.281  24.264  1.00  0.00     0.124 S 
ATOM     76  O   UNL A   1      45.088  19.855  23.964  1.00  0.00    -0.237 OA
ATOM     77  O   UNL A   1      44.553  22.174  23.268  1.00  0.00    -0.237 OA
ATOM     78  O   UNL A   1      46.391  21.747  24.846  1.00  0.00    -0.744 OA
ENDBRANCH  71  75
ENDBRANCH  54  68
BRANCH  55  79
ATOM     79  C   UNL A   1      43.865  32.397  31.059  1.00  0.00     0.023 A 
ATOM     80  C   UNL A   1      44.274  33.498  30.244  1.00  0.00     0.031 A 
ATOM     81  C   UNL A   1      42.495  32.315  31.358  1.00  0.00     0.131 A 
ATOM     82  C   UNL A   1      43.326  34.248  29.520  1.00  0.00     0.055 A 
ATOM     83  C   UNL A   1      41.554  33.114  30.677  1.00  0.00     0.041 A 
ATOM     84  F   UNL A   1      42.023  31.324  32.128  1.00  0.00    -0.206 F 
ATOM     85  C   UNL A   1      41.962  34.022  29.697  1.00  0.00     0.022 A 
BRANCH  82  86
ATOM     86  S   UNL A   1      43.883  35.284  28.117  1.00  0.00     0.124 S 
ATOM     87  O   UNL A   1      42.736  35.222  27.219  1.00  0.00    -0.237 OA
ATOM     88  O   UNL A   1      44.123  36.577  28.746  1.00  0.00    -0.237 OA
ATOM     89  O   UNL A   1      45.088  34.594  27.659  1.00  0.00    -0.744 OA
ENDBRANCH  82  86
ENDBRANCH  55  79
BRANCH  67  90
ATOM     90  C   UNL A   1      46.326  25.497  32.792  1.00  0.00     0.023 A 
ATOM     91  C   UNL A   1      45.413  24.626  33.374  1.00  0.00     0.031 A 
ATOM     92  C   UNL A   1      47.692  25.278  33.131  1.00  0.00     0.131 A 
ATOM     93  C   UNL A   1      45.823  23.668  34.304  1.00  0.00     0.055 A 
ATOM     94  C   UNL A   1      48.111  24.249  33.974  1.00  0.00     0.041 A 
ATOM     95  F   UNL A   1      48.693  26.021  32.638  1.00  0.00    -0.206 F 
ATOM     96  C   UNL A   1      47.167  23.443  34.585  1.00  0.00     0.022 A 
BRANCH  93  97
ATOM     97  S   UNL A   1      44.515  22.815  35.194  1.00  0.00     0.124 S 
ATOM     98  O   UNL A   1      44.756  23.266  36.563  1.00  0.00    -0.237 OA
ATOM     99  O   UNL A   1      43.310  23.340  34.559  1.00  0.00    -0.237 OA
ATOM    100  O   UNL A   1      44.792  21.404  34.942  1.00  0.00    -0.744 OA
ENDBRANCH  93  97
ENDBRANCH  67  90
ENDBRANCH  41  42
ENDBRANCH  34  36
ENDBRANCH  33  34
ENDBRANCH  32  33
ENDBRANCH  31  32
ENDBRANCH  30  31
ENDBRANCH  29  30
ENDBRANCH  28  29
ENDBRANCH   1  28
TORSDOF 26
ENDMDL
