MODEL 1
REMARK VINA RESULT:     -10.1      0.000      0.000
REMARK SMILES O=C(OCCOCCOCCOCCOC(=O)c1ccccc1Nc1cccc(S(F)(F)(F)(F)F)c1)c1ccc(-c2c3nc(c(-c4cc(S(=O)(=O)[O-])ccc4F)c4ccc([nH]4)c(-c4cc(S(=O)(=O)[O-])ccc4F)c4nc(c(-c5cc(S(=O)(=O)[O-])ccc5F)c5ccc2[nH]5)C=C4)C=C3)cc1
REMARK SMILES IDX 9 1 8 2 7 3 6 4 5 5 4 6 3 7 2 8 1 9 37 10 38 11 99 12 39 13
REMARK SMILES IDX 98 14 40 15 41 16 42 17 92 18 43 19 97 20 91 21 93 22 44 23
REMARK SMILES IDX 96 24 90 25 89 26 45 28 77 29 57 30 76 31 58 32 61 33 75 34
REMARK SMILES IDX 94 35 59 36 60 37 74 39 95 40 62 41 46 42 47 43 55 44 48 45
REMARK SMILES IDX 54 46 56 47 53 48 49 49 50 50 51 51 52 52 78 53 79 54 87 55
REMARK SMILES IDX 80 56 86 57 88 58 85 59 81 60 82 61 83 62 84 63 63 64 64 65
REMARK SMILES IDX 72 66 65 67 71 68 73 69 70 70 66 71 67 72 68 73 69 74 10 75
REMARK SMILES IDX 11 76 12 77 13 78 14 79 15 80 16 81 17 82 18 83 19 84 23 85
REMARK SMILES IDX 20 86 22 87 21 88 24 89 25 91 26 92 36 93 27 94 29 95 28 96
REMARK SMILES IDX 30 97 31 98 32 99 33 100 34 101 35 102
REMARK H PARENT 93 27 61 38 24 90
REMARK Flexibility Score: inf
ROOT
ATOM      1  O   UNL A   1      34.842  32.583  27.488  1.00  0.00    -0.377 OA
ENDROOT
BRANCH   1   2
ATOM      2  C   UNL A   1      34.451  33.780  28.145  1.00  0.00     0.188 C 
BRANCH   2   3
ATOM      3  C   UNL A   1      32.966  34.019  27.923  1.00  0.00     0.188 C 
BRANCH   3   4
ATOM      4  O   UNL A   1      32.520  35.054  28.786  1.00  0.00    -0.376 OA
BRANCH   4   5
ATOM      5  C   UNL A   1      33.505  35.302  29.778  1.00  0.00     0.202 C 
BRANCH   5   6
ATOM      6  C   UNL A   1      33.379  36.734  30.271  1.00  0.00     0.261 C 
BRANCH   6   7
ATOM      7  O   UNL A   1      32.575  36.763  31.441  1.00  0.00    -0.460 OA
BRANCH   7   8
ATOM      8  C   UNL A   1      32.517  35.627  32.291  1.00  0.00     0.338 C 
ATOM      9  O   UNL A   1      31.398  35.230  32.745  1.00  0.00    -0.246 OA
BRANCH   8  10
ATOM     10  C   UNL A   1      33.792  34.887  32.659  1.00  0.00     0.060 A 
ATOM     11  C   UNL A   1      34.925  35.666  32.827  1.00  0.00     0.016 A 
ATOM     12  C   UNL A   1      33.809  33.584  32.914  1.00  0.00     0.016 A 
ATOM     13  C   UNL A   1      36.115  34.920  32.994  1.00  0.00     0.010 A 
ATOM     14  C   UNL A   1      34.989  32.943  33.203  1.00  0.00     0.010 A 
ATOM     15  C   UNL A   1      36.158  33.643  33.326  1.00  0.00    -0.014 A 
BRANCH  15  16
ATOM     16  C   UNL A   1      37.437  32.986  33.819  1.00  0.00     0.031 A 
ATOM     17  C   UNL A   1      37.919  33.230  35.106  1.00  0.00     0.074 A 
ATOM     18  C   UNL A   1      38.124  32.263  32.859  1.00  0.00     0.049 A 
ATOM     19  N   UNL A   1      39.065  32.804  35.640  1.00  0.00    -0.248 NA
ATOM     20  C   UNL A   1      37.206  34.025  36.116  1.00  0.00     0.031 C 
ATOM     21  C   UNL A   1      37.641  32.005  31.561  1.00  0.00     0.029 A 
ATOM     22  N   UNL A   1      39.366  31.677  32.971  1.00  0.00    -0.354 N 
ATOM     23  C   UNL A   1      39.169  33.225  36.902  1.00  0.00     0.074 A 
ATOM     24  C   UNL A   1      37.978  34.021  37.225  1.00  0.00     0.031 C 
ATOM     25  C   UNL A   1      38.581  31.284  30.897  1.00  0.00     0.029 A 
ATOM     26  C   UNL A   1      39.668  31.077  31.767  1.00  0.00     0.049 A 
ATOM     27  H   UNL A   1      39.938  31.684  33.773  1.00  0.00     0.167 HD
ATOM     28  C   UNL A   1      40.210  32.973  37.797  1.00  0.00     0.034 A 
ATOM     29  C   UNL A   1      40.821  30.389  31.429  1.00  0.00     0.034 A 
ATOM     30  C   UNL A   1      41.345  32.247  37.473  1.00  0.00     0.049 A 
ATOM     31  C   UNL A   1      41.890  30.187  32.307  1.00  0.00     0.074 A 
ATOM     32  C   UNL A   1      42.401  31.978  38.365  1.00  0.00     0.029 A 
ATOM     33  N   UNL A   1      41.659  31.669  36.261  1.00  0.00    -0.354 N 
ATOM     34  N   UNL A   1      41.976  30.574  33.580  1.00  0.00    -0.248 NA
ATOM     35  C   UNL A   1      43.131  29.487  31.949  1.00  0.00     0.031 C 
ATOM     36  C   UNL A   1      43.342  31.256  37.700  1.00  0.00     0.029 A 
ATOM     37  C   UNL A   1      42.890  31.064  36.380  1.00  0.00     0.049 A 
ATOM     38  H   UNL A   1      41.099  31.687  35.452  1.00  0.00     0.167 HD
ATOM     39  C   UNL A   1      43.141  30.184  34.101  1.00  0.00     0.074 A 
ATOM     40  C   UNL A   1      43.904  29.484  33.057  1.00  0.00     0.031 C 
ATOM     41  C   UNL A   1      43.598  30.377  35.406  1.00  0.00     0.034 A 
BRANCH  28  42
ATOM     42  C   UNL A   1      40.093  33.527  39.208  1.00  0.00     0.023 A 
ATOM     43  C   UNL A   1      39.551  32.826  40.272  1.00  0.00     0.031 A 
ATOM     44  C   UNL A   1      40.661  34.714  39.384  1.00  0.00     0.131 A 
ATOM     45  C   UNL A   1      39.397  33.597  41.448  1.00  0.00     0.055 A 
ATOM     46  C   UNL A   1      40.590  35.351  40.600  1.00  0.00     0.041 A 
ATOM     47  F   UNL A   1      41.305  35.294  38.374  1.00  0.00    -0.206 F 
ATOM     48  C   UNL A   1      40.015  34.741  41.680  1.00  0.00     0.022 A 
BRANCH  45  49
ATOM     49  S   UNL A   1      38.277  32.971  42.725  1.00  0.00     0.124 S 
ATOM     50  O   UNL A   1      36.940  32.586  42.087  1.00  0.00    -0.237 OA
ATOM     51  O   UNL A   1      38.898  31.740  43.389  1.00  0.00    -0.237 OA
ATOM     52  O   UNL A   1      38.019  34.184  43.902  1.00  0.00    -0.744 OA
ENDBRANCH  45  49
ENDBRANCH  28  42
BRANCH  29  53
ATOM     53  C   UNL A   1      40.932  29.821  30.023  1.00  0.00     0.023 A 
ATOM     54  C   UNL A   1      40.351  28.610  29.685  1.00  0.00     0.031 A 
ATOM     55  C   UNL A   1      41.729  30.463  29.178  1.00  0.00     0.131 A 
ATOM     56  C   UNL A   1      40.910  28.010  28.531  1.00  0.00     0.055 A 
ATOM     57  C   UNL A   1      42.126  29.871  28.004  1.00  0.00     0.041 A 
ATOM     58  F   UNL A   1      42.148  31.691  29.472  1.00  0.00    -0.206 F 
ATOM     59  C   UNL A   1      41.639  28.648  27.634  1.00  0.00     0.022 A 
BRANCH  56  60
ATOM     60  S   UNL A   1      40.601  26.246  28.266  1.00  0.00     0.124 S 
ATOM     61  O   UNL A   1      39.386  25.812  29.089  1.00  0.00    -0.237 OA
ATOM     62  O   UNL A   1      40.328  25.993  26.782  1.00  0.00    -0.237 OA
ATOM     63  O   UNL A   1      41.971  25.348  28.756  1.00  0.00    -0.744 OA
ENDBRANCH  56  60
ENDBRANCH  29  53
BRANCH  41  64
ATOM     64  C   UNL A   1      44.954  29.803  35.780  1.00  0.00     0.023 A 
ATOM     65  C   UNL A   1      44.930  28.488  36.216  1.00  0.00     0.031 A 
ATOM     66  C   UNL A   1      46.102  30.441  35.581  1.00  0.00     0.131 A 
ATOM     67  C   UNL A   1      46.176  28.020  36.695  1.00  0.00     0.055 A 
ATOM     68  C   UNL A   1      47.295  29.866  35.949  1.00  0.00     0.041 A 
ATOM     69  F   UNL A   1      46.096  31.647  35.021  1.00  0.00    -0.206 F 
ATOM     70  C   UNL A   1      47.339  28.593  36.443  1.00  0.00     0.022 A 
BRANCH  67  71
ATOM     71  S   UNL A   1      46.176  26.532  37.726  1.00  0.00     0.124 S 
ATOM     72  O   UNL A   1      45.599  25.358  36.930  1.00  0.00    -0.237 OA
ATOM     73  O   UNL A   1      47.611  26.205  38.149  1.00  0.00    -0.237 OA
ATOM     74  O   UNL A   1      45.220  26.802  39.117  1.00  0.00    -0.744 OA
ENDBRANCH  67  71
ENDBRANCH  41  64
ENDBRANCH  15  16
ENDBRANCH   8  10
ENDBRANCH   7   8
ENDBRANCH   6   7
ENDBRANCH   5   6
ENDBRANCH   4   5
ENDBRANCH   3   4
ENDBRANCH   2   3
ENDBRANCH   1   2
BRANCH   1  75
ATOM     75  C   UNL A   1      34.342  31.465  28.206  1.00  0.00     0.188 C 
BRANCH  75  76
ATOM     76  C   UNL A   1      33.771  30.449  27.230  1.00  0.00     0.188 C 
BRANCH  76  77
ATOM     77  O   UNL A   1      32.360  30.595  27.168  1.00  0.00    -0.376 OA
BRANCH  77  78
ATOM     78  C   UNL A   1      31.797  29.477  26.496  1.00  0.00     0.202 C 
BRANCH  78  79
ATOM     79  C   UNL A   1      31.929  28.242  27.370  1.00  0.00     0.261 C 
BRANCH  79  80
ATOM     80  O   UNL A   1      31.847  27.078  26.560  1.00  0.00    -0.460 OA
BRANCH  80  81
ATOM     81  C   UNL A   1      32.974  26.658  25.806  1.00  0.00     0.340 C 
ATOM     82  O   UNL A   1      34.138  27.054  26.128  1.00  0.00    -0.246 OA
BRANCH  81  83
ATOM     83  C   UNL A   1      32.789  25.733  24.614  1.00  0.00     0.083 A 
ATOM     84  C   UNL A   1      33.156  24.400  24.693  1.00  0.00     0.018 A 
ATOM     85  C   UNL A   1      32.420  26.279  23.461  1.00  0.00     0.053 A 
ATOM     86  C   UNL A   1      33.380  23.792  23.435  1.00  0.00     0.001 A 
ATOM     87  C   UNL A   1      32.539  25.577  22.285  1.00  0.00     0.027 A 
ATOM     88  C   UNL A   1      32.952  24.274  22.283  1.00  0.00     0.002 A 
BRANCH  85  89
ATOM     89  N   UNL A   1      31.878  27.646  23.442  1.00  0.00    -0.355 N 
ATOM     90  H   UNL A   1      32.489  28.416  23.391  1.00  0.00     0.167 HD
BRANCH  89  91
ATOM     91  C   UNL A   1      30.426  27.862  23.498  1.00  0.00     0.040 A 
ATOM     92  C   UNL A   1      29.598  26.831  23.909  1.00  0.00     0.026 A 
ATOM     93  C   UNL A   1      29.931  29.035  23.123  1.00  0.00     0.050 A 
ATOM     94  C   UNL A   1      28.230  27.042  23.614  1.00  0.00     0.004 A 
ATOM     95  C   UNL A   1      28.575  29.212  22.987  1.00  0.00     0.109 A 
ATOM     96  C   UNL A   1      27.700  28.215  23.319  1.00  0.00     0.024 A 
BRANCH  95  97
ATOM     97  S   UNL A   1      27.939  30.785  22.357  1.00  0.00     0.310 S 
ATOM     98  F   UNL A   1      29.457  31.187  22.140  1.00  0.00    -0.094 F 
ATOM     99  F   UNL A   1      28.030  31.471  23.773  1.00  0.00    -0.094 F 
ATOM    100  F   UNL A   1      27.548  32.136  21.696  1.00  0.00    -0.094 F 
ATOM    101  F   UNL A   1      27.989  30.110  20.931  1.00  0.00    -0.094 F 
ATOM    102  F   UNL A   1      28.444  29.431  23.000  1.00  0.00    -0.094 F 
ENDBRANCH  95  97
ENDBRANCH  89  91
ENDBRANCH  85  89
ENDBRANCH  81  83
ENDBRANCH  80  81
ENDBRANCH  79  80
ENDBRANCH  78  79
ENDBRANCH  77  78
ENDBRANCH  76  77
ENDBRANCH  75  76
ENDBRANCH   1  75
TORSDOF 26
ENDMDL
MODEL 2
REMARK VINA RESULT:      -9.9      3.359      4.568
REMARK SMILES O=C(OCCOCCOCCOCCOC(=O)c1ccccc1Nc1cccc(S(F)(F)(F)(F)F)c1)c1ccc(-c2c3nc(c(-c4cc(S(=O)(=O)[O-])ccc4F)c4ccc([nH]4)c(-c4cc(S(=O)(=O)[O-])ccc4F)c4nc(c(-c5cc(S(=O)(=O)[O-])ccc5F)c5ccc2[nH]5)C=C4)C=C3)cc1
REMARK SMILES IDX 9 1 8 2 7 3 6 4 5 5 4 6 3 7 2 8 1 9 37 10 38 11 99 12 39 13
REMARK SMILES IDX 98 14 40 15 41 16 42 17 92 18 43 19 97 20 91 21 93 22 44 23
REMARK SMILES IDX 96 24 90 25 89 26 45 28 77 29 57 30 76 31 58 32 61 33 75 34
REMARK SMILES IDX 94 35 59 36 60 37 74 39 95 40 62 41 46 42 47 43 55 44 48 45
REMARK SMILES IDX 54 46 56 47 53 48 49 49 50 50 51 51 52 52 78 53 79 54 87 55
REMARK SMILES IDX 80 56 86 57 88 58 85 59 81 60 82 61 83 62 84 63 63 64 64 65
REMARK SMILES IDX 72 66 65 67 71 68 73 69 70 70 66 71 67 72 68 73 69 74 10 75
REMARK SMILES IDX 11 76 12 77 13 78 14 79 15 80 16 81 17 82 18 83 19 84 23 85
REMARK SMILES IDX 20 86 22 87 21 88 24 89 25 91 26 92 36 93 27 94 29 95 28 96
REMARK SMILES IDX 30 97 31 98 32 99 33 100 34 101 35 102
REMARK H PARENT 93 27 61 38 24 90
REMARK Flexibility Score: inf
ROOT
ATOM      1  O   UNL A   1      35.291  33.338  28.394  1.00  0.00    -0.377 OA
ENDROOT
BRANCH   1   2
ATOM      2  C   UNL A   1      34.406  34.301  27.841  1.00  0.00     0.188 C 
BRANCH   2   3
ATOM      3  C   UNL A   1      33.321  34.631  28.853  1.00  0.00     0.188 C 
BRANCH   3   4
ATOM      4  O   UNL A   1      33.770  35.675  29.705  1.00  0.00    -0.376 OA
BRANCH   4   5
ATOM      5  C   UNL A   1      32.842  35.854  30.765  1.00  0.00     0.202 C 
BRANCH   5   6
ATOM      6  C   UNL A   1      33.543  35.632  32.095  1.00  0.00     0.261 C 
BRANCH   6   7
ATOM      7  O   UNL A   1      34.722  34.868  31.888  1.00  0.00    -0.460 OA
BRANCH   7   8
ATOM      8  C   UNL A   1      34.742  33.488  32.226  1.00  0.00     0.338 C 
ATOM      9  O   UNL A   1      33.663  32.895  32.541  1.00  0.00    -0.246 OA
BRANCH   8  10
ATOM     10  C   UNL A   1      36.054  32.722  32.211  1.00  0.00     0.060 A 
ATOM     11  C   UNL A   1      37.079  33.277  31.463  1.00  0.00     0.016 A 
ATOM     12  C   UNL A   1      36.253  31.641  32.956  1.00  0.00     0.016 A 
ATOM     13  C   UNL A   1      38.215  32.444  31.339  1.00  0.00     0.010 A 
ATOM     14  C   UNL A   1      37.440  30.951  32.885  1.00  0.00     0.010 A 
ATOM     15  C   UNL A   1      38.475  31.411  32.119  1.00  0.00    -0.014 A 
BRANCH  15  16
ATOM     16  C   UNL A   1      39.852  30.767  32.164  1.00  0.00     0.031 A 
ATOM     17  C   UNL A   1      40.827  31.221  33.054  1.00  0.00     0.074 A 
ATOM     18  C   UNL A   1      40.081  29.820  31.181  1.00  0.00     0.049 A 
ATOM     19  N   UNL A   1      42.097  30.821  33.141  1.00  0.00    -0.248 NA
ATOM     20  C   UNL A   1      40.595  32.251  34.076  1.00  0.00     0.031 C 
ATOM     21  C   UNL A   1      39.099  29.351  30.286  1.00  0.00     0.029 A 
ATOM     22  N   UNL A   1      41.261  29.174  30.888  1.00  0.00    -0.354 N 
ATOM     23  C   UNL A   1      42.717  31.472  34.127  1.00  0.00     0.074 A 
ATOM     24  C   UNL A   1      41.762  32.405  34.739  1.00  0.00     0.031 C 
ATOM     25  C   UNL A   1      39.682  28.444  29.459  1.00  0.00     0.029 A 
ATOM     26  C   UNL A   1      41.037  28.329  29.823  1.00  0.00     0.049 A 
ATOM     27  H   UNL A   1      42.117  29.295  31.360  1.00  0.00     0.167 HD
ATOM     28  C   UNL A   1      44.042  31.322  34.542  1.00  0.00     0.034 A 
ATOM     29  C   UNL A   1      41.950  27.502  29.190  1.00  0.00     0.034 A 
ATOM     30  C   UNL A   1      44.944  30.461  33.937  1.00  0.00     0.049 A 
ATOM     31  C   UNL A   1      43.291  27.395  29.568  1.00  0.00     0.074 A 
ATOM     32  C   UNL A   1      46.281  30.292  34.347  1.00  0.00     0.029 A 
ATOM     33  N   UNL A   1      44.726  29.635  32.855  1.00  0.00    -0.354 N 
ATOM     34  N   UNL A   1      43.900  28.015  30.579  1.00  0.00    -0.248 NA
ATOM     35  C   UNL A   1      44.276  26.545  28.884  1.00  0.00     0.031 C 
ATOM     36  C   UNL A   1      46.864  29.384  33.519  1.00  0.00     0.029 A 
ATOM     37  C   UNL A   1      45.901  28.972  32.578  1.00  0.00     0.049 A 
ATOM     38  H   UNL A   1      43.878  29.537  32.366  1.00  0.00     0.167 HD
ATOM     39  C   UNL A   1      45.181  27.646  30.639  1.00  0.00     0.074 A 
ATOM     40  C   UNL A   1      45.443  26.700  29.545  1.00  0.00     0.031 C 
ATOM     41  C   UNL A   1      46.142  28.056  31.565  1.00  0.00     0.034 A 
BRANCH  28  42
ATOM     42  C   UNL A   1      44.522  32.148  35.724  1.00  0.00     0.023 A 
ATOM     43  C   UNL A   1      44.541  31.691  37.031  1.00  0.00     0.031 A 
ATOM     44  C   UNL A   1      45.039  33.327  35.400  1.00  0.00     0.131 A 
ATOM     45  C   UNL A   1      44.874  32.685  37.981  1.00  0.00     0.055 A 
ATOM     46  C   UNL A   1      45.470  34.194  36.374  1.00  0.00     0.041 A 
ATOM     47  F   UNL A   1      45.141  33.673  34.119  1.00  0.00    -0.206 F 
ATOM     48  C   UNL A   1      45.463  33.830  37.692  1.00  0.00     0.022 A 
BRANCH  45  49
ATOM     49  S   UNL A   1      44.464  32.363  39.715  1.00  0.00     0.124 S 
ATOM     50  O   UNL A   1      43.475  33.420  40.210  1.00  0.00    -0.237 OA
ATOM     51  O   UNL A   1      43.831  30.975  39.840  1.00  0.00    -0.237 OA
ATOM     52  O   UNL A   1      45.887  32.427  40.659  1.00  0.00    -0.744 OA
ENDBRANCH  45  49
ENDBRANCH  28  42
BRANCH  29  53
ATOM     53  C   UNL A   1      41.466  26.663  28.019  1.00  0.00     0.023 A 
ATOM     54  C   UNL A   1      41.164  25.319  28.167  1.00  0.00     0.031 A 
ATOM     55  C   UNL A   1      41.487  27.237  26.821  1.00  0.00     0.131 A 
ATOM     56  C   UNL A   1      41.181  24.591  26.953  1.00  0.00     0.055 A 
ATOM     57  C   UNL A   1      41.361  26.481  25.682  1.00  0.00     0.041 A 
ATOM     58  F   UNL A   1      41.631  28.555  26.726  1.00  0.00    -0.206 F 
ATOM     59  C   UNL A   1      41.121  25.137  25.752  1.00  0.00     0.022 A 
BRANCH  56  60
ATOM     60  S   UNL A   1      41.291  22.787  27.055  1.00  0.00     0.124 S 
ATOM     61  O   UNL A   1      42.050  22.254  25.839  1.00  0.00    -0.237 OA
ATOM     62  O   UNL A   1      42.033  22.392  28.334  1.00  0.00    -0.237 OA
ATOM     63  O   UNL A   1      39.716  22.121  27.081  1.00  0.00    -0.744 OA
ENDBRANCH  56  60
ENDBRANCH  29  53
BRANCH  41  64
ATOM     64  C   UNL A   1      47.538  27.464  31.456  1.00  0.00     0.023 A 
ATOM     65  C   UNL A   1      48.457  28.258  30.791  1.00  0.00     0.031 A 
ATOM     66  C   UNL A   1      47.908  26.342  32.062  1.00  0.00     0.131 A 
ATOM     67  C   UNL A   1      49.706  27.630  30.573  1.00  0.00     0.055 A 
ATOM     68  C   UNL A   1      49.186  25.857  31.916  1.00  0.00     0.041 A 
ATOM     69  F   UNL A   1      47.035  25.682  32.817  1.00  0.00    -0.206 F 
ATOM     70  C   UNL A   1      50.130  26.560  31.222  1.00  0.00     0.022 A 
BRANCH  67  71
ATOM     71  S   UNL A   1      50.799  28.341  29.318  1.00  0.00     0.124 S 
ATOM     72  O   UNL A   1      50.680  29.867  29.342  1.00  0.00    -0.237 OA
ATOM     73  O   UNL A   1      52.246  27.938  29.615  1.00  0.00    -0.237 OA
ATOM     74  O   UNL A   1      50.350  27.760  27.775  1.00  0.00    -0.744 OA
ENDBRANCH  67  71
ENDBRANCH  41  64
ENDBRANCH  15  16
ENDBRANCH   8  10
ENDBRANCH   7   8
ENDBRANCH   6   7
ENDBRANCH   5   6
ENDBRANCH   4   5
ENDBRANCH   3   4
ENDBRANCH   2   3
ENDBRANCH   1   2
BRANCH   1  75
ATOM     75  C   UNL A   1      34.575  32.144  28.675  1.00  0.00     0.188 C 
BRANCH  75  76
ATOM     76  C   UNL A   1      34.821  31.133  27.567  1.00  0.00     0.188 C 
BRANCH  76  77
ATOM     77  O   UNL A   1      33.975  30.008  27.756  1.00  0.00    -0.376 OA
BRANCH  77  78
ATOM     78  C   UNL A   1      34.221  29.053  26.734  1.00  0.00     0.202 C 
BRANCH  78  79
ATOM     79  C   UNL A   1      32.979  28.905  25.871  1.00  0.00     0.261 C 
BRANCH  79  80
ATOM     80  O   UNL A   1      32.837  27.549  25.475  1.00  0.00    -0.460 OA
BRANCH  80  81
ATOM     81  C   UNL A   1      31.743  26.781  25.954  1.00  0.00     0.340 C 
ATOM     82  O   UNL A   1      31.114  27.150  26.994  1.00  0.00    -0.246 OA
BRANCH  81  83
ATOM     83  C   UNL A   1      31.324  25.516  25.221  1.00  0.00     0.083 A 
ATOM     84  C   UNL A   1      31.409  24.282  25.841  1.00  0.00     0.018 A 
ATOM     85  C   UNL A   1      31.032  25.620  23.930  1.00  0.00     0.053 A 
ATOM     86  C   UNL A   1      31.453  23.190  24.942  1.00  0.00     0.001 A 
ATOM     87  C   UNL A   1      30.957  24.499  23.137  1.00  0.00     0.027 A 
ATOM     88  C   UNL A   1      31.090  23.249  23.674  1.00  0.00     0.002 A 
BRANCH  85  89
ATOM     89  N   UNL A   1      30.786  26.945  23.341  1.00  0.00    -0.355 N 
ATOM     90  H   UNL A   1      31.516  27.425  22.889  1.00  0.00     0.167 HD
BRANCH  89  91
ATOM     91  C   UNL A   1      29.450  27.550  23.428  1.00  0.00     0.040 A 
ATOM     92  C   UNL A   1      28.396  26.810  23.936  1.00  0.00     0.026 A 
ATOM     93  C   UNL A   1      29.271  28.790  22.987  1.00  0.00     0.050 A 
ATOM     94  C   UNL A   1      27.122  27.367  23.671  1.00  0.00     0.004 A 
ATOM     95  C   UNL A   1      28.008  29.320  22.882  1.00  0.00     0.109 A 
ATOM     96  C   UNL A   1      26.914  28.620  23.311  1.00  0.00     0.024 A 
BRANCH  95  97
ATOM     97  S   UNL A   1      27.788  30.967  22.164  1.00  0.00     0.310 S 
ATOM     98  F   UNL A   1      29.370  31.075  22.203  1.00  0.00    -0.094 F 
ATOM     99  F   UNL A   1      27.774  31.661  23.578  1.00  0.00    -0.094 F 
ATOM    100  F   UNL A   1      27.771  32.350  21.453  1.00  0.00    -0.094 F 
ATOM    101  F   UNL A   1      27.944  30.257  20.762  1.00  0.00    -0.094 F 
ATOM    102  F   UNL A   1      27.920  29.560  22.874  1.00  0.00    -0.094 F 
ENDBRANCH  95  97
ENDBRANCH  89  91
ENDBRANCH  85  89
ENDBRANCH  81  83
ENDBRANCH  80  81
ENDBRANCH  79  80
ENDBRANCH  78  79
ENDBRANCH  77  78
ENDBRANCH  76  77
ENDBRANCH  75  76
ENDBRANCH   1  75
TORSDOF 26
ENDMDL
MODEL 3
REMARK VINA RESULT:      -9.7     10.904     16.107
REMARK SMILES O=C(OCCOCCOCCOCCOC(=O)c1ccccc1Nc1cccc(S(F)(F)(F)(F)F)c1)c1ccc(-c2c3nc(c(-c4cc(S(=O)(=O)[O-])ccc4F)c4ccc([nH]4)c(-c4cc(S(=O)(=O)[O-])ccc4F)c4nc(c(-c5cc(S(=O)(=O)[O-])ccc5F)c5ccc2[nH]5)C=C4)C=C3)cc1
REMARK SMILES IDX 9 1 8 2 7 3 6 4 5 5 4 6 3 7 2 8 1 9 37 10 38 11 99 12 39 13
REMARK SMILES IDX 98 14 40 15 41 16 42 17 92 18 43 19 97 20 91 21 93 22 44 23
REMARK SMILES IDX 96 24 90 25 89 26 45 28 77 29 57 30 76 31 58 32 61 33 75 34
REMARK SMILES IDX 94 35 59 36 60 37 74 39 95 40 62 41 46 42 47 43 55 44 48 45
REMARK SMILES IDX 54 46 56 47 53 48 49 49 50 50 51 51 52 52 78 53 79 54 87 55
REMARK SMILES IDX 80 56 86 57 88 58 85 59 81 60 82 61 83 62 84 63 63 64 64 65
REMARK SMILES IDX 72 66 65 67 71 68 73 69 70 70 66 71 67 72 68 73 69 74 10 75
REMARK SMILES IDX 11 76 12 77 13 78 14 79 15 80 16 81 17 82 18 83 19 84 23 85
REMARK SMILES IDX 20 86 22 87 21 88 24 89 25 91 26 92 36 93 27 94 29 95 28 96
REMARK SMILES IDX 30 97 31 98 32 99 33 100 34 101 35 102
REMARK H PARENT 93 27 61 38 24 90
REMARK Flexibility Score: inf
ROOT
ATOM      1  O   UNL A   1      42.738  41.624  26.097  1.00  0.00    -0.377 OA
ENDROOT
BRANCH   1   2
ATOM      2  C   UNL A   1      43.316  40.820  27.116  1.00  0.00     0.188 C 
BRANCH   2   3
ATOM      3  C   UNL A   1      44.430  41.594  27.801  1.00  0.00     0.188 C 
BRANCH   3   4
ATOM      4  O   UNL A   1      44.992  40.799  28.834  1.00  0.00    -0.376 OA
BRANCH   4   5
ATOM      5  C   UNL A   1      46.284  40.358  28.444  1.00  0.00     0.202 C 
BRANCH   5   6
ATOM      6  C   UNL A   1      46.276  38.848  28.277  1.00  0.00     0.261 C 
BRANCH   6   7
ATOM      7  O   UNL A   1      45.056  38.322  28.780  1.00  0.00    -0.460 OA
BRANCH   7   8
ATOM      8  C   UNL A   1      45.075  37.362  29.827  1.00  0.00     0.338 C 
ATOM      9  O   UNL A   1      45.343  37.723  31.015  1.00  0.00    -0.246 OA
BRANCH   8  10
ATOM     10  C   UNL A   1      44.774  35.904  29.525  1.00  0.00     0.060 A 
ATOM     11  C   UNL A   1      45.212  34.982  30.462  1.00  0.00     0.016 A 
ATOM     12  C   UNL A   1      44.040  35.531  28.483  1.00  0.00     0.016 A 
ATOM     13  C   UNL A   1      45.066  33.636  30.053  1.00  0.00     0.010 A 
ATOM     14  C   UNL A   1      43.824  34.199  28.220  1.00  0.00     0.010 A 
ATOM     15  C   UNL A   1      44.280  33.232  29.072  1.00  0.00    -0.014 A 
BRANCH  15  16
ATOM     16  C   UNL A   1      43.902  31.769  28.899  1.00  0.00     0.031 A 
ATOM     17  C   UNL A   1      44.689  30.911  28.130  1.00  0.00     0.074 A 
ATOM     18  C   UNL A   1      42.676  31.419  29.439  1.00  0.00     0.049 A 
ATOM     19  N   UNL A   1      44.436  29.641  27.812  1.00  0.00    -0.248 NA
ATOM     20  C   UNL A   1      45.975  31.292  27.527  1.00  0.00     0.031 C 
ATOM     21  C   UNL A   1      41.880  32.277  30.224  1.00  0.00     0.029 A 
ATOM     22  N   UNL A   1      42.014  30.217  29.323  1.00  0.00    -0.354 N 
ATOM     23  C   UNL A   1      45.433  29.143  27.077  1.00  0.00     0.074 A 
ATOM     24  C   UNL A   1      46.434  30.199  26.878  1.00  0.00     0.031 C 
ATOM     25  C   UNL A   1      40.750  31.606  30.567  1.00  0.00     0.029 A 
ATOM     26  C   UNL A   1      40.820  30.317  30.003  1.00  0.00     0.049 A 
ATOM     27  H   UNL A   1      42.338  29.424  28.838  1.00  0.00     0.167 HD
ATOM     28  C   UNL A   1      45.546  27.849  26.566  1.00  0.00     0.034 A 
ATOM     29  C   UNL A   1      39.834  29.352  30.133  1.00  0.00     0.034 A 
ATOM     30  C   UNL A   1      44.580  26.869  26.733  1.00  0.00     0.049 A 
ATOM     31  C   UNL A   1      39.921  28.075  29.573  1.00  0.00     0.074 A 
ATOM     32  C   UNL A   1      44.682  25.557  26.231  1.00  0.00     0.029 A 
ATOM     33  N   UNL A   1      43.375  26.976  27.392  1.00  0.00    -0.354 N 
ATOM     34  N   UNL A   1      40.935  27.565  28.872  1.00  0.00    -0.248 NA
ATOM     35  C   UNL A   1      38.869  27.055  29.677  1.00  0.00     0.031 C 
ATOM     36  C   UNL A   1      43.550  24.885  26.575  1.00  0.00     0.029 A 
ATOM     37  C   UNL A   1      42.723  25.767  27.295  1.00  0.00     0.049 A 
ATOM     38  H   UNL A   1      43.038  27.779  27.852  1.00  0.00     0.167 HD
ATOM     39  C   UNL A   1      40.662  26.308  28.519  1.00  0.00     0.074 A 
ATOM     40  C   UNL A   1      39.326  25.963  29.026  1.00  0.00     0.031 C 
ATOM     41  C   UNL A   1      41.476  25.430  27.799  1.00  0.00     0.034 A 
BRANCH  28  42
ATOM     42  C   UNL A   1      46.800  27.493  25.783  1.00  0.00     0.023 A 
ATOM     43  C   UNL A   1      47.079  27.968  24.513  1.00  0.00     0.031 A 
ATOM     44  C   UNL A   1      47.685  26.769  26.458  1.00  0.00     0.131 A 
ATOM     45  C   UNL A   1      48.219  27.378  23.919  1.00  0.00     0.055 A 
ATOM     46  C   UNL A   1      48.843  26.340  25.855  1.00  0.00     0.041 A 
ATOM     47  F   UNL A   1      47.449  26.455  27.729  1.00  0.00    -0.206 F 
ATOM     48  C   UNL A   1      49.155  26.723  24.581  1.00  0.00     0.022 A 
BRANCH  45  49
ATOM     49  S   UNL A   1      48.409  27.533  22.125  1.00  0.00     0.124 S 
ATOM     50  O   UNL A   1      48.604  26.144  21.511  1.00  0.00    -0.237 OA
ATOM     51  O   UNL A   1      47.154  28.180  21.533  1.00  0.00    -0.237 OA
ATOM     52  O   UNL A   1      49.770  28.506  21.777  1.00  0.00    -0.744 OA
ENDBRANCH  45  49
ENDBRANCH  28  42
BRANCH  29  53
ATOM     53  C   UNL A   1      38.588  29.702  30.930  1.00  0.00     0.023 A 
ATOM     54  C   UNL A   1      37.518  30.362  30.347  1.00  0.00     0.031 A 
ATOM     55  C   UNL A   1      38.631  29.479  32.238  1.00  0.00     0.131 A 
ATOM     56  C   UNL A   1      36.670  31.009  31.277  1.00  0.00     0.055 A 
ATOM     57  C   UNL A   1      37.690  30.031  33.073  1.00  0.00     0.041 A 
ATOM     58  F   UNL A   1      39.593  28.713  32.744  1.00  0.00    -0.206 F 
ATOM     59  C   UNL A   1      36.638  30.746  32.571  1.00  0.00     0.022 A 
BRANCH  56  60
ATOM     60  S   UNL A   1      35.550  32.285  30.649  1.00  0.00     0.124 S 
ATOM     61  O   UNL A   1      34.428  32.522  31.662  1.00  0.00    -0.237 OA
ATOM     62  O   UNL A   1      36.327  33.586  30.434  1.00  0.00    -0.237 OA
ATOM     63  O   UNL A   1      34.877  31.770  29.164  1.00  0.00    -0.744 OA
ENDBRANCH  56  60
ENDBRANCH  29  53
BRANCH  41  64
ATOM     64  C   UNL A   1      40.962  24.021  27.551  1.00  0.00     0.023 A 
ATOM     65  C   UNL A   1      40.004  23.918  26.556  1.00  0.00     0.031 A 
ATOM     66  C   UNL A   1      41.475  22.941  28.128  1.00  0.00     0.131 A 
ATOM     67  C   UNL A   1      39.436  22.627  26.440  1.00  0.00     0.055 A 
ATOM     68  C   UNL A   1      40.959  21.695  27.864  1.00  0.00     0.041 A 
ATOM     69  F   UNL A   1      42.498  23.066  28.969  1.00  0.00    -0.206 F 
ATOM     70  C   UNL A   1      39.969  21.526  26.937  1.00  0.00     0.022 A 
BRANCH  67  71
ATOM     71  S   UNL A   1      37.867  22.475  25.549  1.00  0.00     0.124 S 
ATOM     72  O   UNL A   1      37.910  21.239  24.647  1.00  0.00    -0.237 OA
ATOM     73  O   UNL A   1      36.721  22.333  26.555  1.00  0.00    -0.237 OA
ATOM     74  O   UNL A   1      37.616  23.870  24.593  1.00  0.00    -0.744 OA
ENDBRANCH  67  71
ENDBRANCH  41  64
ENDBRANCH  15  16
ENDBRANCH   8  10
ENDBRANCH   7   8
ENDBRANCH   6   7
ENDBRANCH   5   6
ENDBRANCH   4   5
ENDBRANCH   3   4
ENDBRANCH   2   3
ENDBRANCH   1   2
BRANCH   1  75
ATOM     75  C   UNL A   1      43.742  42.440  25.512  1.00  0.00     0.188 C 
BRANCH  75  76
ATOM     76  C   UNL A   1      43.772  42.207  24.010  1.00  0.00     0.188 C 
BRANCH  76  77
ATOM     77  O   UNL A   1      42.499  41.753  23.576  1.00  0.00    -0.376 OA
BRANCH  77  78
ATOM     78  C   UNL A   1      42.338  42.043  22.195  1.00  0.00     0.202 C 
BRANCH  78  79
ATOM     79  C   UNL A   1      41.985  43.511  22.024  1.00  0.00     0.261 C 
BRANCH  79  80
ATOM     80  O   UNL A   1      42.948  44.135  21.189  1.00  0.00    -0.460 OA
BRANCH  80  81
ATOM     81  C   UNL A   1      43.334  43.521  19.969  1.00  0.00     0.340 C 
ATOM     82  O   UNL A   1      42.497  42.822  19.317  1.00  0.00    -0.246 OA
BRANCH  81  83
ATOM     83  C   UNL A   1      44.748  43.702  19.441  1.00  0.00     0.083 A 
ATOM     84  C   UNL A   1      45.814  43.060  20.049  1.00  0.00     0.018 A 
ATOM     85  C   UNL A   1      44.941  44.610  18.492  1.00  0.00     0.053 A 
ATOM     86  C   UNL A   1      47.069  43.660  19.788  1.00  0.00     0.001 A 
ATOM     87  C   UNL A   1      46.209  45.051  18.193  1.00  0.00     0.027 A 
ATOM     88  C   UNL A   1      47.304  44.503  18.799  1.00  0.00     0.002 A 
BRANCH  85  89
ATOM     89  N   UNL A   1      43.790  45.148  17.752  1.00  0.00    -0.355 N 
ATOM     90  H   UNL A   1      43.270  44.561  17.157  1.00  0.00     0.167 HD
BRANCH  89  91
ATOM     91  C   UNL A   1      43.417  46.561  17.900  1.00  0.00     0.040 A 
ATOM     92  C   UNL A   1      42.195  46.999  17.416  1.00  0.00     0.026 A 
ATOM     93  C   UNL A   1      44.273  47.400  18.470  1.00  0.00     0.050 A 
ATOM     94  C   UNL A   1      42.088  48.408  17.321  1.00  0.00     0.004 A 
ATOM     95  C   UNL A   1      44.038  48.754  18.460  1.00  0.00     0.109 A 
ATOM     96  C   UNL A   1      42.878  49.262  17.944  1.00  0.00     0.024 A 
BRANCH  95  97
ATOM     97  S   UNL A   1      45.282  49.881  19.137  1.00  0.00     0.310 S 
ATOM     98  F   UNL A   1      46.345  48.774  18.737  1.00  0.00    -0.094 F 
ATOM     99  F   UNL A   1      45.221  49.209  20.561  1.00  0.00    -0.094 F 
ATOM    100  F   UNL A   1      46.472  50.778  19.581  1.00  0.00    -0.094 F 
ATOM    101  F   UNL A   1      45.418  50.440  17.668  1.00  0.00    -0.094 F 
ATOM    102  F   UNL A   1      44.148  48.897  18.643  1.00  0.00    -0.094 F 
ENDBRANCH  95  97
ENDBRANCH  89  91
ENDBRANCH  85  89
ENDBRANCH  81  83
ENDBRANCH  80  81
ENDBRANCH  79  80
ENDBRANCH  78  79
ENDBRANCH  77  78
ENDBRANCH  76  77
ENDBRANCH  75  76
ENDBRANCH   1  75
TORSDOF 26
ENDMDL
