MODEL 1
REMARK VINA RESULT:      -9.1      0.000      0.000
REMARK SMILES O=C(OCCOCCOCCOCCOC(=O)[C@H]1C[C@@H](O)CN1C(=O)c1cc(F)c(F)cc1Cl)c1ccc(-c2c3nc(c(-c4cc(S(=O)(=O)[O-])ccc4F)c4ccc([nH]4)c(-c4cc(S(=O)(=O)[O-])ccc4F)c4nc(c(-c5cc(S(=O)(=O)[O-])ccc5F)c5ccc2[nH]5)C=C4)C=C3)cc1
REMARK SMILES IDX 8 1 7 2 6 3 5 4 4 5 3 6 2 7 1 8 35 9 36 10 97 11 37 12 96 13
REMARK SMILES IDX 38 14 39 15 40 16 90 17 41 18 95 19 89 20 91 21 42 22 94 23
REMARK SMILES IDX 88 24 87 25 43 27 75 28 55 29 74 30 56 31 59 32 73 33 92 34
REMARK SMILES IDX 57 35 58 36 72 38 93 39 60 40 44 41 45 42 53 43 46 44 52 45
REMARK SMILES IDX 54 46 51 47 47 48 48 49 49 50 50 51 76 52 77 53 85 54 78 55
REMARK SMILES IDX 84 56 86 57 83 58 79 59 80 60 81 61 82 62 61 63 62 64 70 65
REMARK SMILES IDX 63 66 69 67 71 68 68 69 64 70 65 71 66 72 67 73 9 74 10 75
REMARK SMILES IDX 11 76 12 77 13 78 14 79 15 80 16 81 17 82 18 83 19 84 23 85
REMARK SMILES IDX 20 86 22 87 24 88 25 89 26 90 27 91 33 92 28 93 32 94 34 95
REMARK SMILES IDX 29 96 30 97 31 98 21 99
REMARK H PARENT 91 26 59 37 21 100
REMARK Flexibility Score: inf
ROOT
ATOM      1  C   UNL A   1      33.602  33.947  28.266  1.00  0.00     0.188 C 
ENDROOT
BRANCH   1   2
ATOM      2  C   UNL A   1      33.927  34.773  29.493  1.00  0.00     0.188 C 
BRANCH   2   3
ATOM      3  O   UNL A   1      33.745  34.033  30.691  1.00  0.00    -0.376 OA
BRANCH   3   4
ATOM      4  C   UNL A   1      34.951  33.584  31.296  1.00  0.00     0.202 C 
BRANCH   4   5
ATOM      5  C   UNL A   1      34.762  32.689  32.511  1.00  0.00     0.261 C 
BRANCH   5   6
ATOM      6  O   UNL A   1      35.796  31.725  32.772  1.00  0.00    -0.460 OA
BRANCH   6   7
ATOM      7  C   UNL A   1      36.642  31.027  31.985  1.00  0.00     0.338 C 
ATOM      8  O   UNL A   1      36.262  29.906  31.636  1.00  0.00    -0.246 OA
BRANCH   7   9
ATOM      9  C   UNL A   1      38.012  31.448  31.538  1.00  0.00     0.060 A 
ATOM     10  C   UNL A   1      38.236  31.433  30.145  1.00  0.00     0.016 A 
ATOM     11  C   UNL A   1      39.093  31.770  32.359  1.00  0.00     0.016 A 
ATOM     12  C   UNL A   1      39.499  31.676  29.601  1.00  0.00     0.010 A 
ATOM     13  C   UNL A   1      40.376  31.935  31.832  1.00  0.00     0.010 A 
ATOM     14  C   UNL A   1      40.581  31.910  30.452  1.00  0.00    -0.014 A 
BRANCH  14  15
ATOM     15  C   UNL A   1      41.880  32.385  29.943  1.00  0.00     0.031 A 
ATOM     16  C   UNL A   1      42.097  33.816  29.568  1.00  0.00     0.074 A 
ATOM     17  C   UNL A   1      42.785  31.426  29.670  1.00  0.00     0.049 A 
ATOM     18  N   UNL A   1      43.161  34.365  29.050  1.00  0.00    -0.248 NA
ATOM     19  C   UNL A   1      40.978  34.750  29.777  1.00  0.00     0.031 C 
ATOM     20  C   UNL A   1      42.565  29.996  29.909  1.00  0.00     0.029 A 
ATOM     21  N   UNL A   1      44.017  31.477  29.079  1.00  0.00    -0.354 N 
ATOM     22  C   UNL A   1      42.856  35.710  28.884  1.00  0.00     0.074 A 
ATOM     23  C   UNL A   1      41.487  35.889  29.317  1.00  0.00     0.031 C 
ATOM     24  C   UNL A   1      43.603  29.304  29.428  1.00  0.00     0.029 A 
ATOM     25  C   UNL A   1      44.560  30.235  28.844  1.00  0.00     0.049 A 
ATOM     26  H   UNL A   1      44.472  32.320  28.847  1.00  0.00     0.167 HD
ATOM     27  C   UNL A   1      43.669  36.688  28.422  1.00  0.00     0.034 A 
ATOM     28  C   UNL A   1      45.698  29.885  28.212  1.00  0.00     0.034 A 
ATOM     29  C   UNL A   1      45.019  36.433  27.984  1.00  0.00     0.049 A 
ATOM     30  C   UNL A   1      46.601  30.995  27.753  1.00  0.00     0.074 A 
ATOM     31  C   UNL A   1      45.977  37.350  27.594  1.00  0.00     0.029 A 
ATOM     32  N   UNL A   1      45.594  35.174  27.858  1.00  0.00    -0.354 N 
ATOM     33  N   UNL A   1      46.375  32.288  27.772  1.00  0.00    -0.248 NA
ATOM     34  C   UNL A   1      47.921  30.624  27.230  1.00  0.00     0.031 C 
ATOM     35  C   UNL A   1      47.096  36.646  27.155  1.00  0.00     0.029 A 
ATOM     36  C   UNL A   1      46.881  35.291  27.366  1.00  0.00     0.049 A 
ATOM     37  H   UNL A   1      45.152  34.325  28.088  1.00  0.00     0.167 HD
ATOM     38  C   UNL A   1      47.533  32.887  27.299  1.00  0.00     0.074 A 
ATOM     39  C   UNL A   1      48.466  31.815  27.013  1.00  0.00     0.031 C 
ATOM     40  C   UNL A   1      47.800  34.204  27.117  1.00  0.00     0.034 A 
BRANCH  27  41
ATOM     41  C   UNL A   1      43.200  38.124  28.404  1.00  0.00     0.023 A 
ATOM     42  C   UNL A   1      43.432  38.958  29.517  1.00  0.00     0.031 A 
ATOM     43  C   UNL A   1      42.322  38.583  27.406  1.00  0.00     0.131 A 
ATOM     44  C   UNL A   1      42.734  40.168  29.641  1.00  0.00     0.055 A 
ATOM     45  C   UNL A   1      41.667  39.812  27.511  1.00  0.00     0.041 A 
ATOM     46  F   UNL A   1      42.058  37.826  26.329  1.00  0.00    -0.206 F 
ATOM     47  C   UNL A   1      41.855  40.600  28.643  1.00  0.00     0.022 A 
BRANCH  44  48
ATOM     48  S   UNL A   1      42.856  41.173  31.148  1.00  0.00     0.124 S 
ATOM     49  O   UNL A   1      41.460  41.247  31.574  1.00  0.00    -0.237 OA
ATOM     50  O   UNL A   1      43.722  40.353  31.990  1.00  0.00    -0.237 OA
ATOM     51  O   UNL A   1      43.429  42.431  30.684  1.00  0.00    -0.744 OA
ENDBRANCH  44  48
ENDBRANCH  27  41
BRANCH  28  52
ATOM     52  C   UNL A   1      46.037  28.439  28.094  1.00  0.00     0.023 A 
ATOM     53  C   UNL A   1      45.607  27.686  26.983  1.00  0.00     0.031 A 
ATOM     54  C   UNL A   1      46.643  27.751  29.159  1.00  0.00     0.131 A 
ATOM     55  C   UNL A   1      45.723  26.290  26.996  1.00  0.00     0.055 A 
ATOM     56  C   UNL A   1      46.824  26.367  29.136  1.00  0.00     0.041 A 
ATOM     57  F   UNL A   1      47.037  28.417  30.255  1.00  0.00    -0.206 F 
ATOM     58  C   UNL A   1      46.345  25.627  28.059  1.00  0.00     0.022 A 
BRANCH  55  59
ATOM     59  S   UNL A   1      44.919  25.277  25.721  1.00  0.00     0.124 S 
ATOM     60  O   UNL A   1      45.858  25.385  24.609  1.00  0.00    -0.237 OA
ATOM     61  O   UNL A   1      44.856  23.969  26.369  1.00  0.00    -0.237 OA
ATOM     62  O   UNL A   1      43.627  25.928  25.525  1.00  0.00    -0.744 OA
ENDBRANCH  55  59
ENDBRANCH  28  52
BRANCH  40  63
ATOM     63  C   UNL A   1      49.156  34.601  26.597  1.00  0.00     0.023 A 
ATOM     64  C   UNL A   1      50.235  34.699  27.496  1.00  0.00     0.031 A 
ATOM     65  C   UNL A   1      49.319  35.098  25.294  1.00  0.00     0.131 A 
ATOM     66  C   UNL A   1      51.404  35.359  27.105  1.00  0.00     0.055 A 
ATOM     67  C   UNL A   1      50.511  35.699  24.890  1.00  0.00     0.041 A 
ATOM     68  F   UNL A   1      48.312  35.033  24.409  1.00  0.00    -0.206 F 
ATOM     69  C   UNL A   1      51.551  35.853  25.804  1.00  0.00     0.022 A 
BRANCH  66  70
ATOM     70  S   UNL A   1      52.716  35.714  28.305  1.00  0.00     0.124 S 
ATOM     71  O   UNL A   1      53.643  34.607  28.077  1.00  0.00    -0.237 OA
ATOM     72  O   UNL A   1      53.187  37.023  27.863  1.00  0.00    -0.237 OA
ATOM     73  O   UNL A   1      52.032  35.693  29.594  1.00  0.00    -0.744 OA
ENDBRANCH  66  70
ENDBRANCH  40  63
ENDBRANCH  14  15
ENDBRANCH   7   9
ENDBRANCH   6   7
ENDBRANCH   5   6
ENDBRANCH   4   5
ENDBRANCH   3   4
ENDBRANCH   2   3
ENDBRANCH   1   2
BRANCH   1  74
ATOM     74  O   UNL A   1      34.568  32.968  27.922  1.00  0.00    -0.377 OA
BRANCH  74  75
ATOM     75  C   UNL A   1      34.383  31.587  28.249  1.00  0.00     0.188 C 
BRANCH  75  76
ATOM     76  C   UNL A   1      35.540  30.596  28.133  1.00  0.00     0.188 C 
BRANCH  76  77
ATOM     77  O   UNL A   1      35.117  29.339  27.658  1.00  0.00    -0.376 OA
BRANCH  77  78
ATOM     78  C   UNL A   1      33.794  29.284  27.149  1.00  0.00     0.202 C 
BRANCH  78  79
ATOM     79  C   UNL A   1      33.487  28.665  25.756  1.00  0.00     0.261 C 
BRANCH  79  80
ATOM     80  O   UNL A   1      32.767  27.407  25.671  1.00  0.00    -0.462 OA
BRANCH  80  81
ATOM     81  C   UNL A   1      33.231  26.540  24.735  1.00  0.00     0.329 C 
ATOM     82  O   UNL A   1      34.343  26.681  24.230  1.00  0.00    -0.250 OA
BRANCH  81  83
ATOM     83  C   UNL A   1      32.282  25.371  24.308  1.00  0.00     0.198 C 
ATOM     84  C   UNL A   1      31.481  25.277  23.001  1.00  0.00     0.071 C 
ATOM     85  N   UNL A   1      33.013  24.104  24.315  1.00  0.00    -0.322 N 
ATOM     86  C   UNL A   1      32.352  24.467  22.068  1.00  0.00     0.136 C 
ATOM     87  C   UNL A   1      32.898  23.417  23.021  1.00  0.00     0.152 C 
BRANCH  85  88
ATOM     88  C   UNL A   1      33.428  23.566  25.521  1.00  0.00     0.256 C 
ATOM     89  O   UNL A   1      32.739  23.523  26.522  1.00  0.00    -0.269 OA
BRANCH  88  90
ATOM     90  C   UNL A   1      34.792  23.018  25.566  1.00  0.00     0.061 A 
ATOM     91  C   UNL A   1      35.852  23.900  25.817  1.00  0.00     0.057 A 
ATOM     92  C   UNL A   1      35.031  21.662  25.316  1.00  0.00     0.056 A 
ATOM     93  C   UNL A   1      37.152  23.449  25.677  1.00  0.00     0.159 A 
ATOM     94  C   UNL A   1      36.348  21.211  25.233  1.00  0.00     0.063 A 
ATOM     95  Cl  UNL A   1      33.782  20.509  25.018  1.00  0.00    -0.083 Cl
ATOM     96  F   UNL A   1      38.163  24.319  25.783  1.00  0.00    -0.204 F 
ATOM     97  C   UNL A   1      37.397  22.114  25.380  1.00  0.00     0.160 A 
ATOM     98  F   UNL A   1      38.654  21.687  25.209  1.00  0.00    -0.204 F 
ENDBRANCH  88  90
ENDBRANCH  85  88
BRANCH  86  99
ATOM     99  O   UNL A   1      33.412  25.244  21.519  1.00  0.00    -0.391 OA
ATOM    100  H   UNL A   1      34.237  25.041  21.987  1.00  0.00     0.211 HD
ENDBRANCH  86  99
ENDBRANCH  81  83
ENDBRANCH  80  81
ENDBRANCH  79  80
ENDBRANCH  78  79
ENDBRANCH  77  78
ENDBRANCH  76  77
ENDBRANCH  75  76
ENDBRANCH  74  75
ENDBRANCH   1  74
TORSDOF 26
ENDMDL
MODEL 2
REMARK VINA RESULT:      -8.9      0.941      7.475
REMARK SMILES O=C(OCCOCCOCCOCCOC(=O)[C@H]1C[C@@H](O)CN1C(=O)c1cc(F)c(F)cc1Cl)c1ccc(-c2c3nc(c(-c4cc(S(=O)(=O)[O-])ccc4F)c4ccc([nH]4)c(-c4cc(S(=O)(=O)[O-])ccc4F)c4nc(c(-c5cc(S(=O)(=O)[O-])ccc5F)c5ccc2[nH]5)C=C4)C=C3)cc1
REMARK SMILES IDX 8 1 7 2 6 3 5 4 4 5 3 6 2 7 1 8 35 9 36 10 97 11 37 12 96 13
REMARK SMILES IDX 38 14 39 15 40 16 90 17 41 18 95 19 89 20 91 21 42 22 94 23
REMARK SMILES IDX 88 24 87 25 43 27 75 28 55 29 74 30 56 31 59 32 73 33 92 34
REMARK SMILES IDX 57 35 58 36 72 38 93 39 60 40 44 41 45 42 53 43 46 44 52 45
REMARK SMILES IDX 54 46 51 47 47 48 48 49 49 50 50 51 76 52 77 53 85 54 78 55
REMARK SMILES IDX 84 56 86 57 83 58 79 59 80 60 81 61 82 62 61 63 62 64 70 65
REMARK SMILES IDX 63 66 69 67 71 68 68 69 64 70 65 71 66 72 67 73 9 74 10 75
REMARK SMILES IDX 11 76 12 77 13 78 14 79 15 80 16 81 17 82 18 83 19 84 23 85
REMARK SMILES IDX 20 86 22 87 24 88 25 89 26 90 27 91 33 92 28 93 32 94 34 95
REMARK SMILES IDX 29 96 30 97 31 98 21 99
REMARK H PARENT 91 26 59 37 21 100
REMARK Flexibility Score: inf
ROOT
ATOM      1  C   UNL A   1      33.877  34.025  28.141  1.00  0.00     0.188 C 
ENDROOT
BRANCH   1   2
ATOM      2  C   UNL A   1      34.115  34.629  29.509  1.00  0.00     0.188 C 
BRANCH   2   3
ATOM      3  O   UNL A   1      33.990  33.664  30.542  1.00  0.00    -0.376 OA
BRANCH   3   4
ATOM      4  C   UNL A   1      35.211  33.335  31.193  1.00  0.00     0.202 C 
BRANCH   4   5
ATOM      5  C   UNL A   1      35.053  32.647  32.541  1.00  0.00     0.261 C 
BRANCH   5   6
ATOM      6  O   UNL A   1      36.180  31.896  33.020  1.00  0.00    -0.460 OA
BRANCH   6   7
ATOM      7  C   UNL A   1      37.023  31.009  32.448  1.00  0.00     0.338 C 
ATOM      8  O   UNL A   1      36.658  29.829  32.453  1.00  0.00    -0.246 OA
BRANCH   7   9
ATOM      9  C   UNL A   1      38.373  31.299  31.860  1.00  0.00     0.060 A 
ATOM     10  C   UNL A   1      38.469  31.189  30.457  1.00  0.00     0.016 A 
ATOM     11  C   UNL A   1      39.544  31.582  32.563  1.00  0.00     0.016 A 
ATOM     12  C   UNL A   1      39.692  31.305  29.792  1.00  0.00     0.010 A 
ATOM     13  C   UNL A   1      40.782  31.620  31.920  1.00  0.00     0.010 A 
ATOM     14  C   UNL A   1      40.860  31.502  30.531  1.00  0.00    -0.014 A 
BRANCH  14  15
ATOM     15  C   UNL A   1      42.138  31.848  29.884  1.00  0.00     0.031 A 
ATOM     16  C   UNL A   1      43.177  30.811  29.599  1.00  0.00     0.074 A 
ATOM     17  C   UNL A   1      42.380  33.165  29.738  1.00  0.00     0.049 A 
ATOM     18  N   UNL A   1      44.369  30.976  29.097  1.00  0.00    -0.248 NA
ATOM     19  C   UNL A   1      42.854  29.415  29.940  1.00  0.00     0.031 C 
ATOM     20  C   UNL A   1      41.435  34.221  30.118  1.00  0.00     0.029 A 
ATOM     21  N   UNL A   1      43.485  33.847  29.311  1.00  0.00    -0.354 N 
ATOM     22  C   UNL A   1      44.939  29.709  29.039  1.00  0.00     0.074 A 
ATOM     23  C   UNL A   1      43.976  28.788  29.602  1.00  0.00     0.031 C 
ATOM     24  C   UNL A   1      42.018  35.414  29.952  1.00  0.00     0.029 A 
ATOM     25  C   UNL A   1      43.374  35.211  29.459  1.00  0.00     0.049 A 
ATOM     26  H   UNL A   1      44.281  33.406  28.933  1.00  0.00     0.167 HD
ATOM     27  C   UNL A   1      46.153  29.375  28.543  1.00  0.00     0.034 A 
ATOM     28  C   UNL A   1      44.274  36.189  29.235  1.00  0.00     0.034 A 
ATOM     29  C   UNL A   1      47.074  30.352  28.019  1.00  0.00     0.049 A 
ATOM     30  C   UNL A   1      45.595  35.789  28.641  1.00  0.00     0.074 A 
ATOM     31  C   UNL A   1      48.287  30.132  27.393  1.00  0.00     0.029 A 
ATOM     32  N   UNL A   1      46.895  31.729  28.073  1.00  0.00    -0.354 N 
ATOM     33  N   UNL A   1      46.053  34.579  28.418  1.00  0.00    -0.248 NA
ATOM     34  C   UNL A   1      46.506  36.861  28.227  1.00  0.00     0.031 C 
ATOM     35  C   UNL A   1      48.878  31.369  27.149  1.00  0.00     0.029 A 
ATOM     36  C   UNL A   1      47.992  32.369  27.524  1.00  0.00     0.049 A 
ATOM     37  H   UNL A   1      46.104  32.182  28.445  1.00  0.00     0.167 HD
ATOM     38  C   UNL A   1      47.288  34.742  27.806  1.00  0.00     0.074 A 
ATOM     39  C   UNL A   1      47.500  36.170  27.681  1.00  0.00     0.031 C 
ATOM     40  C   UNL A   1      48.164  33.797  27.387  1.00  0.00     0.034 A 
BRANCH  27  41
ATOM     41  C   UNL A   1      46.571  27.925  28.468  1.00  0.00     0.023 A 
ATOM     42  C   UNL A   1      46.262  27.158  27.326  1.00  0.00     0.031 A 
ATOM     43  C   UNL A   1      47.046  27.252  29.608  1.00  0.00     0.131 A 
ATOM     44  C   UNL A   1      46.356  25.760  27.377  1.00  0.00     0.055 A 
ATOM     45  C   UNL A   1      47.185  25.862  29.636  1.00  0.00     0.041 A 
ATOM     46  F   UNL A   1      47.346  27.932  30.726  1.00  0.00    -0.206 F 
ATOM     47  C   UNL A   1      46.818  25.109  28.524  1.00  0.00     0.022 A 
BRANCH  44  48
ATOM     48  S   UNL A   1      45.782  24.729  25.997  1.00  0.00     0.124 S 
ATOM     49  O   UNL A   1      44.330  24.800  26.152  1.00  0.00    -0.237 OA
ATOM     50  O   UNL A   1      46.321  25.440  24.842  1.00  0.00    -0.237 OA
ATOM     51  O   UNL A   1      46.370  23.422  26.268  1.00  0.00    -0.744 OA
ENDBRANCH  44  48
ENDBRANCH  27  41
BRANCH  28  52
ATOM     52  C   UNL A   1      43.877  37.602  29.494  1.00  0.00     0.023 A 
ATOM     53  C   UNL A   1      44.049  38.177  30.769  1.00  0.00     0.031 A 
ATOM     54  C   UNL A   1      43.168  38.339  28.531  1.00  0.00     0.131 A 
ATOM     55  C   UNL A   1      43.460  39.413  31.065  1.00  0.00     0.055 A 
ATOM     56  C   UNL A   1      42.646  39.604  28.808  1.00  0.00     0.041 A 
ATOM     57  F   UNL A   1      42.945  37.821  27.313  1.00  0.00    -0.206 F 
ATOM     58  C   UNL A   1      42.773  40.138  30.086  1.00  0.00     0.022 A 
BRANCH  55  59
ATOM     59  S   UNL A   1      43.414  40.038  32.769  1.00  0.00     0.124 S 
ATOM     60  O   UNL A   1      43.028  38.847  33.520  1.00  0.00    -0.237 OA
ATOM     61  O   UNL A   1      44.792  40.486  32.964  1.00  0.00    -0.237 OA
ATOM     62  O   UNL A   1      42.421  41.106  32.720  1.00  0.00    -0.744 OA
ENDBRANCH  55  59
ENDBRANCH  28  52
BRANCH  40  63
ATOM     63  C   UNL A   1      49.446  34.240  26.732  1.00  0.00     0.023 A 
ATOM     64  C   UNL A   1      50.626  34.293  27.498  1.00  0.00     0.031 A 
ATOM     65  C   UNL A   1      49.447  34.818  25.453  1.00  0.00     0.131 A 
ATOM     66  C   UNL A   1      51.736  34.989  27.010  1.00  0.00     0.055 A 
ATOM     67  C   UNL A   1      50.579  35.456  24.946  1.00  0.00     0.041 A 
ATOM     68  F   UNL A   1      48.340  34.797  24.694  1.00  0.00    -0.206 F 
ATOM     69  C   UNL A   1      51.722  35.564  25.735  1.00  0.00     0.022 A 
BRANCH  66  70
ATOM     70  S   UNL A   1      53.183  35.284  28.062  1.00  0.00     0.124 S 
ATOM     71  O   UNL A   1      54.286  34.993  27.148  1.00  0.00    -0.237 OA
ATOM     72  O   UNL A   1      53.021  36.690  28.417  1.00  0.00    -0.237 OA
ATOM     73  O   UNL A   1      53.023  34.334  29.159  1.00  0.00    -0.744 OA
ENDBRANCH  66  70
ENDBRANCH  40  63
ENDBRANCH  14  15
ENDBRANCH   7   9
ENDBRANCH   6   7
ENDBRANCH   5   6
ENDBRANCH   4   5
ENDBRANCH   3   4
ENDBRANCH   2   3
ENDBRANCH   1   2
BRANCH   1  74
ATOM     74  O   UNL A   1      34.755  32.970  27.785  1.00  0.00    -0.377 OA
BRANCH  74  75
ATOM     75  C   UNL A   1      34.385  31.598  27.958  1.00  0.00     0.188 C 
BRANCH  75  76
ATOM     76  C   UNL A   1      35.289  30.476  27.451  1.00  0.00     0.188 C 
BRANCH  76  77
ATOM     77  O   UNL A   1      34.745  29.201  27.699  1.00  0.00    -0.376 OA
BRANCH  77  78
ATOM     78  C   UNL A   1      33.399  29.015  27.293  1.00  0.00     0.202 C 
BRANCH  78  79
ATOM     79  C   UNL A   1      32.974  29.167  25.804  1.00  0.00     0.261 C 
BRANCH  79  80
ATOM     80  O   UNL A   1      32.151  28.145  25.183  1.00  0.00    -0.462 OA
BRANCH  80  81
ATOM     81  C   UNL A   1      32.782  27.388  24.248  1.00  0.00     0.329 C 
ATOM     82  O   UNL A   1      33.955  27.596  23.945  1.00  0.00    -0.250 OA
BRANCH  81  83
ATOM     83  C   UNL A   1      31.945  26.261  23.556  1.00  0.00     0.198 C 
ATOM     84  C   UNL A   1      31.366  26.297  22.134  1.00  0.00     0.071 C 
ATOM     85  N   UNL A   1      32.701  25.008  23.550  1.00  0.00    -0.322 N 
ATOM     86  C   UNL A   1      32.397  25.601  21.275  1.00  0.00     0.136 C 
ATOM     87  C   UNL A   1      32.813  24.461  22.190  1.00  0.00     0.152 C 
BRANCH  85  88
ATOM     88  C   UNL A   1      32.934  24.351  24.745  1.00  0.00     0.256 C 
ATOM     89  O   UNL A   1      32.191  24.399  25.707  1.00  0.00    -0.269 OA
BRANCH  88  90
ATOM     90  C   UNL A   1      34.163  23.547  24.830  1.00  0.00     0.061 A 
ATOM     91  C   UNL A   1      35.361  24.203  25.145  1.00  0.00     0.057 A 
ATOM     92  C   UNL A   1      34.146  22.175  24.555  1.00  0.00     0.056 A 
ATOM     93  C   UNL A   1      36.554  23.510  25.045  1.00  0.00     0.159 A 
ATOM     94  C   UNL A   1      35.354  21.479  24.512  1.00  0.00     0.063 A 
ATOM     95  Cl  UNL A   1      32.712  21.292  24.178  1.00  0.00    -0.083 Cl
ATOM     96  F   UNL A   1      37.709  24.165  25.213  1.00  0.00    -0.204 F 
ATOM     97  C   UNL A   1      36.549  22.158  24.723  1.00  0.00     0.160 A 
ATOM     98  F   UNL A   1      37.707  21.499  24.591  1.00  0.00    -0.204 F 
ENDBRANCH  88  90
ENDBRANCH  85  88
BRANCH  86  99
ATOM     99  O   UNL A   1      33.508  26.443  20.988  1.00  0.00    -0.391 OA
ATOM    100  H   UNL A   1      33.582  27.125  21.673  1.00  0.00     0.211 HD
ENDBRANCH  86  99
ENDBRANCH  81  83
ENDBRANCH  80  81
ENDBRANCH  79  80
ENDBRANCH  78  79
ENDBRANCH  77  78
ENDBRANCH  76  77
ENDBRANCH  75  76
ENDBRANCH  74  75
ENDBRANCH   1  74
TORSDOF 26
ENDMDL
MODEL 3
REMARK VINA RESULT:      -8.9      5.821     11.237
REMARK SMILES O=C(OCCOCCOCCOCCOC(=O)[C@H]1C[C@@H](O)CN1C(=O)c1cc(F)c(F)cc1Cl)c1ccc(-c2c3nc(c(-c4cc(S(=O)(=O)[O-])ccc4F)c4ccc([nH]4)c(-c4cc(S(=O)(=O)[O-])ccc4F)c4nc(c(-c5cc(S(=O)(=O)[O-])ccc5F)c5ccc2[nH]5)C=C4)C=C3)cc1
REMARK SMILES IDX 8 1 7 2 6 3 5 4 4 5 3 6 2 7 1 8 35 9 36 10 97 11 37 12 96 13
REMARK SMILES IDX 38 14 39 15 40 16 90 17 41 18 95 19 89 20 91 21 42 22 94 23
REMARK SMILES IDX 88 24 87 25 43 27 75 28 55 29 74 30 56 31 59 32 73 33 92 34
REMARK SMILES IDX 57 35 58 36 72 38 93 39 60 40 44 41 45 42 53 43 46 44 52 45
REMARK SMILES IDX 54 46 51 47 47 48 48 49 49 50 50 51 76 52 77 53 85 54 78 55
REMARK SMILES IDX 84 56 86 57 83 58 79 59 80 60 81 61 82 62 61 63 62 64 70 65
REMARK SMILES IDX 63 66 69 67 71 68 68 69 64 70 65 71 66 72 67 73 9 74 10 75
REMARK SMILES IDX 11 76 12 77 13 78 14 79 15 80 16 81 17 82 18 83 19 84 23 85
REMARK SMILES IDX 20 86 22 87 24 88 25 89 26 90 27 91 33 92 28 93 32 94 34 95
REMARK SMILES IDX 29 96 30 97 31 98 21 99
REMARK H PARENT 91 26 59 37 21 100
REMARK Flexibility Score: inf
ROOT
ATOM      1  C   UNL A   1      44.213  21.803  24.986  1.00  0.00     0.188 C 
ENDROOT
BRANCH   1   2
ATOM      2  C   UNL A   1      45.612  21.276  25.225  1.00  0.00     0.188 C 
BRANCH   2   3
ATOM      3  O   UNL A   1      46.470  22.275  25.754  1.00  0.00    -0.376 OA
BRANCH   3   4
ATOM      4  C   UNL A   1      45.836  23.521  26.012  1.00  0.00     0.202 C 
BRANCH   4   5
ATOM      5  C   UNL A   1      46.666  24.747  25.662  1.00  0.00     0.261 C 
BRANCH   5   6
ATOM      6  O   UNL A   1      46.039  25.738  24.831  1.00  0.00    -0.460 OA
BRANCH   6   7
ATOM      7  C   UNL A   1      45.637  27.010  25.036  1.00  0.00     0.338 C 
ATOM      8  O   UNL A   1      45.867  27.808  24.123  1.00  0.00    -0.246 OA
BRANCH   7   9
ATOM      9  C   UNL A   1      44.992  27.563  26.274  1.00  0.00     0.060 A 
ATOM     10  C   UNL A   1      45.370  28.875  26.631  1.00  0.00     0.016 A 
ATOM     11  C   UNL A   1      44.131  26.886  27.138  1.00  0.00     0.016 A 
ATOM     12  C   UNL A   1      44.947  29.463  27.825  1.00  0.00     0.010 A 
ATOM     13  C   UNL A   1      43.768  27.432  28.370  1.00  0.00     0.010 A 
ATOM     14  C   UNL A   1      44.156  28.729  28.710  1.00  0.00    -0.014 A 
BRANCH  14  15
ATOM     15  C   UNL A   1      43.502  29.358  29.871  1.00  0.00     0.031 A 
ATOM     16  C   UNL A   1      44.150  29.378  31.218  1.00  0.00     0.074 A 
ATOM     17  C   UNL A   1      42.225  29.744  29.683  1.00  0.00     0.049 A 
ATOM     18  N   UNL A   1      43.670  29.836  32.341  1.00  0.00    -0.248 NA
ATOM     19  C   UNL A   1      45.496  28.791  31.333  1.00  0.00     0.031 C 
ATOM     20  C   UNL A   1      41.512  29.629  28.406  1.00  0.00     0.029 A 
ATOM     21  N   UNL A   1      41.284  30.233  30.546  1.00  0.00    -0.354 N 
ATOM     22  C   UNL A   1      44.654  29.615  33.297  1.00  0.00     0.074 A 
ATOM     23  C   UNL A   1      45.745  28.938  32.631  1.00  0.00     0.031 C 
ATOM     24  C   UNL A   1      40.236  29.991  28.580  1.00  0.00     0.029 A 
ATOM     25  C   UNL A   1      40.038  30.359  29.976  1.00  0.00     0.049 A 
ATOM     26  H   UNL A   1      41.480  30.473  31.480  1.00  0.00     0.167 HD
ATOM     27  C   UNL A   1      44.626  29.968  34.603  1.00  0.00     0.034 A 
ATOM     28  C   UNL A   1      38.860  30.718  30.525  1.00  0.00     0.034 A 
ATOM     29  C   UNL A   1      43.491  30.620  35.208  1.00  0.00     0.049 A 
ATOM     30  C   UNL A   1      38.873  31.149  31.964  1.00  0.00     0.074 A 
ATOM     31  C   UNL A   1      43.380  31.122  36.491  1.00  0.00     0.029 A 
ATOM     32  N   UNL A   1      42.271  30.845  34.582  1.00  0.00    -0.354 N 
ATOM     33  N   UNL A   1      39.870  31.107  32.817  1.00  0.00    -0.248 NA
ATOM     34  C   UNL A   1      37.635  31.712  32.516  1.00  0.00     0.031 C 
ATOM     35  C   UNL A   1      42.073  31.570  36.668  1.00  0.00     0.029 A 
ATOM     36  C   UNL A   1      41.392  31.446  35.465  1.00  0.00     0.049 A 
ATOM     37  H   UNL A   1      42.064  30.612  33.649  1.00  0.00     0.167 HD
ATOM     38  C   UNL A   1      39.394  31.669  33.993  1.00  0.00     0.074 A 
ATOM     39  C   UNL A   1      38.021  32.057  33.739  1.00  0.00     0.031 C 
ATOM     40  C   UNL A   1      40.035  31.848  35.175  1.00  0.00     0.034 A 
BRANCH  27  41
ATOM     41  C   UNL A   1      45.835  29.737  35.480  1.00  0.00     0.023 A 
ATOM     42  C   UNL A   1      45.912  28.585  36.289  1.00  0.00     0.031 A 
ATOM     43  C   UNL A   1      46.774  30.762  35.697  1.00  0.00     0.131 A 
ATOM     44  C   UNL A   1      46.855  28.521  37.324  1.00  0.00     0.055 A 
ATOM     45  C   UNL A   1      47.742  30.670  36.699  1.00  0.00     0.041 A 
ATOM     46  F   UNL A   1      46.740  31.885  34.962  1.00  0.00    -0.206 F 
ATOM     47  C   UNL A   1      47.772  29.556  37.533  1.00  0.00     0.022 A 
BRANCH  44  48
ATOM     48  S   UNL A   1      46.858  27.144  38.508  1.00  0.00     0.124 S 
ATOM     49  O   UNL A   1      47.079  27.837  39.776  1.00  0.00    -0.237 OA
ATOM     50  O   UNL A   1      45.521  26.586  38.328  1.00  0.00    -0.237 OA
ATOM     51  O   UNL A   1      47.962  26.301  38.063  1.00  0.00    -0.744 OA
ENDBRANCH  44  48
ENDBRANCH  27  41
BRANCH  28  52
ATOM     52  C   UNL A   1      37.648  30.761  29.659  1.00  0.00     0.023 A 
ATOM     53  C   UNL A   1      36.951  31.969  29.456  1.00  0.00     0.031 A 
ATOM     54  C   UNL A   1      37.073  29.579  29.164  1.00  0.00     0.131 A 
ATOM     55  C   UNL A   1      35.691  31.954  28.843  1.00  0.00     0.055 A 
ATOM     56  C   UNL A   1      35.852  29.579  28.488  1.00  0.00     0.041 A 
ATOM     57  F   UNL A   1      37.680  28.398  29.363  1.00  0.00    -0.206 F 
ATOM     58  C   UNL A   1      35.144  30.769  28.342  1.00  0.00     0.022 A 
BRANCH  55  59
ATOM     59  S   UNL A   1      34.645  33.439  28.831  1.00  0.00     0.124 S 
ATOM     60  O   UNL A   1      33.663  33.111  27.802  1.00  0.00    -0.237 OA
ATOM     61  O   UNL A   1      34.138  33.463  30.202  1.00  0.00    -0.237 OA
ATOM     62  O   UNL A   1      35.574  34.515  28.500  1.00  0.00    -0.744 OA
ENDBRANCH  55  59
ENDBRANCH  28  52
BRANCH  40  63
ATOM     63  C   UNL A   1      39.291  32.504  36.308  1.00  0.00     0.023 A 
ATOM     64  C   UNL A   1      39.725  33.757  36.779  1.00  0.00     0.031 A 
ATOM     65  C   UNL A   1      38.332  31.800  37.052  1.00  0.00     0.131 A 
ATOM     66  C   UNL A   1      39.261  34.231  38.010  1.00  0.00     0.055 A 
ATOM     67  C   UNL A   1      37.825  32.307  38.248  1.00  0.00     0.041 A 
ATOM     68  F   UNL A   1      37.899  30.597  36.642  1.00  0.00    -0.206 F 
ATOM     69  C   UNL A   1      38.307  33.517  38.743  1.00  0.00     0.022 A 
BRANCH  66  70
ATOM     70  S   UNL A   1      39.975  35.719  38.761  1.00  0.00     0.124 S 
ATOM     71  O   UNL A   1      41.332  35.712  38.218  1.00  0.00    -0.237 OA
ATOM     72  O   UNL A   1      39.102  36.770  38.245  1.00  0.00    -0.237 OA
ATOM     73  O   UNL A   1      39.882  35.471  40.197  1.00  0.00    -0.744 OA
ENDBRANCH  66  70
ENDBRANCH  40  63
ENDBRANCH  14  15
ENDBRANCH   7   9
ENDBRANCH   6   7
ENDBRANCH   5   6
ENDBRANCH   4   5
ENDBRANCH   3   4
ENDBRANCH   2   3
ENDBRANCH   1   2
BRANCH   1  74
ATOM     74  O   UNL A   1      43.196  21.195  25.764  1.00  0.00    -0.377 OA
BRANCH  74  75
ATOM     75  C   UNL A   1      42.688  21.818  26.949  1.00  0.00     0.188 C 
BRANCH  75  76
ATOM     76  C   UNL A   1      41.185  21.998  27.153  1.00  0.00     0.188 C 
BRANCH  76  77
ATOM     77  O   UNL A   1      40.469  21.906  25.944  1.00  0.00    -0.376 OA
BRANCH  77  78
ATOM     78  C   UNL A   1      39.254  21.176  25.999  1.00  0.00     0.202 C 
BRANCH  78  79
ATOM     79  C   UNL A   1      37.903  21.820  25.575  1.00  0.00     0.261 C 
BRANCH  79  80
ATOM     80  O   UNL A   1      36.930  21.031  24.842  1.00  0.00    -0.462 OA
BRANCH  80  81
ATOM     81  C   UNL A   1      35.677  21.029  25.366  1.00  0.00     0.329 C 
ATOM     82  O   UNL A   1      35.458  21.458  26.497  1.00  0.00    -0.250 OA
BRANCH  81  83
ATOM     83  C   UNL A   1      34.531  20.434  24.481  1.00  0.00     0.198 C 
ATOM     84  C   UNL A   1      33.945  19.018  24.579  1.00  0.00     0.071 C 
ATOM     85  N   UNL A   1      33.336  21.271  24.579  1.00  0.00    -0.322 N 
ATOM     86  C   UNL A   1      32.732  19.160  25.471  1.00  0.00     0.136 C 
ATOM     87  C   UNL A   1      32.163  20.480  24.976  1.00  0.00     0.152 C 
BRANCH  85  88
ATOM     88  C   UNL A   1      33.349  22.540  24.027  1.00  0.00     0.256 C 
ATOM     89  O   UNL A   1      33.705  22.785  22.890  1.00  0.00    -0.269 OA
BRANCH  88  90
ATOM     90  C   UNL A   1      32.897  23.643  24.888  1.00  0.00     0.061 A 
ATOM     91  C   UNL A   1      31.530  23.729  25.189  1.00  0.00     0.057 A 
ATOM     92  C   UNL A   1      33.796  24.609  25.353  1.00  0.00     0.056 A 
ATOM     93  C   UNL A   1      31.052  24.855  25.834  1.00  0.00     0.159 A 
ATOM     94  C   UNL A   1      33.304  25.711  26.051  1.00  0.00     0.063 A 
ATOM     95  Cl  UNL A   1      35.493  24.564  25.043  1.00  0.00    -0.083 Cl
ATOM     96  F   UNL A   1      29.733  25.004  26.004  1.00  0.00    -0.204 F 
ATOM     97  C   UNL A   1      31.934  25.842  26.256  1.00  0.00     0.160 A 
ATOM     98  F   UNL A   1      31.466  26.948  26.847  1.00  0.00    -0.204 F 
ENDBRANCH  88  90
ENDBRANCH  85  88
BRANCH  86  99
ATOM     99  O   UNL A   1      33.088  19.252  26.846  1.00  0.00    -0.391 OA
ATOM    100  H   UNL A   1      32.316  19.043  27.394  1.00  0.00     0.211 HD
ENDBRANCH  86  99
ENDBRANCH  81  83
ENDBRANCH  80  81
ENDBRANCH  79  80
ENDBRANCH  78  79
ENDBRANCH  77  78
ENDBRANCH  76  77
ENDBRANCH  75  76
ENDBRANCH  74  75
ENDBRANCH   1  74
TORSDOF 26
ENDMDL
