MODEL 1
REMARK VINA RESULT:      -8.5      0.000      0.000
REMARK SMILES C[NH2+][C@@]1(C(=O)OCCOCCOCCOCCOC(=O)c2ccc(-c3c4nc(c(-c5cc(S(=O)(=O)[O-])ccc5F)c5ccc([nH]5)c(-c5cc(S(=O)(=O)[O-])ccc5F)c5nc(c(-c6cc(S(=O)(=O)[O-])ccc6F)c6ccc3[nH]6)C=C5)C=C4)cc2)CCC[C@H]1CCSc1nccc(=O)[nH]1
REMARK SMILES IDX 11 1 10 2 9 3 8 4 7 5 6 6 4 7 5 8 3 9 84 10 87 11 85 12
REMARK SMILES IDX 86 13 2 14 1 15 88 18 89 19 90 20 91 21 92 22 97 23 93 24
REMARK SMILES IDX 95 25 94 27 96 28 12 29 13 30 14 31 15 32 16 33 17 34 18 35
REMARK SMILES IDX 19 36 20 37 21 38 22 39 83 40 23 41 82 42 24 43 25 44 26 45
REMARK SMILES IDX 76 46 27 47 81 48 75 49 77 50 28 51 80 52 74 53 73 54 29 56
REMARK SMILES IDX 61 57 41 58 60 59 42 60 45 61 59 62 78 63 43 64 44 65 58 67
REMARK SMILES IDX 79 68 46 69 30 70 31 71 39 72 32 73 38 74 40 75 37 76 33 77
REMARK SMILES IDX 34 78 35 79 36 80 62 81 63 82 71 83 64 84 70 85 72 86 69 87
REMARK SMILES IDX 65 88 66 89 67 90 68 91 47 92 48 93 56 94 49 95 55 96 57 97
REMARK SMILES IDX 54 98 50 99 51 100 52 101 53 102
REMARK H PARENT 2 16 2 17 97 26 77 55 45 66
REMARK Flexibility Score: inf
ROOT
ATOM      1  C   UNL A   1      47.200  25.405  27.597  1.00  0.00     0.188 C 
ENDROOT
BRANCH   1   2
ATOM      2  C   UNL A   1      47.242  27.573  27.075  1.00  0.00     0.188 C 
BRANCH   2   3
ATOM      3  O   UNL A   1      48.551  28.701  27.334  1.00  0.00    -0.376 OA
BRANCH   3   4
ATOM      4  C   UNL A   1      48.580  29.937  28.183  1.00  0.00     0.202 C 
BRANCH   4   5
ATOM      5  C   UNL A   1      48.635  31.420  27.469  1.00  0.00     0.261 C 
BRANCH   5   6
ATOM      6  O   UNL A   1      47.882  31.616  26.212  1.00  0.00    -0.459 OA
BRANCH   6   7
ATOM      7  C   UNL A   1      46.557  31.375  26.241  1.00  0.00     0.368 C 
ATOM      8  O   UNL A   1      46.097  30.417  25.616  1.00  0.00    -0.245 OA
BRANCH   7   9
ATOM      9  C   UNL A   1      45.619  32.330  27.193  1.00  0.00     0.197 C 
ATOM     10  C   UNL A   1      44.221  32.376  26.556  1.00  0.00     0.081 C 
ATOM     11  C   UNL A   1      45.813  33.890  27.470  1.00  0.00     0.063 C 
ATOM     12  C   UNL A   1      44.294  33.572  25.605  1.00  0.00     0.008 C 
ATOM     13  C   UNL A   1      45.027  34.642  26.378  1.00  0.00     0.011 C 
BRANCH   9  14
ATOM     14  N   UNL A   1      45.720  31.689  28.522  1.00  0.00    -0.334 N 
ATOM     15  C   UNL A   1      44.576  30.988  29.054  1.00  0.00     0.331 C 
ATOM     16  H   UNL A   1      46.485  31.017  28.472  1.00  0.00     0.347 HD
ATOM     17  H   UNL A   1      45.841  32.474  29.162  1.00  0.00     0.347 HD
ENDBRANCH   9  14
BRANCH  11  18
ATOM     18  C   UNL A   1      45.338  34.475  28.883  1.00  0.00     0.022 C 
BRANCH  18  19
ATOM     19  C   UNL A   1      44.264  35.573  29.105  1.00  0.00     0.079 C 
BRANCH  19  20
ATOM     20  S   UNL A   1      44.653  37.170  29.837  1.00  0.00    -0.088 SA
BRANCH  20  21
ATOM     21  C   UNL A   1      43.739  38.266  28.881  1.00  0.00     0.168 A 
ATOM     22  N   UNL A   1      43.283  38.107  27.523  1.00  0.00    -0.233 NA
ATOM     23  N   UNL A   1      43.238  39.537  29.823  1.00  0.00    -0.301 N 
ATOM     24  C   UNL A   1      42.002  39.088  26.767  1.00  0.00     0.120 A 
ATOM     25  C   UNL A   1      42.030  40.669  29.384  1.00  0.00     0.251 A 
ATOM     26  H   UNL A   1      43.668  39.650  30.701  1.00  0.00     0.172 HD
ATOM     27  C   UNL A   1      41.449  40.416  27.495  1.00  0.00     0.091 A 
ATOM     28  O   UNL A   1      41.551  41.213  30.358  1.00  0.00    -0.269 OA
ENDBRANCH  20  21
ENDBRANCH  19  20
ENDBRANCH  18  19
ENDBRANCH  11  18
ENDBRANCH   7   9
ENDBRANCH   6   7
ENDBRANCH   5   6
ENDBRANCH   4   5
ENDBRANCH   3   4
ENDBRANCH   2   3
ENDBRANCH   1   2
BRANCH   1  29
ATOM     29  O   UNL A   1      46.283  24.659  28.728  1.00  0.00    -0.377 OA
BRANCH  29  30
ATOM     30  C   UNL A   1      44.903  24.202  28.619  1.00  0.00     0.188 C 
BRANCH  30  31
ATOM     31  C   UNL A   1      44.676  22.743  28.012  1.00  0.00     0.188 C 
BRANCH  31  32
ATOM     32  O   UNL A   1      43.925  22.586  26.826  1.00  0.00    -0.376 OA
BRANCH  32  33
ATOM     33  C   UNL A   1      44.580  22.244  25.586  1.00  0.00     0.202 C 
BRANCH  33  34
ATOM     34  C   UNL A   1      44.303  23.060  24.294  1.00  0.00     0.261 C 
BRANCH  34  35
ATOM     35  O   UNL A   1      43.545  24.251  24.509  1.00  0.00    -0.460 OA
BRANCH  35  36
ATOM     36  C   UNL A   1      44.266  25.253  25.054  1.00  0.00     0.338 C 
ATOM     37  O   UNL A   1      45.373  25.628  24.708  1.00  0.00    -0.246 OA
BRANCH  36  38
ATOM     38  C   UNL A   1      43.364  26.036  25.916  1.00  0.00     0.060 A 
ATOM     39  C   UNL A   1      43.713  27.379  26.118  1.00  0.00     0.016 A 
ATOM     40  C   UNL A   1      42.182  25.512  26.448  1.00  0.00     0.016 A 
ATOM     41  C   UNL A   1      42.915  28.195  26.895  1.00  0.00     0.010 A 
ATOM     42  C   UNL A   1      41.418  26.310  27.301  1.00  0.00     0.010 A 
ATOM     43  C   UNL A   1      41.828  27.629  27.571  1.00  0.00    -0.014 A 
BRANCH  43  44
ATOM     44  C   UNL A   1      41.454  28.294  28.835  1.00  0.00     0.031 A 
ATOM     45  C   UNL A   1      40.126  29.007  28.844  1.00  0.00     0.074 A 
ATOM     46  C   UNL A   1      42.170  28.136  29.960  1.00  0.00     0.049 A 
ATOM     47  N   UNL A   1      39.510  29.610  29.823  1.00  0.00    -0.248 NA
ATOM     48  C   UNL A   1      39.383  29.017  27.570  1.00  0.00     0.031 C 
ATOM     49  C   UNL A   1      43.407  27.368  30.079  1.00  0.00     0.029 A 
ATOM     50  N   UNL A   1      41.936  28.605  31.225  1.00  0.00    -0.354 N 
ATOM     51  C   UNL A   1      38.308  30.060  29.285  1.00  0.00     0.074 A 
ATOM     52  C   UNL A   1      38.293  29.690  27.890  1.00  0.00     0.031 C 
ATOM     53  C   UNL A   1      43.832  27.430  31.353  1.00  0.00     0.029 A 
ATOM     54  C   UNL A   1      42.918  28.271  32.126  1.00  0.00     0.049 A 
ATOM     55  H   UNL A   1      41.141  29.133  31.466  1.00  0.00     0.167 HD
ATOM     56  C   UNL A   1      37.303  30.723  29.902  1.00  0.00     0.034 A 
ATOM     57  C   UNL A   1      43.064  28.633  33.417  1.00  0.00     0.034 A 
ATOM     58  C   UNL A   1      37.356  31.116  31.285  1.00  0.00     0.049 A 
ATOM     59  C   UNL A   1      41.998  29.502  34.048  1.00  0.00     0.074 A 
ATOM     60  C   UNL A   1      36.421  31.825  32.014  1.00  0.00     0.029 A 
ATOM     61  N   UNL A   1      38.417  30.852  32.142  1.00  0.00    -0.354 N 
ATOM     62  N   UNL A   1      40.875  29.948  33.528  1.00  0.00    -0.248 NA
ATOM     63  C   UNL A   1      42.216  29.912  35.441  1.00  0.00     0.031 C 
ATOM     64  C   UNL A   1      36.953  32.065  33.284  1.00  0.00     0.029 A 
ATOM     65  C   UNL A   1      38.176  31.419  33.382  1.00  0.00     0.049 A 
ATOM     66  H   UNL A   1      39.222  30.337  31.902  1.00  0.00     0.167 HD
ATOM     67  C   UNL A   1      40.240  30.660  34.544  1.00  0.00     0.074 A 
ATOM     68  C   UNL A   1      41.099  30.571  35.707  1.00  0.00     0.031 C 
ATOM     69  C   UNL A   1      39.053  31.322  34.526  1.00  0.00     0.034 A 
BRANCH  56  70
ATOM     70  C   UNL A   1      36.125  31.131  29.055  1.00  0.00     0.023 A 
ATOM     71  C   UNL A   1      35.240  30.188  28.502  1.00  0.00     0.031 A 
ATOM     72  C   UNL A   1      35.921  32.487  28.745  1.00  0.00     0.131 A 
ATOM     73  C   UNL A   1      34.236  30.607  27.615  1.00  0.00     0.055 A 
ATOM     74  C   UNL A   1      34.869  32.905  27.930  1.00  0.00     0.041 A 
ATOM     75  F   UNL A   1      36.758  33.427  29.211  1.00  0.00    -0.206 F 
ATOM     76  C   UNL A   1      34.027  31.962  27.348  1.00  0.00     0.022 A 
BRANCH  73  77
ATOM     77  S   UNL A   1      33.308  29.349  26.694  1.00  0.00     0.124 S 
ATOM     78  O   UNL A   1      32.650  30.158  25.672  1.00  0.00    -0.237 OA
ATOM     79  O   UNL A   1      34.364  28.460  26.224  1.00  0.00    -0.237 OA
ATOM     80  O   UNL A   1      32.413  28.780  27.699  1.00  0.00    -0.744 OA
ENDBRANCH  73  77
ENDBRANCH  56  70
BRANCH  57  81
ATOM     81  C   UNL A   1      44.284  28.243  34.183  1.00  0.00     0.023 A 
ATOM     82  C   UNL A   1      44.383  26.998  34.822  1.00  0.00     0.031 A 
ATOM     83  C   UNL A   1      45.345  29.153  34.351  1.00  0.00     0.131 A 
ATOM     84  C   UNL A   1      45.491  26.716  35.638  1.00  0.00     0.055 A 
ATOM     85  C   UNL A   1      46.471  28.846  35.115  1.00  0.00     0.041 A 
ATOM     86  F   UNL A   1      45.300  30.364  33.772  1.00  0.00    -0.206 F 
ATOM     87  C   UNL A   1      46.542  27.625  35.776  1.00  0.00     0.022 A 
BRANCH  84  88
ATOM     88  S   UNL A   1      45.492  25.180  36.605  1.00  0.00     0.124 S 
ATOM     89  O   UNL A   1      46.800  25.236  37.247  1.00  0.00    -0.237 OA
ATOM     90  O   UNL A   1      44.339  25.374  37.479  1.00  0.00    -0.237 OA
ATOM     91  O   UNL A   1      45.335  24.140  35.592  1.00  0.00    -0.744 OA
ENDBRANCH  84  88
ENDBRANCH  57  81
BRANCH  69  92
ATOM     92  C   UNL A   1      38.591  31.954  35.817  1.00  0.00     0.023 A 
ATOM     93  C   UNL A   1      37.980  31.203  36.836  1.00  0.00     0.031 A 
ATOM     94  C   UNL A   1      38.775  33.332  36.032  1.00  0.00     0.131 A 
ATOM     95  C   UNL A   1      37.523  31.844  37.996  1.00  0.00     0.055 A 
ATOM     96  C   UNL A   1      38.383  33.951  37.218  1.00  0.00     0.041 A 
ATOM     97  F   UNL A   1      39.352  34.099  35.092  1.00  0.00    -0.206 F 
ATOM     98  C   UNL A   1      37.740  33.210  38.204  1.00  0.00     0.022 A 
BRANCH  95  99
ATOM     99  S   UNL A   1      36.545  30.891  39.189  1.00  0.00     0.124 S 
ATOM    100  O   UNL A   1      35.401  31.771  39.414  1.00  0.00    -0.237 OA
ATOM    101  O   UNL A   1      36.268  29.661  38.455  1.00  0.00    -0.237 OA
ATOM    102  O   UNL A   1      37.445  30.743  40.331  1.00  0.00    -0.744 OA
ENDBRANCH  95  99
ENDBRANCH  69  92
ENDBRANCH  43  44
ENDBRANCH  36  38
ENDBRANCH  35  36
ENDBRANCH  34  35
ENDBRANCH  33  34
ENDBRANCH  32  33
ENDBRANCH  31  32
ENDBRANCH  30  31
ENDBRANCH  29  30
ENDBRANCH   1  29
TORSDOF 28
ENDMDL
MODEL 2
REMARK VINA RESULT:      -8.2      5.589     14.863
REMARK SMILES C[NH2+][C@@]1(C(=O)OCCOCCOCCOCCOC(=O)c2ccc(-c3c4nc(c(-c5cc(S(=O)(=O)[O-])ccc5F)c5ccc([nH]5)c(-c5cc(S(=O)(=O)[O-])ccc5F)c5nc(c(-c6cc(S(=O)(=O)[O-])ccc6F)c6ccc3[nH]6)C=C5)C=C4)cc2)CCC[C@H]1CCSc1nccc(=O)[nH]1
REMARK SMILES IDX 11 1 10 2 9 3 8 4 7 5 6 6 4 7 5 8 3 9 84 10 87 11 85 12
REMARK SMILES IDX 86 13 2 14 1 15 88 18 89 19 90 20 91 21 92 22 97 23 93 24
REMARK SMILES IDX 95 25 94 27 96 28 12 29 13 30 14 31 15 32 16 33 17 34 18 35
REMARK SMILES IDX 19 36 20 37 21 38 22 39 83 40 23 41 82 42 24 43 25 44 26 45
REMARK SMILES IDX 76 46 27 47 81 48 75 49 77 50 28 51 80 52 74 53 73 54 29 56
REMARK SMILES IDX 61 57 41 58 60 59 42 60 45 61 59 62 78 63 43 64 44 65 58 67
REMARK SMILES IDX 79 68 46 69 30 70 31 71 39 72 32 73 38 74 40 75 37 76 33 77
REMARK SMILES IDX 34 78 35 79 36 80 62 81 63 82 71 83 64 84 70 85 72 86 69 87
REMARK SMILES IDX 65 88 66 89 67 90 68 91 47 92 48 93 56 94 49 95 55 96 57 97
REMARK SMILES IDX 54 98 50 99 51 100 52 101 53 102
REMARK H PARENT 2 16 2 17 97 26 77 55 45 66
REMARK Flexibility Score: inf
ROOT
ATOM      1  C   UNL A   1      31.351  31.832  26.751  1.00  0.00     0.188 C 
ENDROOT
BRANCH   1   2
ATOM      2  C   UNL A   1      30.536  31.068  24.820  1.00  0.00     0.188 C 
BRANCH   2   3
ATOM      3  O   UNL A   1      29.114  31.629  23.974  1.00  0.00    -0.376 OA
BRANCH   3   4
ATOM      4  C   UNL A   1      28.831  31.636  22.500  1.00  0.00     0.202 C 
BRANCH   4   5
ATOM      5  C   UNL A   1      28.738  30.214  21.676  1.00  0.00     0.261 C 
BRANCH   5   6
ATOM      6  O   UNL A   1      29.771  29.190  21.937  1.00  0.00    -0.459 OA
BRANCH   6   7
ATOM      7  C   UNL A   1      29.489  28.248  22.859  1.00  0.00     0.368 C 
ATOM      8  O   UNL A   1      28.330  28.108  23.253  1.00  0.00    -0.245 OA
BRANCH   7   9
ATOM      9  C   UNL A   1      30.706  27.261  23.351  1.00  0.00     0.197 C 
ATOM     10  C   UNL A   1      30.080  25.901  23.693  1.00  0.00     0.081 C 
ATOM     11  C   UNL A   1      31.620  27.442  24.647  1.00  0.00     0.063 C 
ATOM     12  C   UNL A   1      29.721  26.027  25.175  1.00  0.00     0.008 C 
ATOM     13  C   UNL A   1      30.906  26.718  25.806  1.00  0.00     0.011 C 
BRANCH   9  14
ATOM     14  N   UNL A   1      31.648  27.288  22.211  1.00  0.00    -0.334 N 
ATOM     15  C   UNL A   1      31.819  26.099  21.411  1.00  0.00     0.331 C 
ATOM     16  H   UNL A   1      31.336  28.028  21.583  1.00  0.00     0.347 HD
ATOM     17  H   UNL A   1      32.560  27.415  22.652  1.00  0.00     0.347 HD
ENDBRANCH   9  14
BRANCH  11  18
ATOM     18  C   UNL A   1      33.123  26.892  24.600  1.00  0.00     0.022 C 
BRANCH  18  19
ATOM     19  C   UNL A   1      33.809  26.010  25.678  1.00  0.00     0.079 C 
BRANCH  19  20
ATOM     20  S   UNL A   1      34.901  24.644  25.254  1.00  0.00    -0.088 SA
BRANCH  20  21
ATOM     21  C   UNL A   1      33.837  23.513  24.520  1.00  0.00     0.168 A 
ATOM     22  N   UNL A   1      33.293  23.528  23.186  1.00  0.00    -0.233 NA
ATOM     23  N   UNL A   1      33.641  22.206  25.524  1.00  0.00    -0.301 N 
ATOM     24  C   UNL A   1      32.553  22.120  22.381  1.00  0.00     0.120 A 
ATOM     25  C   UNL A   1      32.957  20.705  25.061  1.00  0.00     0.251 A 
ATOM     26  H   UNL A   1      33.941  22.300  26.457  1.00  0.00     0.172 HD
ATOM     27  C   UNL A   1      32.206  20.787  23.218  1.00  0.00     0.091 A 
ATOM     28  O   UNL A   1      33.304  19.808  25.802  1.00  0.00    -0.269 OA
ENDBRANCH  20  21
ENDBRANCH  19  20
ENDBRANCH  18  19
ENDBRANCH  11  18
ENDBRANCH   7   9
ENDBRANCH   6   7
ENDBRANCH   5   6
ENDBRANCH   4   5
ENDBRANCH   3   4
ENDBRANCH   2   3
ENDBRANCH   1   2
BRANCH   1  29
ATOM     29  O   UNL A   1      31.802  33.361  27.119  1.00  0.00    -0.377 OA
BRANCH  29  30
ATOM     30  C   UNL A   1      32.951  33.804  27.899  1.00  0.00     0.188 C 
BRANCH  30  31
ATOM     31  C   UNL A   1      34.201  32.813  27.961  1.00  0.00     0.188 C 
BRANCH  31  32
ATOM     32  O   UNL A   1      34.431  32.047  29.125  1.00  0.00    -0.376 OA
BRANCH  32  33
ATOM     33  C   UNL A   1      35.527  32.369  30.007  1.00  0.00     0.202 C 
BRANCH  33  34
ATOM     34  C   UNL A   1      36.950  32.621  29.440  1.00  0.00     0.261 C 
BRANCH  34  35
ATOM     35  O   UNL A   1      38.001  32.084  30.245  1.00  0.00    -0.460 OA
BRANCH  35  36
ATOM     36  C   UNL A   1      38.340  32.877  31.283  1.00  0.00     0.338 C 
ATOM     37  O   UNL A   1      37.883  32.837  32.412  1.00  0.00    -0.246 OA
BRANCH  36  38
ATOM     38  C   UNL A   1      39.586  33.576  30.924  1.00  0.00     0.060 A 
ATOM     39  C   UNL A   1      39.650  34.095  29.622  1.00  0.00     0.016 A 
ATOM     40  C   UNL A   1      40.625  33.786  31.835  1.00  0.00     0.016 A 
ATOM     41  C   UNL A   1      40.773  34.782  29.204  1.00  0.00     0.010 A 
ATOM     42  C   UNL A   1      41.793  34.408  31.389  1.00  0.00     0.010 A 
ATOM     43  C   UNL A   1      41.882  34.843  30.054  1.00  0.00    -0.014 A 
BRANCH  43  44
ATOM     44  C   UNL A   1      43.191  34.949  29.378  1.00  0.00     0.031 A 
ATOM     45  C   UNL A   1      43.739  36.342  29.203  1.00  0.00     0.074 A 
ATOM     46  C   UNL A   1      43.929  33.866  29.086  1.00  0.00     0.049 A 
ATOM     47  N   UNL A   1      44.885  36.732  28.717  1.00  0.00    -0.248 NA
ATOM     48  C   UNL A   1      42.875  37.445  29.666  1.00  0.00     0.031 C 
ATOM     49  C   UNL A   1      43.534  32.480  29.324  1.00  0.00     0.029 A 
ATOM     50  N   UNL A   1      45.181  33.775  28.539  1.00  0.00    -0.354 N 
ATOM     51  C   UNL A   1      44.882  38.119  28.825  1.00  0.00     0.074 A 
ATOM     52  C   UNL A   1      43.612  38.506  29.391  1.00  0.00     0.031 C 
ATOM     53  C   UNL A   1      44.527  31.672  28.910  1.00  0.00     0.029 A 
ATOM     54  C   UNL A   1      45.605  32.483  28.347  1.00  0.00     0.049 A 
ATOM     55  H   UNL A   1      45.725  34.561  28.304  1.00  0.00     0.167 HD
ATOM     56  C   UNL A   1      45.854  38.995  28.483  1.00  0.00     0.034 A 
ATOM     57  C   UNL A   1      46.727  32.022  27.756  1.00  0.00     0.034 A 
ATOM     58  C   UNL A   1      47.098  38.590  27.883  1.00  0.00     0.049 A 
ATOM     59  C   UNL A   1      47.739  33.025  27.245  1.00  0.00     0.074 A 
ATOM     60  C   UNL A   1      48.145  39.384  27.456  1.00  0.00     0.029 A 
ATOM     61  N   UNL A   1      47.451  37.276  27.605  1.00  0.00    -0.354 N 
ATOM     62  N   UNL A   1      47.719  34.338  27.325  1.00  0.00    -0.248 NA
ATOM     63  C   UNL A   1      48.924  32.484  26.569  1.00  0.00     0.031 C 
ATOM     64  C   UNL A   1      49.090  38.558  26.841  1.00  0.00     0.029 A 
ATOM     65  C   UNL A   1      48.683  37.239  26.976  1.00  0.00     0.049 A 
ATOM     66  H   UNL A   1      46.904  36.486  27.824  1.00  0.00     0.167 HD
ATOM     67  C   UNL A   1      48.907  34.774  26.740  1.00  0.00     0.074 A 
ATOM     68  C   UNL A   1      49.622  33.583  26.326  1.00  0.00     0.031 C 
ATOM     69  C   UNL A   1      49.373  36.038  26.565  1.00  0.00     0.034 A 
BRANCH  56  70
ATOM     70  C   UNL A   1      45.559  40.461  28.670  1.00  0.00     0.023 A 
ATOM     71  C   UNL A   1      45.441  41.043  29.945  1.00  0.00     0.031 A 
ATOM     72  C   UNL A   1      45.329  41.278  27.549  1.00  0.00     0.131 A 
ATOM     73  C   UNL A   1      45.036  42.382  30.068  1.00  0.00     0.055 A 
ATOM     74  C   UNL A   1      45.010  42.630  27.677  1.00  0.00     0.041 A 
ATOM     75  F   UNL A   1      45.388  40.768  26.309  1.00  0.00    -0.206 F 
ATOM     76  C   UNL A   1      44.848  43.186  28.942  1.00  0.00     0.022 A 
BRANCH  73  77
ATOM     77  S   UNL A   1      44.608  43.014  31.714  1.00  0.00     0.124 S 
ATOM     78  O   UNL A   1      45.718  43.924  31.978  1.00  0.00    -0.237 OA
ATOM     79  O   UNL A   1      43.310  43.638  31.483  1.00  0.00    -0.237 OA
ATOM     80  O   UNL A   1      44.585  41.813  32.546  1.00  0.00    -0.744 OA
ENDBRANCH  73  77
ENDBRANCH  56  70
BRANCH  57  81
ATOM     81  C   UNL A   1      46.932  30.558  27.551  1.00  0.00     0.023 A 
ATOM     82  C   UNL A   1      46.385  29.887  26.447  1.00  0.00     0.031 A 
ATOM     83  C   UNL A   1      47.622  29.792  28.510  1.00  0.00     0.131 A 
ATOM     84  C   UNL A   1      46.492  28.490  26.355  1.00  0.00     0.055 A 
ATOM     85  C   UNL A   1      47.777  28.411  28.382  1.00  0.00     0.041 A 
ATOM     86  F   UNL A   1      48.158  30.379  29.592  1.00  0.00    -0.206 F 
ATOM     87  C   UNL A   1      47.197  27.750  27.307  1.00  0.00     0.022 A 
BRANCH  84  88
ATOM     88  S   UNL A   1      45.604  27.635  25.023  1.00  0.00     0.124 S 
ATOM     89  O   UNL A   1      45.784  26.236  25.397  1.00  0.00    -0.237 OA
ATOM     90  O   UNL A   1      44.254  28.170  25.169  1.00  0.00    -0.237 OA
ATOM     91  O   UNL A   1      46.311  28.057  23.816  1.00  0.00    -0.744 OA
ENDBRANCH  84  88
ENDBRANCH  57  81
BRANCH  69  92
ATOM     92  C   UNL A   1      50.742  36.194  25.948  1.00  0.00     0.023 A 
ATOM     93  C   UNL A   1      51.919  36.061  26.704  1.00  0.00     0.031 A 
ATOM     94  C   UNL A   1      50.867  36.473  24.574  1.00  0.00     0.131 A 
ATOM     95  C   UNL A   1      53.166  36.265  26.096  1.00  0.00     0.055 A 
ATOM     96  C   UNL A   1      52.113  36.603  23.960  1.00  0.00     0.041 A 
ATOM     97  F   UNL A   1      49.777  36.612  23.803  1.00  0.00    -0.206 F 
ATOM     98  C   UNL A   1      53.272  36.513  24.724  1.00  0.00     0.022 A 
BRANCH  95  99
ATOM     99  S   UNL A   1      54.648  36.305  27.140  1.00  0.00     0.124 S 
ATOM    100  O   UNL A   1      55.462  37.315  26.470  1.00  0.00    -0.237 OA
ATOM    101  O   UNL A   1      54.104  36.685  28.440  1.00  0.00    -0.237 OA
ATOM    102  O   UNL A   1      55.163  34.940  27.058  1.00  0.00    -0.744 OA
ENDBRANCH  95  99
ENDBRANCH  69  92
ENDBRANCH  43  44
ENDBRANCH  36  38
ENDBRANCH  35  36
ENDBRANCH  34  35
ENDBRANCH  33  34
ENDBRANCH  32  33
ENDBRANCH  31  32
ENDBRANCH  30  31
ENDBRANCH  29  30
ENDBRANCH   1  29
TORSDOF 28
ENDMDL
MODEL 3
REMARK VINA RESULT:      -8.0      1.766      2.300
REMARK SMILES C[NH2+][C@@]1(C(=O)OCCOCCOCCOCCOC(=O)c2ccc(-c3c4nc(c(-c5cc(S(=O)(=O)[O-])ccc5F)c5ccc([nH]5)c(-c5cc(S(=O)(=O)[O-])ccc5F)c5nc(c(-c6cc(S(=O)(=O)[O-])ccc6F)c6ccc3[nH]6)C=C5)C=C4)cc2)CCC[C@H]1CCSc1nccc(=O)[nH]1
REMARK SMILES IDX 11 1 10 2 9 3 8 4 7 5 6 6 4 7 5 8 3 9 84 10 87 11 85 12
REMARK SMILES IDX 86 13 2 14 1 15 88 18 89 19 90 20 91 21 92 22 97 23 93 24
REMARK SMILES IDX 95 25 94 27 96 28 12 29 13 30 14 31 15 32 16 33 17 34 18 35
REMARK SMILES IDX 19 36 20 37 21 38 22 39 83 40 23 41 82 42 24 43 25 44 26 45
REMARK SMILES IDX 76 46 27 47 81 48 75 49 77 50 28 51 80 52 74 53 73 54 29 56
REMARK SMILES IDX 61 57 41 58 60 59 42 60 45 61 59 62 78 63 43 64 44 65 58 67
REMARK SMILES IDX 79 68 46 69 30 70 31 71 39 72 32 73 38 74 40 75 37 76 33 77
REMARK SMILES IDX 34 78 35 79 36 80 62 81 63 82 71 83 64 84 70 85 72 86 69 87
REMARK SMILES IDX 65 88 66 89 67 90 68 91 47 92 48 93 56 94 49 95 55 96 57 97
REMARK SMILES IDX 54 98 50 99 51 100 52 101 53 102
REMARK H PARENT 2 16 2 17 97 26 77 55 45 66
REMARK Flexibility Score: inf
ROOT
ATOM      1  C   UNL A   1      47.239  25.233  27.501  1.00  0.00     0.188 C 
ENDROOT
BRANCH   1   2
ATOM      2  C   UNL A   1      47.317  27.001  26.142  1.00  0.00     0.188 C 
BRANCH   2   3
ATOM      3  O   UNL A   1      48.741  27.768  25.482  1.00  0.00    -0.376 OA
BRANCH   3   4
ATOM      4  C   UNL A   1      49.999  28.190  26.182  1.00  0.00     0.202 C 
BRANCH   4   5
ATOM      5  C   UNL A   1      50.290  29.787  26.455  1.00  0.00     0.261 C 
BRANCH   5   6
ATOM      6  O   UNL A   1      49.197  30.606  27.020  1.00  0.00    -0.459 OA
BRANCH   6   7
ATOM      7  C   UNL A   1      48.991  30.530  28.350  1.00  0.00     0.368 C 
ATOM      8  O   UNL A   1      49.906  30.161  29.088  1.00  0.00    -0.245 OA
BRANCH   7   9
ATOM      9  C   UNL A   1      47.540  31.028  28.937  1.00  0.00     0.197 C 
ATOM     10  C   UNL A   1      46.970  29.876  29.780  1.00  0.00     0.081 C 
ATOM     11  C   UNL A   1      46.234  31.378  28.088  1.00  0.00     0.063 C 
ATOM     12  C   UNL A   1      46.165  29.052  28.773  1.00  0.00     0.008 C 
ATOM     13  C   UNL A   1      45.435  30.070  27.930  1.00  0.00     0.011 C 
BRANCH   9  14
ATOM     14  N   UNL A   1      47.874  32.274  29.659  1.00  0.00    -0.334 N 
ATOM     15  C   UNL A   1      47.736  32.314  31.095  1.00  0.00     0.331 C 
ATOM     16  H   UNL A   1      48.848  32.491  29.447  1.00  0.00     0.347 HD
ATOM     17  H   UNL A   1      47.175  32.941  29.330  1.00  0.00     0.347 HD
ENDBRANCH   9  14
BRANCH  11  18
ATOM     18  C   UNL A   1      45.227  32.481  28.665  1.00  0.00     0.022 C 
BRANCH  18  19
ATOM     19  C   UNL A   1      43.901  32.945  28.004  1.00  0.00     0.079 C 
BRANCH  19  20
ATOM     20  S   UNL A   1      43.846  34.244  26.759  1.00  0.00    -0.088 SA
BRANCH  20  21
ATOM     21  C   UNL A   1      43.401  35.630  27.669  1.00  0.00     0.168 A 
ATOM     22  N   UNL A   1      43.899  36.061  28.951  1.00  0.00    -0.233 NA
ATOM     23  N   UNL A   1      42.400  36.592  26.757  1.00  0.00    -0.301 N 
ATOM     24  C   UNL A   1      43.699  37.704  29.612  1.00  0.00     0.120 A 
ATOM     25  C   UNL A   1      41.998  38.217  27.123  1.00  0.00     0.251 A 
ATOM     26  H   UNL A   1      42.008  36.198  25.945  1.00  0.00     0.172 HD
ATOM     27  C   UNL A   1      42.696  38.754  28.910  1.00  0.00     0.091 A 
ATOM     28  O   UNL A   1      41.628  38.818  26.136  1.00  0.00    -0.269 OA
ENDBRANCH  20  21
ENDBRANCH  19  20
ENDBRANCH  18  19
ENDBRANCH  11  18
ENDBRANCH   7   9
ENDBRANCH   6   7
ENDBRANCH   5   6
ENDBRANCH   4   5
ENDBRANCH   3   4
ENDBRANCH   2   3
ENDBRANCH   1   2
BRANCH   1  29
ATOM     29  O   UNL A   1      46.228  24.975  28.761  1.00  0.00    -0.377 OA
BRANCH  29  30
ATOM     30  C   UNL A   1      44.855  24.486  28.736  1.00  0.00     0.188 C 
BRANCH  30  31
ATOM     31  C   UNL A   1      44.645  22.961  28.316  1.00  0.00     0.188 C 
BRANCH  31  32
ATOM     32  O   UNL A   1      43.844  22.646  27.195  1.00  0.00    -0.376 OA
BRANCH  32  33
ATOM     33  C   UNL A   1      44.455  22.248  25.950  1.00  0.00     0.202 C 
BRANCH  33  34
ATOM     34  C   UNL A   1      44.031  22.914  24.612  1.00  0.00     0.261 C 
BRANCH  34  35
ATOM     35  O   UNL A   1      43.206  24.068  24.773  1.00  0.00    -0.460 OA
BRANCH  35  36
ATOM     36  C   UNL A   1      43.896  25.179  25.108  1.00  0.00     0.338 C 
ATOM     37  O   UNL A   1      44.920  25.586  24.588  1.00  0.00    -0.246 OA
BRANCH  36  38
ATOM     38  C   UNL A   1      43.033  25.995  25.979  1.00  0.00     0.060 A 
ATOM     39  C   UNL A   1      43.437  27.324  26.178  1.00  0.00     0.016 A 
ATOM     40  C   UNL A   1      41.838  25.517  26.524  1.00  0.00     0.016 A 
ATOM     41  C   UNL A   1      42.680  28.169  26.965  1.00  0.00     0.010 A 
ATOM     42  C   UNL A   1      41.115  26.344  27.385  1.00  0.00     0.010 A 
ATOM     43  C   UNL A   1      41.579  27.646  27.651  1.00  0.00    -0.014 A 
BRANCH  43  44
ATOM     44  C   UNL A   1      41.244  28.324  28.920  1.00  0.00     0.031 A 
ATOM     45  C   UNL A   1      39.941  29.080  28.946  1.00  0.00     0.074 A 
ATOM     46  C   UNL A   1      41.970  28.143  30.034  1.00  0.00     0.049 A 
ATOM     47  N   UNL A   1      39.359  29.705  29.932  1.00  0.00    -0.248 NA
ATOM     48  C   UNL A   1      39.181  29.114  27.682  1.00  0.00     0.031 C 
ATOM     49  C   UNL A   1      43.182  27.334  30.137  1.00  0.00     0.029 A 
ATOM     50  N   UNL A   1      41.769  28.621  31.302  1.00  0.00    -0.354 N 
ATOM     51  C   UNL A   1      38.165  30.194  29.410  1.00  0.00     0.074 A 
ATOM     52  C   UNL A   1      38.119  29.824  28.016  1.00  0.00     0.031 C 
ATOM     53  C   UNL A   1      43.626  27.384  31.406  1.00  0.00     0.029 A 
ATOM     54  C   UNL A   1      42.751  28.254  32.190  1.00  0.00     0.049 A 
ATOM     55  H   UNL A   1      40.996  29.174  31.554  1.00  0.00     0.167 HD
ATOM     56  C   UNL A   1      37.192  30.890  30.040  1.00  0.00     0.034 A 
ATOM     57  C   UNL A   1      42.927  28.613  33.478  1.00  0.00     0.034 A 
ATOM     58  C   UNL A   1      37.276  31.283  31.421  1.00  0.00     0.049 A 
ATOM     59  C   UNL A   1      41.899  29.517  34.123  1.00  0.00     0.074 A 
ATOM     60  C   UNL A   1      36.375  32.023  32.162  1.00  0.00     0.029 A 
ATOM     61  N   UNL A   1      38.339  30.984  32.264  1.00  0.00    -0.354 N 
ATOM     62  N   UNL A   1      40.785  30.000  33.618  1.00  0.00    -0.248 NA
ATOM     63  C   UNL A   1      42.150  29.920  35.512  1.00  0.00     0.031 C 
ATOM     64  C   UNL A   1      36.932  32.246  33.424  1.00  0.00     0.029 A 
ATOM     65  C   UNL A   1      38.135  31.559  33.506  1.00  0.00     0.049 A 
ATOM     66  H   UNL A   1      39.123  30.442  32.014  1.00  0.00     0.167 HD
ATOM     67  C   UNL A   1      40.187  30.733  34.642  1.00  0.00     0.074 A 
ATOM     68  C   UNL A   1      41.059  30.616  35.793  1.00  0.00     0.031 C 
ATOM     69  C   UNL A   1      39.023  31.434  34.639  1.00  0.00     0.034 A 
BRANCH  56  70
ATOM     70  C   UNL A   1      36.016  31.337  29.208  1.00  0.00     0.023 A 
ATOM     71  C   UNL A   1      35.592  32.678  29.175  1.00  0.00     0.031 A 
ATOM     72  C   UNL A   1      35.269  30.391  28.485  1.00  0.00     0.131 A 
ATOM     73  C   UNL A   1      34.415  33.021  28.490  1.00  0.00     0.055 A 
ATOM     74  C   UNL A   1      34.149  30.754  27.738  1.00  0.00     0.041 A 
ATOM     75  F   UNL A   1      35.602  29.091  28.513  1.00  0.00    -0.206 F 
ATOM     76  C   UNL A   1      33.708  32.074  27.748  1.00  0.00     0.022 A 
BRANCH  73  77
ATOM     77  S   UNL A   1      33.737  34.690  28.711  1.00  0.00     0.124 S 
ATOM     78  O   UNL A   1      33.802  34.845  30.161  1.00  0.00    -0.237 OA
ATOM     79  O   UNL A   1      34.662  35.511  27.938  1.00  0.00    -0.237 OA
ATOM     80  O   UNL A   1      32.387  34.586  28.162  1.00  0.00    -0.744 OA
ENDBRANCH  73  77
ENDBRANCH  56  70
BRANCH  57  81
ATOM     81  C   UNL A   1      44.143  28.183  34.229  1.00  0.00     0.023 A 
ATOM     82  C   UNL A   1      44.136  27.044  35.049  1.00  0.00     0.031 A 
ATOM     83  C   UNL A   1      45.318  28.959  34.193  1.00  0.00     0.131 A 
ATOM     84  C   UNL A   1      45.259  26.743  35.837  1.00  0.00     0.055 A 
ATOM     85  C   UNL A   1      46.452  28.622  34.933  1.00  0.00     0.041 A 
ATOM     86  F   UNL A   1      45.379  30.066  33.434  1.00  0.00    -0.206 F 
ATOM     87  C   UNL A   1      46.421  27.515  35.773  1.00  0.00     0.022 A 
BRANCH  84  88
ATOM     88  S   UNL A   1      45.144  25.382  37.032  1.00  0.00     0.124 S 
ATOM     89  O   UNL A   1      46.361  25.572  37.814  1.00  0.00    -0.237 OA
ATOM     90  O   UNL A   1      43.890  25.686  37.714  1.00  0.00    -0.237 OA
ATOM     91  O   UNL A   1      45.120  24.190  36.189  1.00  0.00    -0.744 OA
ENDBRANCH  84  88
ENDBRANCH  57  81
BRANCH  69  92
ATOM     92  C   UNL A   1      38.600  32.082  35.935  1.00  0.00     0.023 A 
ATOM     93  C   UNL A   1      38.000  31.348  36.972  1.00  0.00     0.031 A 
ATOM     94  C   UNL A   1      38.811  33.459  36.136  1.00  0.00     0.131 A 
ATOM     95  C   UNL A   1      37.579  32.004  38.138  1.00  0.00     0.055 A 
ATOM     96  C   UNL A   1      38.455  34.092  37.327  1.00  0.00     0.041 A 
ATOM     97  F   UNL A   1      39.379  34.210  35.179  1.00  0.00    -0.206 F 
ATOM     98  C   UNL A   1      37.822  33.368  38.331  1.00  0.00     0.022 A 
BRANCH  95  99
ATOM     99  S   UNL A   1      36.612  31.075  39.359  1.00  0.00     0.124 S 
ATOM    100  O   UNL A   1      35.514  31.996  39.639  1.00  0.00    -0.237 OA
ATOM    101  O   UNL A   1      36.259  29.865  38.623  1.00  0.00    -0.237 OA
ATOM    102  O   UNL A   1      37.551  30.878  40.462  1.00  0.00    -0.744 OA
ENDBRANCH  95  99
ENDBRANCH  69  92
ENDBRANCH  43  44
ENDBRANCH  36  38
ENDBRANCH  35  36
ENDBRANCH  34  35
ENDBRANCH  33  34
ENDBRANCH  32  33
ENDBRANCH  31  32
ENDBRANCH  30  31
ENDBRANCH  29  30
ENDBRANCH   1  29
TORSDOF 28
ENDMDL
