MODEL 1
REMARK VINA RESULT:     -11.1      0.000      0.000
REMARK SMILES Cc1ccc(S(=O)(=O)N(c2ccccc2)[C@H](C)C(=O)OCCOCCOCCOCCOC(=O)c2ccc(-c3c4nc(c(-c5cc(S(=O)(=O)[O-])ccc5F)c5ccc([nH]5)c(-c5cc(S(=O)(=O)[O-])ccc5F)c5nc(c(-c6cc(S(=O)(=O)[O-])ccc6F)c6ccc3[nH]6)C=C5)C=C4)cc2)cc1
REMARK SMILES IDX 26 1 25 2 24 3 23 4 22 5 21 6 20 7 18 8 19 9 16 10 17 11
REMARK SMILES IDX 9 12 6 13 7 14 8 15 5 16 1 17 2 18 3 19 99 20 4 21 98 22
REMARK SMILES IDX 10 23 11 24 15 25 12 26 14 27 13 28 27 29 28 30 29 31 30 32
REMARK SMILES IDX 31 33 32 34 33 35 34 36 35 37 36 38 97 39 37 40 96 41 38 42
REMARK SMILES IDX 39 43 40 44 90 45 41 46 95 47 89 48 91 49 42 50 94 51 88 52
REMARK SMILES IDX 87 53 43 55 75 56 55 57 74 58 56 59 59 60 73 61 92 62 57 63
REMARK SMILES IDX 58 64 72 66 93 67 60 68 44 69 45 70 53 71 46 72 52 73 54 74
REMARK SMILES IDX 51 75 47 76 48 77 49 78 50 79 76 80 77 81 85 82 78 83 84 84
REMARK SMILES IDX 86 85 83 86 79 87 80 88 81 89 82 90 61 91 62 92 70 93 63 94
REMARK SMILES IDX 69 95 71 96 68 97 64 98 65 99 66 100 67 101
REMARK H PARENT 91 54 59 65
REMARK Flexibility Score: inf
ROOT
ATOM      1  O   UNL A   1      39.055  21.362  25.482  1.00  0.00    -0.377 OA
ENDROOT
BRANCH   1   2
ATOM      2  C   UNL A   1      37.764  20.823  25.324  1.00  0.00     0.188 C 
BRANCH   2   3
ATOM      3  C   UNL A   1      36.567  21.787  25.372  1.00  0.00     0.188 C 
BRANCH   3   4
ATOM      4  O   UNL A   1      35.689  21.776  26.487  1.00  0.00    -0.376 OA
BRANCH   4   5
ATOM      5  C   UNL A   1      34.367  21.295  26.290  1.00  0.00     0.202 C 
BRANCH   5   6
ATOM      6  C   UNL A   1      33.303  21.913  27.175  1.00  0.00     0.261 C 
BRANCH   6   7
ATOM      7  O   UNL A   1      32.097  22.151  26.422  1.00  0.00    -0.462 OA
BRANCH   7   8
ATOM      8  C   UNL A   1      31.643  23.424  26.416  1.00  0.00     0.329 C 
ATOM      9  O   UNL A   1      30.736  23.844  27.128  1.00  0.00    -0.250 OA
BRANCH   8  10
ATOM     10  C   UNL A   1      32.380  24.318  25.430  1.00  0.00     0.206 C 
ATOM     11  C   UNL A   1      32.781  23.651  24.115  1.00  0.00     0.045 C 
BRANCH  10  12
ATOM     12  N   UNL A   1      31.760  25.660  25.210  1.00  0.00    -0.252 N 
BRANCH  12  13
ATOM     13  S   UNL A   1      31.411  25.956  23.537  1.00  0.00     0.265 S 
ATOM     14  O   UNL A   1      30.652  24.813  23.073  1.00  0.00    -0.201 OA
ATOM     15  O   UNL A   1      32.622  26.377  22.860  1.00  0.00    -0.201 OA
BRANCH  13  16
ATOM     16  C   UNL A   1      30.304  27.347  23.571  1.00  0.00     0.088 A 
ATOM     17  C   UNL A   1      27.579  30.572  22.892  1.00  0.00     0.044 C 
ATOM     18  C   UNL A   1      28.540  29.464  23.186  1.00  0.00    -0.051 A 
ATOM     19  C   UNL A   1      29.906  29.710  23.386  1.00  0.00     0.005 A 
ATOM     20  C   UNL A   1      28.052  28.163  23.315  1.00  0.00     0.005 A 
ATOM     21  C   UNL A   1      30.800  28.647  23.549  1.00  0.00     0.022 A 
ATOM     22  C   UNL A   1      28.930  27.123  23.581  1.00  0.00     0.022 A 
ENDBRANCH  13  16
ENDBRANCH  12  13
BRANCH  12  23
ATOM     23  C   UNL A   1      32.261  26.775  25.973  1.00  0.00     0.053 A 
ATOM     24  C   UNL A   1      33.522  27.319  25.775  1.00  0.00     0.027 A 
ATOM     25  C   UNL A   1      31.393  27.385  26.884  1.00  0.00     0.027 A 
ATOM     26  C   UNL A   1      33.832  28.566  26.331  1.00  0.00     0.002 A 
ATOM     27  C   UNL A   1      31.739  28.589  27.502  1.00  0.00     0.002 A 
ATOM     28  C   UNL A   1      32.947  29.202  27.195  1.00  0.00     0.000 A 
ENDBRANCH  12  23
ENDBRANCH  10  12
ENDBRANCH   8  10
ENDBRANCH   7   8
ENDBRANCH   6   7
ENDBRANCH   5   6
ENDBRANCH   4   5
ENDBRANCH   3   4
ENDBRANCH   2   3
ENDBRANCH   1   2
BRANCH   1  29
ATOM     29  C   UNL A   1      39.875  20.807  26.504  1.00  0.00     0.188 C 
BRANCH  29  30
ATOM     30  C   UNL A   1      41.342  20.506  26.165  1.00  0.00     0.188 C 
BRANCH  30  31
ATOM     31  O   UNL A   1      41.545  19.195  25.669  1.00  0.00    -0.376 OA
BRANCH  31  32
ATOM     32  C   UNL A   1      42.712  18.502  26.109  1.00  0.00     0.202 C 
BRANCH  32  33
ATOM     33  C   UNL A   1      44.026  18.556  25.286  1.00  0.00     0.261 C 
BRANCH  33  34
ATOM     34  O   UNL A   1      44.826  19.694  25.719  1.00  0.00    -0.460 OA
BRANCH  34  35
ATOM     35  C   UNL A   1      45.651  20.313  24.830  1.00  0.00     0.338 C 
ATOM     36  O   UNL A   1      46.721  19.875  24.448  1.00  0.00    -0.246 OA
BRANCH  35  37
ATOM     37  C   UNL A   1      45.142  21.712  24.544  1.00  0.00     0.060 A 
ATOM     38  C   UNL A   1      46.051  22.703  24.174  1.00  0.00     0.016 A 
ATOM     39  C   UNL A   1      43.857  22.119  24.904  1.00  0.00     0.016 A 
ATOM     40  C   UNL A   1      45.771  24.056  24.449  1.00  0.00     0.010 A 
ATOM     41  C   UNL A   1      43.643  23.439  25.327  1.00  0.00     0.010 A 
ATOM     42  C   UNL A   1      44.658  24.399  25.223  1.00  0.00    -0.014 A 
BRANCH  42  43
ATOM     43  C   UNL A   1      44.698  25.498  26.245  1.00  0.00     0.031 A 
ATOM     44  C   UNL A   1      43.520  26.390  26.544  1.00  0.00     0.074 A 
ATOM     45  C   UNL A   1      45.719  25.456  27.148  1.00  0.00     0.049 A 
ATOM     46  N   UNL A   1      43.429  27.178  27.564  1.00  0.00    -0.248 NA
ATOM     47  C   UNL A   1      42.322  26.467  25.712  1.00  0.00     0.031 C 
ATOM     48  C   UNL A   1      45.747  25.973  28.516  1.00  0.00     0.029 A 
ATOM     49  N   UNL A   1      46.994  24.880  27.015  1.00  0.00    -0.354 N 
ATOM     50  C   UNL A   1      42.155  27.715  27.645  1.00  0.00     0.074 A 
ATOM     51  C   UNL A   1      41.504  27.236  26.451  1.00  0.00     0.031 C 
ATOM     52  C   UNL A   1      46.957  25.775  29.044  1.00  0.00     0.029 A 
ATOM     53  C   UNL A   1      47.838  25.496  27.964  1.00  0.00     0.049 A 
ATOM     54  H   UNL A   1      47.251  24.176  26.378  1.00  0.00     0.167 HD
ATOM     55  C   UNL A   1      41.816  28.486  28.729  1.00  0.00     0.034 A 
ATOM     56  C   UNL A   1      48.787  26.393  27.565  1.00  0.00     0.034 A 
ATOM     57  C   UNL A   1      43.014  28.937  29.454  1.00  0.00     0.049 A 
ATOM     58  C   UNL A   1      48.447  27.871  27.807  1.00  0.00     0.074 A 
ATOM     59  C   UNL A   1      43.449  29.028  30.765  1.00  0.00     0.029 A 
ATOM     60  N   UNL A   1      44.073  29.401  28.686  1.00  0.00    -0.354 N 
ATOM     61  N   UNL A   1      47.340  28.325  28.360  1.00  0.00    -0.248 NA
ATOM     62  C   UNL A   1      49.327  28.968  27.422  1.00  0.00     0.031 C 
ATOM     63  C   UNL A   1      44.766  29.586  30.753  1.00  0.00     0.029 A 
ATOM     64  C   UNL A   1      45.146  29.788  29.439  1.00  0.00     0.049 A 
ATOM     65  H   UNL A   1      44.053  29.447  27.703  1.00  0.00     0.167 HD
ATOM     66  C   UNL A   1      47.305  29.705  28.324  1.00  0.00     0.074 A 
ATOM     67  C   UNL A   1      48.583  30.050  27.718  1.00  0.00     0.031 C 
ATOM     68  C   UNL A   1      46.237  30.463  28.756  1.00  0.00     0.034 A 
BRANCH  55  69
ATOM     69  C   UNL A   1      40.414  28.906  29.188  1.00  0.00     0.023 A 
ATOM     70  C   UNL A   1      40.078  28.844  30.568  1.00  0.00     0.031 A 
ATOM     71  C   UNL A   1      39.346  29.272  28.346  1.00  0.00     0.131 A 
ATOM     72  C   UNL A   1      38.775  29.112  31.044  1.00  0.00     0.055 A 
ATOM     73  C   UNL A   1      38.059  29.590  28.824  1.00  0.00     0.041 A 
ATOM     74  F   UNL A   1      39.469  29.304  27.013  1.00  0.00    -0.206 F 
ATOM     75  C   UNL A   1      37.764  29.504  30.176  1.00  0.00     0.022 A 
BRANCH  72  76
ATOM     76  S   UNL A   1      38.402  28.922  32.816  1.00  0.00     0.124 S 
ATOM     77  O   UNL A   1      39.732  28.915  33.414  1.00  0.00    -0.237 OA
ATOM     78  O   UNL A   1      37.574  30.090  33.090  1.00  0.00    -0.237 OA
ATOM     79  O   UNL A   1      37.695  27.642  32.880  1.00  0.00    -0.744 OA
ENDBRANCH  72  76
ENDBRANCH  55  69
BRANCH  56  80
ATOM     80  C   UNL A   1      49.718  25.698  26.611  1.00  0.00     0.023 A 
ATOM     81  C   UNL A   1      49.380  25.963  25.258  1.00  0.00     0.031 A 
ATOM     82  C   UNL A   1      51.084  25.609  26.926  1.00  0.00     0.131 A 
ATOM     83  C   UNL A   1      50.344  26.529  24.407  1.00  0.00     0.055 A 
ATOM     84  C   UNL A   1      52.062  26.045  26.015  1.00  0.00     0.041 A 
ATOM     85  F   UNL A   1      51.476  25.334  28.180  1.00  0.00    -0.206 F 
ATOM     86  C   UNL A   1      51.683  26.597  24.788  1.00  0.00     0.022 A 
BRANCH  83  87
ATOM     87  S   UNL A   1      49.751  27.517  22.988  1.00  0.00     0.124 S 
ATOM     88  O   UNL A   1      50.072  26.647  21.861  1.00  0.00    -0.237 OA
ATOM     89  O   UNL A   1      48.330  27.674  23.286  1.00  0.00    -0.237 OA
ATOM     90  O   UNL A   1      50.531  28.748  23.079  1.00  0.00    -0.744 OA
ENDBRANCH  83  87
ENDBRANCH  56  80
BRANCH  68  91
ATOM     91  C   UNL A   1      46.036  31.951  28.493  1.00  0.00     0.023 A 
ATOM     92  C   UNL A   1      45.723  32.458  27.235  1.00  0.00     0.031 A 
ATOM     93  C   UNL A   1      46.157  32.925  29.528  1.00  0.00     0.131 A 
ATOM     94  C   UNL A   1      45.400  33.818  27.065  1.00  0.00     0.055 A 
ATOM     95  C   UNL A   1      45.933  34.291  29.335  1.00  0.00     0.041 A 
ATOM     96  F   UNL A   1      46.448  32.600  30.795  1.00  0.00    -0.206 F 
ATOM     97  C   UNL A   1      45.517  34.744  28.099  1.00  0.00     0.022 A 
BRANCH  94  98
ATOM     98  S   UNL A   1      44.704  34.315  25.473  1.00  0.00     0.124 S 
ATOM     99  O   UNL A   1      44.002  35.548  25.811  1.00  0.00    -0.237 OA
ATOM    100  O   UNL A   1      45.910  34.477  24.665  1.00  0.00    -0.237 OA
ATOM    101  O   UNL A   1      43.853  33.189  25.099  1.00  0.00    -0.744 OA
ENDBRANCH  94  98
ENDBRANCH  68  91
ENDBRANCH  42  43
ENDBRANCH  35  37
ENDBRANCH  34  35
ENDBRANCH  33  34
ENDBRANCH  32  33
ENDBRANCH  31  32
ENDBRANCH  30  31
ENDBRANCH  29  30
ENDBRANCH   1  29
TORSDOF 27
ENDMDL
MODEL 2
REMARK VINA RESULT:     -10.4      5.232     11.097
REMARK SMILES Cc1ccc(S(=O)(=O)N(c2ccccc2)[C@H](C)C(=O)OCCOCCOCCOCCOC(=O)c2ccc(-c3c4nc(c(-c5cc(S(=O)(=O)[O-])ccc5F)c5ccc([nH]5)c(-c5cc(S(=O)(=O)[O-])ccc5F)c5nc(c(-c6cc(S(=O)(=O)[O-])ccc6F)c6ccc3[nH]6)C=C5)C=C4)cc2)cc1
REMARK SMILES IDX 26 1 25 2 24 3 23 4 22 5 21 6 20 7 18 8 19 9 16 10 17 11
REMARK SMILES IDX 9 12 6 13 7 14 8 15 5 16 1 17 2 18 3 19 99 20 4 21 98 22
REMARK SMILES IDX 10 23 11 24 15 25 12 26 14 27 13 28 27 29 28 30 29 31 30 32
REMARK SMILES IDX 31 33 32 34 33 35 34 36 35 37 36 38 97 39 37 40 96 41 38 42
REMARK SMILES IDX 39 43 40 44 90 45 41 46 95 47 89 48 91 49 42 50 94 51 88 52
REMARK SMILES IDX 87 53 43 55 75 56 55 57 74 58 56 59 59 60 73 61 92 62 57 63
REMARK SMILES IDX 58 64 72 66 93 67 60 68 44 69 45 70 53 71 46 72 52 73 54 74
REMARK SMILES IDX 51 75 47 76 48 77 49 78 50 79 76 80 77 81 85 82 78 83 84 84
REMARK SMILES IDX 86 85 83 86 79 87 80 88 81 89 82 90 61 91 62 92 70 93 63 94
REMARK SMILES IDX 69 95 71 96 68 97 64 98 65 99 66 100 67 101
REMARK H PARENT 91 54 59 65
REMARK Flexibility Score: inf
ROOT
ATOM      1  O   UNL A   1      34.278  30.439  27.805  1.00  0.00    -0.377 OA
ENDROOT
BRANCH   1   2
ATOM      2  C   UNL A   1      32.976  30.093  27.396  1.00  0.00     0.188 C 
BRANCH   2   3
ATOM      3  C   UNL A   1      32.707  29.947  25.889  1.00  0.00     0.188 C 
BRANCH   3   4
ATOM      4  O   UNL A   1      31.635  29.138  25.434  1.00  0.00    -0.376 OA
BRANCH   4   5
ATOM      5  C   UNL A   1      31.121  29.383  24.133  1.00  0.00     0.202 C 
BRANCH   5   6
ATOM      6  C   UNL A   1      30.476  28.195  23.445  1.00  0.00     0.261 C 
BRANCH   6   7
ATOM      7  O   UNL A   1      31.005  26.961  23.970  1.00  0.00    -0.462 OA
BRANCH   7   8
ATOM      8  C   UNL A   1      32.092  26.465  23.338  1.00  0.00     0.329 C 
ATOM      9  O   UNL A   1      32.279  26.519  22.126  1.00  0.00    -0.250 OA
BRANCH   8  10
ATOM     10  C   UNL A   1      33.096  25.825  24.285  1.00  0.00     0.206 C 
ATOM     11  C   UNL A   1      32.999  26.276  25.742  1.00  0.00     0.045 C 
BRANCH  10  12
ATOM     12  N   UNL A   1      33.219  24.341  24.166  1.00  0.00    -0.252 N 
BRANCH  12  13
ATOM     13  S   UNL A   1      31.905  23.509  24.934  1.00  0.00     0.265 S 
ATOM     14  O   UNL A   1      30.733  23.769  24.124  1.00  0.00    -0.201 OA
ATOM     15  O   UNL A   1      31.915  23.801  26.354  1.00  0.00    -0.201 OA
BRANCH  13  16
ATOM     16  C   UNL A   1      32.315  21.790  24.736  1.00  0.00     0.088 A 
ATOM     17  C   UNL A   1      34.010  17.915  24.102  1.00  0.00     0.044 C 
ATOM     18  C   UNL A   1      33.363  19.245  24.326  1.00  0.00    -0.051 A 
ATOM     19  C   UNL A   1      32.548  19.840  23.351  1.00  0.00     0.005 A 
ATOM     20  C   UNL A   1      33.533  19.881  25.556  1.00  0.00     0.005 A 
ATOM     21  C   UNL A   1      32.045  21.131  23.540  1.00  0.00     0.022 A 
ATOM     22  C   UNL A   1      32.945  21.116  25.779  1.00  0.00     0.022 A 
ENDBRANCH  13  16
ENDBRANCH  12  13
BRANCH  12  23
ATOM     23  C   UNL A   1      34.527  23.753  24.307  1.00  0.00     0.053 A 
ATOM     24  C   UNL A   1      35.177  23.100  23.270  1.00  0.00     0.027 A 
ATOM     25  C   UNL A   1      35.199  23.940  25.520  1.00  0.00     0.027 A 
ATOM     26  C   UNL A   1      36.544  22.816  23.379  1.00  0.00     0.002 A 
ATOM     27  C   UNL A   1      36.543  23.579  25.653  1.00  0.00     0.002 A 
ATOM     28  C   UNL A   1      37.228  23.050  24.567  1.00  0.00     0.000 A 
ENDBRANCH  12  23
ENDBRANCH  10  12
ENDBRANCH   8  10
ENDBRANCH   7   8
ENDBRANCH   6   7
ENDBRANCH   5   6
ENDBRANCH   4   5
ENDBRANCH   3   4
ENDBRANCH   2   3
ENDBRANCH   1   2
BRANCH   1  29
ATOM     29  C   UNL A   1      34.682  31.791  27.627  1.00  0.00     0.188 C 
BRANCH  29  30
ATOM     30  C   UNL A   1      33.634  32.890  27.850  1.00  0.00     0.188 C 
BRANCH  30  31
ATOM     31  O   UNL A   1      34.174  34.076  28.406  1.00  0.00    -0.376 OA
BRANCH  31  32
ATOM     32  C   UNL A   1      33.279  34.935  29.111  1.00  0.00     0.202 C 
BRANCH  32  33
ATOM     33  C   UNL A   1      33.386  35.103  30.650  1.00  0.00     0.261 C 
BRANCH  33  34
ATOM     34  O   UNL A   1      34.743  34.797  31.082  1.00  0.00    -0.460 OA
BRANCH  34  35
ATOM     35  C   UNL A   1      35.010  33.595  31.663  1.00  0.00     0.338 C 
ATOM     36  O   UNL A   1      34.232  32.660  31.721  1.00  0.00    -0.246 OA
BRANCH  35  37
ATOM     37  C   UNL A   1      36.332  33.662  32.400  1.00  0.00     0.060 A 
ATOM     38  C   UNL A   1      37.438  34.224  31.760  1.00  0.00     0.016 A 
ATOM     39  C   UNL A   1      36.564  32.940  33.570  1.00  0.00     0.016 A 
ATOM     40  C   UNL A   1      38.740  33.819  32.114  1.00  0.00     0.010 A 
ATOM     41  C   UNL A   1      37.841  32.413  33.816  1.00  0.00     0.010 A 
ATOM     42  C   UNL A   1      38.927  32.750  32.997  1.00  0.00    -0.014 A 
BRANCH  42  43
ATOM     43  C   UNL A   1      40.011  31.729  32.805  1.00  0.00     0.031 A 
ATOM     44  C   UNL A   1      39.856  30.517  31.923  1.00  0.00     0.074 A 
ATOM     45  C   UNL A   1      41.269  32.097  33.178  1.00  0.00     0.049 A 
ATOM     46  N   UNL A   1      40.824  29.750  31.543  1.00  0.00    -0.248 NA
ATOM     47  C   UNL A   1      38.579  30.060  31.379  1.00  0.00     0.031 C 
ATOM     48  C   UNL A   1      42.550  31.629  32.648  1.00  0.00     0.029 A 
ATOM     49  N   UNL A   1      41.667  33.042  34.140  1.00  0.00    -0.354 N 
ATOM     50  C   UNL A   1      40.376  28.843  30.598  1.00  0.00     0.074 A 
ATOM     51  C   UNL A   1      38.956  29.082  30.538  1.00  0.00     0.031 C 
ATOM     52  C   UNL A   1      43.549  32.201  33.323  1.00  0.00     0.029 A 
ATOM     53  C   UNL A   1      42.990  32.731  34.518  1.00  0.00     0.049 A 
ATOM     54  H   UNL A   1      41.121  33.785  34.486  1.00  0.00     0.167 HD
ATOM     55  C   UNL A   1      41.278  28.015  29.976  1.00  0.00     0.034 A 
ATOM     56  C   UNL A   1      43.247  32.171  35.737  1.00  0.00     0.034 A 
ATOM     57  C   UNL A   1      42.550  27.969  30.715  1.00  0.00     0.049 A 
ATOM     58  C   UNL A   1      43.539  30.663  35.727  1.00  0.00     0.074 A 
ATOM     59  C   UNL A   1      43.904  28.032  30.435  1.00  0.00     0.029 A 
ATOM     60  N   UNL A   1      42.468  27.851  32.095  1.00  0.00    -0.354 N 
ATOM     61  N   UNL A   1      43.565  29.892  34.659  1.00  0.00    -0.248 NA
ATOM     62  C   UNL A   1      43.808  29.893  36.936  1.00  0.00     0.031 C 
ATOM     63  C   UNL A   1      44.614  27.913  31.671  1.00  0.00     0.029 A 
ATOM     64  C   UNL A   1      43.694  27.827  32.700  1.00  0.00     0.049 A 
ATOM     65  H   UNL A   1      41.617  27.792  32.587  1.00  0.00     0.167 HD
ATOM     66  C   UNL A   1      43.745  28.570  35.015  1.00  0.00     0.074 A 
ATOM     67  C   UNL A   1      43.889  28.636  36.462  1.00  0.00     0.031 C 
ATOM     68  C   UNL A   1      43.736  27.520  34.120  1.00  0.00     0.034 A 
BRANCH  55  69
ATOM     69  C   UNL A   1      41.077  27.183  28.704  1.00  0.00     0.023 A 
ATOM     70  C   UNL A   1      41.475  25.819  28.685  1.00  0.00     0.031 A 
ATOM     71  C   UNL A   1      40.609  27.668  27.467  1.00  0.00     0.131 A 
ATOM     72  C   UNL A   1      41.418  25.028  27.516  1.00  0.00     0.055 A 
ATOM     73  C   UNL A   1      40.503  26.867  26.313  1.00  0.00     0.041 A 
ATOM     74  F   UNL A   1      40.266  28.950  27.290  1.00  0.00    -0.206 F 
ATOM     75  C   UNL A   1      40.914  25.544  26.329  1.00  0.00     0.022 A 
BRANCH  72  76
ATOM     76  S   UNL A   1      42.031  23.313  27.552  1.00  0.00     0.124 S 
ATOM     77  O   UNL A   1      42.253  23.093  28.976  1.00  0.00    -0.237 OA
ATOM     78  O   UNL A   1      40.931  22.573  26.945  1.00  0.00    -0.237 OA
ATOM     79  O   UNL A   1      43.249  23.371  26.743  1.00  0.00    -0.744 OA
ENDBRANCH  72  76
ENDBRANCH  55  69
BRANCH  56  80
ATOM     80  C   UNL A   1      42.751  33.113  36.799  1.00  0.00     0.023 A 
ATOM     81  C   UNL A   1      43.394  34.378  36.722  1.00  0.00     0.031 A 
ATOM     82  C   UNL A   1      41.390  33.104  37.145  1.00  0.00     0.131 A 
ATOM     83  C   UNL A   1      42.613  35.536  36.568  1.00  0.00     0.055 A 
ATOM     84  C   UNL A   1      40.636  34.291  37.130  1.00  0.00     0.041 A 
ATOM     85  F   UNL A   1      40.727  31.943  37.262  1.00  0.00    -0.206 F 
ATOM     86  C   UNL A   1      41.230  35.496  36.746  1.00  0.00     0.022 A 
BRANCH  83  87
ATOM     87  S   UNL A   1      43.384  36.980  35.756  1.00  0.00     0.124 S 
ATOM     88  O   UNL A   1      43.641  37.862  36.889  1.00  0.00    -0.237 OA
ATOM     89  O   UNL A   1      44.564  36.393  35.126  1.00  0.00    -0.237 OA
ATOM     90  O   UNL A   1      42.358  37.434  34.821  1.00  0.00    -0.744 OA
ENDBRANCH  83  87
ENDBRANCH  56  80
BRANCH  68  91
ATOM     91  C   UNL A   1      43.660  26.042  34.482  1.00  0.00     0.023 A 
ATOM     92  C   UNL A   1      44.746  25.179  34.360  1.00  0.00     0.031 A 
ATOM     93  C   UNL A   1      42.461  25.444  34.974  1.00  0.00     0.131 A 
ATOM     94  C   UNL A   1      44.678  23.859  34.844  1.00  0.00     0.055 A 
ATOM     95  C   UNL A   1      42.368  24.104  35.361  1.00  0.00     0.041 A 
ATOM     96  F   UNL A   1      41.329  26.138  35.154  1.00  0.00    -0.206 F 
ATOM     97  C   UNL A   1      43.495  23.307  35.329  1.00  0.00     0.022 A 
BRANCH  94  98
ATOM     98  S   UNL A   1      46.221  22.923  34.931  1.00  0.00     0.124 S 
ATOM     99  O   UNL A   1      46.442  22.818  36.369  1.00  0.00    -0.237 OA
ATOM    100  O   UNL A   1      45.848  21.682  34.257  1.00  0.00    -0.237 OA
ATOM    101  O   UNL A   1      47.175  23.759  34.207  1.00  0.00    -0.744 OA
ENDBRANCH  94  98
ENDBRANCH  68  91
ENDBRANCH  42  43
ENDBRANCH  35  37
ENDBRANCH  34  35
ENDBRANCH  33  34
ENDBRANCH  32  33
ENDBRANCH  31  32
ENDBRANCH  30  31
ENDBRANCH  29  30
ENDBRANCH   1  29
TORSDOF 27
ENDMDL
MODEL 3
REMARK VINA RESULT:     -10.1      4.709      9.409
REMARK SMILES Cc1ccc(S(=O)(=O)N(c2ccccc2)[C@H](C)C(=O)OCCOCCOCCOCCOC(=O)c2ccc(-c3c4nc(c(-c5cc(S(=O)(=O)[O-])ccc5F)c5ccc([nH]5)c(-c5cc(S(=O)(=O)[O-])ccc5F)c5nc(c(-c6cc(S(=O)(=O)[O-])ccc6F)c6ccc3[nH]6)C=C5)C=C4)cc2)cc1
REMARK SMILES IDX 26 1 25 2 24 3 23 4 22 5 21 6 20 7 18 8 19 9 16 10 17 11
REMARK SMILES IDX 9 12 6 13 7 14 8 15 5 16 1 17 2 18 3 19 99 20 4 21 98 22
REMARK SMILES IDX 10 23 11 24 15 25 12 26 14 27 13 28 27 29 28 30 29 31 30 32
REMARK SMILES IDX 31 33 32 34 33 35 34 36 35 37 36 38 97 39 37 40 96 41 38 42
REMARK SMILES IDX 39 43 40 44 90 45 41 46 95 47 89 48 91 49 42 50 94 51 88 52
REMARK SMILES IDX 87 53 43 55 75 56 55 57 74 58 56 59 59 60 73 61 92 62 57 63
REMARK SMILES IDX 58 64 72 66 93 67 60 68 44 69 45 70 53 71 46 72 52 73 54 74
REMARK SMILES IDX 51 75 47 76 48 77 49 78 50 79 76 80 77 81 85 82 78 83 84 84
REMARK SMILES IDX 86 85 83 86 79 87 80 88 81 89 82 90 61 91 62 92 70 93 63 94
REMARK SMILES IDX 69 95 71 96 68 97 64 98 65 99 66 100 67 101
REMARK H PARENT 91 54 59 65
REMARK Flexibility Score: inf
ROOT
ATOM      1  O   UNL A   1      42.344  24.158  29.050  1.00  0.00    -0.377 OA
ENDROOT
BRANCH   1   2
ATOM      2  C   UNL A   1      42.020  23.593  27.801  1.00  0.00     0.188 C 
BRANCH   2   3
ATOM      3  C   UNL A   1      40.710  22.796  27.686  1.00  0.00     0.188 C 
BRANCH   3   4
ATOM      4  O   UNL A   1      39.510  23.452  27.311  1.00  0.00    -0.376 OA
BRANCH   4   5
ATOM      5  C   UNL A   1      38.677  22.820  26.350  1.00  0.00     0.202 C 
BRANCH   5   6
ATOM      6  C   UNL A   1      37.590  23.688  25.748  1.00  0.00     0.261 C 
BRANCH   6   7
ATOM      7  O   UNL A   1      36.292  23.110  25.987  1.00  0.00    -0.462 OA
BRANCH   7   8
ATOM      8  C   UNL A   1      35.656  22.610  24.905  1.00  0.00     0.329 C 
ATOM      9  O   UNL A   1      36.049  21.653  24.245  1.00  0.00    -0.250 OA
BRANCH   8  10
ATOM     10  C   UNL A   1      34.369  23.350  24.571  1.00  0.00     0.206 C 
ATOM     11  C   UNL A   1      34.305  23.950  23.168  1.00  0.00     0.045 C 
BRANCH  10  12
ATOM     12  N   UNL A   1      33.112  22.624  24.926  1.00  0.00    -0.252 N 
BRANCH  12  13
ATOM     13  S   UNL A   1      32.397  23.225  26.387  1.00  0.00     0.265 S 
ATOM     14  O   UNL A   1      33.430  23.163  27.400  1.00  0.00    -0.201 OA
ATOM     15  O   UNL A   1      31.110  22.589  26.590  1.00  0.00    -0.201 OA
BRANCH  13  16
ATOM     16  C   UNL A   1      32.098  24.943  26.041  1.00  0.00     0.088 A 
ATOM     17  C   UNL A   1      31.459  28.868  24.467  1.00  0.00     0.044 C 
ATOM     18  C   UNL A   1      31.684  27.518  25.073  1.00  0.00    -0.051 A 
ATOM     19  C   UNL A   1      32.908  27.174  25.665  1.00  0.00     0.005 A 
ATOM     20  C   UNL A   1      30.632  26.603  25.093  1.00  0.00     0.005 A 
ATOM     21  C   UNL A   1      33.130  25.873  26.125  1.00  0.00     0.022 A 
ATOM     22  C   UNL A   1      30.825  25.346  25.645  1.00  0.00     0.022 A 
ENDBRANCH  13  16
ENDBRANCH  12  13
BRANCH  12  23
ATOM     23  C   UNL A   1      33.071  21.198  24.725  1.00  0.00     0.053 A 
ATOM     24  C   UNL A   1      33.274  20.284  25.750  1.00  0.00     0.027 A 
ATOM     25  C   UNL A   1      32.715  20.728  23.457  1.00  0.00     0.027 A 
ATOM     26  C   UNL A   1      32.931  18.940  25.557  1.00  0.00     0.002 A 
ATOM     27  C   UNL A   1      32.454  19.371  23.246  1.00  0.00     0.002 A 
ATOM     28  C   UNL A   1      32.526  18.479  24.309  1.00  0.00     0.000 A 
ENDBRANCH  12  23
ENDBRANCH  10  12
ENDBRANCH   8  10
ENDBRANCH   7   8
ENDBRANCH   6   7
ENDBRANCH   5   6
ENDBRANCH   4   5
ENDBRANCH   3   4
ENDBRANCH   2   3
ENDBRANCH   1   2
BRANCH   1  29
ATOM     29  C   UNL A   1      43.724  24.282  29.373  1.00  0.00     0.188 C 
BRANCH  29  30
ATOM     30  C   UNL A   1      44.277  23.414  30.513  1.00  0.00     0.188 C 
BRANCH  30  31
ATOM     31  O   UNL A   1      43.774  23.775  31.787  1.00  0.00    -0.376 OA
BRANCH  31  32
ATOM     32  C   UNL A   1      44.727  24.074  32.805  1.00  0.00     0.202 C 
BRANCH  32  33
ATOM     33  C   UNL A   1      44.468  23.667  34.280  1.00  0.00     0.261 C 
BRANCH  33  34
ATOM     34  O   UNL A   1      45.097  24.633  35.171  1.00  0.00    -0.460 OA
BRANCH  34  35
ATOM     35  C   UNL A   1      44.677  24.731  36.462  1.00  0.00     0.338 C 
ATOM     36  O   UNL A   1      44.942  23.934  37.344  1.00  0.00    -0.246 OA
BRANCH  35  37
ATOM     37  C   UNL A   1      43.672  25.858  36.592  1.00  0.00     0.060 A 
ATOM     38  C   UNL A   1      42.319  25.587  36.390  1.00  0.00     0.016 A 
ATOM     39  C   UNL A   1      44.063  27.196  36.627  1.00  0.00     0.016 A 
ATOM     40  C   UNL A   1      41.455  26.604  35.940  1.00  0.00     0.010 A 
ATOM     41  C   UNL A   1      43.251  28.169  36.025  1.00  0.00     0.010 A 
ATOM     42  C   UNL A   1      41.973  27.844  35.550  1.00  0.00    -0.014 A 
BRANCH  42  43
ATOM     43  C   UNL A   1      41.448  28.599  34.364  1.00  0.00     0.031 A 
ATOM     44  C   UNL A   1      41.901  28.335  32.951  1.00  0.00     0.074 A 
ATOM     45  C   UNL A   1      40.294  29.301  34.548  1.00  0.00     0.049 A 
ATOM     46  N   UNL A   1      41.316  28.783  31.889  1.00  0.00    -0.248 NA
ATOM     47  C   UNL A   1      43.068  27.526  32.605  1.00  0.00     0.031 C 
ATOM     48  C   UNL A   1      39.269  29.645  33.562  1.00  0.00     0.029 A 
ATOM     49  N   UNL A   1      39.770  29.847  35.733  1.00  0.00    -0.354 N 
ATOM     50  C   UNL A   1      41.870  28.212  30.757  1.00  0.00     0.074 A 
ATOM     51  C   UNL A   1      42.971  27.434  31.268  1.00  0.00     0.031 C 
ATOM     52  C   UNL A   1      38.323  30.387  34.142  1.00  0.00     0.029 A 
ATOM     53  C   UNL A   1      38.865  30.865  35.366  1.00  0.00     0.049 A 
ATOM     54  H   UNL A   1      39.995  29.570  36.650  1.00  0.00     0.167 HD
ATOM     55  C   UNL A   1      41.309  28.465  29.530  1.00  0.00     0.034 A 
ATOM     56  C   UNL A   1      39.196  32.180  35.536  1.00  0.00     0.034 A 
ATOM     57  C   UNL A   1      40.419  29.635  29.586  1.00  0.00     0.049 A 
ATOM     58  C   UNL A   1      39.613  32.929  34.262  1.00  0.00     0.074 A 
ATOM     59  C   UNL A   1      39.156  29.989  29.143  1.00  0.00     0.029 A 
ATOM     60  N   UNL A   1      40.884  30.743  30.281  1.00  0.00    -0.354 N 
ATOM     61  N   UNL A   1      39.670  32.415  33.051  1.00  0.00    -0.248 NA
ATOM     62  C   UNL A   1      40.026  34.328  34.257  1.00  0.00     0.031 C 
ATOM     63  C   UNL A   1      38.905  31.335  29.558  1.00  0.00     0.029 A 
ATOM     64  C   UNL A   1      39.991  31.778  30.292  1.00  0.00     0.049 A 
ATOM     65  H   UNL A   1      41.765  30.779  30.720  1.00  0.00     0.167 HD
ATOM     66  C   UNL A   1      40.191  33.327  32.155  1.00  0.00     0.074 A 
ATOM     67  C   UNL A   1      40.398  34.511  32.976  1.00  0.00     0.031 C 
ATOM     68  C   UNL A   1      40.445  33.050  30.828  1.00  0.00     0.034 A 
BRANCH  55  69
ATOM     69  C   UNL A   1      41.536  27.713  28.213  1.00  0.00     0.023 A 
ATOM     70  C   UNL A   1      42.855  27.561  27.708  1.00  0.00     0.031 A 
ATOM     71  C   UNL A   1      40.528  27.216  27.363  1.00  0.00     0.131 A 
ATOM     72  C   UNL A   1      43.124  26.976  26.450  1.00  0.00     0.055 A 
ATOM     73  C   UNL A   1      40.797  26.586  26.132  1.00  0.00     0.041 A 
ATOM     74  F   UNL A   1      39.227  27.347  27.650  1.00  0.00    -0.206 F 
ATOM     75  C   UNL A   1      42.097  26.469  25.664  1.00  0.00     0.022 A 
BRANCH  72  76
ATOM     76  S   UNL A   1      44.836  26.901  25.833  1.00  0.00     0.124 S 
ATOM     77  O   UNL A   1      45.602  27.346  26.991  1.00  0.00    -0.237 OA
ATOM     78  O   UNL A   1      44.975  25.497  25.464  1.00  0.00    -0.237 OA
ATOM     79  O   UNL A   1      44.832  27.833  24.705  1.00  0.00    -0.744 OA
ENDBRANCH  72  76
ENDBRANCH  55  69
BRANCH  56  80
ATOM     80  C   UNL A   1      39.466  32.409  36.997  1.00  0.00     0.023 A 
ATOM     81  C   UNL A   1      40.834  32.708  37.238  1.00  0.00     0.031 A 
ATOM     82  C   UNL A   1      38.514  33.089  37.774  1.00  0.00     0.131 A 
ATOM     83  C   UNL A   1      41.170  33.908  37.888  1.00  0.00     0.055 A 
ATOM     84  C   UNL A   1      38.878  34.209  38.541  1.00  0.00     0.041 A 
ATOM     85  F   UNL A   1      37.204  32.836  37.618  1.00  0.00    -0.206 F 
ATOM     86  C   UNL A   1      40.194  34.677  38.520  1.00  0.00     0.022 A 
BRANCH  83  87
ATOM     87  S   UNL A   1      42.816  34.626  37.549  1.00  0.00     0.124 S 
ATOM     88  O   UNL A   1      42.946  34.419  36.111  1.00  0.00    -0.237 OA
ATOM     89  O   UNL A   1      42.650  36.011  37.981  1.00  0.00    -0.237 OA
ATOM     90  O   UNL A   1      43.714  33.832  38.385  1.00  0.00    -0.744 OA
ENDBRANCH  83  87
ENDBRANCH  56  80
BRANCH  68  91
ATOM     91  C   UNL A   1      41.258  33.919  29.876  1.00  0.00     0.023 A 
ATOM     92  C   UNL A   1      42.625  33.744  29.678  1.00  0.00     0.031 A 
ATOM     93  C   UNL A   1      40.665  34.975  29.121  1.00  0.00     0.131 A 
ATOM     94  C   UNL A   1      43.308  34.467  28.682  1.00  0.00     0.055 A 
ATOM     95  C   UNL A   1      41.369  35.761  28.205  1.00  0.00     0.041 A 
ATOM     96  F   UNL A   1      39.359  35.269  29.195  1.00  0.00    -0.206 F 
ATOM     97  C   UNL A   1      42.698  35.486  27.953  1.00  0.00     0.022 A 
BRANCH  94  98
ATOM     98  S   UNL A   1      44.994  33.950  28.286  1.00  0.00     0.124 S 
ATOM     99  O   UNL A   1      44.878  33.552  26.887  1.00  0.00    -0.237 OA
ATOM    100  O   UNL A   1      45.742  35.180  28.532  1.00  0.00    -0.237 OA
ATOM    101  O   UNL A   1      45.255  32.866  29.228  1.00  0.00    -0.744 OA
ENDBRANCH  94  98
ENDBRANCH  68  91
ENDBRANCH  42  43
ENDBRANCH  35  37
ENDBRANCH  34  35
ENDBRANCH  33  34
ENDBRANCH  32  33
ENDBRANCH  31  32
ENDBRANCH  30  31
ENDBRANCH  29  30
ENDBRANCH   1  29
TORSDOF 27
ENDMDL
