MODEL 1
REMARK VINA RESULT:      -9.8      0.000      0.000
REMARK SMILES CS(=O)(=O)c1ccc(/C=C(/C(=O)OCCOCCOCCOCCOC(=O)c2ccc(-c3c4nc(c(-c5cc(S(=O)(=O)[O-])ccc5F)c5ccc([nH]5)c(-c5cc(S(=O)(=O)[O-])ccc5F)c5nc(c(-c6cc(S(=O)(=O)[O-])ccc6F)c6ccc3[nH]6)C=C5)C=C4)cc2)c2ccc(O)cc2)cc1
REMARK SMILES IDX 20 1 19 2 18 3 17 4 16 5 15 6 14 7 13 8 11 9 12 10 10 11
REMARK SMILES IDX 9 12 8 13 5 14 6 15 99 16 7 17 98 18 2 19 1 20 3 21 4 22
REMARK SMILES IDX 91 23 92 24 97 25 93 26 96 27 94 28 95 29 21 31 22 32 23 33
REMARK SMILES IDX 24 34 25 35 26 36 27 37 28 38 29 39 90 40 30 41 89 42 31 43
REMARK SMILES IDX 32 44 33 45 83 46 34 47 88 48 82 49 84 50 35 51 87 52 81 53
REMARK SMILES IDX 80 54 36 56 68 57 48 58 67 59 49 60 52 61 66 62 85 63 50 64
REMARK SMILES IDX 51 65 65 67 86 68 53 69 37 70 38 71 46 72 39 73 45 74 47 75
REMARK SMILES IDX 44 76 40 77 41 78 42 79 43 80 69 81 70 82 78 83 71 84 77 85
REMARK SMILES IDX 79 86 76 87 72 88 73 89 74 90 75 91 54 92 55 93 63 94 56 95
REMARK SMILES IDX 62 96 64 97 61 98 57 99 58 100 59 101 60 102
REMARK H PARENT 95 30 84 55 52 66
REMARK Flexibility Score: inf
ROOT
ATOM      1  C   UNL A   1      32.056  28.393  22.748  1.00  0.00     0.188 C 
ENDROOT
BRANCH   1   2
ATOM      2  O   UNL A   1      31.181  29.481  22.468  1.00  0.00    -0.377 OA
BRANCH   2   3
ATOM      3  C   UNL A   1      29.795  29.235  22.320  1.00  0.00     0.188 C 
BRANCH   3   4
ATOM      4  C   UNL A   1      29.017  28.636  23.515  1.00  0.00     0.188 C 
BRANCH   4   5
ATOM      5  O   UNL A   1      28.560  27.317  23.291  1.00  0.00    -0.376 OA
BRANCH   5   6
ATOM      6  C   UNL A   1      29.068  26.284  24.117  1.00  0.00     0.202 C 
BRANCH   6   7
ATOM      7  C   UNL A   1      30.116  25.312  23.551  1.00  0.00     0.261 C 
BRANCH   7   8
ATOM      8  O   UNL A   1      30.760  24.442  24.494  1.00  0.00    -0.460 OA
BRANCH   8   9
ATOM      9  C   UNL A   1      32.053  24.691  24.807  1.00  0.00     0.338 C 
ATOM     10  O   UNL A   1      32.490  25.753  25.223  1.00  0.00    -0.246 OA
BRANCH   9  11
ATOM     11  C   UNL A   1      32.867  23.427  24.714  1.00  0.00     0.067 C 
ATOM     12  C   UNL A   1      32.222  22.251  24.503  1.00  0.00     0.024 C 
BRANCH  12  13
ATOM     13  C   UNL A   1      32.788  20.923  24.159  1.00  0.00    -0.025 A 
ATOM     14  C   UNL A   1      33.506  18.217  24.031  1.00  0.00     0.067 A 
ATOM     15  C   UNL A   1      32.640  18.747  23.079  1.00  0.00     0.021 A 
ATOM     16  C   UNL A   1      34.124  19.048  24.964  1.00  0.00     0.021 A 
ATOM     17  C   UNL A   1      32.328  20.107  23.118  1.00  0.00     0.009 A 
ATOM     18  C   UNL A   1      33.769  20.400  25.019  1.00  0.00     0.009 A 
BRANCH  14  19
ATOM     19  S   UNL A   1      33.689  16.457  24.151  1.00  0.00     0.175 S 
ATOM     20  C   UNL A   1      35.112  16.253  25.180  1.00  0.00     0.163 C 
ATOM     21  O   UNL A   1      34.017  15.959  22.827  1.00  0.00    -0.224 OA
ATOM     22  O   UNL A   1      32.536  15.942  24.866  1.00  0.00    -0.224 OA
ENDBRANCH  14  19
ENDBRANCH  12  13
BRANCH  11  23
ATOM     23  C   UNL A   1      34.335  23.542  24.844  1.00  0.00    -0.011 A 
ATOM     24  C   UNL A   1      34.925  23.616  26.121  1.00  0.00     0.013 A 
ATOM     25  C   UNL A   1      35.167  23.453  23.724  1.00  0.00     0.013 A 
ATOM     26  C   UNL A   1      36.309  23.584  26.279  1.00  0.00     0.047 A 
ATOM     27  C   UNL A   1      36.556  23.399  23.882  1.00  0.00     0.047 A 
ATOM     28  C   UNL A   1      37.113  23.457  25.159  1.00  0.00     0.115 A 
BRANCH  28  29
ATOM     29  O   UNL A   1      38.458  23.364  25.358  1.00  0.00    -0.508 OA
ATOM     30  H   UNL A   1      38.856  22.525  25.484  1.00  0.00     0.293 HD
ENDBRANCH  28  29
ENDBRANCH  11  23
ENDBRANCH   9  11
ENDBRANCH   8   9
ENDBRANCH   7   8
ENDBRANCH   6   7
ENDBRANCH   5   6
ENDBRANCH   4   5
ENDBRANCH   3   4
ENDBRANCH   2   3
ENDBRANCH   1   2
BRANCH   1  31
ATOM     31  C   UNL A   1      33.589  28.592  22.817  1.00  0.00     0.188 C 
BRANCH  31  32
ATOM     32  O   UNL A   1      34.065  29.203  24.007  1.00  0.00    -0.376 OA
BRANCH  32  33
ATOM     33  C   UNL A   1      33.399  28.894  25.219  1.00  0.00     0.202 C 
BRANCH  33  34
ATOM     34  C   UNL A   1      33.060  30.070  26.144  1.00  0.00     0.261 C 
BRANCH  34  35
ATOM     35  O   UNL A   1      33.762  30.114  27.395  1.00  0.00    -0.460 OA
BRANCH  35  36
ATOM     36  C   UNL A   1      34.538  31.194  27.630  1.00  0.00     0.338 C 
ATOM     37  O   UNL A   1      34.226  32.365  27.482  1.00  0.00    -0.246 OA
BRANCH  36  38
ATOM     38  C   UNL A   1      35.768  30.721  28.297  1.00  0.00     0.060 A 
ATOM     39  C   UNL A   1      36.997  31.306  27.961  1.00  0.00     0.016 A 
ATOM     40  C   UNL A   1      35.703  29.729  29.278  1.00  0.00     0.016 A 
ATOM     41  C   UNL A   1      38.167  30.882  28.590  1.00  0.00     0.010 A 
ATOM     42  C   UNL A   1      36.878  29.286  29.888  1.00  0.00     0.010 A 
ATOM     43  C   UNL A   1      38.119  29.841  29.526  1.00  0.00    -0.014 A 
BRANCH  43  44
ATOM     44  C   UNL A   1      39.382  29.204  29.977  1.00  0.00     0.031 A 
ATOM     45  C   UNL A   1      40.056  29.755  31.203  1.00  0.00     0.074 A 
ATOM     46  C   UNL A   1      39.902  28.145  29.332  1.00  0.00     0.049 A 
ATOM     47  N   UNL A   1      41.180  29.398  31.768  1.00  0.00    -0.248 NA
ATOM     48  C   UNL A   1      39.368  30.866  31.878  1.00  0.00     0.031 C 
ATOM     49  C   UNL A   1      39.313  27.496  28.162  1.00  0.00     0.029 A 
ATOM     50  N   UNL A   1      41.051  27.432  29.571  1.00  0.00    -0.354 N 
ATOM     51  C   UNL A   1      41.339  30.244  32.860  1.00  0.00     0.074 A 
ATOM     52  C   UNL A   1      40.215  31.156  32.852  1.00  0.00     0.031 C 
ATOM     53  C   UNL A   1      40.111  26.485  27.779  1.00  0.00     0.029 A 
ATOM     54  C   UNL A   1      41.287  26.440  28.647  1.00  0.00     0.049 A 
ATOM     55  H   UNL A   1      41.649  27.613  30.330  1.00  0.00     0.167 HD
ATOM     56  C   UNL A   1      42.327  30.252  33.787  1.00  0.00     0.034 A 
ATOM     57  C   UNL A   1      42.344  25.614  28.503  1.00  0.00     0.034 A 
ATOM     58  C   UNL A   1      43.447  29.343  33.769  1.00  0.00     0.049 A 
ATOM     59  C   UNL A   1      43.482  25.702  29.495  1.00  0.00     0.074 A 
ATOM     60  C   UNL A   1      44.493  29.248  34.670  1.00  0.00     0.029 A 
ATOM     61  N   UNL A   1      43.682  28.386  32.789  1.00  0.00    -0.354 N 
ATOM     62  N   UNL A   1      43.614  26.493  30.536  1.00  0.00    -0.248 NA
ATOM     63  C   UNL A   1      44.608  24.781  29.296  1.00  0.00     0.031 C 
ATOM     64  C   UNL A   1      45.403  28.302  34.187  1.00  0.00     0.029 A 
ATOM     65  C   UNL A   1      44.878  27.731  33.038  1.00  0.00     0.049 A 
ATOM     66  H   UNL A   1      43.085  28.200  32.028  1.00  0.00     0.167 HD
ATOM     67  C   UNL A   1      44.824  26.141  31.132  1.00  0.00     0.074 A 
ATOM     68  C   UNL A   1      45.372  25.056  30.343  1.00  0.00     0.031 C 
ATOM     69  C   UNL A   1      45.425  26.661  32.233  1.00  0.00     0.034 A 
BRANCH  56  70
ATOM     70  C   UNL A   1      42.268  31.319  34.855  1.00  0.00     0.023 A 
ATOM     71  C   UNL A   1      42.943  32.546  34.723  1.00  0.00     0.031 A 
ATOM     72  C   UNL A   1      41.553  31.089  36.045  1.00  0.00     0.131 A 
ATOM     73  C   UNL A   1      42.953  33.459  35.788  1.00  0.00     0.055 A 
ATOM     74  C   UNL A   1      41.494  32.039  37.065  1.00  0.00     0.041 A 
ATOM     75  F   UNL A   1      40.913  29.926  36.243  1.00  0.00    -0.206 F 
ATOM     76  C   UNL A   1      42.209  33.226  36.948  1.00  0.00     0.022 A 
BRANCH  73  77
ATOM     77  S   UNL A   1      44.080  34.878  35.704  1.00  0.00     0.124 S 
ATOM     78  O   UNL A   1      43.576  35.586  34.530  1.00  0.00    -0.237 OA
ATOM     79  O   UNL A   1      43.859  35.532  36.988  1.00  0.00    -0.237 OA
ATOM     80  O   UNL A   1      45.395  34.262  35.534  1.00  0.00    -0.744 OA
ENDBRANCH  73  77
ENDBRANCH  56  70
BRANCH  57  81
ATOM     81  C   UNL A   1      42.409  24.666  27.353  1.00  0.00     0.023 A 
ATOM     82  C   UNL A   1      41.812  23.396  27.415  1.00  0.00     0.031 A 
ATOM     83  C   UNL A   1      43.119  25.000  26.184  1.00  0.00     0.131 A 
ATOM     84  C   UNL A   1      41.970  22.495  26.350  1.00  0.00     0.055 A 
ATOM     85  C   UNL A   1      43.224  24.123  25.105  1.00  0.00     0.041 A 
ATOM     86  F   UNL A   1      43.717  26.198  26.074  1.00  0.00    -0.206 F 
ATOM     87  C   UNL A   1      42.657  22.856  25.189  1.00  0.00     0.022 A 
BRANCH  84  88
ATOM     88  S   UNL A   1      41.337  20.805  26.537  1.00  0.00     0.124 S 
ATOM     89  O   UNL A   1      41.685  20.510  27.922  1.00  0.00    -0.237 OA
ATOM     90  O   UNL A   1      39.917  20.981  26.254  1.00  0.00    -0.237 OA
ATOM     91  O   UNL A   1      42.081  20.049  25.532  1.00  0.00    -0.744 OA
ENDBRANCH  84  88
ENDBRANCH  57  81
BRANCH  69  92
ATOM     92  C   UNL A   1      46.727  26.031  32.676  1.00  0.00     0.023 A 
ATOM     93  C   UNL A   1      46.762  24.943  33.566  1.00  0.00     0.031 A 
ATOM     94  C   UNL A   1      47.954  26.535  32.206  1.00  0.00     0.131 A 
ATOM     95  C   UNL A   1      47.995  24.437  34.005  1.00  0.00     0.055 A 
ATOM     96  C   UNL A   1      49.175  25.980  32.588  1.00  0.00     0.041 A 
ATOM     97  F   UNL A   1      47.985  27.577  31.358  1.00  0.00    -0.206 F 
ATOM     98  C   UNL A   1      49.201  24.934  33.505  1.00  0.00     0.022 A 
BRANCH  95  99
ATOM     99  S   UNL A   1      48.007  23.194  35.327  1.00  0.00     0.124 S 
ATOM    100  O   UNL A   1      49.416  22.816  35.372  1.00  0.00    -0.237 OA
ATOM    101  O   UNL A   1      47.514  23.952  36.473  1.00  0.00    -0.237 OA
ATOM    102  O   UNL A   1      47.101  22.159  34.833  1.00  0.00    -0.744 OA
ENDBRANCH  95  99
ENDBRANCH  69  92
ENDBRANCH  43  44
ENDBRANCH  36  38
ENDBRANCH  35  36
ENDBRANCH  34  35
ENDBRANCH  33  34
ENDBRANCH  32  33
ENDBRANCH  31  32
ENDBRANCH   1  31
TORSDOF 27
ENDMDL
MODEL 2
REMARK VINA RESULT:      -9.6      2.331      2.671
REMARK SMILES CS(=O)(=O)c1ccc(/C=C(/C(=O)OCCOCCOCCOCCOC(=O)c2ccc(-c3c4nc(c(-c5cc(S(=O)(=O)[O-])ccc5F)c5ccc([nH]5)c(-c5cc(S(=O)(=O)[O-])ccc5F)c5nc(c(-c6cc(S(=O)(=O)[O-])ccc6F)c6ccc3[nH]6)C=C5)C=C4)cc2)c2ccc(O)cc2)cc1
REMARK SMILES IDX 20 1 19 2 18 3 17 4 16 5 15 6 14 7 13 8 11 9 12 10 10 11
REMARK SMILES IDX 9 12 8 13 5 14 6 15 99 16 7 17 98 18 2 19 1 20 3 21 4 22
REMARK SMILES IDX 91 23 92 24 97 25 93 26 96 27 94 28 95 29 21 31 22 32 23 33
REMARK SMILES IDX 24 34 25 35 26 36 27 37 28 38 29 39 90 40 30 41 89 42 31 43
REMARK SMILES IDX 32 44 33 45 83 46 34 47 88 48 82 49 84 50 35 51 87 52 81 53
REMARK SMILES IDX 80 54 36 56 68 57 48 58 67 59 49 60 52 61 66 62 85 63 50 64
REMARK SMILES IDX 51 65 65 67 86 68 53 69 37 70 38 71 46 72 39 73 45 74 47 75
REMARK SMILES IDX 44 76 40 77 41 78 42 79 43 80 69 81 70 82 78 83 71 84 77 85
REMARK SMILES IDX 79 86 76 87 72 88 73 89 74 90 75 91 54 92 55 93 63 94 56 95
REMARK SMILES IDX 62 96 64 97 61 98 57 99 58 100 59 101 60 102
REMARK H PARENT 95 30 84 55 52 66
REMARK Flexibility Score: inf
ROOT
ATOM      1  C   UNL A   1      32.172  28.309  22.452  1.00  0.00     0.188 C 
ENDROOT
BRANCH   1   2
ATOM      2  O   UNL A   1      31.356  29.461  22.265  1.00  0.00    -0.377 OA
BRANCH   2   3
ATOM      3  C   UNL A   1      29.947  29.316  22.244  1.00  0.00     0.188 C 
BRANCH   3   4
ATOM      4  C   UNL A   1      29.245  28.728  23.490  1.00  0.00     0.188 C 
BRANCH   4   5
ATOM      5  O   UNL A   1      28.940  27.352  23.373  1.00  0.00    -0.376 OA
BRANCH   5   6
ATOM      6  C   UNL A   1      29.630  26.442  24.210  1.00  0.00     0.202 C 
BRANCH   6   7
ATOM      7  C   UNL A   1      30.514  25.355  23.577  1.00  0.00     0.261 C 
BRANCH   7   8
ATOM      8  O   UNL A   1      31.321  24.580  24.476  1.00  0.00    -0.460 OA
BRANCH   8   9
ATOM      9  C   UNL A   1      32.622  24.384  24.153  1.00  0.00     0.338 C 
ATOM     10  O   UNL A   1      33.409  25.256  23.821  1.00  0.00    -0.246 OA
BRANCH   9  11
ATOM     11  C   UNL A   1      33.013  22.951  24.406  1.00  0.00     0.067 C 
ATOM     12  C   UNL A   1      32.041  22.004  24.429  1.00  0.00     0.024 C 
BRANCH  12  13
ATOM     13  C   UNL A   1      32.175  20.526  24.436  1.00  0.00    -0.025 A 
ATOM     14  C   UNL A   1      33.029  17.867  24.213  1.00  0.00     0.067 A 
ATOM     15  C   UNL A   1      32.904  18.447  25.471  1.00  0.00     0.021 A 
ATOM     16  C   UNL A   1      32.606  18.550  23.074  1.00  0.00     0.021 A 
ATOM     17  C   UNL A   1      32.428  19.755  25.577  1.00  0.00     0.009 A 
ATOM     18  C   UNL A   1      32.173  19.874  23.191  1.00  0.00     0.009 A 
BRANCH  14  19
ATOM     19  S   UNL A   1      33.882  16.319  24.054  1.00  0.00     0.175 S 
ATOM     20  C   UNL A   1      35.314  16.523  25.071  1.00  0.00     0.163 C 
ATOM     21  O   UNL A   1      34.323  16.202  22.676  1.00  0.00    -0.224 OA
ATOM     22  O   UNL A   1      33.047  15.292  24.648  1.00  0.00    -0.224 OA
ENDBRANCH  14  19
ENDBRANCH  12  13
BRANCH  11  23
ATOM     23  C   UNL A   1      34.448  22.654  24.600  1.00  0.00    -0.011 A 
ATOM     24  C   UNL A   1      35.328  22.683  23.499  1.00  0.00     0.013 A 
ATOM     25  C   UNL A   1      34.980  22.465  25.879  1.00  0.00     0.013 A 
ATOM     26  C   UNL A   1      36.703  22.546  23.671  1.00  0.00     0.047 A 
ATOM     27  C   UNL A   1      36.363  22.348  26.056  1.00  0.00     0.047 A 
ATOM     28  C   UNL A   1      37.211  22.398  24.952  1.00  0.00     0.115 A 
BRANCH  28  29
ATOM     29  O   UNL A   1      38.566  22.332  25.086  1.00  0.00    -0.508 OA
ATOM     30  H   UNL A   1      38.945  21.793  25.752  1.00  0.00     0.293 HD
ENDBRANCH  28  29
ENDBRANCH  11  23
ENDBRANCH   9  11
ENDBRANCH   8   9
ENDBRANCH   7   8
ENDBRANCH   6   7
ENDBRANCH   5   6
ENDBRANCH   4   5
ENDBRANCH   3   4
ENDBRANCH   2   3
ENDBRANCH   1   2
BRANCH   1  31
ATOM     31  C   UNL A   1      33.712  28.423  22.556  1.00  0.00     0.188 C 
BRANCH  31  32
ATOM     32  O   UNL A   1      34.194  28.985  23.768  1.00  0.00    -0.376 OA
BRANCH  32  33
ATOM     33  C   UNL A   1      33.510  28.658  24.964  1.00  0.00     0.202 C 
BRANCH  33  34
ATOM     34  C   UNL A   1      32.913  29.825  25.763  1.00  0.00     0.261 C 
BRANCH  34  35
ATOM     35  O   UNL A   1      33.360  29.956  27.121  1.00  0.00    -0.460 OA
BRANCH  35  36
ATOM     36  C   UNL A   1      33.904  31.139  27.481  1.00  0.00     0.338 C 
ATOM     37  O   UNL A   1      33.380  32.239  27.401  1.00  0.00    -0.246 OA
BRANCH  36  38
ATOM     38  C   UNL A   1      35.172  30.851  28.181  1.00  0.00     0.060 A 
ATOM     39  C   UNL A   1      36.227  31.768  28.091  1.00  0.00     0.016 A 
ATOM     40  C   UNL A   1      35.305  29.694  28.953  1.00  0.00     0.016 A 
ATOM     41  C   UNL A   1      37.427  31.520  28.757  1.00  0.00     0.010 A 
ATOM     42  C   UNL A   1      36.516  29.433  29.597  1.00  0.00     0.010 A 
ATOM     43  C   UNL A   1      37.592  30.331  29.478  1.00  0.00    -0.014 A 
BRANCH  43  44
ATOM     44  C   UNL A   1      38.947  29.938  29.942  1.00  0.00     0.031 A 
ATOM     45  C   UNL A   1      39.501  30.612  31.167  1.00  0.00     0.074 A 
ATOM     46  C   UNL A   1      39.656  28.986  29.310  1.00  0.00     0.049 A 
ATOM     47  N   UNL A   1      40.668  30.470  31.740  1.00  0.00    -0.248 NA
ATOM     48  C   UNL A   1      38.618  31.585  31.828  1.00  0.00     0.031 C 
ATOM     49  C   UNL A   1      39.202  28.232  28.142  1.00  0.00     0.029 A 
ATOM     50  N   UNL A   1      40.913  28.496  29.560  1.00  0.00    -0.354 N 
ATOM     51  C   UNL A   1      40.662  31.340  32.826  1.00  0.00     0.074 A 
ATOM     52  C   UNL A   1      39.391  32.032  32.803  1.00  0.00     0.031 C 
ATOM     53  C   UNL A   1      40.174  27.380  27.772  1.00  0.00     0.029 A 
ATOM     54  C   UNL A   1      41.332  27.556  28.647  1.00  0.00     0.049 A 
ATOM     55  H   UNL A   1      41.463  28.789  30.321  1.00  0.00     0.167 HD
ATOM     56  C   UNL A   1      41.626  31.535  33.758  1.00  0.00     0.034 A 
ATOM     57  C   UNL A   1      42.523  26.936  28.516  1.00  0.00     0.034 A 
ATOM     58  C   UNL A   1      42.893  30.845  33.754  1.00  0.00     0.049 A 
ATOM     59  C   UNL A   1      43.619  27.238  29.513  1.00  0.00     0.074 A 
ATOM     60  C   UNL A   1      43.932  30.950  34.660  1.00  0.00     0.029 A 
ATOM     61  N   UNL A   1      43.305  29.940  32.783  1.00  0.00    -0.354 N 
ATOM     62  N   UNL A   1      43.598  28.048  30.547  1.00  0.00    -0.248 NA
ATOM     63  C   UNL A   1      44.895  26.535  29.328  1.00  0.00     0.031 C 
ATOM     64  C   UNL A   1      45.003  30.181  34.191  1.00  0.00     0.029 A 
ATOM     65  C   UNL A   1      44.598  29.514  33.044  1.00  0.00     0.049 A 
ATOM     66  H   UNL A   1      42.757  29.642  32.021  1.00  0.00     0.167 HD
ATOM     67  C   UNL A   1      44.848  27.927  31.152  1.00  0.00     0.074 A 
ATOM     68  C   UNL A   1      45.589  26.953  30.376  1.00  0.00     0.031 C 
ATOM     69  C   UNL A   1      45.336  28.556  32.252  1.00  0.00     0.034 A 
BRANCH  56  70
ATOM     70  C   UNL A   1      41.367  32.582  34.816  1.00  0.00     0.023 A 
ATOM     71  C   UNL A   1      40.680  32.286  36.007  1.00  0.00     0.031 A 
ATOM     72  C   UNL A   1      41.782  33.911  34.611  1.00  0.00     0.131 A 
ATOM     73  C   UNL A   1      40.363  33.314  36.906  1.00  0.00     0.055 A 
ATOM     74  C   UNL A   1      41.541  34.912  35.552  1.00  0.00     0.041 A 
ATOM     75  F   UNL A   1      42.416  34.262  33.481  1.00  0.00    -0.206 F 
ATOM     76  C   UNL A   1      40.813  34.621  36.702  1.00  0.00     0.022 A 
BRANCH  73  77
ATOM     77  S   UNL A   1      39.216  32.954  38.266  1.00  0.00     0.124 S 
ATOM     78  O   UNL A   1      40.136  32.580  39.337  1.00  0.00    -0.237 OA
ATOM     79  O   UNL A   1      38.520  34.225  38.436  1.00  0.00    -0.237 OA
ATOM     80  O   UNL A   1      38.400  31.860  37.745  1.00  0.00    -0.744 OA
ENDBRANCH  73  77
ENDBRANCH  56  70
BRANCH  57  81
ATOM     81  C   UNL A   1      42.767  26.006  27.374  1.00  0.00     0.023 A 
ATOM     82  C   UNL A   1      42.424  24.647  27.450  1.00  0.00     0.031 A 
ATOM     83  C   UNL A   1      43.399  26.459  26.201  1.00  0.00     0.131 A 
ATOM     84  C   UNL A   1      42.750  23.781  26.393  1.00  0.00     0.055 A 
ATOM     85  C   UNL A   1      43.669  25.607  25.130  1.00  0.00     0.041 A 
ATOM     86  F   UNL A   1      43.757  27.747  26.078  1.00  0.00    -0.206 F 
ATOM     87  C   UNL A   1      43.355  24.256  25.227  1.00  0.00     0.022 A 
BRANCH  84  88
ATOM     88  S   UNL A   1      42.451  22.004  26.598  1.00  0.00     0.124 S 
ATOM     89  O   UNL A   1      42.493  21.862  28.049  1.00  0.00    -0.237 OA
ATOM     90  O   UNL A   1      41.143  21.843  25.974  1.00  0.00    -0.237 OA
ATOM     91  O   UNL A   1      43.563  21.387  25.878  1.00  0.00    -0.744 OA
ENDBRANCH  84  88
ENDBRANCH  57  81
BRANCH  69  92
ATOM     92  C   UNL A   1      46.728  28.177  32.707  1.00  0.00     0.023 A 
ATOM     93  C   UNL A   1      47.879  28.764  32.150  1.00  0.00     0.031 A 
ATOM     94  C   UNL A   1      46.905  27.204  33.709  1.00  0.00     0.131 A 
ATOM     95  C   UNL A   1      49.151  28.328  32.553  1.00  0.00     0.055 A 
ATOM     96  C   UNL A   1      48.172  26.830  34.158  1.00  0.00     0.041 A 
ATOM     97  F   UNL A   1      45.845  26.605  34.274  1.00  0.00    -0.206 F 
ATOM     98  C   UNL A   1      49.305  27.381  33.569  1.00  0.00     0.022 A 
BRANCH  95  99
ATOM     99  S   UNL A   1      50.605  28.935  31.653  1.00  0.00     0.124 S 
ATOM    100  O   UNL A   1      51.698  28.481  32.507  1.00  0.00    -0.237 OA
ATOM    101  O   UNL A   1      50.479  28.258  30.365  1.00  0.00    -0.237 OA
ATOM    102  O   UNL A   1      50.406  30.382  31.614  1.00  0.00    -0.744 OA
ENDBRANCH  95  99
ENDBRANCH  69  92
ENDBRANCH  43  44
ENDBRANCH  36  38
ENDBRANCH  35  36
ENDBRANCH  34  35
ENDBRANCH  33  34
ENDBRANCH  32  33
ENDBRANCH  31  32
ENDBRANCH   1  31
TORSDOF 27
ENDMDL
MODEL 3
REMARK VINA RESULT:      -9.5      5.593     10.568
REMARK SMILES CS(=O)(=O)c1ccc(/C=C(/C(=O)OCCOCCOCCOCCOC(=O)c2ccc(-c3c4nc(c(-c5cc(S(=O)(=O)[O-])ccc5F)c5ccc([nH]5)c(-c5cc(S(=O)(=O)[O-])ccc5F)c5nc(c(-c6cc(S(=O)(=O)[O-])ccc6F)c6ccc3[nH]6)C=C5)C=C4)cc2)c2ccc(O)cc2)cc1
REMARK SMILES IDX 20 1 19 2 18 3 17 4 16 5 15 6 14 7 13 8 11 9 12 10 10 11
REMARK SMILES IDX 9 12 8 13 5 14 6 15 99 16 7 17 98 18 2 19 1 20 3 21 4 22
REMARK SMILES IDX 91 23 92 24 97 25 93 26 96 27 94 28 95 29 21 31 22 32 23 33
REMARK SMILES IDX 24 34 25 35 26 36 27 37 28 38 29 39 90 40 30 41 89 42 31 43
REMARK SMILES IDX 32 44 33 45 83 46 34 47 88 48 82 49 84 50 35 51 87 52 81 53
REMARK SMILES IDX 80 54 36 56 68 57 48 58 67 59 49 60 52 61 66 62 85 63 50 64
REMARK SMILES IDX 51 65 65 67 86 68 53 69 37 70 38 71 46 72 39 73 45 74 47 75
REMARK SMILES IDX 44 76 40 77 41 78 42 79 43 80 69 81 70 82 78 83 71 84 77 85
REMARK SMILES IDX 79 86 76 87 72 88 73 89 74 90 75 91 54 92 55 93 63 94 56 95
REMARK SMILES IDX 62 96 64 97 61 98 57 99 58 100 59 101 60 102
REMARK H PARENT 95 30 84 55 52 66
REMARK Flexibility Score: inf
ROOT
ATOM      1  C   UNL A   1      39.042  22.183  26.128  1.00  0.00     0.188 C 
ENDROOT
BRANCH   1   2
ATOM      2  O   UNL A   1      38.086  22.501  25.122  1.00  0.00    -0.377 OA
BRANCH   2   3
ATOM      3  C   UNL A   1      36.717  22.595  25.473  1.00  0.00     0.188 C 
BRANCH   3   4
ATOM      4  C   UNL A   1      35.842  21.323  25.391  1.00  0.00     0.188 C 
BRANCH   4   5
ATOM      5  O   UNL A   1      34.525  21.507  25.873  1.00  0.00    -0.376 OA
BRANCH   5   6
ATOM      6  C   UNL A   1      34.356  21.875  27.231  1.00  0.00     0.202 C 
BRANCH   6   7
ATOM      7  C   UNL A   1      32.936  21.988  27.810  1.00  0.00     0.261 C 
BRANCH   7   8
ATOM      8  O   UNL A   1      32.308  23.276  27.720  1.00  0.00    -0.460 OA
BRANCH   8   9
ATOM      9  C   UNL A   1      31.064  23.340  27.188  1.00  0.00     0.338 C 
ATOM     10  O   UNL A   1      30.054  22.870  27.689  1.00  0.00    -0.246 OA
BRANCH   9  11
ATOM     11  C   UNL A   1      31.066  24.208  25.957  1.00  0.00     0.067 C 
ATOM     12  C   UNL A   1      30.275  25.310  25.935  1.00  0.00     0.024 C 
BRANCH  12  13
ATOM     13  C   UNL A   1      30.255  26.428  24.960  1.00  0.00    -0.025 A 
ATOM     14  C   UNL A   1      29.687  28.727  23.461  1.00  0.00     0.067 A 
ATOM     15  C   UNL A   1      30.789  28.713  24.311  1.00  0.00     0.021 A 
ATOM     16  C   UNL A   1      28.945  27.567  23.247  1.00  0.00     0.021 A 
ATOM     17  C   UNL A   1      31.096  27.547  25.014  1.00  0.00     0.009 A 
ATOM     18  C   UNL A   1      29.237  26.420  23.992  1.00  0.00     0.009 A 
BRANCH  14  19
ATOM     19  S   UNL A   1      29.137  30.271  22.781  1.00  0.00     0.175 S 
ATOM     20  C   UNL A   1      27.375  30.128  22.788  1.00  0.00     0.163 C 
ATOM     21  O   UNL A   1      29.578  30.321  21.399  1.00  0.00    -0.224 OA
ATOM     22  O   UNL A   1      29.511  31.320  23.711  1.00  0.00    -0.224 OA
ENDBRANCH  14  19
ENDBRANCH  12  13
BRANCH  11  23
ATOM     23  C   UNL A   1      31.951  23.815  24.839  1.00  0.00    -0.011 A 
ATOM     24  C   UNL A   1      31.531  22.830  23.923  1.00  0.00     0.013 A 
ATOM     25  C   UNL A   1      33.150  24.491  24.596  1.00  0.00     0.013 A 
ATOM     26  C   UNL A   1      32.279  22.540  22.784  1.00  0.00     0.047 A 
ATOM     27  C   UNL A   1      33.891  24.215  23.442  1.00  0.00     0.047 A 
ATOM     28  C   UNL A   1      33.444  23.249  22.544  1.00  0.00     0.115 A 
BRANCH  28  29
ATOM     29  O   UNL A   1      34.114  22.982  21.386  1.00  0.00    -0.508 OA
ATOM     30  H   UNL A   1      33.642  22.892  20.583  1.00  0.00     0.293 HD
ENDBRANCH  28  29
ENDBRANCH  11  23
ENDBRANCH   9  11
ENDBRANCH   8   9
ENDBRANCH   7   8
ENDBRANCH   6   7
ENDBRANCH   5   6
ENDBRANCH   4   5
ENDBRANCH   3   4
ENDBRANCH   2   3
ENDBRANCH   1   2
BRANCH   1  31
ATOM     31  C   UNL A   1      39.828  20.850  26.098  1.00  0.00     0.188 C 
BRANCH  31  32
ATOM     32  O   UNL A   1      40.472  20.503  27.315  1.00  0.00    -0.376 OA
BRANCH  32  33
ATOM     33  C   UNL A   1      41.816  20.060  27.247  1.00  0.00     0.202 C 
BRANCH  33  34
ATOM     34  C   UNL A   1      42.178  19.116  26.092  1.00  0.00     0.261 C 
BRANCH  34  35
ATOM     35  O   UNL A   1      42.733  19.733  24.921  1.00  0.00    -0.460 OA
BRANCH  35  36
ATOM     36  C   UNL A   1      44.080  19.796  24.836  1.00  0.00     0.338 C 
ATOM     37  O   UNL A   1      44.827  18.928  24.413  1.00  0.00    -0.246 OA
BRANCH  36  38
ATOM     38  C   UNL A   1      44.481  21.182  25.152  1.00  0.00     0.060 A 
ATOM     39  C   UNL A   1      45.043  21.463  26.405  1.00  0.00     0.016 A 
ATOM     40  C   UNL A   1      44.336  22.194  24.200  1.00  0.00     0.016 A 
ATOM     41  C   UNL A   1      45.441  22.763  26.716  1.00  0.00     0.010 A 
ATOM     42  C   UNL A   1      44.710  23.500  24.522  1.00  0.00     0.010 A 
ATOM     43  C   UNL A   1      45.237  23.796  25.792  1.00  0.00    -0.014 A 
BRANCH  43  44
ATOM     44  C   UNL A   1      45.394  25.207  26.226  1.00  0.00     0.031 A 
ATOM     45  C   UNL A   1      46.739  25.857  26.055  1.00  0.00     0.074 A 
ATOM     46  C   UNL A   1      44.361  25.903  26.732  1.00  0.00     0.049 A 
ATOM     47  N   UNL A   1      47.133  27.058  26.391  1.00  0.00    -0.248 NA
ATOM     48  C   UNL A   1      47.782  25.033  25.424  1.00  0.00     0.031 C 
ATOM     49  C   UNL A   1      43.001  25.393  26.901  1.00  0.00     0.029 A 
ATOM     50  N   UNL A   1      44.299  27.191  27.202  1.00  0.00    -0.354 N 
ATOM     51  C   UNL A   1      48.471  27.133  26.020  1.00  0.00     0.074 A 
ATOM     52  C   UNL A   1      48.828  25.842  25.470  1.00  0.00     0.031 C 
ATOM     53  C   UNL A   1      42.241  26.358  27.447  1.00  0.00     0.029 A 
ATOM     54  C   UNL A   1      43.066  27.537  27.705  1.00  0.00     0.049 A 
ATOM     55  H   UNL A   1      45.064  27.809  27.182  1.00  0.00     0.167 HD
ATOM     56  C   UNL A   1      49.320  28.185  26.121  1.00  0.00     0.034 A 
ATOM     57  C   UNL A   1      42.662  28.663  28.330  1.00  0.00     0.034 A 
ATOM     58  C   UNL A   1      48.948  29.459  26.686  1.00  0.00     0.049 A 
ATOM     59  C   UNL A   1      43.650  29.791  28.517  1.00  0.00     0.074 A 
ATOM     60  C   UNL A   1      49.720  30.599  26.818  1.00  0.00     0.029 A 
ATOM     61  N   UNL A   1      47.706  29.756  27.235  1.00  0.00    -0.354 N 
ATOM     62  N   UNL A   1      44.909  29.860  28.145  1.00  0.00    -0.248 NA
ATOM     63  C   UNL A   1      43.161  30.995  29.200  1.00  0.00     0.031 C 
ATOM     64  C   UNL A   1      48.978  31.551  27.526  1.00  0.00     0.029 A 
ATOM     65  C   UNL A   1      47.706  31.044  27.747  1.00  0.00     0.049 A 
ATOM     66  H   UNL A   1      46.937  29.142  27.256  1.00  0.00     0.167 HD
ATOM     67  C   UNL A   1      45.350  31.127  28.524  1.00  0.00     0.074 A 
ATOM     68  C   UNL A   1      44.217  31.792  29.136  1.00  0.00     0.031 C 
ATOM     69  C   UNL A   1      46.575  31.692  28.374  1.00  0.00     0.034 A 
BRANCH  56  70
ATOM     70  C   UNL A   1      50.746  27.972  25.670  1.00  0.00     0.023 A 
ATOM     71  C   UNL A   1      51.131  28.106  24.324  1.00  0.00     0.031 A 
ATOM     72  C   UNL A   1      51.731  27.592  26.600  1.00  0.00     0.131 A 
ATOM     73  C   UNL A   1      52.441  27.787  23.936  1.00  0.00     0.055 A 
ATOM     74  C   UNL A   1      53.054  27.364  26.220  1.00  0.00     0.041 A 
ATOM     75  F   UNL A   1      51.419  27.420  27.894  1.00  0.00    -0.206 F 
ATOM     76  C   UNL A   1      53.413  27.445  24.879  1.00  0.00     0.022 A 
BRANCH  73  77
ATOM     77  S   UNL A   1      52.816  27.669  22.164  1.00  0.00     0.124 S 
ATOM     78  O   UNL A   1      54.108  28.346  22.090  1.00  0.00    -0.237 OA
ATOM     79  O   UNL A   1      52.836  26.228  21.942  1.00  0.00    -0.237 OA
ATOM     80  O   UNL A   1      51.709  28.384  21.532  1.00  0.00    -0.744 OA
ENDBRANCH  73  77
ENDBRANCH  56  70
BRANCH  57  81
ATOM     81  C   UNL A   1      41.275  28.769  28.871  1.00  0.00     0.023 A 
ATOM     82  C   UNL A   1      41.017  28.682  30.248  1.00  0.00     0.031 A 
ATOM     83  C   UNL A   1      40.174  28.909  28.005  1.00  0.00     0.131 A 
ATOM     84  C   UNL A   1      39.693  28.694  30.715  1.00  0.00     0.055 A 
ATOM     85  C   UNL A   1      38.864  28.979  28.478  1.00  0.00     0.041 A 
ATOM     86  F   UNL A   1      40.362  28.988  26.677  1.00  0.00    -0.206 F 
ATOM     87  C   UNL A   1      38.616  28.859  29.841  1.00  0.00     0.022 A 
BRANCH  84  88
ATOM     88  S   UNL A   1      39.388  28.404  32.480  1.00  0.00     0.124 S 
ATOM     89  O   UNL A   1      38.393  27.339  32.437  1.00  0.00    -0.237 OA
ATOM     90  O   UNL A   1      40.713  28.027  32.958  1.00  0.00    -0.237 OA
ATOM     91  O   UNL A   1      38.900  29.696  32.958  1.00  0.00    -0.744 OA
ENDBRANCH  84  88
ENDBRANCH  57  81
BRANCH  69  92
ATOM     92  C   UNL A   1      46.743  33.121  28.842  1.00  0.00     0.023 A 
ATOM     93  C   UNL A   1      46.284  34.212  28.083  1.00  0.00     0.031 A 
ATOM     94  C   UNL A   1      47.381  33.394  30.067  1.00  0.00     0.131 A 
ATOM     95  C   UNL A   1      46.525  35.522  28.524  1.00  0.00     0.055 A 
ATOM     96  C   UNL A   1      47.552  34.697  30.535  1.00  0.00     0.041 A 
ATOM     97  F   UNL A   1      47.846  32.394  30.833  1.00  0.00    -0.206 F 
ATOM     98  C   UNL A   1      47.137  35.772  29.755  1.00  0.00     0.022 A 
BRANCH  95  99
ATOM     99  S   UNL A   1      46.130  36.902  27.413  1.00  0.00     0.124 S 
ATOM    100  O   UNL A   1      45.011  36.363  26.649  1.00  0.00    -0.237 OA
ATOM    101  O   UNL A   1      45.805  37.973  28.351  1.00  0.00    -0.237 OA
ATOM    102  O   UNL A   1      47.365  37.097  26.656  1.00  0.00    -0.744 OA
ENDBRANCH  95  99
ENDBRANCH  69  92
ENDBRANCH  43  44
ENDBRANCH  36  38
ENDBRANCH  35  36
ENDBRANCH  34  35
ENDBRANCH  33  34
ENDBRANCH  32  33
ENDBRANCH  31  32
ENDBRANCH   1  31
TORSDOF 27
ENDMDL
