MODEL 1
REMARK VINA RESULT:      -9.1      0.000      0.000
REMARK SMILES CC(C)CN(C)c1cc2c(cc1Cl)C=C(C(=O)OCCOCCOCCOCCOC(=O)c1ccc(-c3c4nc(c(-c5cc(S(=O)(=O)[O-])ccc5F)c5ccc([nH]5)c(-c5cc(S(=O)(=O)[O-])ccc5F)c5nc(c(-c6cc(S(=O)(=O)[O-])ccc6F)c6ccc3[nH]6)C=C5)C=C4)cc1)[C@@H](C(F)(F)F)O2
REMARK SMILES IDX 24 1 23 2 22 3 21 4 20 5 19 6 18 7 16 8 17 9 15 10 7 11 8 12
REMARK SMILES IDX 12 13 9 14 11 15 13 16 10 17 101 18 14 19 96 20 5 21 6 22
REMARK SMILES IDX 4 23 2 24 1 25 3 26 97 27 98 28 99 29 100 30 25 31 26 32
REMARK SMILES IDX 27 33 28 34 29 35 30 36 31 37 32 38 33 39 34 40 95 41 35 42
REMARK SMILES IDX 94 43 36 44 37 45 38 46 88 47 39 48 93 49 87 50 89 51 40 52
REMARK SMILES IDX 92 53 86 54 85 55 41 57 73 58 53 59 72 60 54 61 57 62 71 63
REMARK SMILES IDX 90 64 55 65 56 66 70 68 91 69 58 70 42 71 43 72 51 73 44 74
REMARK SMILES IDX 50 75 52 76 49 77 45 78 46 79 47 80 48 81 74 82 75 83 83 84
REMARK SMILES IDX 76 85 82 86 84 87 81 88 77 89 78 90 79 91 80 92 59 93 60 94
REMARK SMILES IDX 68 95 61 96 67 97 69 98 66 99 62 100 63 101 64 102 65 103
REMARK H PARENT 89 56 57 67
REMARK Flexibility Score: inf
ROOT
ATOM      1  O   UNL A   1      42.542  19.607  25.263  1.00  0.00    -0.377 OA
ENDROOT
BRANCH   1   2
ATOM      2  C   UNL A   1      41.547  19.409  26.253  1.00  0.00     0.188 C 
BRANCH   2   3
ATOM      3  C   UNL A   1      41.281  20.672  27.090  1.00  0.00     0.188 C 
BRANCH   3   4
ATOM      4  O   UNL A   1      39.934  21.120  27.006  1.00  0.00    -0.376 OA
BRANCH   4   5
ATOM      5  C   UNL A   1      39.443  21.583  25.755  1.00  0.00     0.202 C 
BRANCH   5   6
ATOM      6  C   UNL A   1      37.978  21.323  25.352  1.00  0.00     0.261 C 
BRANCH   6   7
ATOM      7  O   UNL A   1      37.266  22.442  24.806  1.00  0.00    -0.460 OA
BRANCH   7   8
ATOM      8  C   UNL A   1      36.731  23.313  25.676  1.00  0.00     0.338 C 
ATOM      9  O   UNL A   1      37.258  23.746  26.686  1.00  0.00    -0.246 OA
BRANCH   8  10
ATOM     10  C   UNL A   1      35.455  23.816  25.120  1.00  0.00     0.087 C 
ATOM     11  C   UNL A   1      31.336  26.562  24.191  1.00  0.00     0.059 A 
ATOM     12  C   UNL A   1      31.826  25.330  23.703  1.00  0.00     0.074 A 
ATOM     13  C   UNL A   1      32.164  27.275  25.086  1.00  0.00     0.065 A 
ATOM     14  C   UNL A   1      33.075  24.834  24.102  1.00  0.00     0.130 A 
ATOM     15  C   UNL A   1      33.450  26.831  25.396  1.00  0.00     0.034 A 
ATOM     16  Cl  UNL A   1      31.625  28.680  25.945  1.00  0.00    -0.082 Cl
ATOM     17  C   UNL A   1      33.896  25.602  24.921  1.00  0.00     0.019 A 
ATOM     18  O   UNL A   1      33.439  23.591  23.653  1.00  0.00    -0.475 OA
ATOM     19  C   UNL A   1      35.188  25.105  25.349  1.00  0.00     0.027 C 
ATOM     20  C   UNL A   1      34.533  22.905  24.345  1.00  0.00     0.316 C 
BRANCH  11  21
ATOM     21  N   UNL A   1      30.063  27.028  23.833  1.00  0.00    -0.373 N 
ATOM     22  C   UNL A   1      28.957  26.132  24.155  1.00  0.00     0.143 C 
BRANCH  21  23
ATOM     23  C   UNL A   1      29.930  27.860  22.620  1.00  0.00     0.119 C 
BRANCH  23  24
ATOM     24  C   UNL A   1      29.250  29.218  22.901  1.00  0.00     0.002 C 
ATOM     25  C   UNL A   1      29.667  30.286  21.887  1.00  0.00     0.009 C 
ATOM     26  C   UNL A   1      27.724  29.104  22.899  1.00  0.00     0.009 C 
ENDBRANCH  23  24
ENDBRANCH  21  23
ENDBRANCH  11  21
BRANCH  20  27
ATOM     27  C   UNL A   1      33.979  21.792  25.244  1.00  0.00     0.430 C 
ATOM     28  F   UNL A   1      33.944  22.170  26.543  1.00  0.00    -0.167 F 
ATOM     29  F   UNL A   1      32.715  21.454  24.895  1.00  0.00    -0.167 F 
ATOM     30  F   UNL A   1      34.729  20.667  25.169  1.00  0.00    -0.167 F 
ENDBRANCH  20  27
ENDBRANCH   8  10
ENDBRANCH   7   8
ENDBRANCH   6   7
ENDBRANCH   5   6
ENDBRANCH   4   5
ENDBRANCH   3   4
ENDBRANCH   2   3
ENDBRANCH   1   2
BRANCH   1  31
ATOM     31  C   UNL A   1      43.770  20.217  25.664  1.00  0.00     0.188 C 
BRANCH  31  32
ATOM     32  C   UNL A   1      44.204  21.606  25.138  1.00  0.00     0.188 C 
BRANCH  32  33
ATOM     33  O   UNL A   1      44.970  22.368  26.069  1.00  0.00    -0.376 OA
BRANCH  33  34
ATOM     34  C   UNL A   1      44.443  23.632  26.450  1.00  0.00     0.202 C 
BRANCH  34  35
ATOM     35  C   UNL A   1      43.043  23.923  25.897  1.00  0.00     0.261 C 
BRANCH  35  36
ATOM     36  O   UNL A   1      42.230  24.788  26.703  1.00  0.00    -0.460 OA
BRANCH  36  37
ATOM     37  C   UNL A   1      41.593  25.812  26.090  1.00  0.00     0.338 C 
ATOM     38  O   UNL A   1      40.665  25.730  25.304  1.00  0.00    -0.246 OA
BRANCH  37  39
ATOM     39  C   UNL A   1      42.084  27.063  26.708  1.00  0.00     0.060 A 
ATOM     40  C   UNL A   1      41.612  28.299  26.259  1.00  0.00     0.016 A 
ATOM     41  C   UNL A   1      43.062  26.998  27.709  1.00  0.00     0.016 A 
ATOM     42  C   UNL A   1      42.098  29.473  26.836  1.00  0.00     0.010 A 
ATOM     43  C   UNL A   1      43.552  28.175  28.282  1.00  0.00     0.010 A 
ATOM     44  C   UNL A   1      43.055  29.419  27.866  1.00  0.00    -0.014 A 
BRANCH  44  45
ATOM     45  C   UNL A   1      43.355  30.648  28.641  1.00  0.00     0.031 A 
ATOM     46  C   UNL A   1      44.474  31.575  28.282  1.00  0.00     0.074 A 
ATOM     47  C   UNL A   1      42.572  30.910  29.706  1.00  0.00     0.049 A 
ATOM     48  N   UNL A   1      44.772  32.734  28.812  1.00  0.00    -0.248 NA
ATOM     49  C   UNL A   1      45.376  31.156  27.201  1.00  0.00     0.031 C 
ATOM     50  C   UNL A   1      41.481  30.047  30.163  1.00  0.00     0.029 A 
ATOM     51  N   UNL A   1      42.560  31.961  30.587  1.00  0.00    -0.354 N 
ATOM     52  C   UNL A   1      45.884  33.199  28.119  1.00  0.00     0.074 A 
ATOM     53  C   UNL A   1      46.234  32.170  27.160  1.00  0.00     0.031 C 
ATOM     54  C   UNL A   1      40.891  30.612  31.223  1.00  0.00     0.029 A 
ATOM     55  C   UNL A   1      41.578  31.862  31.545  1.00  0.00     0.049 A 
ATOM     56  H   UNL A   1      43.193  32.713  30.539  1.00  0.00     0.167 HD
ATOM     57  C   UNL A   1      46.529  34.382  28.264  1.00  0.00     0.034 A 
ATOM     58  C   UNL A   1      41.255  32.682  32.564  1.00  0.00     0.034 A 
ATOM     59  C   UNL A   1      46.165  35.384  29.240  1.00  0.00     0.049 A 
ATOM     60  C   UNL A   1      42.002  33.981  32.715  1.00  0.00     0.074 A 
ATOM     61  C   UNL A   1      46.722  36.638  29.420  1.00  0.00     0.029 A 
ATOM     62  N   UNL A   1      45.173  35.250  30.202  1.00  0.00    -0.354 N 
ATOM     63  N   UNL A   1      42.967  34.465  31.969  1.00  0.00    -0.248 NA
ATOM     64  C   UNL A   1      41.609  34.857  33.827  1.00  0.00     0.031 C 
ATOM     65  C   UNL A   1      46.125  37.228  30.535  1.00  0.00     0.029 A 
ATOM     66  C   UNL A   1      45.132  36.383  31.001  1.00  0.00     0.049 A 
ATOM     67  H   UNL A   1      44.585  34.466  30.302  1.00  0.00     0.167 HD
ATOM     68  C   UNL A   1      43.279  35.711  32.506  1.00  0.00     0.074 A 
ATOM     69  C   UNL A   1      42.380  35.917  33.622  1.00  0.00     0.031 C 
ATOM     70  C   UNL A   1      44.227  36.597  32.109  1.00  0.00     0.034 A 
BRANCH  57  71
ATOM     71  C   UNL A   1      47.680  34.709  27.342  1.00  0.00     0.023 A 
ATOM     72  C   UNL A   1      49.008  34.510  27.768  1.00  0.00     0.031 A 
ATOM     73  C   UNL A   1      47.467  35.387  26.128  1.00  0.00     0.131 A 
ATOM     74  C   UNL A   1      50.068  35.026  27.010  1.00  0.00     0.055 A 
ATOM     75  C   UNL A   1      48.528  35.861  25.356  1.00  0.00     0.041 A 
ATOM     76  F   UNL A   1      46.220  35.612  25.683  1.00  0.00    -0.206 F 
ATOM     77  C   UNL A   1      49.836  35.695  25.804  1.00  0.00     0.022 A 
BRANCH  74  78
ATOM     78  S   UNL A   1      51.781  34.923  27.598  1.00  0.00     0.124 S 
ATOM     79  O   UNL A   1      52.514  35.547  26.499  1.00  0.00    -0.237 OA
ATOM     80  O   UNL A   1      51.727  35.701  28.833  1.00  0.00    -0.237 OA
ATOM     81  O   UNL A   1      52.011  33.492  27.762  1.00  0.00    -0.744 OA
ENDBRANCH  74  78
ENDBRANCH  57  71
BRANCH  58  82
ATOM     82  C   UNL A   1      40.121  32.310  33.457  1.00  0.00     0.023 A 
ATOM     83  C   UNL A   1      38.847  32.883  33.282  1.00  0.00     0.031 A 
ATOM     84  C   UNL A   1      40.323  31.476  34.569  1.00  0.00     0.131 A 
ATOM     85  C   UNL A   1      37.850  32.673  34.244  1.00  0.00     0.055 A 
ATOM     86  C   UNL A   1      39.303  31.209  35.484  1.00  0.00     0.041 A 
ATOM     87  F   UNL A   1      41.525  30.922  34.790  1.00  0.00    -0.206 F 
ATOM     88  C   UNL A   1      38.064  31.824  35.333  1.00  0.00     0.022 A 
BRANCH  85  89
ATOM     89  S   UNL A   1      36.298  33.611  34.190  1.00  0.00     0.124 S 
ATOM     90  O   UNL A   1      35.867  33.566  35.584  1.00  0.00    -0.237 OA
ATOM     91  O   UNL A   1      36.755  34.914  33.711  1.00  0.00    -0.237 OA
ATOM     92  O   UNL A   1      35.474  32.861  33.249  1.00  0.00    -0.744 OA
ENDBRANCH  85  89
ENDBRANCH  58  82
BRANCH  70  93
ATOM     93  C   UNL A   1      44.374  37.894  32.872  1.00  0.00     0.023 A 
ATOM     94  C   UNL A   1      43.653  39.036  32.467  1.00  0.00     0.031 A 
ATOM     95  C   UNL A   1      45.334  38.044  33.888  1.00  0.00     0.131 A 
ATOM     96  C   UNL A   1      43.938  40.282  33.040  1.00  0.00     0.055 A 
ATOM     97  C   UNL A   1      45.575  39.278  34.495  1.00  0.00     0.041 A 
ATOM     98  F   UNL A   1      46.055  36.991  34.304  1.00  0.00    -0.206 F 
ATOM     99  C   UNL A   1      44.888  40.407  34.059  1.00  0.00     0.022 A 
BRANCH  96 100
ATOM    100  S   UNL A   1      43.159  41.799  32.421  1.00  0.00     0.124 S 
ATOM    101  O   UNL A   1      41.768  41.380  32.257  1.00  0.00    -0.237 OA
ATOM    102  O   UNL A   1      43.402  42.737  33.513  1.00  0.00    -0.237 OA
ATOM    103  O   UNL A   1      43.872  42.081  31.179  1.00  0.00    -0.744 OA
ENDBRANCH  96 100
ENDBRANCH  70  93
ENDBRANCH  44  45
ENDBRANCH  37  39
ENDBRANCH  36  37
ENDBRANCH  35  36
ENDBRANCH  34  35
ENDBRANCH  33  34
ENDBRANCH  32  33
ENDBRANCH  31  32
ENDBRANCH   1  31
TORSDOF 27
ENDMDL
MODEL 2
REMARK VINA RESULT:      -8.7      1.312      7.418
REMARK SMILES CC(C)CN(C)c1cc2c(cc1Cl)C=C(C(=O)OCCOCCOCCOCCOC(=O)c1ccc(-c3c4nc(c(-c5cc(S(=O)(=O)[O-])ccc5F)c5ccc([nH]5)c(-c5cc(S(=O)(=O)[O-])ccc5F)c5nc(c(-c6cc(S(=O)(=O)[O-])ccc6F)c6ccc3[nH]6)C=C5)C=C4)cc1)[C@@H](C(F)(F)F)O2
REMARK SMILES IDX 24 1 23 2 22 3 21 4 20 5 19 6 18 7 16 8 17 9 15 10 7 11 8 12
REMARK SMILES IDX 12 13 9 14 11 15 13 16 10 17 101 18 14 19 96 20 5 21 6 22
REMARK SMILES IDX 4 23 2 24 1 25 3 26 97 27 98 28 99 29 100 30 25 31 26 32
REMARK SMILES IDX 27 33 28 34 29 35 30 36 31 37 32 38 33 39 34 40 95 41 35 42
REMARK SMILES IDX 94 43 36 44 37 45 38 46 88 47 39 48 93 49 87 50 89 51 40 52
REMARK SMILES IDX 92 53 86 54 85 55 41 57 73 58 53 59 72 60 54 61 57 62 71 63
REMARK SMILES IDX 90 64 55 65 56 66 70 68 91 69 58 70 42 71 43 72 51 73 44 74
REMARK SMILES IDX 50 75 52 76 49 77 45 78 46 79 47 80 48 81 74 82 75 83 83 84
REMARK SMILES IDX 76 85 82 86 84 87 81 88 77 89 78 90 79 91 80 92 59 93 60 94
REMARK SMILES IDX 68 95 61 96 67 97 69 98 66 99 62 100 63 101 64 102 65 103
REMARK H PARENT 89 56 57 67
REMARK Flexibility Score: inf
ROOT
ATOM      1  O   UNL A   1      42.991  19.393  25.001  1.00  0.00    -0.377 OA
ENDROOT
BRANCH   1   2
ATOM      2  C   UNL A   1      42.238  18.914  26.103  1.00  0.00     0.188 C 
BRANCH   2   3
ATOM      3  C   UNL A   1      42.039  19.978  27.196  1.00  0.00     0.188 C 
BRANCH   3   4
ATOM      4  O   UNL A   1      40.673  20.319  27.396  1.00  0.00    -0.376 OA
BRANCH   4   5
ATOM      5  C   UNL A   1      40.176  21.520  26.822  1.00  0.00     0.202 C 
BRANCH   5   6
ATOM      6  C   UNL A   1      39.003  21.475  25.823  1.00  0.00     0.261 C 
BRANCH   6   7
ATOM      7  O   UNL A   1      37.766  22.043  26.277  1.00  0.00    -0.460 OA
BRANCH   7   8
ATOM      8  C   UNL A   1      36.636  21.569  25.729  1.00  0.00     0.338 C 
ATOM      9  O   UNL A   1      36.362  20.397  25.530  1.00  0.00    -0.246 OA
BRANCH   8  10
ATOM     10  C   UNL A   1      35.681  22.688  25.569  1.00  0.00     0.087 C 
ATOM     11  C   UNL A   1      31.559  25.579  25.694  1.00  0.00     0.059 A 
ATOM     12  C   UNL A   1      32.846  25.729  25.134  1.00  0.00     0.074 A 
ATOM     13  C   UNL A   1      31.323  24.420  26.466  1.00  0.00     0.065 A 
ATOM     14  C   UNL A   1      33.842  24.761  25.328  1.00  0.00     0.130 A 
ATOM     15  C   UNL A   1      32.346  23.514  26.747  1.00  0.00     0.034 A 
ATOM     16  Cl  UNL A   1      29.747  23.976  27.033  1.00  0.00    -0.082 Cl
ATOM     17  C   UNL A   1      33.598  23.673  26.161  1.00  0.00     0.019 A 
ATOM     18  O   UNL A   1      35.035  24.937  24.678  1.00  0.00    -0.475 OA
ATOM     19  C   UNL A   1      34.610  22.659  26.370  1.00  0.00     0.027 C 
ATOM     20  C   UNL A   1      35.927  23.780  24.557  1.00  0.00     0.316 C 
BRANCH  11  21
ATOM     21  N   UNL A   1      30.549  26.522  25.453  1.00  0.00    -0.373 N 
ATOM     22  C   UNL A   1      29.518  26.103  24.508  1.00  0.00     0.143 C 
BRANCH  21  23
ATOM     23  C   UNL A   1      30.900  27.956  25.481  1.00  0.00     0.119 C 
BRANCH  23  24
ATOM     24  C   UNL A   1      31.014  28.569  24.068  1.00  0.00     0.002 C 
ATOM     25  C   UNL A   1      30.050  29.743  23.875  1.00  0.00     0.009 C 
ATOM     26  C   UNL A   1      32.437  29.043  23.763  1.00  0.00     0.009 C 
ENDBRANCH  23  24
ENDBRANCH  21  23
ENDBRANCH  11  21
BRANCH  20  27
ATOM     27  C   UNL A   1      35.883  23.223  23.128  1.00  0.00     0.430 C 
ATOM     28  F   UNL A   1      35.167  24.021  22.302  1.00  0.00    -0.167 F 
ATOM     29  F   UNL A   1      37.124  23.114  22.597  1.00  0.00    -0.167 F 
ATOM     30  F   UNL A   1      35.321  21.991  23.088  1.00  0.00    -0.167 F 
ENDBRANCH  20  27
ENDBRANCH   8  10
ENDBRANCH   7   8
ENDBRANCH   6   7
ENDBRANCH   5   6
ENDBRANCH   4   5
ENDBRANCH   3   4
ENDBRANCH   2   3
ENDBRANCH   1   2
BRANCH   1  31
ATOM     31  C   UNL A   1      44.333  19.816  25.244  1.00  0.00     0.188 C 
BRANCH  31  32
ATOM     32  C   UNL A   1      44.835  21.223  24.840  1.00  0.00     0.188 C 
BRANCH  32  33
ATOM     33  O   UNL A   1      45.761  21.797  25.760  1.00  0.00    -0.376 OA
BRANCH  33  34
ATOM     34  C   UNL A   1      45.456  23.095  26.252  1.00  0.00     0.202 C 
BRANCH  34  35
ATOM     35  C   UNL A   1      44.240  23.750  25.586  1.00  0.00     0.261 C 
BRANCH  35  36
ATOM     36  O   UNL A   1      43.474  24.626  26.427  1.00  0.00    -0.460 OA
BRANCH  36  37
ATOM     37  C   UNL A   1      42.637  25.506  25.831  1.00  0.00     0.338 C 
ATOM     38  O   UNL A   1      41.715  25.242  25.078  1.00  0.00    -0.246 OA
BRANCH  37  39
ATOM     39  C   UNL A   1      42.906  26.834  26.424  1.00  0.00     0.060 A 
ATOM     40  C   UNL A   1      42.333  27.980  25.866  1.00  0.00     0.016 A 
ATOM     41  C   UNL A   1      43.777  26.936  27.516  1.00  0.00     0.016 A 
ATOM     42  C   UNL A   1      42.611  29.229  26.422  1.00  0.00     0.010 A 
ATOM     43  C   UNL A   1      44.058  28.189  28.068  1.00  0.00     0.010 A 
ATOM     44  C   UNL A   1      43.457  29.341  27.540  1.00  0.00    -0.014 A 
BRANCH  44  45
ATOM     45  C   UNL A   1      43.524  30.629  28.272  1.00  0.00     0.031 A 
ATOM     46  C   UNL A   1      42.540  31.004  29.337  1.00  0.00     0.074 A 
ATOM     47  C   UNL A   1      44.519  31.475  27.941  1.00  0.00     0.049 A 
ATOM     48  N   UNL A   1      42.552  32.049  30.125  1.00  0.00    -0.248 NA
ATOM     49  C   UNL A   1      41.398  30.103  29.548  1.00  0.00     0.031 C 
ATOM     50  C   UNL A   1      45.504  31.220  26.888  1.00  0.00     0.029 A 
ATOM     51  N   UNL A   1      44.875  32.700  28.445  1.00  0.00    -0.354 N 
ATOM     52  C   UNL A   1      41.434  31.928  30.941  1.00  0.00     0.074 A 
ATOM     53  C   UNL A   1      40.740  30.727  30.518  1.00  0.00     0.031 C 
ATOM     54  C   UNL A   1      46.365  32.244  26.839  1.00  0.00     0.029 A 
ATOM     55  C   UNL A   1      45.980  33.244  27.833  1.00  0.00     0.049 A 
ATOM     56  H   UNL A   1      44.386  33.147  29.173  1.00  0.00     0.167 HD
ATOM     57  C   UNL A   1      41.045  32.737  31.957  1.00  0.00     0.034 A 
ATOM     58  C   UNL A   1      46.621  34.410  28.046  1.00  0.00     0.034 A 
ATOM     59  C   UNL A   1      41.750  33.936  32.347  1.00  0.00     0.049 A 
ATOM     60  C   UNL A   1      46.155  35.300  29.168  1.00  0.00     0.074 A 
ATOM     61  C   UNL A   1      41.465  34.785  33.403  1.00  0.00     0.029 A 
ATOM     62  N   UNL A   1      42.859  34.466  31.702  1.00  0.00    -0.354 N 
ATOM     63  N   UNL A   1      45.172  35.106  30.016  1.00  0.00    -0.248 NA
ATOM     64  C   UNL A   1      46.890  36.553  29.381  1.00  0.00     0.031 C 
ATOM     65  C   UNL A   1      42.347  35.865  33.349  1.00  0.00     0.029 A 
ATOM     66  C   UNL A   1      43.243  35.650  32.314  1.00  0.00     0.049 A 
ATOM     67  H   UNL A   1      43.307  34.061  30.924  1.00  0.00     0.167 HD
ATOM     68  C   UNL A   1      45.188  36.199  30.878  1.00  0.00     0.074 A 
ATOM     69  C   UNL A   1      46.295  37.036  30.464  1.00  0.00     0.031 C 
ATOM     70  C   UNL A   1      44.355  36.482  31.911  1.00  0.00     0.034 A 
BRANCH  57  71
ATOM     71  C   UNL A   1      39.823  32.365  32.764  1.00  0.00     0.023 A 
ATOM     72  C   UNL A   1      38.592  33.009  32.524  1.00  0.00     0.031 A 
ATOM     73  C   UNL A   1      39.922  31.521  33.884  1.00  0.00     0.131 A 
ATOM     74  C   UNL A   1      37.528  32.834  33.419  1.00  0.00     0.055 A 
ATOM     75  C   UNL A   1      38.846  31.317  34.748  1.00  0.00     0.041 A 
ATOM     76  F   UNL A   1      41.076  30.893  34.163  1.00  0.00    -0.206 F 
ATOM     77  C   UNL A   1      37.646  31.988  34.527  1.00  0.00     0.022 A 
BRANCH  74  78
ATOM     78  S   UNL A   1      35.980  33.760  33.230  1.00  0.00     0.124 S 
ATOM     79  O   UNL A   1      36.250  34.961  34.018  1.00  0.00    -0.237 OA
ATOM     80  O   UNL A   1      35.920  33.963  31.785  1.00  0.00    -0.237 OA
ATOM     81  O   UNL A   1      34.967  32.870  33.785  1.00  0.00    -0.744 OA
ENDBRANCH  74  78
ENDBRANCH  57  71
BRANCH  58  82
ATOM     82  C   UNL A   1      47.813  34.740  27.214  1.00  0.00     0.023 A 
ATOM     83  C   UNL A   1      49.114  34.469  27.678  1.00  0.00     0.031 A 
ATOM     84  C   UNL A   1      47.676  35.440  26.004  1.00  0.00     0.131 A 
ATOM     85  C   UNL A   1      50.222  34.960  26.976  1.00  0.00     0.055 A 
ATOM     86  C   UNL A   1      48.785  35.860  25.267  1.00  0.00     0.041 A 
ATOM     87  F   UNL A   1      46.457  35.739  25.529  1.00  0.00    -0.206 F 
ATOM     88  C   UNL A   1      50.066  35.637  25.763  1.00  0.00     0.022 A 
BRANCH  85  89
ATOM     89  S   UNL A   1      51.888  34.866  27.688  1.00  0.00     0.124 S 
ATOM     90  O   UNL A   1      51.735  33.810  28.682  1.00  0.00    -0.237 OA
ATOM     91  O   UNL A   1      52.692  34.521  26.517  1.00  0.00    -0.237 OA
ATOM     92  O   UNL A   1      52.113  36.207  28.218  1.00  0.00    -0.744 OA
ENDBRANCH  85  89
ENDBRANCH  58  82
BRANCH  70  93
ATOM     93  C   UNL A   1      44.580  37.753  32.698  1.00  0.00     0.023 A 
ATOM     94  C   UNL A   1      43.851  38.917  32.380  1.00  0.00     0.031 A 
ATOM     95  C   UNL A   1      45.612  37.857  33.646  1.00  0.00     0.131 A 
ATOM     96  C   UNL A   1      44.199  40.141  32.966  1.00  0.00     0.055 A 
ATOM     97  C   UNL A   1      45.919  39.069  34.268  1.00  0.00     0.041 A 
ATOM     98  F   UNL A   1      46.343  36.781  33.978  1.00  0.00    -0.206 F 
ATOM     99  C   UNL A   1      45.222  40.221  33.916  1.00  0.00     0.022 A 
BRANCH  96 100
ATOM    100  S   UNL A   1      43.405  41.689  32.448  1.00  0.00     0.124 S 
ATOM    101  O   UNL A   1      44.069  42.670  33.304  1.00  0.00    -0.237 OA
ATOM    102  O   UNL A   1      43.758  41.756  31.033  1.00  0.00    -0.237 OA
ATOM    103  O   UNL A   1      41.990  41.472  32.734  1.00  0.00    -0.744 OA
ENDBRANCH  96 100
ENDBRANCH  70  93
ENDBRANCH  44  45
ENDBRANCH  37  39
ENDBRANCH  36  37
ENDBRANCH  35  36
ENDBRANCH  34  35
ENDBRANCH  33  34
ENDBRANCH  32  33
ENDBRANCH  31  32
ENDBRANCH   1  31
TORSDOF 27
ENDMDL
MODEL 3
REMARK VINA RESULT:      -8.5      2.316      4.090
REMARK SMILES CC(C)CN(C)c1cc2c(cc1Cl)C=C(C(=O)OCCOCCOCCOCCOC(=O)c1ccc(-c3c4nc(c(-c5cc(S(=O)(=O)[O-])ccc5F)c5ccc([nH]5)c(-c5cc(S(=O)(=O)[O-])ccc5F)c5nc(c(-c6cc(S(=O)(=O)[O-])ccc6F)c6ccc3[nH]6)C=C5)C=C4)cc1)[C@@H](C(F)(F)F)O2
REMARK SMILES IDX 24 1 23 2 22 3 21 4 20 5 19 6 18 7 16 8 17 9 15 10 7 11 8 12
REMARK SMILES IDX 12 13 9 14 11 15 13 16 10 17 101 18 14 19 96 20 5 21 6 22
REMARK SMILES IDX 4 23 2 24 1 25 3 26 97 27 98 28 99 29 100 30 25 31 26 32
REMARK SMILES IDX 27 33 28 34 29 35 30 36 31 37 32 38 33 39 34 40 95 41 35 42
REMARK SMILES IDX 94 43 36 44 37 45 38 46 88 47 39 48 93 49 87 50 89 51 40 52
REMARK SMILES IDX 92 53 86 54 85 55 41 57 73 58 53 59 72 60 54 61 57 62 71 63
REMARK SMILES IDX 90 64 55 65 56 66 70 68 91 69 58 70 42 71 43 72 51 73 44 74
REMARK SMILES IDX 50 75 52 76 49 77 45 78 46 79 47 80 48 81 74 82 75 83 83 84
REMARK SMILES IDX 76 85 82 86 84 87 81 88 77 89 78 90 79 91 80 92 59 93 60 94
REMARK SMILES IDX 68 95 61 96 67 97 69 98 66 99 62 100 63 101 64 102 65 103
REMARK H PARENT 89 56 57 67
REMARK Flexibility Score: inf
ROOT
ATOM      1  O   UNL A   1      36.176  21.951  25.780  1.00  0.00    -0.377 OA
ENDROOT
BRANCH   1   2
ATOM      2  C   UNL A   1      35.475  21.085  24.903  1.00  0.00     0.188 C 
BRANCH   2   3
ATOM      3  C   UNL A   1      33.949  21.256  24.993  1.00  0.00     0.188 C 
BRANCH   3   4
ATOM      4  O   UNL A   1      33.383  21.818  23.815  1.00  0.00    -0.376 OA
BRANCH   4   5
ATOM      5  C   UNL A   1      32.585  22.988  23.931  1.00  0.00     0.202 C 
BRANCH   5   6
ATOM      6  C   UNL A   1      32.953  24.259  23.139  1.00  0.00     0.261 C 
BRANCH   6   7
ATOM      7  O   UNL A   1      32.888  25.494  23.864  1.00  0.00    -0.460 OA
BRANCH   7   8
ATOM      8  C   UNL A   1      33.748  25.654  24.883  1.00  0.00     0.338 C 
ATOM      9  O   UNL A   1      34.646  24.892  25.202  1.00  0.00    -0.246 OA
BRANCH   8  10
ATOM     10  C   UNL A   1      33.555  27.003  25.460  1.00  0.00     0.087 C 
ATOM     11  C   UNL A   1      34.170  31.299  28.017  1.00  0.00     0.059 A 
ATOM     12  C   UNL A   1      33.129  30.769  27.222  1.00  0.00     0.074 A 
ATOM     13  C   UNL A   1      35.362  30.547  28.101  1.00  0.00     0.065 A 
ATOM     14  C   UNL A   1      33.273  29.544  26.556  1.00  0.00     0.130 A 
ATOM     15  C   UNL A   1      35.541  29.383  27.352  1.00  0.00     0.034 A 
ATOM     16  Cl  UNL A   1      36.641  30.938  29.202  1.00  0.00    -0.082 Cl
ATOM     17  C   UNL A   1      34.491  28.872  26.597  1.00  0.00     0.019 A 
ATOM     18  O   UNL A   1      32.187  29.057  25.878  1.00  0.00    -0.475 OA
ATOM     19  C   UNL A   1      34.658  27.602  25.921  1.00  0.00     0.027 C 
ATOM     20  C   UNL A   1      32.187  27.638  25.509  1.00  0.00     0.316 C 
BRANCH  11  21
ATOM     21  N   UNL A   1      34.002  32.497  28.725  1.00  0.00    -0.373 N 
ATOM     22  C   UNL A   1      33.932  33.703  27.905  1.00  0.00     0.143 C 
BRANCH  21  23
ATOM     23  C   UNL A   1      34.621  32.621  30.060  1.00  0.00     0.119 C 
BRANCH  23  24
ATOM     24  C   UNL A   1      35.131  34.050  30.349  1.00  0.00     0.002 C 
ATOM     25  C   UNL A   1      34.267  34.767  31.389  1.00  0.00     0.009 C 
ATOM     26  C   UNL A   1      36.585  34.053  30.828  1.00  0.00     0.009 C 
ENDBRANCH  23  24
ENDBRANCH  21  23
ENDBRANCH  11  21
BRANCH  20  27
ATOM     27  C   UNL A   1      31.249  26.849  26.432  1.00  0.00     0.430 C 
ATOM     28  F   UNL A   1      31.036  27.498  27.601  1.00  0.00    -0.167 F 
ATOM     29  F   UNL A   1      30.038  26.653  25.860  1.00  0.00    -0.167 F 
ATOM     30  F   UNL A   1      31.753  25.628  26.732  1.00  0.00    -0.167 F 
ENDBRANCH  20  27
ENDBRANCH   8  10
ENDBRANCH   7   8
ENDBRANCH   6   7
ENDBRANCH   5   6
ENDBRANCH   4   5
ENDBRANCH   3   4
ENDBRANCH   2   3
ENDBRANCH   1   2
BRANCH   1  31
ATOM     31  C   UNL A   1      37.529  22.274  25.457  1.00  0.00     0.188 C 
BRANCH  31  32
ATOM     32  C   UNL A   1      38.698  21.309  25.766  1.00  0.00     0.188 C 
BRANCH  32  33
ATOM     33  O   UNL A   1      39.602  21.788  26.759  1.00  0.00    -0.376 OA
BRANCH  33  34
ATOM     34  C   UNL A   1      40.683  22.592  26.308  1.00  0.00     0.202 C 
BRANCH  34  35
ATOM     35  C   UNL A   1      40.622  24.051  26.777  1.00  0.00     0.261 C 
BRANCH  35  36
ATOM     36  O   UNL A   1      41.889  24.714  26.893  1.00  0.00    -0.460 OA
BRANCH  36  37
ATOM     37  C   UNL A   1      42.147  25.742  26.052  1.00  0.00     0.338 C 
ATOM     38  O   UNL A   1      42.091  25.720  24.834  1.00  0.00    -0.246 OA
BRANCH  37  39
ATOM     39  C   UNL A   1      42.301  26.956  26.880  1.00  0.00     0.060 A 
ATOM     40  C   UNL A   1      43.058  26.913  28.055  1.00  0.00     0.016 A 
ATOM     41  C   UNL A   1      41.643  28.134  26.504  1.00  0.00     0.016 A 
ATOM     42  C   UNL A   1      43.179  28.060  28.839  1.00  0.00     0.010 A 
ATOM     43  C   UNL A   1      41.762  29.282  27.294  1.00  0.00     0.010 A 
ATOM     44  C   UNL A   1      42.551  29.259  28.453  1.00  0.00    -0.014 A 
BRANCH  44  45
ATOM     45  C   UNL A   1      42.909  30.520  29.147  1.00  0.00     0.031 A 
ATOM     46  C   UNL A   1      44.021  31.409  28.681  1.00  0.00     0.074 A 
ATOM     47  C   UNL A   1      42.189  30.850  30.236  1.00  0.00     0.049 A 
ATOM     48  N   UNL A   1      44.363  32.588  29.134  1.00  0.00    -0.248 NA
ATOM     49  C   UNL A   1      44.858  30.920  27.577  1.00  0.00     0.031 C 
ATOM     50  C   UNL A   1      41.112  30.029  30.794  1.00  0.00     0.029 A 
ATOM     51  N   UNL A   1      42.239  31.944  31.061  1.00  0.00    -0.354 N 
ATOM     52  C   UNL A   1      45.442  32.999  28.360  1.00  0.00     0.074 A 
ATOM     53  C   UNL A   1      45.726  31.916  27.438  1.00  0.00     0.031 C 
ATOM     54  C   UNL A   1      40.588  30.657  31.854  1.00  0.00     0.029 A 
ATOM     55  C   UNL A   1      41.308  31.911  32.073  1.00  0.00     0.049 A 
ATOM     56  H   UNL A   1      42.879  32.682  30.941  1.00  0.00     0.167 HD
ATOM     57  C   UNL A   1      46.110  34.177  28.409  1.00  0.00     0.034 A 
ATOM     58  C   UNL A   1      41.051  32.787  33.064  1.00  0.00     0.034 A 
ATOM     59  C   UNL A   1      45.813  35.233  29.350  1.00  0.00     0.049 A 
ATOM     60  C   UNL A   1      41.824  34.080  33.108  1.00  0.00     0.074 A 
ATOM     61  C   UNL A   1      46.397  36.485  29.435  1.00  0.00     0.029 A 
ATOM     62  N   UNL A   1      44.873  35.165  30.368  1.00  0.00    -0.354 N 
ATOM     63  N   UNL A   1      42.754  34.509  32.288  1.00  0.00    -0.248 NA
ATOM     64  C   UNL A   1      41.503  35.018  34.192  1.00  0.00     0.031 C 
ATOM     65  C   UNL A   1      45.869  37.141  30.547  1.00  0.00     0.029 A 
ATOM     66  C   UNL A   1      44.890  36.338  31.109  1.00  0.00     0.049 A 
ATOM     67  H   UNL A   1      44.280  34.398  30.540  1.00  0.00     0.167 HD
ATOM     68  C   UNL A   1      43.112  35.775  32.742  1.00  0.00     0.074 A 
ATOM     69  C   UNL A   1      42.277  36.053  33.892  1.00  0.00     0.031 C 
ATOM     70  C   UNL A   1      44.050  36.623  32.250  1.00  0.00     0.034 A 
BRANCH  57  71
ATOM     71  C   UNL A   1      47.215  34.436  27.412  1.00  0.00     0.023 A 
ATOM     72  C   UNL A   1      48.544  34.082  27.717  1.00  0.00     0.031 A 
ATOM     73  C   UNL A   1      46.981  35.198  26.253  1.00  0.00     0.131 A 
ATOM     74  C   UNL A   1      49.590  34.530  26.899  1.00  0.00     0.055 A 
ATOM     75  C   UNL A   1      48.023  35.605  25.419  1.00  0.00     0.041 A 
ATOM     76  F   UNL A   1      45.734  35.571  25.923  1.00  0.00    -0.206 F 
ATOM     77  C   UNL A   1      49.337  35.285  25.749  1.00  0.00     0.022 A 
BRANCH  74  78
ATOM     78  S   UNL A   1      51.324  34.224  27.339  1.00  0.00     0.124 S 
ATOM     79  O   UNL A   1      51.585  32.955  26.663  1.00  0.00    -0.237 OA
ATOM     80  O   UNL A   1      51.995  35.386  26.764  1.00  0.00    -0.237 OA
ATOM     81  O   UNL A   1      51.311  34.158  28.796  1.00  0.00    -0.744 OA
ENDBRANCH  74  78
ENDBRANCH  57  71
BRANCH  58  82
ATOM     82  C   UNL A   1      39.962  32.480  34.034  1.00  0.00     0.023 A 
ATOM     83  C   UNL A   1      38.666  32.999  33.852  1.00  0.00     0.031 A 
ATOM     84  C   UNL A   1      40.229  31.771  35.216  1.00  0.00     0.131 A 
ATOM     85  C   UNL A   1      37.712  32.865  34.868  1.00  0.00     0.055 A 
ATOM     86  C   UNL A   1      39.250  31.573  36.193  1.00  0.00     0.041 A 
ATOM     87  F   UNL A   1      41.454  31.273  35.446  1.00  0.00    -0.206 F 
ATOM     88  C   UNL A   1      37.990  32.138  36.028  1.00  0.00     0.022 A 
BRANCH  85  89
ATOM     89  S   UNL A   1      36.132  33.753  34.780  1.00  0.00     0.124 S 
ATOM     90  O   UNL A   1      35.310  32.835  33.998  1.00  0.00    -0.237 OA
ATOM     91  O   UNL A   1      35.779  33.870  36.193  1.00  0.00    -0.237 OA
ATOM     92  O   UNL A   1      36.479  35.009  34.123  1.00  0.00    -0.744 OA
ENDBRANCH  85  89
ENDBRANCH  58  82
BRANCH  70  93
ATOM     93  C   UNL A   1      44.256  37.955  32.936  1.00  0.00     0.023 A 
ATOM     94  C   UNL A   1      43.448  39.058  32.591  1.00  0.00     0.031 A 
ATOM     95  C   UNL A   1      45.339  38.175  33.804  1.00  0.00     0.131 A 
ATOM     96  C   UNL A   1      43.766  40.335  33.072  1.00  0.00     0.055 A 
ATOM     97  C   UNL A   1      45.619  39.439  34.324  1.00  0.00     0.041 A 
ATOM     98  F   UNL A   1      46.146  37.160  34.157  1.00  0.00    -0.206 F 
ATOM     99  C   UNL A   1      44.841  40.529  33.945  1.00  0.00     0.022 A 
BRANCH  96 100
ATOM    100  S   UNL A   1      42.859  41.802  32.508  1.00  0.00     0.124 S 
ATOM    101  O   UNL A   1      43.832  42.436  31.621  1.00  0.00    -0.237 OA
ATOM    102  O   UNL A   1      41.702  41.210  31.843  1.00  0.00    -0.237 OA
ATOM    103  O   UNL A   1      42.572  42.533  33.738  1.00  0.00    -0.744 OA
ENDBRANCH  96 100
ENDBRANCH  70  93
ENDBRANCH  44  45
ENDBRANCH  37  39
ENDBRANCH  36  37
ENDBRANCH  35  36
ENDBRANCH  34  35
ENDBRANCH  33  34
ENDBRANCH  32  33
ENDBRANCH  31  32
ENDBRANCH   1  31
TORSDOF 27
ENDMDL
