MODEL 1
REMARK VINA RESULT:      -8.3      0.000      0.000
REMARK SMILES CCc1cc(OC(F)(F)F)cc2c1O[C@H](C(F)(F)F)C(C(=O)OCCOCCOCCOCCOC(=O)c1ccc(-c3c4nc(c(-c5cc(S(=O)(=O)[O-])ccc5F)c5ccc([nH]5)c(-c5cc(S(=O)(=O)[O-])ccc5F)c5nc(c(-c6cc(S(=O)(=O)[O-])ccc6F)c6ccc3[nH]6)C=C5)C=C4)cc1)=C2
REMARK SMILES IDX 30 1 29 2 28 3 27 4 26 5 25 6 24 7 23 8 21 9 22 10 20 11
REMARK SMILES IDX 3 12 4 13 13 14 5 15 12 16 14 17 11 18 101 19 15 20 2 21
REMARK SMILES IDX 1 22 6 23 7 24 8 25 9 26 10 27 16 28 17 29 18 30 19 31 31 32
REMARK SMILES IDX 32 33 33 34 34 35 35 36 36 37 37 38 38 39 39 40 100 41 40 42
REMARK SMILES IDX 99 43 41 44 42 45 43 46 93 47 44 48 98 49 92 50 94 51 45 52
REMARK SMILES IDX 97 53 91 54 90 55 46 57 78 58 58 59 77 60 59 61 62 62 76 63
REMARK SMILES IDX 95 64 60 65 61 66 75 68 96 69 63 70 47 71 48 72 56 73 49 74
REMARK SMILES IDX 55 75 57 76 54 77 50 78 51 79 52 80 53 81 79 82 80 83 88 84
REMARK SMILES IDX 81 85 87 86 89 87 86 88 82 89 83 90 84 91 85 92 64 93 65 94
REMARK SMILES IDX 73 95 66 96 72 97 74 98 71 99 67 100 68 101 69 102 70 103
REMARK H PARENT 94 56 62 67
REMARK Flexibility Score: inf
ROOT
ATOM      1  C   UNL A   1      42.552  18.777  26.537  1.00  0.00     0.188 C 
ENDROOT
BRANCH   1   2
ATOM      2  O   UNL A   1      43.147  18.733  25.246  1.00  0.00    -0.377 OA
BRANCH   2   3
ATOM      3  C   UNL A   1      44.560  18.683  25.127  1.00  0.00     0.188 C 
BRANCH   3   4
ATOM      4  C   UNL A   1      45.292  19.583  24.102  1.00  0.00     0.188 C 
BRANCH   4   5
ATOM      5  O   UNL A   1      44.737  20.875  23.959  1.00  0.00    -0.376 OA
BRANCH   5   6
ATOM      6  C   UNL A   1      44.724  21.743  25.072  1.00  0.00     0.202 C 
BRANCH   6   7
ATOM      7  C   UNL A   1      45.470  23.085  24.997  1.00  0.00     0.261 C 
BRANCH   7   8
ATOM      8  O   UNL A   1      46.551  23.284  25.918  1.00  0.00    -0.460 OA
BRANCH   8   9
ATOM      9  C   UNL A   1      46.612  24.461  26.574  1.00  0.00     0.338 C 
ATOM     10  O   UNL A   1      46.131  24.701  27.670  1.00  0.00    -0.246 OA
BRANCH   9  11
ATOM     11  C   UNL A   1      47.481  25.410  25.846  1.00  0.00     0.087 C 
ATOM     12  C   UNL A   1      49.838  27.320  23.022  1.00  0.00    -0.002 A 
ATOM     13  C   UNL A   1      51.143  27.704  23.364  1.00  0.00     0.054 A 
ATOM     14  C   UNL A   1      49.095  26.595  23.954  1.00  0.00     0.131 A 
ATOM     15  C   UNL A   1      51.687  27.376  24.612  1.00  0.00     0.130 A 
ATOM     16  C   UNL A   1      49.606  26.303  25.231  1.00  0.00     0.021 A 
ATOM     17  O   UNL A   1      47.854  26.147  23.566  1.00  0.00    -0.475 OA
ATOM     18  C   UNL A   1      50.902  26.702  25.555  1.00  0.00     0.058 A 
ATOM     19  C   UNL A   1      48.784  25.522  26.153  1.00  0.00     0.027 C 
ATOM     20  C   UNL A   1      46.896  26.131  24.653  1.00  0.00     0.316 C 
BRANCH  12  21
ATOM     21  C   UNL A   1      49.255  27.707  21.685  1.00  0.00     0.036 C 
ATOM     22  C   UNL A   1      50.068  28.793  21.002  1.00  0.00     0.009 C 
ENDBRANCH  12  21
BRANCH  15  23
ATOM     23  O   UNL A   1      52.958  27.665  25.025  1.00  0.00    -0.406 OA
BRANCH  23  24
ATOM     24  C   UNL A   1      53.131  28.838  25.802  1.00  0.00     0.573 C 
ATOM     25  F   UNL A   1      52.036  29.628  25.758  1.00  0.00    -0.132 F 
ATOM     26  F   UNL A   1      53.406  28.528  27.090  1.00  0.00    -0.132 F 
ATOM     27  F   UNL A   1      54.174  29.542  25.311  1.00  0.00    -0.132 F 
ENDBRANCH  23  24
ENDBRANCH  15  23
BRANCH  20  28
ATOM     28  C   UNL A   1      46.389  27.575  24.889  1.00  0.00     0.430 C 
ATOM     29  F   UNL A   1      45.042  27.655  24.890  1.00  0.00    -0.167 F 
ATOM     30  F   UNL A   1      46.818  28.115  26.053  1.00  0.00    -0.167 F 
ATOM     31  F   UNL A   1      46.812  28.399  23.895  1.00  0.00    -0.167 F 
ENDBRANCH  20  28
ENDBRANCH   9  11
ENDBRANCH   8   9
ENDBRANCH   7   8
ENDBRANCH   6   7
ENDBRANCH   5   6
ENDBRANCH   4   5
ENDBRANCH   3   4
ENDBRANCH   2   3
ENDBRANCH   1   2
BRANCH   1  32
ATOM     32  C   UNL A   1      41.349  19.712  26.805  1.00  0.00     0.188 C 
BRANCH  32  33
ATOM     33  O   UNL A   1      41.427  20.975  26.166  1.00  0.00    -0.376 OA
BRANCH  33  34
ATOM     34  C   UNL A   1      41.006  22.117  26.887  1.00  0.00     0.202 C 
BRANCH  34  35
ATOM     35  C   UNL A   1      42.023  23.247  27.098  1.00  0.00     0.261 C 
BRANCH  35  36
ATOM     36  O   UNL A   1      41.573  24.577  26.801  1.00  0.00    -0.460 OA
BRANCH  36  37
ATOM     37  C   UNL A   1      42.328  25.318  25.952  1.00  0.00     0.338 C 
ATOM     38  O   UNL A   1      42.663  25.025  24.829  1.00  0.00    -0.246 OA
BRANCH  37  39
ATOM     39  C   UNL A   1      42.491  26.647  26.590  1.00  0.00     0.060 A 
ATOM     40  C   UNL A   1      43.237  26.755  27.772  1.00  0.00     0.016 A 
ATOM     41  C   UNL A   1      41.975  27.788  25.973  1.00  0.00     0.016 A 
ATOM     42  C   UNL A   1      43.486  28.013  28.328  1.00  0.00     0.010 A 
ATOM     43  C   UNL A   1      42.194  29.041  26.550  1.00  0.00     0.010 A 
ATOM     44  C   UNL A   1      42.945  29.160  27.732  1.00  0.00    -0.014 A 
BRANCH  44  45
ATOM     45  C   UNL A   1      43.037  30.474  28.416  1.00  0.00     0.031 A 
ATOM     46  C   UNL A   1      44.187  31.377  28.072  1.00  0.00     0.074 A 
ATOM     47  C   UNL A   1      42.124  30.850  29.329  1.00  0.00     0.049 A 
ATOM     48  N   UNL A   1      44.535  32.518  28.603  1.00  0.00    -0.248 NA
ATOM     49  C   UNL A   1      45.064  30.922  26.982  1.00  0.00     0.031 C 
ATOM     50  C   UNL A   1      40.938  30.083  29.704  1.00  0.00     0.029 A 
ATOM     51  N   UNL A   1      42.063  31.972  30.120  1.00  0.00    -0.354 N 
ATOM     52  C   UNL A   1      45.675  32.921  27.917  1.00  0.00     0.074 A 
ATOM     53  C   UNL A   1      45.975  31.883  26.954  1.00  0.00     0.031 C 
ATOM     54  C   UNL A   1      40.274  30.749  30.665  1.00  0.00     0.029 A 
ATOM     55  C   UNL A   1      41.014  31.963  31.010  1.00  0.00     0.049 A 
ATOM     56  H   UNL A   1      42.709  32.712  30.054  1.00  0.00     0.167 HD
ATOM     57  C   UNL A   1      46.401  34.055  28.076  1.00  0.00     0.034 A 
ATOM     58  C   UNL A   1      40.711  32.817  32.011  1.00  0.00     0.034 A 
ATOM     59  C   UNL A   1      46.100  35.066  29.059  1.00  0.00     0.049 A 
ATOM     60  C   UNL A   1      41.605  34.013  32.249  1.00  0.00     0.074 A 
ATOM     61  C   UNL A   1      46.760  36.260  29.295  1.00  0.00     0.029 A 
ATOM     62  N   UNL A   1      45.066  34.995  29.985  1.00  0.00    -0.354 N 
ATOM     63  N   UNL A   1      42.674  34.393  31.585  1.00  0.00    -0.248 NA
ATOM     64  C   UNL A   1      41.253  34.892  33.372  1.00  0.00     0.031 C 
ATOM     65  C   UNL A   1      46.183  36.864  30.416  1.00  0.00     0.029 A 
ATOM     66  C   UNL A   1      45.102  36.098  30.824  1.00  0.00     0.049 A 
ATOM     67  H   UNL A   1      44.405  34.267  30.037  1.00  0.00     0.167 HD
ATOM     68  C   UNL A   1      43.103  35.570  32.197  1.00  0.00     0.074 A 
ATOM     69  C   UNL A   1      42.166  35.847  33.265  1.00  0.00     0.031 C 
ATOM     70  C   UNL A   1      44.173  36.353  31.901  1.00  0.00     0.034 A 
BRANCH  57  71
ATOM     71  C   UNL A   1      47.623  34.223  27.208  1.00  0.00     0.023 A 
ATOM     72  C   UNL A   1      48.888  33.761  27.610  1.00  0.00     0.031 A 
ATOM     73  C   UNL A   1      47.526  34.876  25.967  1.00  0.00     0.131 A 
ATOM     74  C   UNL A   1      50.014  34.018  26.813  1.00  0.00     0.055 A 
ATOM     75  C   UNL A   1      48.636  35.056  25.139  1.00  0.00     0.041 A 
ATOM     76  F   UNL A   1      46.349  35.364  25.541  1.00  0.00    -0.206 F 
ATOM     77  C   UNL A   1      49.892  34.638  25.568  1.00  0.00     0.022 A 
BRANCH  74  78
ATOM     78  S   UNL A   1      51.657  33.663  27.493  1.00  0.00     0.124 S 
ATOM     79  O   UNL A   1      52.358  33.147  26.320  1.00  0.00    -0.237 OA
ATOM     80  O   UNL A   1      52.090  34.971  27.972  1.00  0.00    -0.237 OA
ATOM     81  O   UNL A   1      51.390  32.674  28.535  1.00  0.00    -0.744 OA
ENDBRANCH  74  78
ENDBRANCH  57  71
BRANCH  58  82
ATOM     82  C   UNL A   1      39.548  32.552  32.909  1.00  0.00     0.023 A 
ATOM     83  C   UNL A   1      38.295  33.139  32.671  1.00  0.00     0.031 A 
ATOM     84  C   UNL A   1      39.693  31.762  34.065  1.00  0.00     0.131 A 
ATOM     85  C   UNL A   1      37.253  32.968  33.596  1.00  0.00     0.055 A 
ATOM     86  C   UNL A   1      38.635  31.544  34.950  1.00  0.00     0.041 A 
ATOM     87  F   UNL A   1      40.871  31.185  34.351  1.00  0.00    -0.206 F 
ATOM     88  C   UNL A   1      37.409  32.160  34.724  1.00  0.00     0.022 A 
BRANCH  85  89
ATOM     89  S   UNL A   1      35.714  33.897  33.353  1.00  0.00     0.124 S 
ATOM     90  O   UNL A   1      35.994  35.128  34.084  1.00  0.00    -0.237 OA
ATOM     91  O   UNL A   1      35.656  34.013  31.900  1.00  0.00    -0.237 OA
ATOM     92  O   UNL A   1      34.697  33.032  33.948  1.00  0.00    -0.744 OA
ENDBRANCH  85  89
ENDBRANCH  58  82
BRANCH  70  93
ATOM     93  C   UNL A   1      44.365  37.603  32.729  1.00  0.00     0.023 A 
ATOM     94  C   UNL A   1      43.559  38.741  32.549  1.00  0.00     0.031 A 
ATOM     95  C   UNL A   1      45.370  37.657  33.711  1.00  0.00     0.131 A 
ATOM     96  C   UNL A   1      43.809  39.903  33.296  1.00  0.00     0.055 A 
ATOM     97  C   UNL A   1      45.570  38.791  34.500  1.00  0.00     0.041 A 
ATOM     98  F   UNL A   1      46.174  36.604  33.926  1.00  0.00    -0.206 F 
ATOM     99  C   UNL A   1      44.795  39.928  34.285  1.00  0.00     0.022 A 
BRANCH  96 100
ATOM    100  S   UNL A   1      42.895  41.415  32.889  1.00  0.00     0.124 S 
ATOM    101  O   UNL A   1      43.972  42.385  32.723  1.00  0.00    -0.237 OA
ATOM    102  O   UNL A   1      42.187  41.035  31.670  1.00  0.00    -0.237 OA
ATOM    103  O   UNL A   1      42.044  41.627  34.059  1.00  0.00    -0.744 OA
ENDBRANCH  96 100
ENDBRANCH  70  93
ENDBRANCH  44  45
ENDBRANCH  37  39
ENDBRANCH  36  37
ENDBRANCH  35  36
ENDBRANCH  34  35
ENDBRANCH  33  34
ENDBRANCH  32  33
ENDBRANCH   1  32
TORSDOF 27
ENDMDL
MODEL 2
REMARK VINA RESULT:      -7.7      1.984      2.333
REMARK SMILES CCc1cc(OC(F)(F)F)cc2c1O[C@H](C(F)(F)F)C(C(=O)OCCOCCOCCOCCOC(=O)c1ccc(-c3c4nc(c(-c5cc(S(=O)(=O)[O-])ccc5F)c5ccc([nH]5)c(-c5cc(S(=O)(=O)[O-])ccc5F)c5nc(c(-c6cc(S(=O)(=O)[O-])ccc6F)c6ccc3[nH]6)C=C5)C=C4)cc1)=C2
REMARK SMILES IDX 30 1 29 2 28 3 27 4 26 5 25 6 24 7 23 8 21 9 22 10 20 11
REMARK SMILES IDX 3 12 4 13 13 14 5 15 12 16 14 17 11 18 101 19 15 20 2 21
REMARK SMILES IDX 1 22 6 23 7 24 8 25 9 26 10 27 16 28 17 29 18 30 19 31 31 32
REMARK SMILES IDX 32 33 33 34 34 35 35 36 36 37 37 38 38 39 39 40 100 41 40 42
REMARK SMILES IDX 99 43 41 44 42 45 43 46 93 47 44 48 98 49 92 50 94 51 45 52
REMARK SMILES IDX 97 53 91 54 90 55 46 57 78 58 58 59 77 60 59 61 62 62 76 63
REMARK SMILES IDX 95 64 60 65 61 66 75 68 96 69 63 70 47 71 48 72 56 73 49 74
REMARK SMILES IDX 55 75 57 76 54 77 50 78 51 79 52 80 53 81 79 82 80 83 88 84
REMARK SMILES IDX 81 85 87 86 89 87 86 88 82 89 83 90 84 91 85 92 64 93 65 94
REMARK SMILES IDX 73 95 66 96 72 97 74 98 71 99 67 100 68 101 69 102 70 103
REMARK H PARENT 94 56 62 67
REMARK Flexibility Score: inf
ROOT
ATOM      1  C   UNL A   1      42.961  18.790  25.927  1.00  0.00     0.188 C 
ENDROOT
BRANCH   1   2
ATOM      2  O   UNL A   1      43.972  18.998  24.948  1.00  0.00    -0.377 OA
BRANCH   2   3
ATOM      3  C   UNL A   1      45.333  18.800  25.293  1.00  0.00     0.188 C 
BRANCH   3   4
ATOM      4  C   UNL A   1      46.414  19.805  24.826  1.00  0.00     0.188 C 
BRANCH   4   5
ATOM      5  O   UNL A   1      45.910  21.070  24.448  1.00  0.00    -0.376 OA
BRANCH   5   6
ATOM      6  C   UNL A   1      45.233  21.854  25.408  1.00  0.00     0.202 C 
BRANCH   6   7
ATOM      7  C   UNL A   1      45.781  23.240  25.779  1.00  0.00     0.261 C 
BRANCH   7   8
ATOM      8  O   UNL A   1      46.711  23.305  26.870  1.00  0.00    -0.460 OA
BRANCH   8   9
ATOM      9  C   UNL A   1      46.976  24.516  27.401  1.00  0.00     0.338 C 
ATOM     10  O   UNL A   1      46.741  24.868  28.546  1.00  0.00    -0.246 OA
BRANCH   9  11
ATOM     11  C   UNL A   1      47.738  25.343  26.440  1.00  0.00     0.087 C 
ATOM     12  C   UNL A   1      49.694  26.809  23.094  1.00  0.00    -0.002 A 
ATOM     13  C   UNL A   1      51.032  27.215  23.205  1.00  0.00     0.054 A 
ATOM     14  C   UNL A   1      49.083  26.230  24.207  1.00  0.00     0.131 A 
ATOM     15  C   UNL A   1      51.737  27.055  24.404  1.00  0.00     0.130 A 
ATOM     16  C   UNL A   1      49.760  26.110  25.433  1.00  0.00     0.021 A 
ATOM     17  O   UNL A   1      47.803  25.752  24.051  1.00  0.00    -0.475 OA
ATOM     18  C   UNL A   1      51.086  26.530  25.526  1.00  0.00     0.058 A 
ATOM     19  C   UNL A   1      49.070  25.475  26.555  1.00  0.00     0.027 C 
ATOM     20  C   UNL A   1      46.998  25.901  25.246  1.00  0.00     0.316 C 
BRANCH  12  21
ATOM     21  C   UNL A   1      48.939  27.016  21.805  1.00  0.00     0.036 C 
ATOM     22  C   UNL A   1      49.084  28.434  21.280  1.00  0.00     0.009 C 
ENDBRANCH  12  21
BRANCH  15  23
ATOM     23  O   UNL A   1      53.051  27.378  24.602  1.00  0.00    -0.406 OA
BRANCH  23  24
ATOM     24  C   UNL A   1      53.985  26.312  24.583  1.00  0.00     0.573 C 
ATOM     25  F   UNL A   1      54.256  25.868  25.831  1.00  0.00    -0.132 F 
ATOM     26  F   UNL A   1      53.530  25.283  23.833  1.00  0.00    -0.132 F 
ATOM     27  F   UNL A   1      55.141  26.748  24.036  1.00  0.00    -0.132 F 
ENDBRANCH  23  24
ENDBRANCH  15  23
BRANCH  20  28
ATOM     28  C   UNL A   1      46.522  27.371  25.344  1.00  0.00     0.430 C 
ATOM     29  F   UNL A   1      45.540  27.656  24.464  1.00  0.00    -0.167 F 
ATOM     30  F   UNL A   1      46.064  27.711  26.571  1.00  0.00    -0.167 F 
ATOM     31  F   UNL A   1      47.541  28.223  25.056  1.00  0.00    -0.167 F 
ENDBRANCH  20  28
ENDBRANCH   9  11
ENDBRANCH   8   9
ENDBRANCH   7   8
ENDBRANCH   6   7
ENDBRANCH   5   6
ENDBRANCH   4   5
ENDBRANCH   3   4
ENDBRANCH   2   3
ENDBRANCH   1   2
BRANCH   1  32
ATOM     32  C   UNL A   1      41.742  19.740  25.998  1.00  0.00     0.188 C 
BRANCH  32  33
ATOM     33  O   UNL A   1      42.040  21.104  25.750  1.00  0.00    -0.376 OA
BRANCH  33  34
ATOM     34  C   UNL A   1      41.184  22.085  26.303  1.00  0.00     0.202 C 
BRANCH  34  35
ATOM     35  C   UNL A   1      41.825  23.365  26.858  1.00  0.00     0.261 C 
BRANCH  35  36
ATOM     36  O   UNL A   1      41.567  24.577  26.135  1.00  0.00    -0.460 OA
BRANCH  36  37
ATOM     37  C   UNL A   1      42.632  25.234  25.612  1.00  0.00     0.338 C 
ATOM     38  O   UNL A   1      43.260  24.936  24.624  1.00  0.00    -0.246 OA
BRANCH  37  39
ATOM     39  C   UNL A   1      42.751  26.504  26.369  1.00  0.00     0.060 A 
ATOM     40  C   UNL A   1      43.219  26.476  27.690  1.00  0.00     0.016 A 
ATOM     41  C   UNL A   1      42.477  27.721  25.742  1.00  0.00     0.016 A 
ATOM     42  C   UNL A   1      43.435  27.672  28.380  1.00  0.00     0.010 A 
ATOM     43  C   UNL A   1      42.658  28.914  26.446  1.00  0.00     0.010 A 
ATOM     44  C   UNL A   1      43.132  28.896  27.769  1.00  0.00    -0.014 A 
BRANCH  44  45
ATOM     45  C   UNL A   1      43.171  30.155  28.553  1.00  0.00     0.031 A 
ATOM     46  C   UNL A   1      44.447  30.946  28.569  1.00  0.00     0.074 A 
ATOM     47  C   UNL A   1      42.098  30.579  29.246  1.00  0.00     0.049 A 
ATOM     48  N   UNL A   1      44.755  32.015  29.254  1.00  0.00    -0.248 NA
ATOM     49  C   UNL A   1      45.522  30.457  27.691  1.00  0.00     0.031 C 
ATOM     50  C   UNL A   1      40.791  29.924  29.262  1.00  0.00     0.029 A 
ATOM     51  N   UNL A   1      41.945  31.658  30.081  1.00  0.00    -0.354 N 
ATOM     52  C   UNL A   1      46.061  32.329  28.897  1.00  0.00     0.074 A 
ATOM     53  C   UNL A   1      46.496  31.315  27.958  1.00  0.00     0.031 C 
ATOM     54  C   UNL A   1      39.973  30.607  30.082  1.00  0.00     0.029 A 
ATOM     55  C   UNL A   1      40.711  31.716  30.688  1.00  0.00     0.049 A 
ATOM     56  H   UNL A   1      42.651  32.327  30.231  1.00  0.00     0.167 HD
ATOM     57  C   UNL A   1      46.825  33.368  29.312  1.00  0.00     0.034 A 
ATOM     58  C   UNL A   1      40.249  32.543  31.648  1.00  0.00     0.034 A 
ATOM     59  C   UNL A   1      46.383  34.353  30.269  1.00  0.00     0.049 A 
ATOM     60  C   UNL A   1      41.161  33.623  32.187  1.00  0.00     0.074 A 
ATOM     61  C   UNL A   1      47.070  35.455  30.748  1.00  0.00     0.029 A 
ATOM     62  N   UNL A   1      45.150  34.345  30.909  1.00  0.00    -0.354 N 
ATOM     63  N   UNL A   1      42.391  33.921  31.832  1.00  0.00    -0.248 NA
ATOM     64  C   UNL A   1      40.623  34.475  33.255  1.00  0.00     0.031 C 
ATOM     65  C   UNL A   1      46.290  36.059  31.739  1.00  0.00     0.029 A 
ATOM     66  C   UNL A   1      45.077  35.393  31.814  1.00  0.00     0.049 A 
ATOM     67  H   UNL A   1      44.433  33.691  30.744  1.00  0.00     0.167 HD
ATOM     68  C   UNL A   1      42.760  35.011  32.618  1.00  0.00     0.074 A 
ATOM     69  C   UNL A   1      41.616  35.331  33.446  1.00  0.00     0.031 C 
ATOM     70  C   UNL A   1      43.936  35.689  32.650  1.00  0.00     0.034 A 
BRANCH  57  71
ATOM     71  C   UNL A   1      48.235  33.449  28.781  1.00  0.00     0.023 A 
ATOM     72  C   UNL A   1      48.544  34.141  27.597  1.00  0.00     0.031 A 
ATOM     73  C   UNL A   1      49.285  32.802  29.457  1.00  0.00     0.131 A 
ATOM     74  C   UNL A   1      49.852  34.114  27.091  1.00  0.00     0.055 A 
ATOM     75  C   UNL A   1      50.600  32.848  28.993  1.00  0.00     0.041 A 
ATOM     76  F   UNL A   1      49.046  32.102  30.578  1.00  0.00    -0.206 F 
ATOM     77  C   UNL A   1      50.887  33.496  27.795  1.00  0.00     0.022 A 
BRANCH  74  78
ATOM     78  S   UNL A   1      50.151  34.772  25.428  1.00  0.00     0.124 S 
ATOM     79  O   UNL A   1      51.046  35.892  25.709  1.00  0.00    -0.237 OA
ATOM     80  O   UNL A   1      50.750  33.633  24.741  1.00  0.00    -0.237 OA
ATOM     81  O   UNL A   1      48.819  35.150  24.964  1.00  0.00    -0.744 OA
ENDBRANCH  74  78
ENDBRANCH  57  71
BRANCH  58  82
ATOM     82  C   UNL A   1      38.880  32.358  32.216  1.00  0.00     0.023 A 
ATOM     83  C   UNL A   1      37.761  32.973  31.633  1.00  0.00     0.031 A 
ATOM     84  C   UNL A   1      38.681  31.619  33.398  1.00  0.00     0.131 A 
ATOM     85  C   UNL A   1      36.505  32.878  32.254  1.00  0.00     0.055 A 
ATOM     86  C   UNL A   1      37.420  31.477  33.979  1.00  0.00     0.041 A 
ATOM     87  F   UNL A   1      39.717  31.020  34.007  1.00  0.00    -0.206 F 
ATOM     88  C   UNL A   1      36.324  32.120  33.413  1.00  0.00     0.022 A 
BRANCH  85  89
ATOM     89  S   UNL A   1      35.126  33.843  31.578  1.00  0.00     0.124 S 
ATOM     90  O   UNL A   1      34.012  32.913  31.729  1.00  0.00    -0.237 OA
ATOM     91  O   UNL A   1      35.113  35.009  32.455  1.00  0.00    -0.237 OA
ATOM     92  O   UNL A   1      35.539  34.107  30.201  1.00  0.00    -0.744 OA
ENDBRANCH  85  89
ENDBRANCH  58  82
BRANCH  70  93
ATOM     93  C   UNL A   1      44.030  36.867  33.594  1.00  0.00     0.023 A 
ATOM     94  C   UNL A   1      44.361  36.703  34.951  1.00  0.00     0.031 A 
ATOM     95  C   UNL A   1      43.782  38.171  33.130  1.00  0.00     0.131 A 
ATOM     96  C   UNL A   1      44.378  37.815  35.807  1.00  0.00     0.055 A 
ATOM     97  C   UNL A   1      43.869  39.282  33.970  1.00  0.00     0.041 A 
ATOM     98  F   UNL A   1      43.457  38.390  31.846  1.00  0.00    -0.206 F 
ATOM     99  C   UNL A   1      44.155  39.106  35.321  1.00  0.00     0.022 A 
BRANCH  96 100
ATOM    100  S   UNL A   1      44.597  37.541  37.586  1.00  0.00     0.124 S 
ATOM    101  O   UNL A   1      43.348  36.879  37.947  1.00  0.00    -0.237 OA
ATOM    102  O   UNL A   1      45.795  36.709  37.630  1.00  0.00    -0.237 OA
ATOM    103  O   UNL A   1      44.760  38.892  38.124  1.00  0.00    -0.744 OA
ENDBRANCH  96 100
ENDBRANCH  70  93
ENDBRANCH  44  45
ENDBRANCH  37  39
ENDBRANCH  36  37
ENDBRANCH  35  36
ENDBRANCH  34  35
ENDBRANCH  33  34
ENDBRANCH  32  33
ENDBRANCH   1  32
TORSDOF 27
ENDMDL
MODEL 3
REMARK VINA RESULT:      -7.6      0.871      7.322
REMARK SMILES CCc1cc(OC(F)(F)F)cc2c1O[C@H](C(F)(F)F)C(C(=O)OCCOCCOCCOCCOC(=O)c1ccc(-c3c4nc(c(-c5cc(S(=O)(=O)[O-])ccc5F)c5ccc([nH]5)c(-c5cc(S(=O)(=O)[O-])ccc5F)c5nc(c(-c6cc(S(=O)(=O)[O-])ccc6F)c6ccc3[nH]6)C=C5)C=C4)cc1)=C2
REMARK SMILES IDX 30 1 29 2 28 3 27 4 26 5 25 6 24 7 23 8 21 9 22 10 20 11
REMARK SMILES IDX 3 12 4 13 13 14 5 15 12 16 14 17 11 18 101 19 15 20 2 21
REMARK SMILES IDX 1 22 6 23 7 24 8 25 9 26 10 27 16 28 17 29 18 30 19 31 31 32
REMARK SMILES IDX 32 33 33 34 34 35 35 36 36 37 37 38 38 39 39 40 100 41 40 42
REMARK SMILES IDX 99 43 41 44 42 45 43 46 93 47 44 48 98 49 92 50 94 51 45 52
REMARK SMILES IDX 97 53 91 54 90 55 46 57 78 58 58 59 77 60 59 61 62 62 76 63
REMARK SMILES IDX 95 64 60 65 61 66 75 68 96 69 63 70 47 71 48 72 56 73 49 74
REMARK SMILES IDX 55 75 57 76 54 77 50 78 51 79 52 80 53 81 79 82 80 83 88 84
REMARK SMILES IDX 81 85 87 86 89 87 86 88 82 89 83 90 84 91 85 92 64 93 65 94
REMARK SMILES IDX 73 95 66 96 72 97 74 98 71 99 67 100 68 101 69 102 70 103
REMARK H PARENT 94 56 62 67
REMARK Flexibility Score: inf
ROOT
ATOM      1  C   UNL A   1      40.991  20.528  26.105  1.00  0.00     0.188 C 
ENDROOT
BRANCH   1   2
ATOM      2  O   UNL A   1      41.608  19.444  25.421  1.00  0.00    -0.377 OA
BRANCH   2   3
ATOM      3  C   UNL A   1      42.936  19.072  25.753  1.00  0.00     0.188 C 
BRANCH   3   4
ATOM      4  C   UNL A   1      44.096  20.085  25.596  1.00  0.00     0.188 C 
BRANCH   4   5
ATOM      5  O   UNL A   1      43.941  20.988  24.519  1.00  0.00    -0.376 OA
BRANCH   5   6
ATOM      6  C   UNL A   1      44.301  22.341  24.702  1.00  0.00     0.202 C 
BRANCH   6   7
ATOM      7  C   UNL A   1      45.779  22.752  24.609  1.00  0.00     0.261 C 
BRANCH   7   8
ATOM      8  O   UNL A   1      46.486  22.929  25.844  1.00  0.00    -0.460 OA
BRANCH   8   9
ATOM      9  C   UNL A   1      46.367  24.116  26.474  1.00  0.00     0.338 C 
ATOM     10  O   UNL A   1      45.750  24.325  27.506  1.00  0.00    -0.246 OA
BRANCH   9  11
ATOM     11  C   UNL A   1      47.218  25.133  25.819  1.00  0.00     0.087 C 
ATOM     12  C   UNL A   1      49.599  27.256  23.174  1.00  0.00    -0.002 A 
ATOM     13  C   UNL A   1      50.866  27.691  23.589  1.00  0.00     0.054 A 
ATOM     14  C   UNL A   1      48.853  26.462  24.045  1.00  0.00     0.131 A 
ATOM     15  C   UNL A   1      51.369  27.347  24.849  1.00  0.00     0.130 A 
ATOM     16  C   UNL A   1      49.320  26.151  25.334  1.00  0.00     0.021 A 
ATOM     17  O   UNL A   1      47.655  25.967  23.585  1.00  0.00    -0.475 OA
ATOM     18  C   UNL A   1      50.578  26.602  25.732  1.00  0.00     0.058 A 
ATOM     19  C   UNL A   1      48.499  25.298  26.190  1.00  0.00     0.027 C 
ATOM     20  C   UNL A   1      46.651  25.866  24.625  1.00  0.00     0.316 C 
BRANCH  12  21
ATOM     21  C   UNL A   1      49.058  27.660  21.824  1.00  0.00     0.036 C 
ATOM     22  C   UNL A   1      49.385  26.638  20.749  1.00  0.00     0.009 C 
ENDBRANCH  12  21
BRANCH  15  23
ATOM     23  O   UNL A   1      52.604  27.683  25.330  1.00  0.00    -0.406 OA
BRANCH  23  24
ATOM     24  C   UNL A   1      52.766  29.004  25.820  1.00  0.00     0.573 C 
ATOM     25  F   UNL A   1      53.420  29.018  27.003  1.00  0.00    -0.132 F 
ATOM     26  F   UNL A   1      53.438  29.769  24.930  1.00  0.00    -0.132 F 
ATOM     27  F   UNL A   1      51.548  29.556  26.010  1.00  0.00    -0.132 F 
ENDBRANCH  23  24
ENDBRANCH  15  23
BRANCH  20  28
ATOM     28  C   UNL A   1      46.061  27.273  24.885  1.00  0.00     0.430 C 
ATOM     29  F   UNL A   1      46.468  28.180  23.972  1.00  0.00    -0.167 F 
ATOM     30  F   UNL A   1      44.709  27.299  24.893  1.00  0.00    -0.167 F 
ATOM     31  F   UNL A   1      46.471  27.748  26.090  1.00  0.00    -0.167 F 
ENDBRANCH  20  28
ENDBRANCH   9  11
ENDBRANCH   8   9
ENDBRANCH   7   8
ENDBRANCH   6   7
ENDBRANCH   5   6
ENDBRANCH   4   5
ENDBRANCH   3   4
ENDBRANCH   2   3
ENDBRANCH   1   2
BRANCH   1  32
ATOM     32  C   UNL A   1      41.072  20.619  27.648  1.00  0.00     0.188 C 
BRANCH  32  33
ATOM     33  O   UNL A   1      40.912  21.927  28.172  1.00  0.00    -0.376 OA
BRANCH  33  34
ATOM     34  C   UNL A   1      40.652  22.983  27.267  1.00  0.00     0.202 C 
BRANCH  34  35
ATOM     35  C   UNL A   1      41.147  24.387  27.642  1.00  0.00     0.261 C 
BRANCH  35  36
ATOM     36  O   UNL A   1      40.707  25.466  26.805  1.00  0.00    -0.460 OA
BRANCH  36  37
ATOM     37  C   UNL A   1      41.637  26.076  26.029  1.00  0.00     0.338 C 
ATOM     38  O   UNL A   1      41.959  25.775  24.905  1.00  0.00    -0.246 OA
BRANCH  37  39
ATOM     39  C   UNL A   1      42.038  27.309  26.749  1.00  0.00     0.060 A 
ATOM     40  C   UNL A   1      43.182  27.292  27.558  1.00  0.00     0.016 A 
ATOM     41  C   UNL A   1      41.327  28.495  26.555  1.00  0.00     0.016 A 
ATOM     42  C   UNL A   1      43.630  28.472  28.159  1.00  0.00     0.010 A 
ATOM     43  C   UNL A   1      41.754  29.664  27.187  1.00  0.00     0.010 A 
ATOM     44  C   UNL A   1      42.904  29.658  27.996  1.00  0.00    -0.014 A 
BRANCH  44  45
ATOM     45  C   UNL A   1      43.256  30.867  28.782  1.00  0.00     0.031 A 
ATOM     46  C   UNL A   1      42.414  31.211  29.977  1.00  0.00     0.074 A 
ATOM     47  C   UNL A   1      44.296  31.646  28.434  1.00  0.00     0.049 A 
ATOM     48  N   UNL A   1      42.462  32.260  30.753  1.00  0.00    -0.248 NA
ATOM     49  C   UNL A   1      41.374  30.236  30.338  1.00  0.00     0.031 C 
ATOM     50  C   UNL A   1      45.215  31.383  27.328  1.00  0.00     0.029 A 
ATOM     51  N   UNL A   1      44.744  32.829  28.969  1.00  0.00    -0.354 N 
ATOM     52  C   UNL A   1      41.457  32.078  31.696  1.00  0.00     0.074 A 
ATOM     53  C   UNL A   1      40.796  30.831  31.371  1.00  0.00     0.031 C 
ATOM     54  C   UNL A   1      46.109  32.386  27.258  1.00  0.00     0.029 A 
ATOM     55  C   UNL A   1      45.795  33.386  28.278  1.00  0.00     0.049 A 
ATOM     56  H   UNL A   1      44.349  33.239  29.773  1.00  0.00     0.167 HD
ATOM     57  C   UNL A   1      41.120  32.877  32.738  1.00  0.00     0.034 A 
ATOM     58  C   UNL A   1      46.404  34.580  28.429  1.00  0.00     0.034 A 
ATOM     59  C   UNL A   1      41.773  34.129  33.030  1.00  0.00     0.049 A 
ATOM     60  C   UNL A   1      45.930  35.511  29.523  1.00  0.00     0.074 A 
ATOM     61  C   UNL A   1      41.522  35.008  34.069  1.00  0.00     0.029 A 
ATOM     62  N   UNL A   1      42.793  34.691  32.272  1.00  0.00    -0.354 N 
ATOM     63  N   UNL A   1      44.987  35.324  30.420  1.00  0.00    -0.248 NA
ATOM     64  C   UNL A   1      46.602  36.814  29.625  1.00  0.00     0.031 C 
ATOM     65  C   UNL A   1      42.324  36.139  33.887  1.00  0.00     0.029 A 
ATOM     66  C   UNL A   1      43.146  35.928  32.792  1.00  0.00     0.049 A 
ATOM     67  H   UNL A   1      43.205  34.272  31.482  1.00  0.00     0.167 HD
ATOM     68  C   UNL A   1      44.974  36.475  31.204  1.00  0.00     0.074 A 
ATOM     69  C   UNL A   1      46.016  37.338  30.691  1.00  0.00     0.031 C 
ATOM     70  C   UNL A   1      44.175  36.790  32.257  1.00  0.00     0.034 A 
BRANCH  57  71
ATOM     71  C   UNL A   1      39.953  32.446  33.592  1.00  0.00     0.023 A 
ATOM     72  C   UNL A   1      38.675  33.012  33.443  1.00  0.00     0.031 A 
ATOM     73  C   UNL A   1      40.127  31.470  34.588  1.00  0.00     0.131 A 
ATOM     74  C   UNL A   1      37.641  32.648  34.319  1.00  0.00     0.055 A 
ATOM     75  C   UNL A   1      39.074  31.051  35.403  1.00  0.00     0.041 A 
ATOM     76  F   UNL A   1      41.332  30.913  34.797  1.00  0.00    -0.206 F 
ATOM     77  C   UNL A   1      37.825  31.652  35.280  1.00  0.00     0.022 A 
BRANCH  74  78
ATOM     78  S   UNL A   1      36.098  33.600  34.281  1.00  0.00     0.124 S 
ATOM     79  O   UNL A   1      35.888  33.880  35.700  1.00  0.00    -0.237 OA
ATOM     80  O   UNL A   1      36.453  34.745  33.450  1.00  0.00    -0.237 OA
ATOM     81  O   UNL A   1      35.137  32.672  33.689  1.00  0.00    -0.744 OA
ENDBRANCH  74  78
ENDBRANCH  57  71
BRANCH  58  82
ATOM     82  C   UNL A   1      47.486  35.006  27.492  1.00  0.00     0.023 A 
ATOM     83  C   UNL A   1      48.839  34.774  27.790  1.00  0.00     0.031 A 
ATOM     84  C   UNL A   1      47.186  35.717  26.315  1.00  0.00     0.131 A 
ATOM     85  C   UNL A   1      49.839  35.287  26.950  1.00  0.00     0.055 A 
ATOM     86  C   UNL A   1      48.183  36.172  25.451  1.00  0.00     0.041 A 
ATOM     87  F   UNL A   1      45.911  35.978  25.986  1.00  0.00    -0.206 F 
ATOM     88  C   UNL A   1      49.521  35.969  25.773  1.00  0.00     0.022 A 
BRANCH  85  89
ATOM     89  S   UNL A   1      51.571  35.135  27.467  1.00  0.00     0.124 S 
ATOM     90  O   UNL A   1      51.451  35.185  28.920  1.00  0.00    -0.237 OA
ATOM     91  O   UNL A   1      51.946  33.845  26.898  1.00  0.00    -0.237 OA
ATOM     92  O   UNL A   1      52.213  36.295  26.851  1.00  0.00    -0.744 OA
ENDBRANCH  85  89
ENDBRANCH  58  82
BRANCH  70  93
ATOM     93  C   UNL A   1      44.422  38.115  32.941  1.00  0.00     0.023 A 
ATOM     94  C   UNL A   1      43.543  39.201  32.790  1.00  0.00     0.031 A 
ATOM     95  C   UNL A   1      45.556  38.294  33.754  1.00  0.00     0.131 A 
ATOM     96  C   UNL A   1      43.840  40.433  33.393  1.00  0.00     0.055 A 
ATOM     97  C   UNL A   1      45.811  39.500  34.408  1.00  0.00     0.041 A 
ATOM     98  F   UNL A   1      46.435  37.295  33.932  1.00  0.00    -0.206 F 
ATOM     99  C   UNL A   1      44.957  40.584  34.218  1.00  0.00     0.022 A 
BRANCH  96 100
ATOM    100  S   UNL A   1      42.801  41.867  33.004  1.00  0.00     0.124 S 
ATOM    101  O   UNL A   1      43.793  42.864  32.617  1.00  0.00    -0.237 OA
ATOM    102  O   UNL A   1      41.956  41.360  31.928  1.00  0.00    -0.237 OA
ATOM    103  O   UNL A   1      42.106  42.140  34.262  1.00  0.00    -0.744 OA
ENDBRANCH  96 100
ENDBRANCH  70  93
ENDBRANCH  44  45
ENDBRANCH  37  39
ENDBRANCH  36  37
ENDBRANCH  35  36
ENDBRANCH  34  35
ENDBRANCH  33  34
ENDBRANCH  32  33
ENDBRANCH   1  32
TORSDOF 27
ENDMDL
