MODEL 1
REMARK VINA RESULT:      -6.9      0.000      0.000
REMARK SMILES COc1ccc2c(C)cc(SCC(=O)OCCOCCOCCOCCOC(=O)c3ccc(-c4c5nc(c(-c6cc(S(=O)(=O)[O-])ccc6F)c6ccc([nH]6)c(-c6cc(S(=O)(=O)[O-])ccc6F)c6nc(c(-c7cc(S(=O)(=O)[O-])ccc7F)c7ccc4[nH]7)C=C6)C=C5)cc3)nc2c1
REMARK SMILES IDX 21 1 20 2 19 3 18 4 17 5 16 6 15 7 13 8 14 9 12 10 11 11
REMARK SMILES IDX 10 12 3 13 4 14 95 15 5 16 94 17 6 18 93 19 7 20 8 21 9 22
REMARK SMILES IDX 2 23 1 24 22 25 23 26 24 27 25 28 26 29 27 30 28 31 29 32
REMARK SMILES IDX 30 33 31 34 92 35 32 36 91 37 33 38 34 39 35 40 85 41 36 42
REMARK SMILES IDX 90 43 84 44 86 45 37 46 89 47 83 48 82 49 38 51 70 52 50 53
REMARK SMILES IDX 69 54 51 55 54 56 68 57 87 58 52 59 53 60 67 62 88 63 55 64
REMARK SMILES IDX 39 65 40 66 48 67 41 68 47 69 49 70 46 71 42 72 43 73 44 74
REMARK SMILES IDX 45 75 71 76 72 77 80 78 73 79 79 80 81 81 78 82 74 83 75 84
REMARK SMILES IDX 76 85 77 86 56 87 57 88 65 89 58 90 64 91 66 92 63 93 59 94
REMARK SMILES IDX 60 95 61 96 62 97
REMARK H PARENT 86 50 54 61
REMARK Flexibility Score: inf
ROOT
ATOM      1  O   UNL A   1      39.150  28.550  30.477  1.00  0.00    -0.377 OA
ENDROOT
BRANCH   1   2
ATOM      2  C   UNL A   1      40.031  28.730  29.397  1.00  0.00     0.188 C 
BRANCH   2   3
ATOM      3  C   UNL A   1      41.167  27.738  29.071  1.00  0.00     0.188 C 
BRANCH   3   4
ATOM      4  O   UNL A   1      41.561  27.498  27.734  1.00  0.00    -0.376 OA
BRANCH   4   5
ATOM      5  C   UNL A   1      41.975  26.220  27.300  1.00  0.00     0.202 C 
BRANCH   5   6
ATOM      6  C   UNL A   1      41.269  25.431  26.178  1.00  0.00     0.261 C 
BRANCH   6   7
ATOM      7  O   UNL A   1      40.503  24.259  26.537  1.00  0.00    -0.463 OA
BRANCH   7   8
ATOM      8  C   UNL A   1      39.306  24.464  27.135  1.00  0.00     0.316 C 
ATOM      9  O   UNL A   1      39.192  24.668  28.342  1.00  0.00    -0.251 OA
BRANCH   8  10
ATOM     10  C   UNL A   1      38.069  24.363  26.251  1.00  0.00     0.199 C 
BRANCH  10  11
ATOM     11  S   UNL A   1      37.550  22.773  25.529  1.00  0.00    -0.095 SA
BRANCH  11  12
ATOM     12  C   UNL A   1      35.745  22.738  25.439  1.00  0.00     0.098 A 
ATOM     13  C   UNL A   1      32.169  25.060  23.213  1.00  0.00     0.121 A 
ATOM     14  C   UNL A   1      31.281  24.743  24.227  1.00  0.00     0.047 A 
ATOM     15  C   UNL A   1      33.466  24.524  23.240  1.00  0.00     0.075 A 
ATOM     16  C   UNL A   1      31.711  23.934  25.281  1.00  0.00     0.014 A 
ATOM     17  C   UNL A   1      33.940  23.747  24.305  1.00  0.00     0.075 A 
ATOM     18  C   UNL A   1      33.044  23.447  25.351  1.00  0.00     0.003 A 
ATOM     19  N   UNL A   1      35.243  23.381  24.350  1.00  0.00    -0.241 NA
ATOM     20  C   UNL A   1      33.558  22.721  26.455  1.00  0.00    -0.039 A 
ATOM     21  C   UNL A   1      32.712  22.450  27.674  1.00  0.00     0.045 C 
ATOM     22  C   UNL A   1      34.913  22.337  26.472  1.00  0.00     0.039 A 
BRANCH  13  23
ATOM     23  O   UNL A   1      31.840  25.844  22.139  1.00  0.00    -0.497 OA
ATOM     24  C   UNL A   1      32.617  25.605  20.961  1.00  0.00     0.278 C 
ENDBRANCH  13  23
ENDBRANCH  11  12
ENDBRANCH  10  11
ENDBRANCH   8  10
ENDBRANCH   7   8
ENDBRANCH   6   7
ENDBRANCH   5   6
ENDBRANCH   4   5
ENDBRANCH   3   4
ENDBRANCH   2   3
ENDBRANCH   1   2
BRANCH   1  25
ATOM     25  C   UNL A   1      37.784  28.680  30.191  1.00  0.00     0.188 C 
BRANCH  25  26
ATOM     26  C   UNL A   1      37.566  29.716  29.093  1.00  0.00     0.188 C 
BRANCH  26  27
ATOM     27  O   UNL A   1      36.374  29.535  28.351  1.00  0.00    -0.376 OA
BRANCH  27  28
ATOM     28  C   UNL A   1      35.683  30.634  27.765  1.00  0.00     0.202 C 
BRANCH  28  29
ATOM     29  C   UNL A   1      34.618  31.537  28.421  1.00  0.00     0.261 C 
BRANCH  29  30
ATOM     30  O   UNL A   1      34.873  32.114  29.686  1.00  0.00    -0.460 OA
BRANCH  30  31
ATOM     31  C   UNL A   1      35.700  33.168  29.735  1.00  0.00     0.338 C 
ATOM     32  O   UNL A   1      35.705  34.144  29.023  1.00  0.00    -0.246 OA
BRANCH  31  33
ATOM     33  C   UNL A   1      36.437  32.966  30.994  1.00  0.00     0.060 A 
ATOM     34  C   UNL A   1      37.286  33.990  31.417  1.00  0.00     0.016 A 
ATOM     35  C   UNL A   1      36.203  31.834  31.787  1.00  0.00     0.016 A 
ATOM     36  C   UNL A   1      37.949  33.865  32.625  1.00  0.00     0.010 A 
ATOM     37  C   UNL A   1      36.899  31.688  32.981  1.00  0.00     0.010 A 
ATOM     38  C   UNL A   1      37.811  32.682  33.365  1.00  0.00    -0.014 A 
BRANCH  38  39
ATOM     39  C   UNL A   1      38.885  32.370  34.323  1.00  0.00     0.031 A 
ATOM     40  C   UNL A   1      40.119  31.726  33.754  1.00  0.00     0.074 A 
ATOM     41  C   UNL A   1      38.803  32.772  35.600  1.00  0.00     0.049 A 
ATOM     42  N   UNL A   1      41.230  31.390  34.347  1.00  0.00    -0.248 NA
ATOM     43  C   UNL A   1      40.097  31.432  32.308  1.00  0.00     0.031 C 
ATOM     44  C   UNL A   1      37.668  33.480  36.191  1.00  0.00     0.029 A 
ATOM     45  N   UNL A   1      39.704  32.660  36.621  1.00  0.00    -0.354 N 
ATOM     46  C   UNL A   1      42.042  30.867  33.346  1.00  0.00     0.074 A 
ATOM     47  C   UNL A   1      41.281  30.874  32.121  1.00  0.00     0.031 C 
ATOM     48  C   UNL A   1      37.948  33.745  37.480  1.00  0.00     0.029 A 
ATOM     49  C   UNL A   1      39.259  33.191  37.808  1.00  0.00     0.049 A 
ATOM     50  H   UNL A   1      40.588  32.239  36.517  1.00  0.00     0.167 HD
ATOM     51  C   UNL A   1      43.322  30.440  33.444  1.00  0.00     0.034 A 
ATOM     52  C   UNL A   1      39.853  33.200  39.016  1.00  0.00     0.034 A 
ATOM     53  C   UNL A   1      44.038  30.419  34.691  1.00  0.00     0.049 A 
ATOM     54  C   UNL A   1      41.234  32.592  39.125  1.00  0.00     0.074 A 
ATOM     55  C   UNL A   1      45.310  29.947  34.952  1.00  0.00     0.029 A 
ATOM     56  N   UNL A   1      43.530  30.894  35.895  1.00  0.00    -0.354 N 
ATOM     57  N   UNL A   1      41.985  32.062  38.182  1.00  0.00    -0.248 NA
ATOM     58  C   UNL A   1      41.856  32.597  40.453  1.00  0.00     0.031 C 
ATOM     59  C   UNL A   1      45.546  30.078  36.324  1.00  0.00     0.029 A 
ATOM     60  C   UNL A   1      44.458  30.714  36.904  1.00  0.00     0.049 A 
ATOM     61  H   UNL A   1      42.640  31.298  36.013  1.00  0.00     0.167 HD
ATOM     62  C   UNL A   1      43.186  31.722  38.799  1.00  0.00     0.074 A 
ATOM     63  C   UNL A   1      43.061  32.119  40.186  1.00  0.00     0.031 C 
ATOM     64  C   UNL A   1      44.296  31.139  38.275  1.00  0.00     0.034 A 
BRANCH  51  65
ATOM     65  C   UNL A   1      43.977  29.922  32.189  1.00  0.00     0.023 A 
ATOM     66  C   UNL A   1      44.040  28.546  31.903  1.00  0.00     0.031 A 
ATOM     67  C   UNL A   1      44.590  30.810  31.288  1.00  0.00     0.131 A 
ATOM     68  C   UNL A   1      44.751  28.095  30.780  1.00  0.00     0.055 A 
ATOM     69  C   UNL A   1      45.228  30.360  30.131  1.00  0.00     0.041 A 
ATOM     70  F   UNL A   1      44.596  32.131  31.528  1.00  0.00    -0.206 F 
ATOM     71  C   UNL A   1      45.321  28.995  29.877  1.00  0.00     0.022 A 
BRANCH  68  72
ATOM     72  S   UNL A   1      45.036  26.314  30.588  1.00  0.00     0.124 S 
ATOM     73  O   UNL A   1      46.467  26.213  30.866  1.00  0.00    -0.237 OA
ATOM     74  O   UNL A   1      44.148  25.740  31.592  1.00  0.00    -0.237 OA
ATOM     75  O   UNL A   1      44.659  26.054  29.200  1.00  0.00    -0.744 OA
ENDBRANCH  68  72
ENDBRANCH  51  65
BRANCH  52  76
ATOM     76  C   UNL A   1      39.163  33.761  40.214  1.00  0.00     0.023 A 
ATOM     77  C   UNL A   1      38.128  33.059  40.851  1.00  0.00     0.031 A 
ATOM     78  C   UNL A   1      39.463  35.054  40.683  1.00  0.00     0.131 A 
ATOM     79  C   UNL A   1      37.379  33.680  41.861  1.00  0.00     0.055 A 
ATOM     80  C   UNL A   1      38.762  35.638  41.740  1.00  0.00     0.041 A 
ATOM     81  F   UNL A   1      40.441  35.776  40.114  1.00  0.00    -0.206 F 
ATOM     82  C   UNL A   1      37.697  34.959  42.321  1.00  0.00     0.022 A 
BRANCH  79  83
ATOM     83  S   UNL A   1      35.886  32.844  42.466  1.00  0.00     0.124 S 
ATOM     84  O   UNL A   1      34.899  33.916  42.393  1.00  0.00    -0.237 OA
ATOM     85  O   UNL A   1      35.733  31.763  41.498  1.00  0.00    -0.237 OA
ATOM     86  O   UNL A   1      36.255  32.425  43.816  1.00  0.00    -0.744 OA
ENDBRANCH  79  83
ENDBRANCH  52  76
BRANCH  64  87
ATOM     87  C   UNL A   1      45.480  30.981  39.195  1.00  0.00     0.023 A 
ATOM     88  C   UNL A   1      45.695  29.808  39.936  1.00  0.00     0.031 A 
ATOM     89  C   UNL A   1      46.402  32.035  39.336  1.00  0.00     0.131 A 
ATOM     90  C   UNL A   1      46.760  29.745  40.844  1.00  0.00     0.055 A 
ATOM     91  C   UNL A   1      47.505  31.936  40.183  1.00  0.00     0.041 A 
ATOM     92  F   UNL A   1      46.245  33.178  38.650  1.00  0.00    -0.206 F 
ATOM     93  C   UNL A   1      47.679  30.792  40.957  1.00  0.00     0.022 A 
BRANCH  90  94
ATOM     94  S   UNL A   1      46.858  28.323  41.964  1.00  0.00     0.124 S 
ATOM     95  O   UNL A   1      45.534  28.329  42.577  1.00  0.00    -0.237 OA
ATOM     96  O   UNL A   1      47.132  27.222  41.047  1.00  0.00    -0.237 OA
ATOM     97  O   UNL A   1      47.958  28.671  42.862  1.00  0.00    -0.744 OA
ENDBRANCH  90  94
ENDBRANCH  64  87
ENDBRANCH  38  39
ENDBRANCH  31  33
ENDBRANCH  30  31
ENDBRANCH  29  30
ENDBRANCH  28  29
ENDBRANCH  27  28
ENDBRANCH  26  27
ENDBRANCH  25  26
ENDBRANCH   1  25
TORSDOF 26
ENDMDL
MODEL 2
REMARK VINA RESULT:      -6.9      9.616     15.475
REMARK SMILES COc1ccc2c(C)cc(SCC(=O)OCCOCCOCCOCCOC(=O)c3ccc(-c4c5nc(c(-c6cc(S(=O)(=O)[O-])ccc6F)c6ccc([nH]6)c(-c6cc(S(=O)(=O)[O-])ccc6F)c6nc(c(-c7cc(S(=O)(=O)[O-])ccc7F)c7ccc4[nH]7)C=C6)C=C5)cc3)nc2c1
REMARK SMILES IDX 21 1 20 2 19 3 18 4 17 5 16 6 15 7 13 8 14 9 12 10 11 11
REMARK SMILES IDX 10 12 3 13 4 14 95 15 5 16 94 17 6 18 93 19 7 20 8 21 9 22
REMARK SMILES IDX 2 23 1 24 22 25 23 26 24 27 25 28 26 29 27 30 28 31 29 32
REMARK SMILES IDX 30 33 31 34 92 35 32 36 91 37 33 38 34 39 35 40 85 41 36 42
REMARK SMILES IDX 90 43 84 44 86 45 37 46 89 47 83 48 82 49 38 51 70 52 50 53
REMARK SMILES IDX 69 54 51 55 54 56 68 57 87 58 52 59 53 60 67 62 88 63 55 64
REMARK SMILES IDX 39 65 40 66 48 67 41 68 47 69 49 70 46 71 42 72 43 73 44 74
REMARK SMILES IDX 45 75 71 76 72 77 80 78 73 79 79 80 81 81 78 82 74 83 75 84
REMARK SMILES IDX 76 85 77 86 56 87 57 88 65 89 58 90 64 91 66 92 63 93 59 94
REMARK SMILES IDX 60 95 61 96 62 97
REMARK H PARENT 86 50 54 61
REMARK Flexibility Score: inf
ROOT
ATOM      1  O   UNL A   1      45.210  44.083  31.486  1.00  0.00    -0.377 OA
ENDROOT
BRANCH   1   2
ATOM      2  C   UNL A   1      45.688  43.403  30.353  1.00  0.00     0.188 C 
BRANCH   2   3
ATOM      3  C   UNL A   1      44.766  42.929  29.212  1.00  0.00     0.188 C 
BRANCH   3   4
ATOM      4  O   UNL A   1      44.846  41.607  28.714  1.00  0.00    -0.376 OA
BRANCH   4   5
ATOM      5  C   UNL A   1      43.946  41.125  27.739  1.00  0.00     0.202 C 
BRANCH   5   6
ATOM      6  C   UNL A   1      43.767  41.773  26.350  1.00  0.00     0.261 C 
BRANCH   6   7
ATOM      7  O   UNL A   1      44.396  43.050  26.098  1.00  0.00    -0.463 OA
BRANCH   7   8
ATOM      8  C   UNL A   1      45.564  43.038  25.415  1.00  0.00     0.316 C 
ATOM      9  O   UNL A   1      46.661  43.039  25.972  1.00  0.00    -0.251 OA
BRANCH   8  10
ATOM     10  C   UNL A   1      45.473  43.091  23.895  1.00  0.00     0.199 C 
BRANCH  10  11
ATOM     11  S   UNL A   1      46.031  44.556  22.966  1.00  0.00    -0.095 SA
BRANCH  11  12
ATOM     12  C   UNL A   1      45.235  44.550  21.342  1.00  0.00     0.098 A 
ATOM     13  C   UNL A   1      43.896  47.669  17.935  1.00  0.00     0.121 A 
ATOM     14  C   UNL A   1      42.906  46.811  17.485  1.00  0.00     0.047 A 
ATOM     15  C   UNL A   1      44.779  47.237  18.936  1.00  0.00     0.075 A 
ATOM     16  C   UNL A   1      42.779  45.551  18.072  1.00  0.00     0.014 A 
ATOM     17  C   UNL A   1      44.649  45.997  19.574  1.00  0.00     0.075 A 
ATOM     18  C   UNL A   1      43.624  45.135  19.135  1.00  0.00     0.003 A 
ATOM     19  N   UNL A   1      45.437  45.694  20.634  1.00  0.00    -0.241 NA
ATOM     20  C   UNL A   1      43.461  43.914  19.838  1.00  0.00    -0.039 A 
ATOM     21  C   UNL A   1      42.323  42.977  19.520  1.00  0.00     0.045 C 
ATOM     22  C   UNL A   1      44.302  43.613  20.926  1.00  0.00     0.039 A 
BRANCH  13  23
ATOM     23  O   UNL A   1      44.099  48.923  17.422  1.00  0.00    -0.497 OA
ATOM     24  C   UNL A   1      44.009  49.984  18.376  1.00  0.00     0.278 C 
ENDBRANCH  13  23
ENDBRANCH  11  12
ENDBRANCH  10  11
ENDBRANCH   8  10
ENDBRANCH   7   8
ENDBRANCH   6   7
ENDBRANCH   5   6
ENDBRANCH   4   5
ENDBRANCH   3   4
ENDBRANCH   2   3
ENDBRANCH   1   2
BRANCH   1  25
ATOM     25  C   UNL A   1      43.890  44.547  31.421  1.00  0.00     0.188 C 
BRANCH  25  26
ATOM     26  C   UNL A   1      43.325  44.747  32.824  1.00  0.00     0.188 C 
BRANCH  26  27
ATOM     27  O   UNL A   1      42.250  43.884  33.146  1.00  0.00    -0.376 OA
BRANCH  27  28
ATOM     28  C   UNL A   1      42.467  42.530  33.531  1.00  0.00     0.202 C 
BRANCH  28  29
ATOM     29  C   UNL A   1      42.714  41.315  32.613  1.00  0.00     0.261 C 
BRANCH  29  30
ATOM     30  O   UNL A   1      43.549  40.264  33.054  1.00  0.00    -0.460 OA
BRANCH  30  31
ATOM     31  C   UNL A   1      44.558  39.891  32.254  1.00  0.00     0.338 C 
ATOM     32  O   UNL A   1      45.595  40.476  32.041  1.00  0.00    -0.246 OA
BRANCH  31  33
ATOM     33  C   UNL A   1      44.211  38.509  31.887  1.00  0.00     0.060 A 
ATOM     34  C   UNL A   1      44.014  37.595  32.924  1.00  0.00     0.016 A 
ATOM     35  C   UNL A   1      43.981  38.158  30.549  1.00  0.00     0.016 A 
ATOM     36  C   UNL A   1      43.627  36.301  32.624  1.00  0.00     0.010 A 
ATOM     37  C   UNL A   1      43.631  36.848  30.242  1.00  0.00     0.010 A 
ATOM     38  C   UNL A   1      43.511  35.913  31.281  1.00  0.00    -0.014 A 
BRANCH  38  39
ATOM     39  C   UNL A   1      43.618  34.473  30.996  1.00  0.00     0.031 A 
ATOM     40  C   UNL A   1      42.328  33.701  30.968  1.00  0.00     0.074 A 
ATOM     41  C   UNL A   1      44.794  33.929  30.650  1.00  0.00     0.049 A 
ATOM     42  N   UNL A   1      42.118  32.443  30.696  1.00  0.00    -0.248 NA
ATOM     43  C   UNL A   1      41.102  34.462  31.277  1.00  0.00     0.031 C 
ATOM     44  C   UNL A   1      46.067  34.645  30.573  1.00  0.00     0.029 A 
ATOM     45  N   UNL A   1      45.100  32.651  30.274  1.00  0.00    -0.354 N 
ATOM     46  C   UNL A   1      40.741  32.270  30.782  1.00  0.00     0.074 A 
ATOM     47  C   UNL A   1      40.169  33.531  31.186  1.00  0.00     0.031 C 
ATOM     48  C   UNL A   1      47.022  33.789  30.167  1.00  0.00     0.029 A 
ATOM     49  C   UNL A   1      46.432  32.463  29.996  1.00  0.00     0.049 A 
ATOM     50  H   UNL A   1      44.429  31.932  30.209  1.00  0.00     0.167 HD
ATOM     51  C   UNL A   1      40.019  31.156  30.522  1.00  0.00     0.034 A 
ATOM     52  C   UNL A   1      47.085  31.334  29.661  1.00  0.00     0.034 A 
ATOM     53  C   UNL A   1      40.629  29.907  30.153  1.00  0.00     0.049 A 
ATOM     54  C   UNL A   1      46.268  30.069  29.508  1.00  0.00     0.074 A 
ATOM     55  C   UNL A   1      40.030  28.682  29.931  1.00  0.00     0.029 A 
ATOM     56  N   UNL A   1      41.994  29.729  29.953  1.00  0.00    -0.354 N 
ATOM     57  N   UNL A   1      44.968  29.901  29.628  1.00  0.00    -0.248 NA
ATOM     58  C   UNL A   1      47.000  28.848  29.158  1.00  0.00     0.031 C 
ATOM     59  C   UNL A   1      41.038  27.751  29.660  1.00  0.00     0.029 A 
ATOM     60  C   UNL A   1      42.256  28.413  29.624  1.00  0.00     0.049 A 
ATOM     61  H   UNL A   1      42.673  30.437  30.035  1.00  0.00     0.167 HD
ATOM     62  C   UNL A   1      44.727  28.565  29.316  1.00  0.00     0.074 A 
ATOM     63  C   UNL A   1      46.013  27.983  28.991  1.00  0.00     0.031 C 
ATOM     64  C   UNL A   1      43.556  27.877  29.293  1.00  0.00     0.034 A 
BRANCH  51  65
ATOM     65  C   UNL A   1      38.524  31.245  30.688  1.00  0.00     0.023 A 
ATOM     66  C   UNL A   1      37.700  31.789  29.685  1.00  0.00     0.031 A 
ATOM     67  C   UNL A   1      37.915  30.827  31.884  1.00  0.00     0.131 A 
ATOM     68  C   UNL A   1      36.326  31.953  29.918  1.00  0.00     0.055 A 
ATOM     69  C   UNL A   1      36.535  30.921  32.080  1.00  0.00     0.041 A 
ATOM     70  F   UNL A   1      38.653  30.337  32.892  1.00  0.00    -0.206 F 
ATOM     71  C   UNL A   1      35.733  31.497  31.098  1.00  0.00     0.022 A 
BRANCH  68  72
ATOM     72  S   UNL A   1      35.345  32.893  28.716  1.00  0.00     0.124 S 
ATOM     73  O   UNL A   1      35.845  34.250  28.925  1.00  0.00    -0.237 OA
ATOM     74  O   UNL A   1      35.708  32.266  27.451  1.00  0.00    -0.237 OA
ATOM     75  O   UNL A   1      33.967  32.671  29.149  1.00  0.00    -0.744 OA
ENDBRANCH  68  72
ENDBRANCH  51  65
BRANCH  52  76
ATOM     76  C   UNL A   1      48.565  31.321  29.476  1.00  0.00     0.023 A 
ATOM     77  C   UNL A   1      49.431  31.151  30.567  1.00  0.00     0.031 A 
ATOM     78  C   UNL A   1      49.140  31.574  28.216  1.00  0.00     0.131 A 
ATOM     79  C   UNL A   1      50.814  31.318  30.396  1.00  0.00     0.055 A 
ATOM     80  C   UNL A   1      50.522  31.666  28.039  1.00  0.00     0.041 A 
ATOM     81  F   UNL A   1      48.364  31.747  27.134  1.00  0.00    -0.206 F 
ATOM     82  C   UNL A   1      51.367  31.560  29.138  1.00  0.00     0.022 A 
BRANCH  79  83
ATOM     83  S   UNL A   1      51.867  31.360  31.873  1.00  0.00     0.124 S 
ATOM     84  O   UNL A   1      53.198  31.436  31.283  1.00  0.00    -0.237 OA
ATOM     85  O   UNL A   1      51.393  32.564  32.547  1.00  0.00    -0.237 OA
ATOM     86  O   UNL A   1      51.553  30.103  32.549  1.00  0.00    -0.744 OA
ENDBRANCH  79  83
ENDBRANCH  52  76
BRANCH  64  87
ATOM     87  C   UNL A   1      43.617  26.446  28.821  1.00  0.00     0.023 A 
ATOM     88  C   UNL A   1      43.500  26.105  27.465  1.00  0.00     0.031 A 
ATOM     89  C   UNL A   1      43.785  25.408  29.756  1.00  0.00     0.131 A 
ATOM     90  C   UNL A   1      43.473  24.755  27.087  1.00  0.00     0.055 A 
ATOM     91  C   UNL A   1      43.837  24.071  29.366  1.00  0.00     0.041 A 
ATOM     92  F   UNL A   1      43.903  25.679  31.066  1.00  0.00    -0.206 F 
ATOM     93  C   UNL A   1      43.663  23.737  28.025  1.00  0.00     0.022 A 
BRANCH  90  94
ATOM     94  S   UNL A   1      43.067  24.345  25.368  1.00  0.00     0.124 S 
ATOM     95  O   UNL A   1      42.252  25.488  24.970  1.00  0.00    -0.237 OA
ATOM     96  O   UNL A   1      44.385  24.255  24.750  1.00  0.00    -0.237 OA
ATOM     97  O   UNL A   1      42.347  23.079  25.480  1.00  0.00    -0.744 OA
ENDBRANCH  90  94
ENDBRANCH  64  87
ENDBRANCH  38  39
ENDBRANCH  31  33
ENDBRANCH  30  31
ENDBRANCH  29  30
ENDBRANCH  28  29
ENDBRANCH  27  28
ENDBRANCH  26  27
ENDBRANCH  25  26
ENDBRANCH   1  25
TORSDOF 26
ENDMDL
MODEL 3
REMARK VINA RESULT:      -6.8      8.353     14.781
REMARK SMILES COc1ccc2c(C)cc(SCC(=O)OCCOCCOCCOCCOC(=O)c3ccc(-c4c5nc(c(-c6cc(S(=O)(=O)[O-])ccc6F)c6ccc([nH]6)c(-c6cc(S(=O)(=O)[O-])ccc6F)c6nc(c(-c7cc(S(=O)(=O)[O-])ccc7F)c7ccc4[nH]7)C=C6)C=C5)cc3)nc2c1
REMARK SMILES IDX 21 1 20 2 19 3 18 4 17 5 16 6 15 7 13 8 14 9 12 10 11 11
REMARK SMILES IDX 10 12 3 13 4 14 95 15 5 16 94 17 6 18 93 19 7 20 8 21 9 22
REMARK SMILES IDX 2 23 1 24 22 25 23 26 24 27 25 28 26 29 27 30 28 31 29 32
REMARK SMILES IDX 30 33 31 34 92 35 32 36 91 37 33 38 34 39 35 40 85 41 36 42
REMARK SMILES IDX 90 43 84 44 86 45 37 46 89 47 83 48 82 49 38 51 70 52 50 53
REMARK SMILES IDX 69 54 51 55 54 56 68 57 87 58 52 59 53 60 67 62 88 63 55 64
REMARK SMILES IDX 39 65 40 66 48 67 41 68 47 69 49 70 46 71 42 72 43 73 44 74
REMARK SMILES IDX 45 75 71 76 72 77 80 78 73 79 79 80 81 81 78 82 74 83 75 84
REMARK SMILES IDX 76 85 77 86 56 87 57 88 65 89 58 90 64 91 66 92 63 93 59 94
REMARK SMILES IDX 60 95 61 96 62 97
REMARK H PARENT 86 50 54 61
REMARK Flexibility Score: inf
ROOT
ATOM      1  O   UNL A   1      48.106  26.227  38.806  1.00  0.00    -0.377 OA
ENDROOT
BRANCH   1   2
ATOM      2  C   UNL A   1      48.124  25.509  37.599  1.00  0.00     0.188 C 
BRANCH   2   3
ATOM      3  C   UNL A   1      49.358  25.458  36.675  1.00  0.00     0.188 C 
BRANCH   3   4
ATOM      4  O   UNL A   1      50.022  24.235  36.417  1.00  0.00    -0.376 OA
BRANCH   4   5
ATOM      5  C   UNL A   1      50.806  24.047  35.258  1.00  0.00     0.202 C 
BRANCH   5   6
ATOM      6  C   UNL A   1      50.425  23.077  34.120  1.00  0.00     0.261 C 
BRANCH   6   7
ATOM      7  O   UNL A   1      50.997  21.749  34.125  1.00  0.00    -0.463 OA
BRANCH   7   8
ATOM      8  C   UNL A   1      50.135  20.707  34.179  1.00  0.00     0.316 C 
ATOM      9  O   UNL A   1      49.598  20.235  33.179  1.00  0.00    -0.251 OA
BRANCH   8  10
ATOM     10  C   UNL A   1      49.794  20.168  35.563  1.00  0.00     0.199 C 
BRANCH  10  11
ATOM     11  S   UNL A   1      50.797  20.604  37.021  1.00  0.00    -0.095 SA
BRANCH  11  12
ATOM     12  C   UNL A   1      50.161  19.702  38.453  1.00  0.00     0.098 A 
ATOM     13  C   UNL A   1      45.958  18.151  40.201  1.00  0.00     0.121 A 
ATOM     14  C   UNL A   1      46.444  18.177  41.498  1.00  0.00     0.047 A 
ATOM     15  C   UNL A   1      46.828  18.420  39.134  1.00  0.00     0.075 A 
ATOM     16  C   UNL A   1      47.780  18.519  41.718  1.00  0.00     0.014 A 
ATOM     17  C   UNL A   1      48.160  18.809  39.324  1.00  0.00     0.075 A 
ATOM     18  C   UNL A   1      48.647  18.863  40.646  1.00  0.00     0.003 A 
ATOM     19  N   UNL A   1      48.910  19.200  38.267  1.00  0.00    -0.241 NA
ATOM     20  C   UNL A   1      49.974  19.327  40.828  1.00  0.00    -0.039 A 
ATOM     21  C   UNL A   1      50.549  19.530  42.207  1.00  0.00     0.045 C 
ATOM     22  C   UNL A   1      50.741  19.712  39.711  1.00  0.00     0.039 A 
BRANCH  13  23
ATOM     23  O   UNL A   1      44.664  17.827  39.886  1.00  0.00    -0.497 OA
ATOM     24  C   UNL A   1      44.524  16.712  39.001  1.00  0.00     0.278 C 
ENDBRANCH  13  23
ENDBRANCH  11  12
ENDBRANCH  10  11
ENDBRANCH   8  10
ENDBRANCH   7   8
ENDBRANCH   6   7
ENDBRANCH   5   6
ENDBRANCH   4   5
ENDBRANCH   3   4
ENDBRANCH   2   3
ENDBRANCH   1   2
BRANCH   1  25
ATOM     25  C   UNL A   1      47.448  25.616  39.882  1.00  0.00     0.188 C 
BRANCH  25  26
ATOM     26  C   UNL A   1      46.324  26.509  40.396  1.00  0.00     0.188 C 
BRANCH  26  27
ATOM     27  O   UNL A   1      45.052  25.887  40.421  1.00  0.00    -0.376 OA
BRANCH  27  28
ATOM     28  C   UNL A   1      44.290  25.696  39.233  1.00  0.00     0.202 C 
BRANCH  28  29
ATOM     29  C   UNL A   1      44.035  26.713  38.101  1.00  0.00     0.261 C 
BRANCH  29  30
ATOM     30  O   UNL A   1      42.781  26.733  37.449  1.00  0.00    -0.460 OA
BRANCH  30  31
ATOM     31  C   UNL A   1      42.415  25.637  36.768  1.00  0.00     0.338 C 
ATOM     32  O   UNL A   1      41.496  24.888  37.002  1.00  0.00    -0.246 OA
BRANCH  31  33
ATOM     33  C   UNL A   1      43.241  25.699  35.552  1.00  0.00     0.060 A 
ATOM     34  C   UNL A   1      44.095  24.625  35.295  1.00  0.00     0.016 A 
ATOM     35  C   UNL A   1      43.088  26.748  34.634  1.00  0.00     0.016 A 
ATOM     36  C   UNL A   1      44.843  24.617  34.131  1.00  0.00     0.010 A 
ATOM     37  C   UNL A   1      43.868  26.762  33.484  1.00  0.00     0.010 A 
ATOM     38  C   UNL A   1      44.783  25.720  33.268  1.00  0.00    -0.014 A 
BRANCH  38  39
ATOM     39  C   UNL A   1      45.927  25.916  32.363  1.00  0.00     0.031 A 
ATOM     40  C   UNL A   1      45.750  25.434  30.950  1.00  0.00     0.074 A 
ATOM     41  C   UNL A   1      47.004  26.611  32.760  1.00  0.00     0.049 A 
ATOM     42  N   UNL A   1      46.563  25.521  29.934  1.00  0.00    -0.248 NA
ATOM     43  C   UNL A   1      44.468  24.773  30.639  1.00  0.00     0.031 C 
ATOM     44  C   UNL A   1      47.197  27.181  34.093  1.00  0.00     0.029 A 
ATOM     45  N   UNL A   1      48.126  26.974  32.069  1.00  0.00    -0.354 N 
ATOM     46  C   UNL A   1      45.883  24.945  28.865  1.00  0.00     0.074 A 
ATOM     47  C   UNL A   1      44.620  24.462  29.364  1.00  0.00     0.031 C 
ATOM     48  C   UNL A   1      48.375  27.831  34.119  1.00  0.00     0.029 A 
ATOM     49  C   UNL A   1      49.029  27.686  32.821  1.00  0.00     0.049 A 
ATOM     50  H   UNL A   1      48.273  26.746  31.122  1.00  0.00     0.167 HD
ATOM     51  C   UNL A   1      46.278  24.853  27.575  1.00  0.00     0.034 A 
ATOM     52  C   UNL A   1      50.250  28.143  32.484  1.00  0.00     0.034 A 
ATOM     53  C   UNL A   1      47.562  25.318  27.122  1.00  0.00     0.049 A 
ATOM     54  C   UNL A   1      50.722  27.906  31.066  1.00  0.00     0.074 A 
ATOM     55  C   UNL A   1      48.123  25.225  25.863  1.00  0.00     0.029 A 
ATOM     56  N   UNL A   1      48.489  25.969  27.928  1.00  0.00    -0.354 N 
ATOM     57  N   UNL A   1      50.091  27.326  30.067  1.00  0.00    -0.248 NA
ATOM     58  C   UNL A   1      52.061  28.397  30.725  1.00  0.00     0.031 C 
ATOM     59  C   UNL A   1      49.413  25.761  25.925  1.00  0.00     0.029 A 
ATOM     60  C   UNL A   1      49.623  26.270  27.197  1.00  0.00     0.049 A 
ATOM     61  H   UNL A   1      48.358  26.183  28.881  1.00  0.00     0.167 HD
ATOM     62  C   UNL A   1      50.940  27.434  28.968  1.00  0.00     0.074 A 
ATOM     63  C   UNL A   1      52.116  28.144  29.428  1.00  0.00     0.031 C 
ATOM     64  C   UNL A   1      50.770  26.994  27.693  1.00  0.00     0.034 A 
BRANCH  51  65
ATOM     65  C   UNL A   1      45.336  24.181  26.609  1.00  0.00     0.023 A 
ATOM     66  C   UNL A   1      45.393  22.796  26.363  1.00  0.00     0.031 A 
ATOM     67  C   UNL A   1      44.399  24.939  25.886  1.00  0.00     0.131 A 
ATOM     68  C   UNL A   1      44.572  22.225  25.379  1.00  0.00     0.055 A 
ATOM     69  C   UNL A   1      43.530  24.351  24.965  1.00  0.00     0.041 A 
ATOM     70  F   UNL A   1      44.324  26.269  26.049  1.00  0.00    -0.206 F 
ATOM     71  C   UNL A   1      43.621  22.988  24.698  1.00  0.00     0.022 A 
BRANCH  68  72
ATOM     72  S   UNL A   1      44.857  20.497  24.903  1.00  0.00     0.124 S 
ATOM     73  O   UNL A   1      46.232  20.291  25.352  1.00  0.00    -0.237 OA
ATOM     74  O   UNL A   1      43.827  19.788  25.654  1.00  0.00    -0.237 OA
ATOM     75  O   UNL A   1      44.677  20.506  23.453  1.00  0.00    -0.744 OA
ENDBRANCH  68  72
ENDBRANCH  51  65
BRANCH  52  76
ATOM     76  C   UNL A   1      51.120  28.832  33.480  1.00  0.00     0.023 A 
ATOM     77  C   UNL A   1      51.971  28.106  34.327  1.00  0.00     0.031 A 
ATOM     78  C   UNL A   1      51.045  30.226  33.667  1.00  0.00     0.131 A 
ATOM     79  C   UNL A   1      52.645  28.757  35.370  1.00  0.00     0.055 A 
ATOM     80  C   UNL A   1      51.776  30.880  34.660  1.00  0.00     0.041 A 
ATOM     81  F   UNL A   1      50.248  30.976  32.889  1.00  0.00    -0.206 F 
ATOM     82  C   UNL A   1      52.565  30.142  35.535  1.00  0.00     0.022 A 
BRANCH  79  83
ATOM     83  S   UNL A   1      53.514  27.746  36.602  1.00  0.00     0.124 S 
ATOM     84  O   UNL A   1      54.610  27.198  35.811  1.00  0.00    -0.237 OA
ATOM     85  O   UNL A   1      53.880  28.741  37.604  1.00  0.00    -0.237 OA
ATOM     86  O   UNL A   1      52.501  26.781  37.023  1.00  0.00    -0.744 OA
ENDBRANCH  79  83
ENDBRANCH  52  76
BRANCH  64  87
ATOM     87  C   UNL A   1      51.849  27.349  26.702  1.00  0.00     0.023 A 
ATOM     88  C   UNL A   1      53.032  26.601  26.591  1.00  0.00     0.031 A 
ATOM     89  C   UNL A   1      51.687  28.466  25.862  1.00  0.00     0.131 A 
ATOM     90  C   UNL A   1      54.042  27.025  25.717  1.00  0.00     0.055 A 
ATOM     91  C   UNL A   1      52.663  28.837  24.938  1.00  0.00     0.041 A 
ATOM     92  F   UNL A   1      50.575  29.215  25.926  1.00  0.00    -0.206 F 
ATOM     93  C   UNL A   1      53.857  28.124  24.874  1.00  0.00     0.022 A 
BRANCH  90  94
ATOM     94  S   UNL A   1      55.650  26.188  25.783  1.00  0.00     0.124 S 
ATOM     95  O   UNL A   1      55.827  25.987  27.218  1.00  0.00    -0.237 OA
ATOM     96  O   UNL A   1      55.408  24.985  24.996  1.00  0.00    -0.237 OA
ATOM     97  O   UNL A   1      56.562  27.154  25.175  1.00  0.00    -0.744 OA
ENDBRANCH  90  94
ENDBRANCH  64  87
ENDBRANCH  38  39
ENDBRANCH  31  33
ENDBRANCH  30  31
ENDBRANCH  29  30
ENDBRANCH  28  29
ENDBRANCH  27  28
ENDBRANCH  26  27
ENDBRANCH  25  26
ENDBRANCH   1  25
TORSDOF 26
ENDMDL
