MODEL 1
REMARK VINA RESULT:      -9.2      0.000      0.000
REMARK SMILES Cc1sc(NC(=O)[C@@H]2CC=CC[C@H]2C(=O)OCCOCCOCCOCCOC(=O)c2ccc(-c3c4nc(c(-c5cc(S(=O)(=O)[O-])ccc5F)c5ccc([nH]5)c(-c5cc(S(=O)(=O)[O-])ccc5F)c5nc(c(-c6cc(S(=O)(=O)[O-])ccc6F)c6ccc3[nH]6)C=C5)C=C4)cc2)nc1-c1ccc(C(C)C)cc1
REMARK SMILES IDX 21 1 20 2 19 3 18 4 17 5 16 6 14 7 15 8 13 9 8 10 9 11 10 12
REMARK SMILES IDX 12 13 11 14 6 15 5 16 7 18 4 19 1 20 2 21 3 22 95 23 94 24
REMARK SMILES IDX 96 25 97 26 104 27 98 28 103 29 99 30 100 31 101 32 102 33
REMARK SMILES IDX 22 34 23 35 24 36 25 37 26 38 27 39 28 40 29 41 30 42 31 43
REMARK SMILES IDX 32 44 93 45 33 46 92 47 34 48 35 49 36 50 86 51 37 52 91 53
REMARK SMILES IDX 85 54 87 55 38 56 90 57 84 58 83 59 39 61 71 62 51 63 70 64
REMARK SMILES IDX 52 65 55 66 69 67 88 68 53 69 54 70 68 72 89 73 56 74 40 75
REMARK SMILES IDX 41 76 49 77 42 78 48 79 50 80 47 81 43 82 44 83 45 84 46 85
REMARK SMILES IDX 72 86 73 87 81 88 74 89 80 90 82 91 79 92 75 93 76 94 77 95
REMARK SMILES IDX 78 96 57 97 58 98 66 99 59 100 65 101 67 102 64 103 60 104
REMARK SMILES IDX 61 105 62 106 63 107
REMARK H PARENT 5 17 87 60 55 71
REMARK Flexibility Score: inf
ROOT
ATOM      1  C   UNL A   1      39.054  24.610  27.623  1.00  0.00     0.188 C 
ENDROOT
BRANCH   1   2
ATOM      2  C   UNL A   1      39.266  23.333  26.805  1.00  0.00     0.188 C 
BRANCH   2   3
ATOM      3  O   UNL A   1      38.094  22.818  26.172  1.00  0.00    -0.376 OA
BRANCH   3   4
ATOM      4  C   UNL A   1      38.260  21.644  25.375  1.00  0.00     0.202 C 
BRANCH   4   5
ATOM      5  C   UNL A   1      36.985  20.855  25.065  1.00  0.00     0.261 C 
BRANCH   5   6
ATOM      6  O   UNL A   1      35.849  21.678  24.686  1.00  0.00    -0.463 OA
BRANCH   6   7
ATOM      7  C   UNL A   1      34.641  21.099  24.863  1.00  0.00     0.310 C 
ATOM      8  O   UNL A   1      34.499  19.879  24.956  1.00  0.00    -0.252 OA
BRANCH   7   9
ATOM      9  C   UNL A   1      33.449  22.035  25.073  1.00  0.00     0.116 C 
ATOM     10  C   UNL A   1      32.127  21.991  24.274  1.00  0.00     0.097 C 
ATOM     11  C   UNL A   1      31.257  23.204  24.722  1.00  0.00     0.041 C 
ATOM     12  C   UNL A   1      31.055  23.238  26.207  1.00  0.00    -0.030 C 
ATOM     13  C   UNL A   1      33.071  21.824  26.572  1.00  0.00     0.043 C 
ATOM     14  C   UNL A   1      31.866  22.581  27.044  1.00  0.00    -0.030 C 
BRANCH  10  15
ATOM     15  C   UNL A   1      32.193  22.054  22.760  1.00  0.00     0.230 C 
ATOM     16  N   UNL A   1      32.560  23.162  22.068  1.00  0.00    -0.302 N 
ATOM     17  H   UNL A   1      32.828  22.978  21.138  1.00  0.00     0.172 HD
ATOM     18  O   UNL A   1      31.950  21.035  22.096  1.00  0.00    -0.274 OA
BRANCH  16  19
ATOM     19  C   UNL A   1      32.630  24.482  22.411  1.00  0.00     0.190 A 
ATOM     20  C   UNL A   1      33.354  27.522  24.642  1.00  0.00     0.059 C 
ATOM     21  C   UNL A   1      32.931  26.548  23.603  1.00  0.00     0.031 A 
ATOM     22  S   UNL A   1      33.885  25.161  23.325  1.00  0.00    -0.101 S 
ATOM     23  C   UNL A   1      31.822  26.495  22.775  1.00  0.00     0.086 A 
ATOM     24  N   UNL A   1      31.681  25.316  22.058  1.00  0.00    -0.220 NA
BRANCH  23  25
ATOM     25  C   UNL A   1      30.817  27.535  22.703  1.00  0.00     0.001 A 
ATOM     26  C   UNL A   1      29.524  27.312  23.183  1.00  0.00     0.011 A 
ATOM     27  C   UNL A   1      31.136  28.775  22.151  1.00  0.00     0.011 A 
ATOM     28  C   UNL A   1      28.564  28.326  23.114  1.00  0.00     0.004 A 
ATOM     29  C   UNL A   1      30.174  29.776  22.052  1.00  0.00     0.004 A 
ATOM     30  C   UNL A   1      28.876  29.565  22.532  1.00  0.00    -0.045 A 
BRANCH  30  31
ATOM     31  C   UNL A   1      27.867  30.692  22.427  1.00  0.00     0.013 C 
ATOM     32  C   UNL A   1      27.927  31.643  23.623  1.00  0.00     0.012 C 
ATOM     33  C   UNL A   1      28.043  31.443  21.108  1.00  0.00     0.012 C 
ENDBRANCH  30  31
ENDBRANCH  23  25
ENDBRANCH  16  19
ENDBRANCH  10  15
ENDBRANCH   7   9
ENDBRANCH   6   7
ENDBRANCH   5   6
ENDBRANCH   4   5
ENDBRANCH   3   4
ENDBRANCH   2   3
ENDBRANCH   1   2
BRANCH   1  34
ATOM     34  O   UNL A   1      40.284  25.219  27.991  1.00  0.00    -0.377 OA
BRANCH  34  35
ATOM     35  C   UNL A   1      40.727  26.374  27.278  1.00  0.00     0.188 C 
BRANCH  35  36
ATOM     36  C   UNL A   1      41.168  26.236  25.822  1.00  0.00     0.188 C 
BRANCH  36  37
ATOM     37  O   UNL A   1      42.567  26.084  25.595  1.00  0.00    -0.376 OA
BRANCH  37  38
ATOM     38  C   UNL A   1      43.146  24.794  25.794  1.00  0.00     0.202 C 
BRANCH  38  39
ATOM     39  C   UNL A   1      43.978  24.632  27.067  1.00  0.00     0.261 C 
BRANCH  39  40
ATOM     40  O   UNL A   1      45.388  24.534  26.791  1.00  0.00    -0.460 OA
BRANCH  40  41
ATOM     41  C   UNL A   1      45.843  25.337  25.801  1.00  0.00     0.338 C 
ATOM     42  O   UNL A   1      46.046  25.028  24.640  1.00  0.00    -0.246 OA
BRANCH  41  43
ATOM     43  C   UNL A   1      45.993  26.718  26.296  1.00  0.00     0.060 A 
ATOM     44  C   UNL A   1      46.432  26.913  27.610  1.00  0.00     0.016 A 
ATOM     45  C   UNL A   1      45.566  27.799  25.519  1.00  0.00     0.016 A 
ATOM     46  C   UNL A   1      46.378  28.187  28.178  1.00  0.00     0.010 A 
ATOM     47  C   UNL A   1      45.506  29.072  26.092  1.00  0.00     0.010 A 
ATOM     48  C   UNL A   1      45.866  29.263  27.438  1.00  0.00    -0.014 A 
BRANCH  48  49
ATOM     49  C   UNL A   1      45.549  30.544  28.115  1.00  0.00     0.031 A 
ATOM     50  C   UNL A   1      46.408  31.747  27.841  1.00  0.00     0.074 A 
ATOM     51  C   UNL A   1      44.512  30.635  28.966  1.00  0.00     0.049 A 
ATOM     52  N   UNL A   1      46.340  32.949  28.349  1.00  0.00    -0.248 NA
ATOM     53  C   UNL A   1      47.506  31.557  26.881  1.00  0.00     0.031 C 
ATOM     54  C   UNL A   1      43.624  29.530  29.311  1.00  0.00     0.029 A 
ATOM     55  N   UNL A   1      44.030  31.695  29.691  1.00  0.00    -0.354 N 
ATOM     56  C   UNL A   1      47.405  33.653  27.799  1.00  0.00     0.074 A 
ATOM     57  C   UNL A   1      48.109  32.735  26.929  1.00  0.00     0.031 C 
ATOM     58  C   UNL A   1      42.684  29.980  30.159  1.00  0.00     0.029 A 
ATOM     59  C   UNL A   1      42.920  31.390  30.444  1.00  0.00     0.049 A 
ATOM     60  H   UNL A   1      44.440  32.590  29.674  1.00  0.00     0.167 HD
ATOM     61  C   UNL A   1      47.762  34.945  28.008  1.00  0.00     0.034 A 
ATOM     62  C   UNL A   1      42.185  32.156  31.275  1.00  0.00     0.034 A 
ATOM     63  C   UNL A   1      47.047  35.842  28.883  1.00  0.00     0.049 A 
ATOM     64  C   UNL A   1      42.609  33.586  31.499  1.00  0.00     0.074 A 
ATOM     65  C   UNL A   1      47.304  37.176  29.150  1.00  0.00     0.029 A 
ATOM     66  N   UNL A   1      45.937  35.494  29.646  1.00  0.00    -0.354 N 
ATOM     67  N   UNL A   1      43.610  34.245  30.962  1.00  0.00    -0.248 NA
ATOM     68  C   UNL A   1      41.816  34.369  32.454  1.00  0.00     0.031 C 
ATOM     69  C   UNL A   1      46.397  37.613  30.123  1.00  0.00     0.029 A 
ATOM     70  C   UNL A   1      45.523  36.577  30.408  1.00  0.00     0.049 A 
ATOM     71  H   UNL A   1      45.508  34.609  29.645  1.00  0.00     0.167 HD
ATOM     72  C   UNL A   1      43.559  35.524  31.507  1.00  0.00     0.074 A 
ATOM     73  C   UNL A   1      42.412  35.551  32.391  1.00  0.00     0.031 C 
ATOM     74  C   UNL A   1      44.388  36.580  31.301  1.00  0.00     0.034 A 
BRANCH  61  75
ATOM     75  C   UNL A   1      49.023  35.429  27.333  1.00  0.00     0.023 A 
ATOM     76  C   UNL A   1      50.285  35.320  27.942  1.00  0.00     0.031 A 
ATOM     77  C   UNL A   1      48.951  36.056  26.075  1.00  0.00     0.131 A 
ATOM     78  C   UNL A   1      51.409  35.898  27.332  1.00  0.00     0.055 A 
ATOM     79  C   UNL A   1      50.087  36.558  25.436  1.00  0.00     0.041 A 
ATOM     80  F   UNL A   1      47.772  36.211  25.454  1.00  0.00    -0.206 F 
ATOM     81  C   UNL A   1      51.323  36.496  26.072  1.00  0.00     0.022 A 
BRANCH  78  82
ATOM     82  S   UNL A   1      52.954  35.996  28.276  1.00  0.00     0.124 S 
ATOM     83  O   UNL A   1      53.955  35.926  27.215  1.00  0.00    -0.237 OA
ATOM     84  O   UNL A   1      52.828  37.281  28.954  1.00  0.00    -0.237 OA
ATOM     85  O   UNL A   1      52.899  34.824  29.148  1.00  0.00    -0.744 OA
ENDBRANCH  78  82
ENDBRANCH  61  75
BRANCH  62  86
ATOM     86  C   UNL A   1      40.991  31.597  31.974  1.00  0.00     0.023 A 
ATOM     87  C   UNL A   1      39.724  31.622  31.367  1.00  0.00     0.031 A 
ATOM     88  C   UNL A   1      41.085  31.067  33.272  1.00  0.00     0.131 A 
ATOM     89  C   UNL A   1      38.600  31.162  32.071  1.00  0.00     0.055 A 
ATOM     90  C   UNL A   1      39.973  30.559  33.946  1.00  0.00     0.041 A 
ATOM     91  F   UNL A   1      42.270  31.018  33.902  1.00  0.00    -0.206 F 
ATOM     92  C   UNL A   1      38.718  30.616  33.350  1.00  0.00     0.022 A 
BRANCH  89  93
ATOM     93  S   UNL A   1      36.961  31.357  31.317  1.00  0.00     0.124 S 
ATOM     94  O   UNL A   1      36.305  30.113  31.704  1.00  0.00    -0.237 OA
ATOM     95  O   UNL A   1      36.474  32.570  31.967  1.00  0.00    -0.237 OA
ATOM     96  O   UNL A   1      37.255  31.491  29.892  1.00  0.00    -0.744 OA
ENDBRANCH  89  93
ENDBRANCH  62  86
BRANCH  74  97
ATOM     97  C   UNL A   1      44.054  37.858  32.032  1.00  0.00     0.023 A 
ATOM     98  C   UNL A   1      43.416  38.932  31.387  1.00  0.00     0.031 A 
ATOM     99  C   UNL A   1      44.395  38.006  33.388  1.00  0.00     0.131 A 
ATOM    100  C   UNL A   1      43.190  40.129  32.083  1.00  0.00     0.055 A 
ATOM    101  C   UNL A   1      44.114  39.178  34.092  1.00  0.00     0.041 A 
ATOM    102  F   UNL A   1      45.008  37.013  34.051  1.00  0.00    -0.206 F 
ATOM    103  C   UNL A   1      43.521  40.253  33.436  1.00  0.00     0.022 A 
BRANCH 100 104
ATOM    104  S   UNL A   1      42.544  41.559  31.172  1.00  0.00     0.124 S 
ATOM    105  O   UNL A   1      42.979  42.673  32.009  1.00  0.00    -0.237 OA
ATOM    106  O   UNL A   1      43.211  41.434  29.881  1.00  0.00    -0.237 OA
ATOM    107  O   UNL A   1      41.101  41.327  31.149  1.00  0.00    -0.744 OA
ENDBRANCH 100 104
ENDBRANCH  74  97
ENDBRANCH  48  49
ENDBRANCH  41  43
ENDBRANCH  40  41
ENDBRANCH  39  40
ENDBRANCH  38  39
ENDBRANCH  37  38
ENDBRANCH  36  37
ENDBRANCH  35  36
ENDBRANCH  34  35
ENDBRANCH   1  34
TORSDOF 27
ENDMDL
MODEL 2
REMARK VINA RESULT:      -8.9      6.919     12.881
REMARK SMILES Cc1sc(NC(=O)[C@@H]2CC=CC[C@H]2C(=O)OCCOCCOCCOCCOC(=O)c2ccc(-c3c4nc(c(-c5cc(S(=O)(=O)[O-])ccc5F)c5ccc([nH]5)c(-c5cc(S(=O)(=O)[O-])ccc5F)c5nc(c(-c6cc(S(=O)(=O)[O-])ccc6F)c6ccc3[nH]6)C=C5)C=C4)cc2)nc1-c1ccc(C(C)C)cc1
REMARK SMILES IDX 21 1 20 2 19 3 18 4 17 5 16 6 14 7 15 8 13 9 8 10 9 11 10 12
REMARK SMILES IDX 12 13 11 14 6 15 5 16 7 18 4 19 1 20 2 21 3 22 95 23 94 24
REMARK SMILES IDX 96 25 97 26 104 27 98 28 103 29 99 30 100 31 101 32 102 33
REMARK SMILES IDX 22 34 23 35 24 36 25 37 26 38 27 39 28 40 29 41 30 42 31 43
REMARK SMILES IDX 32 44 93 45 33 46 92 47 34 48 35 49 36 50 86 51 37 52 91 53
REMARK SMILES IDX 85 54 87 55 38 56 90 57 84 58 83 59 39 61 71 62 51 63 70 64
REMARK SMILES IDX 52 65 55 66 69 67 88 68 53 69 54 70 68 72 89 73 56 74 40 75
REMARK SMILES IDX 41 76 49 77 42 78 48 79 50 80 47 81 43 82 44 83 45 84 46 85
REMARK SMILES IDX 72 86 73 87 81 88 74 89 80 90 82 91 79 92 75 93 76 94 77 95
REMARK SMILES IDX 78 96 57 97 58 98 66 99 59 100 65 101 67 102 64 103 60 104
REMARK SMILES IDX 61 105 62 106 63 107
REMARK H PARENT 5 17 87 60 55 71
REMARK Flexibility Score: inf
ROOT
ATOM      1  C   UNL A   1      34.796  34.463  33.484  1.00  0.00     0.188 C 
ENDROOT
BRANCH   1   2
ATOM      2  C   UNL A   1      36.138  34.271  34.196  1.00  0.00     0.188 C 
BRANCH   2   3
ATOM      3  O   UNL A   1      36.272  33.045  34.915  1.00  0.00    -0.376 OA
BRANCH   3   4
ATOM      4  C   UNL A   1      37.205  33.035  35.997  1.00  0.00     0.202 C 
BRANCH   4   5
ATOM      5  C   UNL A   1      38.342  32.013  35.896  1.00  0.00     0.261 C 
BRANCH   5   6
ATOM      6  O   UNL A   1      38.339  31.235  34.670  1.00  0.00    -0.463 OA
BRANCH   6   7
ATOM      7  C   UNL A   1      39.343  30.336  34.564  1.00  0.00     0.310 C 
ATOM      8  O   UNL A   1      39.962  29.916  35.542  1.00  0.00    -0.252 OA
BRANCH   7   9
ATOM      9  C   UNL A   1      39.605  29.752  33.174  1.00  0.00     0.116 C 
ATOM     10  C   UNL A   1      40.850  28.929  32.770  1.00  0.00     0.097 C 
ATOM     11  C   UNL A   1      40.769  28.660  31.237  1.00  0.00     0.041 C 
ATOM     12  C   UNL A   1      39.475  28.013  30.844  1.00  0.00    -0.030 C 
ATOM     13  C   UNL A   1      38.366  28.840  32.913  1.00  0.00     0.043 C 
ATOM     14  C   UNL A   1      38.392  28.072  31.627  1.00  0.00    -0.030 C 
BRANCH  10  15
ATOM     15  C   UNL A   1      42.223  29.523  33.024  1.00  0.00     0.230 C 
ATOM     16  N   UNL A   1      43.223  28.863  33.661  1.00  0.00    -0.302 N 
ATOM     17  H   UNL A   1      44.115  29.248  33.503  1.00  0.00     0.172 HD
ATOM     18  O   UNL A   1      42.487  30.655  32.593  1.00  0.00    -0.274 OA
BRANCH  16  19
ATOM     19  C   UNL A   1      43.231  27.768  34.478  1.00  0.00     0.190 A 
ATOM     20  C   UNL A   1      43.684  25.793  37.739  1.00  0.00     0.059 C 
ATOM     21  C   UNL A   1      43.492  26.282  36.349  1.00  0.00     0.031 A 
ATOM     22  S   UNL A   1      42.725  27.785  36.095  1.00  0.00    -0.101 S 
ATOM     23  C   UNL A   1      43.867  25.764  35.121  1.00  0.00     0.086 A 
ATOM     24  N   UNL A   1      43.671  26.612  34.042  1.00  0.00    -0.220 NA
BRANCH  23  25
ATOM     25  C   UNL A   1      44.499  24.473  34.948  1.00  0.00     0.001 A 
ATOM     26  C   UNL A   1      43.759  23.365  34.531  1.00  0.00     0.011 A 
ATOM     27  C   UNL A   1      45.864  24.326  35.199  1.00  0.00     0.011 A 
ATOM     28  C   UNL A   1      44.382  22.125  34.361  1.00  0.00     0.004 A 
ATOM     29  C   UNL A   1      46.480  23.086  35.061  1.00  0.00     0.004 A 
ATOM     30  C   UNL A   1      45.748  21.970  34.641  1.00  0.00    -0.045 A 
BRANCH  30  31
ATOM     31  C   UNL A   1      46.466  20.644  34.480  1.00  0.00     0.013 C 
ATOM     32  C   UNL A   1      47.950  20.736  34.839  1.00  0.00     0.012 C 
ATOM     33  C   UNL A   1      45.763  19.556  35.291  1.00  0.00     0.012 C 
ENDBRANCH  30  31
ENDBRANCH  23  25
ENDBRANCH  16  19
ENDBRANCH  10  15
ENDBRANCH   7   9
ENDBRANCH   6   7
ENDBRANCH   5   6
ENDBRANCH   4   5
ENDBRANCH   3   4
ENDBRANCH   2   3
ENDBRANCH   1   2
BRANCH   1  34
ATOM     34  O   UNL A   1      34.941  35.153  32.250  1.00  0.00    -0.377 OA
BRANCH  34  35
ATOM     35  C   UNL A   1      33.773  35.462  31.488  1.00  0.00     0.188 C 
BRANCH  35  36
ATOM     36  C   UNL A   1      33.668  34.975  30.045  1.00  0.00     0.188 C 
BRANCH  36  37
ATOM     37  O   UNL A   1      34.470  33.849  29.695  1.00  0.00    -0.376 OA
BRANCH  37  38
ATOM     38  C   UNL A   1      33.825  32.718  29.107  1.00  0.00     0.202 C 
BRANCH  38  39
ATOM     39  C   UNL A   1      34.720  31.813  28.260  1.00  0.00     0.261 C 
BRANCH  39  40
ATOM     40  O   UNL A   1      36.097  32.235  28.275  1.00  0.00    -0.460 OA
BRANCH  40  41
ATOM     41  C   UNL A   1      36.893  31.587  29.158  1.00  0.00     0.338 C 
ATOM     42  O   UNL A   1      36.677  30.511  29.688  1.00  0.00    -0.246 OA
BRANCH  41  43
ATOM     43  C   UNL A   1      38.152  32.331  29.349  1.00  0.00     0.060 A 
ATOM     44  C   UNL A   1      39.248  31.659  29.902  1.00  0.00     0.016 A 
ATOM     45  C   UNL A   1      38.202  33.709  29.121  1.00  0.00     0.016 A 
ATOM     46  C   UNL A   1      40.377  32.380  30.294  1.00  0.00     0.010 A 
ATOM     47  C   UNL A   1      39.330  34.428  29.521  1.00  0.00     0.010 A 
ATOM     48  C   UNL A   1      40.402  33.775  30.154  1.00  0.00    -0.014 A 
BRANCH  48  49
ATOM     49  C   UNL A   1      41.467  34.568  30.815  1.00  0.00     0.031 A 
ATOM     50  C   UNL A   1      41.467  34.684  32.314  1.00  0.00     0.074 A 
ATOM     51  C   UNL A   1      42.420  35.179  30.091  1.00  0.00     0.049 A 
ATOM     52  N   UNL A   1      42.272  35.355  33.095  1.00  0.00    -0.248 NA
ATOM     53  C   UNL A   1      40.397  33.965  33.022  1.00  0.00     0.031 C 
ATOM     54  C   UNL A   1      42.508  35.141  28.636  1.00  0.00     0.029 A 
ATOM     55  N   UNL A   1      43.492  35.947  30.474  1.00  0.00    -0.354 N 
ATOM     56  C   UNL A   1      41.790  35.169  34.385  1.00  0.00     0.074 A 
ATOM     57  C   UNL A   1      40.613  34.333  34.276  1.00  0.00     0.031 C 
ATOM     58  C   UNL A   1      43.595  35.829  28.250  1.00  0.00     0.029 A 
ATOM     59  C   UNL A   1      44.261  36.383  29.422  1.00  0.00     0.049 A 
ATOM     60  H   UNL A   1      43.689  36.164  31.413  1.00  0.00     0.167 HD
ATOM     61  C   UNL A   1      42.282  35.657  35.551  1.00  0.00     0.034 A 
ATOM     62  C   UNL A   1      45.370  37.151  29.404  1.00  0.00     0.034 A 
ATOM     63  C   UNL A   1      43.456  36.492  35.637  1.00  0.00     0.049 A 
ATOM     64  C   UNL A   1      45.892  37.691  30.711  1.00  0.00     0.074 A 
ATOM     65  C   UNL A   1      44.059  37.022  36.765  1.00  0.00     0.029 A 
ATOM     66  N   UNL A   1      44.202  36.932  34.548  1.00  0.00    -0.354 N 
ATOM     67  N   UNL A   1      45.435  37.495  31.927  1.00  0.00    -0.248 NA
ATOM     68  C   UNL A   1      47.068  38.567  30.643  1.00  0.00     0.031 C 
ATOM     69  C   UNL A   1      45.122  37.836  36.355  1.00  0.00     0.029 A 
ATOM     70  C   UNL A   1      45.234  37.753  34.976  1.00  0.00     0.049 A 
ATOM     71  H   UNL A   1      44.023  36.695  33.610  1.00  0.00     0.167 HD
ATOM     72  C   UNL A   1      46.276  38.218  32.768  1.00  0.00     0.074 A 
ATOM     73  C   UNL A   1      47.283  38.828  31.924  1.00  0.00     0.031 C 
ATOM     74  C   UNL A   1      46.218  38.370  34.117  1.00  0.00     0.034 A 
BRANCH  61  75
ATOM     75  C   UNL A   1      41.503  35.356  36.808  1.00  0.00     0.023 A 
ATOM     76  C   UNL A   1      41.938  34.404  37.746  1.00  0.00     0.031 A 
ATOM     77  C   UNL A   1      40.276  36.002  37.047  1.00  0.00     0.131 A 
ATOM     78  C   UNL A   1      41.117  34.067  38.835  1.00  0.00     0.055 A 
ATOM     79  C   UNL A   1      39.502  35.721  38.175  1.00  0.00     0.041 A 
ATOM     80  F   UNL A   1      39.797  36.903  36.176  1.00  0.00    -0.206 F 
ATOM     81  C   UNL A   1      39.913  34.736  39.068  1.00  0.00     0.022 A 
BRANCH  78  82
ATOM     82  S   UNL A   1      41.571  32.637  39.853  1.00  0.00     0.124 S 
ATOM     83  O   UNL A   1      42.185  31.753  38.866  1.00  0.00    -0.237 OA
ATOM     84  O   UNL A   1      42.474  33.224  40.836  1.00  0.00    -0.237 OA
ATOM     85  O   UNL A   1      40.290  32.172  40.383  1.00  0.00    -0.744 OA
ENDBRANCH  78  82
ENDBRANCH  61  75
BRANCH  62  86
ATOM     86  C   UNL A   1      46.054  37.476  28.118  1.00  0.00     0.023 A 
ATOM     87  C   UNL A   1      45.868  38.723  27.498  1.00  0.00     0.031 A 
ATOM     88  C   UNL A   1      46.871  36.536  27.466  1.00  0.00     0.131 A 
ATOM     89  C   UNL A   1      46.458  38.982  26.251  1.00  0.00     0.055 A 
ATOM     90  C   UNL A   1      47.501  36.818  26.253  1.00  0.00     0.041 A 
ATOM     91  F   UNL A   1      47.084  35.327  28.011  1.00  0.00    -0.206 F 
ATOM     92  C   UNL A   1      47.286  38.044  25.631  1.00  0.00     0.022 A 
BRANCH  89  93
ATOM     93  S   UNL A   1      46.067  40.540  25.408  1.00  0.00     0.124 S 
ATOM     94  O   UNL A   1      44.609  40.510  25.389  1.00  0.00    -0.237 OA
ATOM     95  O   UNL A   1      46.677  41.524  26.297  1.00  0.00    -0.237 OA
ATOM     96  O   UNL A   1      46.713  40.394  24.106  1.00  0.00    -0.744 OA
ENDBRANCH  89  93
ENDBRANCH  62  86
BRANCH  74  97
ATOM     97  C   UNL A   1      47.299  39.211  34.753  1.00  0.00     0.023 A 
ATOM     98  C   UNL A   1      48.506  38.645  35.200  1.00  0.00     0.031 A 
ATOM     99  C   UNL A   1      47.109  40.593  34.926  1.00  0.00     0.131 A 
ATOM    100  C   UNL A   1      49.454  39.449  35.852  1.00  0.00     0.055 A 
ATOM    101  C   UNL A   1      48.081  41.398  35.522  1.00  0.00     0.041 A 
ATOM    102  F   UNL A   1      45.974  41.183  34.520  1.00  0.00    -0.206 F 
ATOM    103  C   UNL A   1      49.255  40.825  36.001  1.00  0.00     0.022 A 
BRANCH 100 104
ATOM    104  S   UNL A   1      50.910  38.657  36.588  1.00  0.00     0.124 S 
ATOM    105  O   UNL A   1      51.295  37.706  35.550  1.00  0.00    -0.237 OA
ATOM    106  O   UNL A   1      51.813  39.785  36.785  1.00  0.00    -0.237 OA
ATOM    107  O   UNL A   1      50.391  38.057  37.816  1.00  0.00    -0.744 OA
ENDBRANCH 100 104
ENDBRANCH  74  97
ENDBRANCH  48  49
ENDBRANCH  41  43
ENDBRANCH  40  41
ENDBRANCH  39  40
ENDBRANCH  38  39
ENDBRANCH  37  38
ENDBRANCH  36  37
ENDBRANCH  35  36
ENDBRANCH  34  35
ENDBRANCH   1  34
TORSDOF 27
ENDMDL
MODEL 3
REMARK VINA RESULT:      -8.8      5.077      7.025
REMARK SMILES Cc1sc(NC(=O)[C@@H]2CC=CC[C@H]2C(=O)OCCOCCOCCOCCOC(=O)c2ccc(-c3c4nc(c(-c5cc(S(=O)(=O)[O-])ccc5F)c5ccc([nH]5)c(-c5cc(S(=O)(=O)[O-])ccc5F)c5nc(c(-c6cc(S(=O)(=O)[O-])ccc6F)c6ccc3[nH]6)C=C5)C=C4)cc2)nc1-c1ccc(C(C)C)cc1
REMARK SMILES IDX 21 1 20 2 19 3 18 4 17 5 16 6 14 7 15 8 13 9 8 10 9 11 10 12
REMARK SMILES IDX 12 13 11 14 6 15 5 16 7 18 4 19 1 20 2 21 3 22 95 23 94 24
REMARK SMILES IDX 96 25 97 26 104 27 98 28 103 29 99 30 100 31 101 32 102 33
REMARK SMILES IDX 22 34 23 35 24 36 25 37 26 38 27 39 28 40 29 41 30 42 31 43
REMARK SMILES IDX 32 44 93 45 33 46 92 47 34 48 35 49 36 50 86 51 37 52 91 53
REMARK SMILES IDX 85 54 87 55 38 56 90 57 84 58 83 59 39 61 71 62 51 63 70 64
REMARK SMILES IDX 52 65 55 66 69 67 88 68 53 69 54 70 68 72 89 73 56 74 40 75
REMARK SMILES IDX 41 76 49 77 42 78 48 79 50 80 47 81 43 82 44 83 45 84 46 85
REMARK SMILES IDX 72 86 73 87 81 88 74 89 80 90 82 91 79 92 75 93 76 94 77 95
REMARK SMILES IDX 78 96 57 97 58 98 66 99 59 100 65 101 67 102 64 103 60 104
REMARK SMILES IDX 61 105 62 106 63 107
REMARK H PARENT 5 17 87 60 55 71
REMARK Flexibility Score: inf
ROOT
ATOM      1  C   UNL A   1      39.263  24.737  27.878  1.00  0.00     0.188 C 
ENDROOT
BRANCH   1   2
ATOM      2  C   UNL A   1      39.002  24.190  26.471  1.00  0.00     0.188 C 
BRANCH   2   3
ATOM      3  O   UNL A   1      37.860  23.342  26.353  1.00  0.00    -0.376 OA
BRANCH   3   4
ATOM      4  C   UNL A   1      37.879  22.385  25.292  1.00  0.00     0.202 C 
BRANCH   4   5
ATOM      5  C   UNL A   1      36.637  21.499  25.162  1.00  0.00     0.261 C 
BRANCH   5   6
ATOM      6  O   UNL A   1      35.391  22.233  25.017  1.00  0.00    -0.463 OA
BRANCH   6   7
ATOM      7  C   UNL A   1      34.507  22.058  26.024  1.00  0.00     0.310 C 
ATOM      8  O   UNL A   1      34.809  21.504  27.082  1.00  0.00    -0.252 OA
BRANCH   7   9
ATOM      9  C   UNL A   1      33.126  22.695  25.851  1.00  0.00     0.116 C 
ATOM     10  C   UNL A   1      32.061  22.252  24.822  1.00  0.00     0.097 C 
ATOM     11  C   UNL A   1      30.873  23.258  24.901  1.00  0.00     0.041 C 
ATOM     12  C   UNL A   1      30.336  23.392  26.295  1.00  0.00    -0.030 C 
ATOM     13  C   UNL A   1      32.471  22.551  27.259  1.00  0.00     0.043 C 
ATOM     14  C   UNL A   1      31.058  23.038  27.364  1.00  0.00    -0.030 C 
BRANCH  10  15
ATOM     15  C   UNL A   1      32.455  22.177  23.359  1.00  0.00     0.230 C 
ATOM     16  N   UNL A   1      32.952  23.226  22.658  1.00  0.00    -0.302 N 
ATOM     17  H   UNL A   1      33.418  22.966  21.830  1.00  0.00     0.172 HD
ATOM     18  O   UNL A   1      32.372  21.094  22.760  1.00  0.00    -0.274 OA
BRANCH  16  19
ATOM     19  C   UNL A   1      32.933  24.575  22.878  1.00  0.00     0.190 A 
ATOM     20  C   UNL A   1      33.453  27.848  24.816  1.00  0.00     0.059 C 
ATOM     21  C   UNL A   1      33.095  26.757  23.874  1.00  0.00     0.031 A 
ATOM     22  S   UNL A   1      34.141  25.418  23.716  1.00  0.00    -0.101 S 
ATOM     23  C   UNL A   1      31.991  26.553  23.063  1.00  0.00     0.086 A 
ATOM     24  N   UNL A   1      31.929  25.307  22.458  1.00  0.00    -0.220 NA
BRANCH  23  25
ATOM     25  C   UNL A   1      30.917  27.511  22.904  1.00  0.00     0.001 A 
ATOM     26  C   UNL A   1      29.641  27.243  23.403  1.00  0.00     0.011 A 
ATOM     27  C   UNL A   1      31.153  28.719  22.247  1.00  0.00     0.011 A 
ATOM     28  C   UNL A   1      28.614  28.179  23.250  1.00  0.00     0.004 A 
ATOM     29  C   UNL A   1      30.125  29.639  22.065  1.00  0.00     0.004 A 
ATOM     30  C   UNL A   1      28.843  29.382  22.563  1.00  0.00    -0.045 A 
BRANCH  30  31
ATOM     31  C   UNL A   1      27.759  30.424  22.364  1.00  0.00     0.013 C 
ATOM     32  C   UNL A   1      27.497  31.243  23.629  1.00  0.00     0.012 C 
ATOM     33  C   UNL A   1      28.099  31.325  21.177  1.00  0.00     0.012 C 
ENDBRANCH  30  31
ENDBRANCH  23  25
ENDBRANCH  16  19
ENDBRANCH  10  15
ENDBRANCH   7   9
ENDBRANCH   6   7
ENDBRANCH   5   6
ENDBRANCH   4   5
ENDBRANCH   3   4
ENDBRANCH   2   3
ENDBRANCH   1   2
BRANCH   1  34
ATOM     34  O   UNL A   1      40.403  25.584  27.919  1.00  0.00    -0.377 OA
BRANCH  34  35
ATOM     35  C   UNL A   1      40.446  26.730  27.068  1.00  0.00     0.188 C 
BRANCH  35  36
ATOM     36  C   UNL A   1      41.397  26.744  25.873  1.00  0.00     0.188 C 
BRANCH  36  37
ATOM     37  O   UNL A   1      42.743  27.131  26.139  1.00  0.00    -0.376 OA
BRANCH  37  38
ATOM     38  C   UNL A   1      43.741  26.110  26.186  1.00  0.00     0.202 C 
BRANCH  38  39
ATOM     39  C   UNL A   1      43.962  25.466  27.556  1.00  0.00     0.261 C 
BRANCH  39  40
ATOM     40  O   UNL A   1      45.352  25.446  27.933  1.00  0.00    -0.460 OA
BRANCH  40  41
ATOM     41  C   UNL A   1      45.985  26.642  27.880  1.00  0.00     0.338 C 
ATOM     42  O   UNL A   1      46.606  27.101  26.937  1.00  0.00    -0.246 OA
BRANCH  41  43
ATOM     43  C   UNL A   1      45.753  27.396  29.126  1.00  0.00     0.060 A 
ATOM     44  C   UNL A   1      44.995  26.796  30.138  1.00  0.00     0.016 A 
ATOM     45  C   UNL A   1      46.156  28.730  29.232  1.00  0.00     0.016 A 
ATOM     46  C   UNL A   1      44.576  27.555  31.233  1.00  0.00     0.010 A 
ATOM     47  C   UNL A   1      45.729  29.488  30.325  1.00  0.00     0.010 A 
ATOM     48  C   UNL A   1      44.897  28.918  31.304  1.00  0.00    -0.014 A 
BRANCH  48  49
ATOM     49  C   UNL A   1      44.231  29.784  32.307  1.00  0.00     0.031 A 
ATOM     50  C   UNL A   1      44.823  29.895  33.685  1.00  0.00     0.074 A 
ATOM     51  C   UNL A   1      43.112  30.461  31.997  1.00  0.00     0.049 A 
ATOM     52  N   UNL A   1      44.388  30.557  34.725  1.00  0.00    -0.248 NA
ATOM     53  C   UNL A   1      46.058  29.134  33.925  1.00  0.00     0.031 C 
ATOM     54  C   UNL A   1      42.450  30.417  30.698  1.00  0.00     0.029 A 
ATOM     55  N   UNL A   1      42.337  31.314  32.742  1.00  0.00    -0.354 N 
ATOM     56  C   UNL A   1      45.275  30.269  35.755  1.00  0.00     0.074 A 
ATOM     57  C   UNL A   1      46.264  29.359  35.214  1.00  0.00     0.031 C 
ATOM     58  C   UNL A   1      41.384  31.234  30.728  1.00  0.00     0.029 A 
ATOM     59  C   UNL A   1      41.267  31.832  32.052  1.00  0.00     0.049 A 
ATOM     60  H   UNL A   1      42.530  31.533  33.682  1.00  0.00     0.167 HD
ATOM     61  C   UNL A   1      45.261  30.718  37.034  1.00  0.00     0.034 A 
ATOM     62  C   UNL A   1      40.296  32.682  32.446  1.00  0.00     0.034 A 
ATOM     63  C   UNL A   1      44.263  31.623  37.554  1.00  0.00     0.049 A 
ATOM     64  C   UNL A   1      40.295  33.159  33.876  1.00  0.00     0.074 A 
ATOM     65  C   UNL A   1      44.164  32.163  38.825  1.00  0.00     0.029 A 
ATOM     66  N   UNL A   1      43.179  32.113  36.832  1.00  0.00    -0.354 N 
ATOM     67  N   UNL A   1      41.149  32.891  34.838  1.00  0.00    -0.248 NA
ATOM     68  C   UNL A   1      39.191  34.039  34.279  1.00  0.00     0.031 C 
ATOM     69  C   UNL A   1      42.988  32.919  38.891  1.00  0.00     0.029 A 
ATOM     70  C   UNL A   1      42.391  32.918  37.641  1.00  0.00     0.049 A 
ATOM     71  H   UNL A   1      42.998  31.917  35.885  1.00  0.00     0.167 HD
ATOM     72  C   UNL A   1      40.688  33.578  35.956  1.00  0.00     0.074 A 
ATOM     73  C   UNL A   1      39.500  34.296  35.541  1.00  0.00     0.031 C 
ATOM     74  C   UNL A   1      41.197  33.610  37.215  1.00  0.00     0.034 A 
BRANCH  61  75
ATOM     75  C   UNL A   1      46.314  30.174  37.969  1.00  0.00     0.023 A 
ATOM     76  C   UNL A   1      46.106  29.011  38.731  1.00  0.00     0.031 A 
ATOM     77  C   UNL A   1      47.530  30.861  38.136  1.00  0.00     0.131 A 
ATOM     78  C   UNL A   1      47.063  28.615  39.679  1.00  0.00     0.055 A 
ATOM     79  C   UNL A   1      48.513  30.417  39.023  1.00  0.00     0.041 A 
ATOM     80  F   UNL A   1      47.776  31.991  37.454  1.00  0.00    -0.206 F 
ATOM     81  C   UNL A   1      48.275  29.297  39.814  1.00  0.00     0.022 A 
BRANCH  78  82
ATOM     82  S   UNL A   1      46.635  27.291  40.842  1.00  0.00     0.124 S 
ATOM     83  O   UNL A   1      46.693  27.991  42.122  1.00  0.00    -0.237 OA
ATOM     84  O   UNL A   1      45.308  26.891  40.390  1.00  0.00    -0.237 OA
ATOM     85  O   UNL A   1      47.689  26.299  40.635  1.00  0.00    -0.744 OA
ENDBRANCH  78  82
ENDBRANCH  61  75
BRANCH  62  86
ATOM     86  C   UNL A   1      39.237  33.126  31.493  1.00  0.00     0.023 A 
ATOM     87  C   UNL A   1      37.934  32.605  31.571  1.00  0.00     0.031 A 
ATOM     88  C   UNL A   1      39.514  34.045  30.467  1.00  0.00     0.131 A 
ATOM     89  C   UNL A   1      36.972  32.977  30.619  1.00  0.00     0.055 A 
ATOM     90  C   UNL A   1      38.539  34.454  29.556  1.00  0.00     0.041 A 
ATOM     91  F   UNL A   1      40.742  34.576  30.343  1.00  0.00    -0.206 F 
ATOM     92  C   UNL A   1      37.261  33.910  29.621  1.00  0.00     0.022 A 
BRANCH  89  93
ATOM     93  S   UNL A   1      35.350  32.163  30.656  1.00  0.00     0.124 S 
ATOM     94  O   UNL A   1      35.381  31.384  29.424  1.00  0.00    -0.237 OA
ATOM     95  O   UNL A   1      35.424  31.403  31.900  1.00  0.00    -0.237 OA
ATOM     96  O   UNL A   1      34.409  33.281  30.665  1.00  0.00    -0.744 OA
ENDBRANCH  89  93
ENDBRANCH  62  86
BRANCH  74  97
ATOM     97  C   UNL A   1      40.474  34.476  38.218  1.00  0.00     0.023 A 
ATOM     98  C   UNL A   1      39.667  33.921  39.228  1.00  0.00     0.031 A 
ATOM     99  C   UNL A   1      40.583  35.876  38.151  1.00  0.00     0.131 A 
ATOM    100  C   UNL A   1      38.954  34.764  40.093  1.00  0.00     0.055 A 
ATOM    101  C   UNL A   1      39.919  36.708  39.053  1.00  0.00     0.041 A 
ATOM    102  F   UNL A   1      41.338  36.458  37.206  1.00  0.00    -0.206 F 
ATOM    103  C   UNL A   1      39.087  36.154  40.023  1.00  0.00     0.022 A 
BRANCH 100 104
ATOM    104  S   UNL A   1      37.774  34.023  41.255  1.00  0.00     0.124 S 
ATOM    105  O   UNL A   1      37.347  35.182  42.034  1.00  0.00    -0.237 OA
ATOM    106  O   UNL A   1      36.772  33.453  40.361  1.00  0.00    -0.237 OA
ATOM    107  O   UNL A   1      38.579  33.047  41.987  1.00  0.00    -0.744 OA
ENDBRANCH 100 104
ENDBRANCH  74  97
ENDBRANCH  48  49
ENDBRANCH  41  43
ENDBRANCH  40  41
ENDBRANCH  39  40
ENDBRANCH  38  39
ENDBRANCH  37  38
ENDBRANCH  36  37
ENDBRANCH  35  36
ENDBRANCH  34  35
ENDBRANCH   1  34
TORSDOF 27
ENDMDL
