MODEL 1
REMARK VINA RESULT:      -9.5      0.000      0.000
REMARK SMILES O=C(OCCOCCOCCOCCOC(=O)c1ccc(-c2c3nc(c(-c4cc(S(=O)(=O)[O-])ccc4F)c4ccc([nH]4)c(-c4cc(S(=O)(=O)[O-])ccc4F)c4nc(c(-c5cc(S(=O)(=O)[O-])ccc5F)c5ccc2[nH]5)C=C4)C=C3)cc1)c1ccc(N[C@H]2OC[C@@H](O)[C@@H](O)[C@H]2O)cc1
REMARK SMILES IDX 9 1 8 2 7 3 6 4 5 5 4 6 3 7 2 8 1 9 81 10 82 11 96 12 83 13
REMARK SMILES IDX 95 14 84 15 85 16 86 18 87 19 93 20 88 21 91 22 89 23 94 24
REMARK SMILES IDX 92 26 90 28 10 30 11 31 12 32 13 33 14 34 15 35 16 36 17 37
REMARK SMILES IDX 18 38 19 39 80 40 20 41 79 42 21 43 22 44 23 45 73 46 24 47
REMARK SMILES IDX 78 48 72 49 74 50 25 51 77 52 71 53 70 54 26 56 58 57 38 58
REMARK SMILES IDX 57 59 39 60 42 61 56 62 75 63 40 64 41 65 55 67 76 68 43 69
REMARK SMILES IDX 27 70 28 71 36 72 29 73 35 74 37 75 34 76 30 77 31 78 32 79
REMARK SMILES IDX 33 80 59 81 60 82 68 83 61 84 67 85 69 86 66 87 62 88 63 89
REMARK SMILES IDX 64 90 65 91 44 92 45 93 53 94 46 95 52 96 54 97 51 98 47 99
REMARK SMILES IDX 48 100 49 101 50 102
REMARK H PARENT 85 17 94 25 92 27 90 29 74 55 42 66
REMARK Flexibility Score: inf
ROOT
ATOM      1  O   UNL A   1      37.910  22.116  25.090  1.00  0.00    -0.377 OA
ENDROOT
BRANCH   1   2
ATOM      2  C   UNL A   1      37.004  23.030  24.478  1.00  0.00     0.188 C 
BRANCH   2   3
ATOM      3  C   UNL A   1      36.186  23.894  25.438  1.00  0.00     0.188 C 
BRANCH   3   4
ATOM      4  O   UNL A   1      34.892  24.158  24.894  1.00  0.00    -0.376 OA
BRANCH   4   5
ATOM      5  C   UNL A   1      34.342  25.435  25.207  1.00  0.00     0.202 C 
BRANCH   5   6
ATOM      6  C   UNL A   1      32.908  25.394  25.732  1.00  0.00     0.261 C 
BRANCH   6   7
ATOM      7  O   UNL A   1      31.927  25.461  24.686  1.00  0.00    -0.460 OA
BRANCH   7   8
ATOM      8  C   UNL A   1      31.231  24.426  24.159  1.00  0.00     0.338 C 
ATOM      9  O   UNL A   1      30.127  24.638  23.659  1.00  0.00    -0.246 OA
BRANCH   8  10
ATOM     10  C   UNL A   1      31.760  23.034  24.096  1.00  0.00     0.060 A 
ATOM     11  C   UNL A   1      31.786  22.144  25.167  1.00  0.00     0.018 A 
ATOM     12  C   UNL A   1      32.099  22.537  22.832  1.00  0.00     0.018 A 
ATOM     13  C   UNL A   1      32.193  20.817  24.999  1.00  0.00     0.026 A 
ATOM     14  C   UNL A   1      32.486  21.199  22.665  1.00  0.00     0.026 A 
ATOM     15  C   UNL A   1      32.566  20.322  23.752  1.00  0.00     0.036 A 
BRANCH  15  16
ATOM     16  N   UNL A   1      32.958  19.009  23.550  1.00  0.00    -0.358 N 
ATOM     17  H   UNL A   1      33.065  18.679  22.629  1.00  0.00     0.163 HD
BRANCH  16  18
ATOM     18  C   UNL A   1      33.216  18.104  24.660  1.00  0.00     0.244 C 
ATOM     19  O   UNL A   1      32.009  17.416  24.996  1.00  0.00    -0.353 OA
ATOM     20  C   UNL A   1      34.249  17.049  24.214  1.00  0.00     0.195 C 
ATOM     21  C   UNL A   1      32.160  16.579  26.152  1.00  0.00     0.197 C 
ATOM     22  C   UNL A   1      34.514  16.106  25.394  1.00  0.00     0.178 C 
ATOM     23  C   UNL A   1      33.207  15.484  25.914  1.00  0.00     0.171 C 
BRANCH  20  24
ATOM     24  O   UNL A   1      33.720  16.294  23.092  1.00  0.00    -0.386 OA
ATOM     25  H   UNL A   1      34.390  16.243  22.392  1.00  0.00     0.211 HD
ENDBRANCH  20  24
BRANCH  22  26
ATOM     26  O   UNL A   1      35.429  15.081  25.000  1.00  0.00    -0.387 OA
ATOM     27  H   UNL A   1      36.298  15.253  25.395  1.00  0.00     0.211 HD
ENDBRANCH  22  26
BRANCH  23  28
ATOM     28  O   UNL A   1      32.707  14.535  24.958  1.00  0.00    -0.388 OA
ATOM     29  H   UNL A   1      32.143  13.888  25.408  1.00  0.00     0.211 HD
ENDBRANCH  23  28
ENDBRANCH  16  18
ENDBRANCH  15  16
ENDBRANCH   8  10
ENDBRANCH   7   8
ENDBRANCH   6   7
ENDBRANCH   5   6
ENDBRANCH   4   5
ENDBRANCH   3   4
ENDBRANCH   2   3
ENDBRANCH   1   2
BRANCH   1  30
ATOM     30  C   UNL A   1      38.660  22.596  26.200  1.00  0.00     0.188 C 
BRANCH  30  31
ATOM     31  C   UNL A   1      40.023  21.944  26.523  1.00  0.00     0.188 C 
BRANCH  31  32
ATOM     32  O   UNL A   1      40.197  20.613  26.050  1.00  0.00    -0.376 OA
BRANCH  32  33
ATOM     33  C   UNL A   1      41.011  19.779  26.872  1.00  0.00     0.202 C 
BRANCH  33  34
ATOM     34  C   UNL A   1      42.200  19.142  26.139  1.00  0.00     0.261 C 
BRANCH  34  35
ATOM     35  O   UNL A   1      42.706  19.911  25.037  1.00  0.00    -0.460 OA
BRANCH  35  36
ATOM     36  C   UNL A   1      43.923  20.483  25.184  1.00  0.00     0.338 C 
ATOM     37  O   UNL A   1      44.976  20.084  24.719  1.00  0.00    -0.246 OA
BRANCH  36  38
ATOM     38  C   UNL A   1      43.713  21.823  25.785  1.00  0.00     0.060 A 
ATOM     39  C   UNL A   1      43.321  22.874  24.945  1.00  0.00     0.016 A 
ATOM     40  C   UNL A   1      43.785  22.017  27.170  1.00  0.00     0.016 A 
ATOM     41  C   UNL A   1      43.030  24.129  25.486  1.00  0.00     0.010 A 
ATOM     42  C   UNL A   1      43.507  23.277  27.709  1.00  0.00     0.010 A 
ATOM     43  C   UNL A   1      43.165  24.348  26.865  1.00  0.00    -0.014 A 
BRANCH  43  44
ATOM     44  C   UNL A   1      43.251  25.740  27.371  1.00  0.00     0.031 A 
ATOM     45  C   UNL A   1      44.608  26.394  27.336  1.00  0.00     0.074 A 
ATOM     46  C   UNL A   1      42.180  26.422  27.817  1.00  0.00     0.049 A 
ATOM     47  N   UNL A   1      44.965  27.599  27.692  1.00  0.00    -0.248 NA
ATOM     48  C   UNL A   1      45.711  25.561  26.831  1.00  0.00     0.031 C 
ATOM     49  C   UNL A   1      40.812  25.912  27.875  1.00  0.00     0.029 A 
ATOM     50  N   UNL A   1      42.083  27.701  28.308  1.00  0.00    -0.354 N 
ATOM     51  C   UNL A   1      46.331  27.672  27.443  1.00  0.00     0.074 A 
ATOM     52  C   UNL A   1      46.745  26.373  26.960  1.00  0.00     0.031 C 
ATOM     53  C   UNL A   1      40.011  26.873  28.375  1.00  0.00     0.029 A 
ATOM     54  C   UNL A   1      40.812  28.055  28.694  1.00  0.00     0.049 A 
ATOM     55  H   UNL A   1      42.855  28.309  28.377  1.00  0.00     0.167 HD
ATOM     56  C   UNL A   1      47.167  28.728  27.586  1.00  0.00     0.034 A 
ATOM     57  C   UNL A   1      40.357  29.199  29.249  1.00  0.00     0.034 A 
ATOM     58  C   UNL A   1      46.756  30.007  28.105  1.00  0.00     0.049 A 
ATOM     59  C   UNL A   1      41.329  30.333  29.500  1.00  0.00     0.074 A 
ATOM     60  C   UNL A   1      47.517  31.145  28.295  1.00  0.00     0.029 A 
ATOM     61  N   UNL A   1      45.471  30.309  28.538  1.00  0.00    -0.354 N 
ATOM     62  N   UNL A   1      42.612  30.402  29.228  1.00  0.00    -0.248 NA
ATOM     63  C   UNL A   1      40.783  31.547  30.124  1.00  0.00     0.031 C 
ATOM     64  C   UNL A   1      46.712  32.111  28.909  1.00  0.00     0.029 A 
ATOM     65  C   UNL A   1      45.426  31.605  29.026  1.00  0.00     0.049 A 
ATOM     66  H   UNL A   1      44.703  29.693  28.502  1.00  0.00     0.167 HD
ATOM     67  C   UNL A   1      43.015  31.681  29.612  1.00  0.00     0.074 A 
ATOM     68  C   UNL A   1      41.837  32.349  30.123  1.00  0.00     0.031 C 
ATOM     69  C   UNL A   1      44.243  32.257  29.539  1.00  0.00     0.034 A 
BRANCH  56  70
ATOM     70  C   UNL A   1      48.616  28.502  27.229  1.00  0.00     0.023 A 
ATOM     71  C   UNL A   1      49.066  28.585  25.899  1.00  0.00     0.031 A 
ATOM     72  C   UNL A   1      49.540  28.124  28.216  1.00  0.00     0.131 A 
ATOM     73  C   UNL A   1      50.380  28.209  25.581  1.00  0.00     0.055 A 
ATOM     74  C   UNL A   1      50.871  27.837  27.904  1.00  0.00     0.041 A 
ATOM     75  F   UNL A   1      49.161  28.000  29.497  1.00  0.00    -0.206 F 
ATOM     76  C   UNL A   1      51.293  27.860  26.578  1.00  0.00     0.022 A 
BRANCH  73  77
ATOM     77  S   UNL A   1      50.827  28.020  23.833  1.00  0.00     0.124 S 
ATOM     78  O   UNL A   1      49.531  28.179  23.178  1.00  0.00    -0.237 OA
ATOM     79  O   UNL A   1      51.781  29.104  23.632  1.00  0.00    -0.237 OA
ATOM     80  O   UNL A   1      51.389  26.673  23.767  1.00  0.00    -0.744 OA
ENDBRANCH  73  77
ENDBRANCH  56  70
BRANCH  57  81
ATOM     81  C   UNL A   1      38.922  29.346  29.638  1.00  0.00     0.023 A 
ATOM     82  C   UNL A   1      38.020  30.064  28.835  1.00  0.00     0.031 A 
ATOM     83  C   UNL A   1      38.451  28.839  30.863  1.00  0.00     0.131 A 
ATOM     84  C   UNL A   1      36.711  30.299  29.286  1.00  0.00     0.055 A 
ATOM     85  C   UNL A   1      37.134  29.034  31.285  1.00  0.00     0.041 A 
ATOM     86  F   UNL A   1      39.270  28.151  31.673  1.00  0.00    -0.206 F 
ATOM     87  C   UNL A   1      36.260  29.779  30.501  1.00  0.00     0.022 A 
BRANCH  84  88
ATOM     88  S   UNL A   1      35.628  31.370  28.300  1.00  0.00     0.124 S 
ATOM     89  O   UNL A   1      35.322  30.514  27.159  1.00  0.00    -0.237 OA
ATOM     90  O   UNL A   1      34.528  31.622  29.226  1.00  0.00    -0.237 OA
ATOM     91  O   UNL A   1      36.469  32.528  28.007  1.00  0.00    -0.744 OA
ENDBRANCH  84  88
ENDBRANCH  57  81
BRANCH  69  92
ATOM     92  C   UNL A   1      44.359  33.700  29.972  1.00  0.00     0.023 A 
ATOM     93  C   UNL A   1      44.147  34.766  29.081  1.00  0.00     0.031 A 
ATOM     94  C   UNL A   1      44.695  34.010  31.303  1.00  0.00     0.131 A 
ATOM     95  C   UNL A   1      44.329  36.088  29.517  1.00  0.00     0.055 A 
ATOM     96  C   UNL A   1      44.812  35.327  31.746  1.00  0.00     0.041 A 
ATOM     97  F   UNL A   1      44.910  33.033  32.199  1.00  0.00    -0.206 F 
ATOM     98  C   UNL A   1      44.644  36.376  30.847  1.00  0.00     0.022 A 
BRANCH  95  99
ATOM     99  S   UNL A   1      44.249  37.428  28.295  1.00  0.00     0.124 S 
ATOM    100  O   UNL A   1      43.438  38.424  28.988  1.00  0.00    -0.237 OA
ATOM    101  O   UNL A   1      45.657  37.767  28.112  1.00  0.00    -0.237 OA
ATOM    102  O   UNL A   1      43.608  36.801  27.141  1.00  0.00    -0.744 OA
ENDBRANCH  95  99
ENDBRANCH  69  92
ENDBRANCH  43  44
ENDBRANCH  36  38
ENDBRANCH  35  36
ENDBRANCH  34  35
ENDBRANCH  33  34
ENDBRANCH  32  33
ENDBRANCH  31  32
ENDBRANCH  30  31
ENDBRANCH   1  30
TORSDOF 28
ENDMDL
MODEL 2
REMARK VINA RESULT:      -8.8      1.761      2.041
REMARK SMILES O=C(OCCOCCOCCOCCOC(=O)c1ccc(-c2c3nc(c(-c4cc(S(=O)(=O)[O-])ccc4F)c4ccc([nH]4)c(-c4cc(S(=O)(=O)[O-])ccc4F)c4nc(c(-c5cc(S(=O)(=O)[O-])ccc5F)c5ccc2[nH]5)C=C4)C=C3)cc1)c1ccc(N[C@H]2OC[C@@H](O)[C@@H](O)[C@H]2O)cc1
REMARK SMILES IDX 9 1 8 2 7 3 6 4 5 5 4 6 3 7 2 8 1 9 81 10 82 11 96 12 83 13
REMARK SMILES IDX 95 14 84 15 85 16 86 18 87 19 93 20 88 21 91 22 89 23 94 24
REMARK SMILES IDX 92 26 90 28 10 30 11 31 12 32 13 33 14 34 15 35 16 36 17 37
REMARK SMILES IDX 18 38 19 39 80 40 20 41 79 42 21 43 22 44 23 45 73 46 24 47
REMARK SMILES IDX 78 48 72 49 74 50 25 51 77 52 71 53 70 54 26 56 58 57 38 58
REMARK SMILES IDX 57 59 39 60 42 61 56 62 75 63 40 64 41 65 55 67 76 68 43 69
REMARK SMILES IDX 27 70 28 71 36 72 29 73 35 74 37 75 34 76 30 77 31 78 32 79
REMARK SMILES IDX 33 80 59 81 60 82 68 83 61 84 67 85 69 86 66 87 62 88 63 89
REMARK SMILES IDX 64 90 65 91 44 92 45 93 53 94 46 95 52 96 54 97 51 98 47 99
REMARK SMILES IDX 48 100 49 101 50 102
REMARK H PARENT 85 17 94 25 92 27 90 29 74 55 42 66
REMARK Flexibility Score: inf
ROOT
ATOM      1  O   UNL A   1      37.595  22.373  24.967  1.00  0.00    -0.377 OA
ENDROOT
BRANCH   1   2
ATOM      2  C   UNL A   1      36.706  23.363  24.457  1.00  0.00     0.188 C 
BRANCH   2   3
ATOM      3  C   UNL A   1      35.650  23.873  25.439  1.00  0.00     0.188 C 
BRANCH   3   4
ATOM      4  O   UNL A   1      34.740  24.755  24.781  1.00  0.00    -0.376 OA
BRANCH   4   5
ATOM      5  C   UNL A   1      34.263  25.844  25.566  1.00  0.00     0.202 C 
BRANCH   5   6
ATOM      6  C   UNL A   1      32.994  25.541  26.361  1.00  0.00     0.261 C 
BRANCH   6   7
ATOM      7  O   UNL A   1      31.809  26.074  25.750  1.00  0.00    -0.460 OA
BRANCH   7   8
ATOM      8  C   UNL A   1      30.943  25.412  24.946  1.00  0.00     0.338 C 
ATOM      9  O   UNL A   1      29.886  25.954  24.627  1.00  0.00    -0.246 OA
BRANCH   8  10
ATOM     10  C   UNL A   1      31.228  24.066  24.371  1.00  0.00     0.060 A 
ATOM     11  C   UNL A   1      31.748  23.839  23.099  1.00  0.00     0.018 A 
ATOM     12  C   UNL A   1      31.119  22.968  25.232  1.00  0.00     0.018 A 
ATOM     13  C   UNL A   1      32.093  22.553  22.674  1.00  0.00     0.026 A 
ATOM     14  C   UNL A   1      31.488  21.683  24.808  1.00  0.00     0.026 A 
ATOM     15  C   UNL A   1      31.956  21.448  23.511  1.00  0.00     0.036 A 
BRANCH  15  16
ATOM     16  N   UNL A   1      32.305  20.164  23.127  1.00  0.00    -0.358 N 
ATOM     17  H   UNL A   1      32.097  19.866  22.212  1.00  0.00     0.163 HD
BRANCH  16  18
ATOM     18  C   UNL A   1      32.972  19.244  24.036  1.00  0.00     0.244 C 
ATOM     19  O   UNL A   1      32.057  18.849  25.060  1.00  0.00    -0.353 OA
ATOM     20  C   UNL A   1      33.379  17.977  23.255  1.00  0.00     0.195 C 
ATOM     21  C   UNL A   1      32.674  18.020  26.055  1.00  0.00     0.197 C 
ATOM     22  C   UNL A   1      34.083  17.020  24.224  1.00  0.00     0.178 C 
ATOM     23  C   UNL A   1      33.200  16.714  25.445  1.00  0.00     0.171 C 
BRANCH  20  24
ATOM     24  O   UNL A   1      32.193  17.340  22.711  1.00  0.00    -0.386 OA
ATOM     25  H   UNL A   1      31.673  16.953  23.434  1.00  0.00     0.211 HD
ENDBRANCH  20  24
BRANCH  22  26
ATOM     26  O   UNL A   1      34.428  15.810  23.545  1.00  0.00    -0.387 OA
ATOM     27  H   UNL A   1      34.308  15.057  24.145  1.00  0.00     0.211 HD
ENDBRANCH  22  26
BRANCH  23  28
ATOM     28  O   UNL A   1      32.095  15.885  25.051  1.00  0.00    -0.388 OA
ATOM     29  H   UNL A   1      31.961  15.189  25.711  1.00  0.00     0.211 HD
ENDBRANCH  23  28
ENDBRANCH  16  18
ENDBRANCH  15  16
ENDBRANCH   8  10
ENDBRANCH   7   8
ENDBRANCH   6   7
ENDBRANCH   5   6
ENDBRANCH   4   5
ENDBRANCH   3   4
ENDBRANCH   2   3
ENDBRANCH   1   2
BRANCH   1  30
ATOM     30  C   UNL A   1      38.337  22.711  26.134  1.00  0.00     0.188 C 
BRANCH  30  31
ATOM     31  C   UNL A   1      39.743  22.101  26.331  1.00  0.00     0.188 C 
BRANCH  31  32
ATOM     32  O   UNL A   1      39.907  20.767  25.864  1.00  0.00    -0.376 OA
BRANCH  32  33
ATOM     33  C   UNL A   1      40.630  19.903  26.739  1.00  0.00     0.202 C 
BRANCH  33  34
ATOM     34  C   UNL A   1      42.052  19.573  26.265  1.00  0.00     0.261 C 
BRANCH  34  35
ATOM     35  O   UNL A   1      42.619  20.534  25.361  1.00  0.00    -0.460 OA
BRANCH  35  36
ATOM     36  C   UNL A   1      43.818  21.066  25.691  1.00  0.00     0.338 C 
ATOM     37  O   UNL A   1      44.916  20.645  25.369  1.00  0.00    -0.246 OA
BRANCH  36  38
ATOM     38  C   UNL A   1      43.562  22.399  26.289  1.00  0.00     0.060 A 
ATOM     39  C   UNL A   1      43.324  23.480  25.428  1.00  0.00     0.016 A 
ATOM     40  C   UNL A   1      43.439  22.563  27.675  1.00  0.00     0.016 A 
ATOM     41  C   UNL A   1      42.994  24.731  25.952  1.00  0.00     0.010 A 
ATOM     42  C   UNL A   1      43.122  23.820  28.199  1.00  0.00     0.010 A 
ATOM     43  C   UNL A   1      42.935  24.918  27.341  1.00  0.00    -0.014 A 
BRANCH  43  44
ATOM     44  C   UNL A   1      42.986  26.296  27.888  1.00  0.00     0.031 A 
ATOM     45  C   UNL A   1      44.345  26.941  27.982  1.00  0.00     0.074 A 
ATOM     46  C   UNL A   1      41.885  26.974  28.262  1.00  0.00     0.049 A 
ATOM     47  N   UNL A   1      44.677  28.134  28.397  1.00  0.00    -0.248 NA
ATOM     48  C   UNL A   1      45.481  26.113  27.548  1.00  0.00     0.031 C 
ATOM     49  C   UNL A   1      40.514  26.473  28.195  1.00  0.00     0.029 A 
ATOM     50  N   UNL A   1      41.755  28.241  28.777  1.00  0.00    -0.354 N 
ATOM     51  C   UNL A   1      46.060  28.203  28.264  1.00  0.00     0.074 A 
ATOM     52  C   UNL A   1      46.505  26.913  27.783  1.00  0.00     0.031 C 
ATOM     53  C   UNL A   1      39.680  27.427  28.651  1.00  0.00     0.029 A 
ATOM     54  C   UNL A   1      40.458  28.594  29.066  1.00  0.00     0.049 A 
ATOM     55  H   UNL A   1      42.522  28.841  28.925  1.00  0.00     0.167 HD
ATOM     56  C   UNL A   1      46.887  29.248  28.502  1.00  0.00     0.034 A 
ATOM     57  C   UNL A   1      39.965  29.727  29.611  1.00  0.00     0.034 A 
ATOM     58  C   UNL A   1      46.441  30.517  29.019  1.00  0.00     0.049 A 
ATOM     59  C   UNL A   1      40.919  30.847  29.971  1.00  0.00     0.074 A 
ATOM     60  C   UNL A   1      47.189  31.644  29.300  1.00  0.00     0.029 A 
ATOM     61  N   UNL A   1      45.126  30.817  29.352  1.00  0.00    -0.354 N 
ATOM     62  N   UNL A   1      42.221  30.914  29.807  1.00  0.00    -0.248 NA
ATOM     63  C   UNL A   1      40.330  32.048  30.579  1.00  0.00     0.031 C 
ATOM     64  C   UNL A   1      46.341  32.600  29.871  1.00  0.00     0.029 A 
ATOM     65  C   UNL A   1      45.048  32.101  29.869  1.00  0.00     0.049 A 
ATOM     66  H   UNL A   1      44.361  30.208  29.237  1.00  0.00     0.167 HD
ATOM     67  C   UNL A   1      42.597  32.179  30.256  1.00  0.00     0.074 A 
ATOM     68  C   UNL A   1      41.384  32.843  30.686  1.00  0.00     0.031 C 
ATOM     69  C   UNL A   1      43.831  32.748  30.299  1.00  0.00     0.034 A 
BRANCH  56  70
ATOM     70  C   UNL A   1      48.359  29.021  28.259  1.00  0.00     0.023 A 
ATOM     71  C   UNL A   1      49.219  28.604  29.292  1.00  0.00     0.031 A 
ATOM     72  C   UNL A   1      48.922  29.297  27.003  1.00  0.00     0.131 A 
ATOM     73  C   UNL A   1      50.604  28.562  29.074  1.00  0.00     0.055 A 
ATOM     74  C   UNL A   1      50.292  29.166  26.768  1.00  0.00     0.041 A 
ATOM     75  F   UNL A   1      48.155  29.726  25.989  1.00  0.00    -0.206 F 
ATOM     76  C   UNL A   1      51.144  28.815  27.811  1.00  0.00     0.022 A 
BRANCH  73  77
ATOM     77  S   UNL A   1      51.698  28.337  30.503  1.00  0.00     0.124 S 
ATOM     78  O   UNL A   1      52.620  29.459  30.348  1.00  0.00    -0.237 OA
ATOM     79  O   UNL A   1      50.772  28.421  31.626  1.00  0.00    -0.237 OA
ATOM     80  O   UNL A   1      52.289  27.019  30.278  1.00  0.00    -0.744 OA
ENDBRANCH  73  77
ENDBRANCH  56  70
BRANCH  57  81
ATOM     81  C   UNL A   1      38.504  29.874  29.885  1.00  0.00     0.023 A 
ATOM     82  C   UNL A   1      37.677  30.624  29.032  1.00  0.00     0.031 A 
ATOM     83  C   UNL A   1      37.930  29.335  31.050  1.00  0.00     0.131 A 
ATOM     84  C   UNL A   1      36.336  30.857  29.381  1.00  0.00     0.055 A 
ATOM     85  C   UNL A   1      36.584  29.528  31.368  1.00  0.00     0.041 A 
ATOM     86  F   UNL A   1      38.675  28.614  31.903  1.00  0.00    -0.206 F 
ATOM     87  C   UNL A   1      35.782  30.304  30.538  1.00  0.00     0.022 A 
BRANCH  84  88
ATOM     88  S   UNL A   1      35.345  31.967  28.343  1.00  0.00     0.124 S 
ATOM     89  O   UNL A   1      34.801  31.043  27.355  1.00  0.00    -0.237 OA
ATOM     90  O   UNL A   1      34.392  32.511  29.306  1.00  0.00    -0.237 OA
ATOM     91  O   UNL A   1      36.325  32.923  27.834  1.00  0.00    -0.744 OA
ENDBRANCH  84  88
ENDBRANCH  57  81
BRANCH  69  92
ATOM     92  C   UNL A   1      43.918  34.179  30.777  1.00  0.00     0.023 A 
ATOM     93  C   UNL A   1      43.754  35.269  29.906  1.00  0.00     0.031 A 
ATOM     94  C   UNL A   1      44.176  34.452  32.134  1.00  0.00     0.131 A 
ATOM     95  C   UNL A   1      43.908  36.579  30.387  1.00  0.00     0.055 A 
ATOM     96  C   UNL A   1      44.265  35.757  32.619  1.00  0.00     0.041 A 
ATOM     97  F   UNL A   1      44.342  33.451  33.013  1.00  0.00    -0.206 F 
ATOM     98  C   UNL A   1      44.146  36.830  31.740  1.00  0.00     0.022 A 
BRANCH  95  99
ATOM     99  S   UNL A   1      43.894  37.951  29.200  1.00  0.00     0.124 S 
ATOM    100  O   UNL A   1      44.994  37.596  28.311  1.00  0.00    -0.237 OA
ATOM    101  O   UNL A   1      42.554  37.854  28.627  1.00  0.00    -0.237 OA
ATOM    102  O   UNL A   1      44.126  39.129  30.035  1.00  0.00    -0.744 OA
ENDBRANCH  95  99
ENDBRANCH  69  92
ENDBRANCH  43  44
ENDBRANCH  36  38
ENDBRANCH  35  36
ENDBRANCH  34  35
ENDBRANCH  33  34
ENDBRANCH  32  33
ENDBRANCH  31  32
ENDBRANCH  30  31
ENDBRANCH   1  30
TORSDOF 28
ENDMDL
MODEL 3
REMARK VINA RESULT:      -8.3      3.772      6.690
REMARK SMILES O=C(OCCOCCOCCOCCOC(=O)c1ccc(-c2c3nc(c(-c4cc(S(=O)(=O)[O-])ccc4F)c4ccc([nH]4)c(-c4cc(S(=O)(=O)[O-])ccc4F)c4nc(c(-c5cc(S(=O)(=O)[O-])ccc5F)c5ccc2[nH]5)C=C4)C=C3)cc1)c1ccc(N[C@H]2OC[C@@H](O)[C@@H](O)[C@H]2O)cc1
REMARK SMILES IDX 9 1 8 2 7 3 6 4 5 5 4 6 3 7 2 8 1 9 81 10 82 11 96 12 83 13
REMARK SMILES IDX 95 14 84 15 85 16 86 18 87 19 93 20 88 21 91 22 89 23 94 24
REMARK SMILES IDX 92 26 90 28 10 30 11 31 12 32 13 33 14 34 15 35 16 36 17 37
REMARK SMILES IDX 18 38 19 39 80 40 20 41 79 42 21 43 22 44 23 45 73 46 24 47
REMARK SMILES IDX 78 48 72 49 74 50 25 51 77 52 71 53 70 54 26 56 58 57 38 58
REMARK SMILES IDX 57 59 39 60 42 61 56 62 75 63 40 64 41 65 55 67 76 68 43 69
REMARK SMILES IDX 27 70 28 71 36 72 29 73 35 74 37 75 34 76 30 77 31 78 32 79
REMARK SMILES IDX 33 80 59 81 60 82 68 83 61 84 67 85 69 86 66 87 62 88 63 89
REMARK SMILES IDX 64 90 65 91 44 92 45 93 53 94 46 95 52 96 54 97 51 98 47 99
REMARK SMILES IDX 48 100 49 101 50 102
REMARK H PARENT 85 17 94 25 92 27 90 29 74 55 42 66
REMARK Flexibility Score: inf
ROOT
ATOM      1  O   UNL A   1      41.280  22.606  27.390  1.00  0.00    -0.377 OA
ENDROOT
BRANCH   1   2
ATOM      2  C   UNL A   1      39.923  22.198  27.251  1.00  0.00     0.188 C 
BRANCH   2   3
ATOM      3  C   UNL A   1      39.480  21.841  25.831  1.00  0.00     0.188 C 
BRANCH   3   4
ATOM      4  O   UNL A   1      39.125  20.460  25.751  1.00  0.00    -0.376 OA
BRANCH   4   5
ATOM      5  C   UNL A   1      37.913  20.177  25.057  1.00  0.00     0.202 C 
BRANCH   5   6
ATOM      6  C   UNL A   1      37.133  21.414  24.614  1.00  0.00     0.261 C 
BRANCH   6   7
ATOM      7  O   UNL A   1      35.828  21.495  25.206  1.00  0.00    -0.460 OA
BRANCH   7   8
ATOM      8  C   UNL A   1      34.653  21.153  24.627  1.00  0.00     0.338 C 
ATOM      9  O   UNL A   1      34.285  19.979  24.662  1.00  0.00    -0.246 OA
BRANCH   8  10
ATOM     10  C   UNL A   1      33.737  22.143  23.990  1.00  0.00     0.060 A 
ATOM     11  C   UNL A   1      32.356  22.176  24.166  1.00  0.00     0.018 A 
ATOM     12  C   UNL A   1      34.328  23.209  23.304  1.00  0.00     0.018 A 
ATOM     13  C   UNL A   1      31.579  23.205  23.626  1.00  0.00     0.026 A 
ATOM     14  C   UNL A   1      33.547  24.252  22.783  1.00  0.00     0.026 A 
ATOM     15  C   UNL A   1      32.154  24.253  22.911  1.00  0.00     0.036 A 
BRANCH  15  16
ATOM     16  N   UNL A   1      31.414  25.296  22.378  1.00  0.00    -0.358 N 
ATOM     17  H   UNL A   1      31.211  25.294  21.415  1.00  0.00     0.163 HD
BRANCH  16  18
ATOM     18  C   UNL A   1      30.929  26.393  23.202  1.00  0.00     0.244 C 
ATOM     19  O   UNL A   1      31.795  26.555  24.328  1.00  0.00    -0.353 OA
ATOM     20  C   UNL A   1      30.982  27.697  22.379  1.00  0.00     0.195 C 
ATOM     21  C   UNL A   1      31.322  27.554  25.243  1.00  0.00     0.197 C 
ATOM     22  C   UNL A   1      30.464  28.842  23.257  1.00  0.00     0.178 C 
ATOM     23  C   UNL A   1      31.252  28.933  24.575  1.00  0.00     0.171 C 
BRANCH  20  24
ATOM     24  O   UNL A   1      32.352  27.965  21.980  1.00  0.00    -0.386 OA
ATOM     25  H   UNL A   1      32.360  28.649  21.291  1.00  0.00     0.211 HD
ENDBRANCH  20  24
BRANCH  22  26
ATOM     26  O   UNL A   1      30.549  30.077  22.542  1.00  0.00    -0.387 OA
ATOM     27  H   UNL A   1      30.182  30.791  23.086  1.00  0.00     0.211 HD
ENDBRANCH  22  26
BRANCH  23  28
ATOM     28  O   UNL A   1      32.581  29.413  24.314  1.00  0.00    -0.388 OA
ATOM     29  H   UNL A   1      32.810  29.244  23.388  1.00  0.00     0.211 HD
ENDBRANCH  23  28
ENDBRANCH  16  18
ENDBRANCH  15  16
ENDBRANCH   8  10
ENDBRANCH   7   8
ENDBRANCH   6   7
ENDBRANCH   5   6
ENDBRANCH   4   5
ENDBRANCH   3   4
ENDBRANCH   2   3
ENDBRANCH   1   2
BRANCH   1  30
ATOM     30  C   UNL A   1      41.655  23.828  26.763  1.00  0.00     0.188 C 
BRANCH  30  31
ATOM     31  C   UNL A   1      43.150  24.101  26.486  1.00  0.00     0.188 C 
BRANCH  31  32
ATOM     32  O   UNL A   1      44.070  23.359  27.279  1.00  0.00    -0.376 OA
BRANCH  32  33
ATOM     33  C   UNL A   1      45.393  23.275  26.752  1.00  0.00     0.202 C 
BRANCH  33  34
ATOM     34  C   UNL A   1      46.439  24.069  27.548  1.00  0.00     0.261 C 
BRANCH  34  35
ATOM     35  O   UNL A   1      47.717  24.188  26.904  1.00  0.00    -0.460 OA
BRANCH  35  36
ATOM     36  C   UNL A   1      48.686  24.863  27.565  1.00  0.00     0.338 C 
ATOM     37  O   UNL A   1      49.799  24.450  27.845  1.00  0.00    -0.246 OA
BRANCH  36  38
ATOM     38  C   UNL A   1      48.257  26.279  27.655  1.00  0.00     0.060 A 
ATOM     39  C   UNL A   1      48.349  26.924  28.897  1.00  0.00     0.016 A 
ATOM     40  C   UNL A   1      47.883  26.999  26.514  1.00  0.00     0.016 A 
ATOM     41  C   UNL A   1      48.036  28.281  29.004  1.00  0.00     0.010 A 
ATOM     42  C   UNL A   1      47.557  28.354  26.625  1.00  0.00     0.010 A 
ATOM     43  C   UNL A   1      47.596  28.991  27.878  1.00  0.00    -0.014 A 
BRANCH  43  44
ATOM     44  C   UNL A   1      46.895  30.286  28.067  1.00  0.00     0.031 A 
ATOM     45  C   UNL A   1      47.647  31.530  27.673  1.00  0.00     0.074 A 
ATOM     46  C   UNL A   1      45.637  30.372  28.537  1.00  0.00     0.049 A 
ATOM     47  N   UNL A   1      47.272  32.781  27.711  1.00  0.00    -0.248 NA
ATOM     48  C   UNL A   1      49.016  31.324  27.172  1.00  0.00     0.031 C 
ATOM     49  C   UNL A   1      44.795  29.243  28.926  1.00  0.00     0.029 A 
ATOM     50  N   UNL A   1      44.849  31.473  28.766  1.00  0.00    -0.354 N 
ATOM     51  C   UNL A   1      48.354  33.509  27.228  1.00  0.00     0.074 A 
ATOM     52  C   UNL A   1      49.415  32.565  26.958  1.00  0.00     0.031 C 
ATOM     53  C   UNL A   1      43.604  29.713  29.345  1.00  0.00     0.029 A 
ATOM     54  C   UNL A   1      43.608  31.174  29.278  1.00  0.00     0.049 A 
ATOM     55  H   UNL A   1      45.146  32.394  28.579  1.00  0.00     0.167 HD
ATOM     56  C   UNL A   1      48.454  34.843  27.010  1.00  0.00     0.034 A 
ATOM     57  C   UNL A   1      42.602  31.991  29.656  1.00  0.00     0.034 A 
ATOM     58  C   UNL A   1      47.406  35.782  27.318  1.00  0.00     0.049 A 
ATOM     59  C   UNL A   1      42.773  33.489  29.504  1.00  0.00     0.074 A 
ATOM     60  C   UNL A   1      47.398  37.153  27.142  1.00  0.00     0.029 A 
ATOM     61  N   UNL A   1      46.185  35.446  27.889  1.00  0.00    -0.354 N 
ATOM     62  N   UNL A   1      43.787  34.163  29.013  1.00  0.00    -0.248 NA
ATOM     63  C   UNL A   1      41.653  34.331  29.949  1.00  0.00     0.031 C 
ATOM     64  C   UNL A   1      46.204  37.654  27.672  1.00  0.00     0.029 A 
ATOM     65  C   UNL A   1      45.430  36.588  28.102  1.00  0.00     0.049 A 
ATOM     66  H   UNL A   1      45.897  34.530  28.108  1.00  0.00     0.167 HD
ATOM     67  C   UNL A   1      43.409  35.505  29.055  1.00  0.00     0.074 A 
ATOM     68  C   UNL A   1      42.072  35.540  29.608  1.00  0.00     0.031 C 
ATOM     69  C   UNL A   1      44.098  36.608  28.662  1.00  0.00     0.034 A 
BRANCH  56  70
ATOM     70  C   UNL A   1      49.769  35.347  26.470  1.00  0.00     0.023 A 
ATOM     71  C   UNL A   1      50.859  35.615  27.319  1.00  0.00     0.031 A 
ATOM     72  C   UNL A   1      49.911  35.636  25.103  1.00  0.00     0.131 A 
ATOM     73  C   UNL A   1      52.007  36.236  26.807  1.00  0.00     0.055 A 
ATOM     74  C   UNL A   1      51.091  36.173  24.585  1.00  0.00     0.041 A 
ATOM     75  F   UNL A   1      48.895  35.429  24.251  1.00  0.00    -0.206 F 
ATOM     76  C   UNL A   1      52.141  36.494  25.440  1.00  0.00     0.022 A 
BRANCH  73  77
ATOM     77  S   UNL A   1      53.249  36.855  27.974  1.00  0.00     0.124 S 
ATOM     78  O   UNL A   1      54.298  37.321  27.071  1.00  0.00    -0.237 OA
ATOM     79  O   UNL A   1      52.518  37.893  28.693  1.00  0.00    -0.237 OA
ATOM     80  O   UNL A   1      53.596  35.676  28.764  1.00  0.00    -0.744 OA
ENDBRANCH  73  77
ENDBRANCH  56  70
BRANCH  57  81
ATOM     81  C   UNL A   1      41.343  31.439  30.241  1.00  0.00     0.023 A 
ATOM     82  C   UNL A   1      40.278  31.031  29.420  1.00  0.00     0.031 A 
ATOM     83  C   UNL A   1      41.156  31.390  31.634  1.00  0.00     0.131 A 
ATOM     84  C   UNL A   1      39.058  30.639  29.996  1.00  0.00     0.055 A 
ATOM     85  C   UNL A   1      39.958  30.953  32.203  1.00  0.00     0.041 A 
ATOM     86  F   UNL A   1      42.138  31.773  32.465  1.00  0.00    -0.206 F 
ATOM     87  C   UNL A   1      38.896  30.587  31.383  1.00  0.00     0.022 A 
BRANCH  84  88
ATOM     88  S   UNL A   1      37.654  30.279  28.905  1.00  0.00     0.124 S 
ATOM     89  O   UNL A   1      36.879  29.346  29.716  1.00  0.00    -0.237 OA
ATOM     90  O   UNL A   1      37.071  31.603  28.716  1.00  0.00    -0.237 OA
ATOM     91  O   UNL A   1      38.284  29.704  27.719  1.00  0.00    -0.744 OA
ENDBRANCH  84  88
ENDBRANCH  57  81
BRANCH  69  92
ATOM     92  C   UNL A   1      43.391  37.940  28.765  1.00  0.00     0.023 A 
ATOM     93  C   UNL A   1      43.526  38.771  29.890  1.00  0.00     0.031 A 
ATOM     94  C   UNL A   1      42.562  38.379  27.716  1.00  0.00     0.131 A 
ATOM     95  C   UNL A   1      42.799  39.970  29.965  1.00  0.00     0.055 A 
ATOM     96  C   UNL A   1      41.892  39.601  27.768  1.00  0.00     0.041 A 
ATOM     97  F   UNL A   1      42.395  37.627  26.616  1.00  0.00    -0.206 F 
ATOM     98  C   UNL A   1      41.996  40.397  28.905  1.00  0.00     0.022 A 
BRANCH  95  99
ATOM     99  S   UNL A   1      42.836  40.917  31.512  1.00  0.00     0.124 S 
ATOM    100  O   UNL A   1      41.461  41.394  31.610  1.00  0.00    -0.237 OA
ATOM    101  O   UNL A   1      43.231  39.905  32.488  1.00  0.00    -0.237 OA
ATOM    102  O   UNL A   1      43.835  41.953  31.257  1.00  0.00    -0.744 OA
ENDBRANCH  95  99
ENDBRANCH  69  92
ENDBRANCH  43  44
ENDBRANCH  36  38
ENDBRANCH  35  36
ENDBRANCH  34  35
ENDBRANCH  33  34
ENDBRANCH  32  33
ENDBRANCH  31  32
ENDBRANCH  30  31
ENDBRANCH   1  30
TORSDOF 28
ENDMDL
