MODEL 1
REMARK VINA RESULT:      -7.2      0.000      0.000
REMARK SMILES CCCCCCNC(=O)Oc1cccc(-c2ccc([C@@H](C)C(=O)OCCOCCOCCOCCOC(=O)c3ccc(-c4c5nc(c(-c6cc(S(=O)(=O)[O-])ccc6F)c6ccc([nH]6)c(-c6cc(S(=O)(=O)[O-])ccc6F)c6nc(c(-c7cc(S(=O)(=O)[O-])ccc7F)c7ccc4[nH]7)C=C6)C=C5)cc3)cc2N)c1
REMARK SMILES IDX 27 1 26 2 25 3 24 4 22 5 23 6 20 7 21 8 19 9 16 10 17 11
REMARK SMILES IDX 103 12 18 13 102 14 15 15 11 16 12 17 105 18 13 19 14 20
REMARK SMILES IDX 10 21 8 22 7 23 9 25 6 26 5 27 4 28 3 29 2 30 1 31 104 32
REMARK SMILES IDX 28 35 29 36 30 37 31 38 32 39 33 40 34 41 35 42 36 43 37 44
REMARK SMILES IDX 38 45 39 46 40 47 101 48 41 49 100 50 42 51 43 52 44 53
REMARK SMILES IDX 94 54 45 55 99 56 93 57 95 58 46 59 98 60 92 61 91 62 47 64
REMARK SMILES IDX 79 65 59 66 78 67 60 68 63 69 77 70 96 71 61 72 62 73 76 75
REMARK SMILES IDX 97 76 64 77 48 78 49 79 57 80 50 81 56 82 58 83 55 84 51 85
REMARK SMILES IDX 52 86 53 87 54 88 80 89 81 90 89 91 82 92 88 93 90 94 87 95
REMARK SMILES IDX 83 96 84 97 85 98 86 99 65 100 66 101 74 102 67 103 73 104
REMARK SMILES IDX 75 105 72 106 68 107 69 108 70 109 71 110
REMARK H PARENT 7 24 104 33 104 34 95 63 63 74
REMARK Flexibility Score: inf
ROOT
ATOM      1  O   UNL A   1      37.223  31.879  42.039  1.00  0.00    -0.376 OA
ENDROOT
BRANCH   1   2
ATOM      2  C   UNL A   1      37.064  31.579  40.659  1.00  0.00     0.202 C 
BRANCH   2   3
ATOM      3  C   UNL A   1      36.313  32.553  39.730  1.00  0.00     0.261 C 
BRANCH   3   4
ATOM      4  O   UNL A   1      36.540  32.410  38.312  1.00  0.00    -0.463 OA
BRANCH   4   5
ATOM      5  C   UNL A   1      37.432  33.259  37.756  1.00  0.00     0.313 C 
ATOM      6  O   UNL A   1      37.895  34.237  38.344  1.00  0.00    -0.252 OA
BRANCH   5   7
ATOM      7  C   UNL A   1      37.824  32.969  36.309  1.00  0.00     0.126 C 
ATOM      8  C   UNL A   1      39.225  33.521  36.067  1.00  0.00     0.025 C 
BRANCH   7   9
ATOM      9  C   UNL A   1      36.890  33.300  35.145  1.00  0.00    -0.032 A 
ATOM     10  C   UNL A   1      35.227  33.833  32.863  1.00  0.00     0.005 A 
ATOM     11  C   UNL A   1      35.107  34.560  34.068  1.00  0.00     0.011 A 
ATOM     12  C   UNL A   1      36.200  32.810  32.813  1.00  0.00     0.040 A 
ATOM     13  C   UNL A   1      35.923  34.306  35.186  1.00  0.00     0.005 A 
ATOM     14  C   UNL A   1      36.998  32.557  33.947  1.00  0.00     0.030 A 
BRANCH  10  15
ATOM     15  C   UNL A   1      34.415  34.226  31.680  1.00  0.00    -0.013 A 
ATOM     16  C   UNL A   1      33.754  34.000  29.346  1.00  0.00     0.133 A 
ATOM     17  C   UNL A   1      32.995  35.166  29.416  1.00  0.00     0.047 A 
ATOM     18  C   UNL A   1      34.451  33.520  30.462  1.00  0.00     0.056 A 
ATOM     19  C   UNL A   1      32.917  35.855  30.621  1.00  0.00     0.004 A 
ATOM     20  C   UNL A   1      33.623  35.392  31.736  1.00  0.00     0.009 A 
BRANCH  16  21
ATOM     21  O   UNL A   1      33.905  33.438  28.063  1.00  0.00    -0.410 OA
BRANCH  21  22
ATOM     22  C   UNL A   1      35.072  32.759  27.749  1.00  0.00     0.412 C 
ATOM     23  N   UNL A   1      34.864  31.441  27.442  1.00  0.00    -0.321 N 
ATOM     24  H   UNL A   1      35.665  30.915  27.212  1.00  0.00     0.167 HD
ATOM     25  O   UNL A   1      36.200  33.237  27.734  1.00  0.00    -0.224 OA
BRANCH  23  26
ATOM     26  C   UNL A   1      33.601  30.727  27.418  1.00  0.00     0.119 C 
BRANCH  26  27
ATOM     27  C   UNL A   1      33.796  29.209  27.432  1.00  0.00     0.021 C 
BRANCH  27  28
ATOM     28  C   UNL A   1      34.070  28.578  26.061  1.00  0.00     0.002 C 
BRANCH  28  29
ATOM     29  C   UNL A   1      32.827  28.225  25.234  1.00  0.00    -0.000 C 
BRANCH  29  30
ATOM     30  C   UNL A   1      31.952  29.411  24.822  1.00  0.00    -0.003 C 
ATOM     31  C   UNL A   1      30.709  29.004  24.047  1.00  0.00     0.004 C 
ENDBRANCH  29  30
ENDBRANCH  28  29
ENDBRANCH  27  28
ENDBRANCH  26  27
ENDBRANCH  23  26
ENDBRANCH  21  22
ENDBRANCH  16  21
ENDBRANCH  10  15
BRANCH  12  32
ATOM     32  N   UNL A   1      36.350  31.973  31.706  1.00  0.00    -0.398 N 
ATOM     33  H   UNL A   1      36.142  31.014  31.781  1.00  0.00     0.156 HD
ATOM     34  H   UNL A   1      36.662  32.344  30.849  1.00  0.00     0.156 HD
ENDBRANCH  12  32
ENDBRANCH   7   9
ENDBRANCH   5   7
ENDBRANCH   4   5
ENDBRANCH   3   4
ENDBRANCH   2   3
ENDBRANCH   1   2
BRANCH   1  35
ATOM     35  C   UNL A   1      38.257  31.270  42.801  1.00  0.00     0.188 C 
BRANCH  35  36
ATOM     36  C   UNL A   1      38.082  29.883  43.438  1.00  0.00     0.188 C 
BRANCH  36  37
ATOM     37  O   UNL A   1      37.828  29.885  44.826  1.00  0.00    -0.377 OA
BRANCH  37  38
ATOM     38  C   UNL A   1      38.160  31.073  45.526  1.00  0.00     0.188 C 
BRANCH  38  39
ATOM     39  C   UNL A   1      39.424  31.023  46.402  1.00  0.00     0.188 C 
BRANCH  39  40
ATOM     40  O   UNL A   1      40.641  31.048  45.660  1.00  0.00    -0.376 OA
BRANCH  40  41
ATOM     41  C   UNL A   1      41.064  32.287  45.103  1.00  0.00     0.202 C 
BRANCH  41  42
ATOM     42  C   UNL A   1      41.640  32.288  43.674  1.00  0.00     0.261 C 
BRANCH  42  43
ATOM     43  O   UNL A   1      42.136  33.538  43.177  1.00  0.00    -0.460 OA
BRANCH  43  44
ATOM     44  C   UNL A   1      41.267  34.388  42.584  1.00  0.00     0.338 C 
ATOM     45  O   UNL A   1      40.384  35.021  43.120  1.00  0.00    -0.246 OA
BRANCH  44  46
ATOM     46  C   UNL A   1      41.739  34.594  41.193  1.00  0.00     0.060 A 
ATOM     47  C   UNL A   1      40.844  35.106  40.244  1.00  0.00     0.016 A 
ATOM     48  C   UNL A   1      43.055  34.297  40.833  1.00  0.00     0.016 A 
ATOM     49  C   UNL A   1      41.254  35.292  38.921  1.00  0.00     0.010 A 
ATOM     50  C   UNL A   1      43.456  34.456  39.501  1.00  0.00     0.010 A 
ATOM     51  C   UNL A   1      42.547  34.923  38.532  1.00  0.00    -0.014 A 
BRANCH  51  52
ATOM     52  C   UNL A   1      42.882  34.818  37.087  1.00  0.00     0.031 A 
ATOM     53  C   UNL A   1      43.422  36.041  36.397  1.00  0.00     0.074 A 
ATOM     54  C   UNL A   1      42.733  33.667  36.406  1.00  0.00     0.049 A 
ATOM     55  N   UNL A   1      43.710  36.229  35.136  1.00  0.00    -0.248 NA
ATOM     56  C   UNL A   1      43.666  37.213  37.252  1.00  0.00     0.031 C 
ATOM     57  C   UNL A   1      42.281  32.399  36.975  1.00  0.00     0.029 A 
ATOM     58  N   UNL A   1      42.937  33.385  35.076  1.00  0.00    -0.354 N 
ATOM     59  C   UNL A   1      44.156  37.544  35.042  1.00  0.00     0.074 A 
ATOM     60  C   UNL A   1      44.072  38.112  36.370  1.00  0.00     0.031 C 
ATOM     61  C   UNL A   1      42.225  31.479  35.997  1.00  0.00     0.029 A 
ATOM     62  C   UNL A   1      42.590  32.100  34.724  1.00  0.00     0.049 A 
ATOM     63  H   UNL A   1      43.296  34.040  34.436  1.00  0.00     0.167 HD
ATOM     64  C   UNL A   1      44.598  38.213  33.950  1.00  0.00     0.034 A 
ATOM     65  C   UNL A   1      42.539  31.510  33.511  1.00  0.00     0.034 A 
ATOM     66  C   UNL A   1      44.662  37.635  32.629  1.00  0.00     0.049 A 
ATOM     67  C   UNL A   1      42.936  32.308  32.287  1.00  0.00     0.074 A 
ATOM     68  C   UNL A   1      45.107  38.219  31.455  1.00  0.00     0.029 A 
ATOM     69  N   UNL A   1      44.254  36.348  32.303  1.00  0.00    -0.354 N 
ATOM     70  N   UNL A   1      43.361  33.549  32.209  1.00  0.00    -0.248 NA
ATOM     71  C   UNL A   1      42.853  31.623  30.989  1.00  0.00     0.031 C 
ATOM     72  C   UNL A   1      44.885  37.319  30.409  1.00  0.00     0.029 A 
ATOM     73  C   UNL A   1      44.395  36.136  30.939  1.00  0.00     0.049 A 
ATOM     74  H   UNL A   1      43.914  35.683  32.944  1.00  0.00     0.167 HD
ATOM     75  C   UNL A   1      43.628  33.777  30.860  1.00  0.00     0.074 A 
ATOM     76  C   UNL A   1      43.327  32.544  30.164  1.00  0.00     0.031 C 
ATOM     77  C   UNL A   1      44.087  34.902  30.253  1.00  0.00     0.034 A 
BRANCH  64  78
ATOM     78  C   UNL A   1      44.982  39.663  34.129  1.00  0.00     0.023 A 
ATOM     79  C   UNL A   1      44.040  40.701  34.025  1.00  0.00     0.031 A 
ATOM     80  C   UNL A   1      46.321  40.012  34.383  1.00  0.00     0.131 A 
ATOM     81  C   UNL A   1      44.460  42.038  34.107  1.00  0.00     0.055 A 
ATOM     82  C   UNL A   1      46.718  41.339  34.546  1.00  0.00     0.041 A 
ATOM     83  F   UNL A   1      47.270  39.065  34.465  1.00  0.00    -0.206 F 
ATOM     84  C   UNL A   1      45.788  42.362  34.393  1.00  0.00     0.022 A 
BRANCH  81  85
ATOM     85  S   UNL A   1      43.279  43.348  33.686  1.00  0.00     0.124 S 
ATOM     86  O   UNL A   1      43.488  43.483  32.246  1.00  0.00    -0.237 OA
ATOM     87  O   UNL A   1      42.005  42.767  34.094  1.00  0.00    -0.237 OA
ATOM     88  O   UNL A   1      43.730  44.486  34.483  1.00  0.00    -0.744 OA
ENDBRANCH  81  85
ENDBRANCH  64  78
BRANCH  65  89
ATOM     89  C   UNL A   1      42.040  30.108  33.367  1.00  0.00     0.023 A 
ATOM     90  C   UNL A   1      40.813  29.829  32.745  1.00  0.00     0.031 A 
ATOM     91  C   UNL A   1      42.757  29.030  33.919  1.00  0.00     0.131 A 
ATOM     92  C   UNL A   1      40.315  28.516  32.734  1.00  0.00     0.055 A 
ATOM     93  C   UNL A   1      42.288  27.716  33.849  1.00  0.00     0.041 A 
ATOM     94  F   UNL A   1      43.931  29.238  34.535  1.00  0.00    -0.206 F 
ATOM     95  C   UNL A   1      41.052  27.456  33.266  1.00  0.00     0.022 A 
BRANCH  92  96
ATOM     96  S   UNL A   1      38.639  28.225  32.104  1.00  0.00     0.124 S 
ATOM     97  O   UNL A   1      38.088  29.576  32.097  1.00  0.00    -0.237 OA
ATOM     98  O   UNL A   1      38.903  27.632  30.798  1.00  0.00    -0.237 OA
ATOM     99  O   UNL A   1      38.057  27.320  33.092  1.00  0.00    -0.744 OA
ENDBRANCH  92  96
ENDBRANCH  65  89
BRANCH  77 100
ATOM    100  C   UNL A   1      44.351  34.834  28.766  1.00  0.00     0.023 A 
ATOM    101  C   UNL A   1      45.587  34.415  28.245  1.00  0.00     0.031 A 
ATOM    102  C   UNL A   1      43.338  35.189  27.855  1.00  0.00     0.131 A 
ATOM    103  C   UNL A   1      45.796  34.411  26.857  1.00  0.00     0.055 A 
ATOM    104  C   UNL A   1      43.529  35.118  26.475  1.00  0.00     0.041 A 
ATOM    105  F   UNL A   1      42.137  35.602  28.293  1.00  0.00    -0.206 F 
ATOM    106  C   UNL A   1      44.769  34.740  25.968  1.00  0.00     0.022 A 
BRANCH 103 107
ATOM    107  S   UNL A   1      47.460  34.059  26.224  1.00  0.00     0.124 S 
ATOM    108  O   UNL A   1      47.447  34.751  24.939  1.00  0.00    -0.237 OA
ATOM    109  O   UNL A   1      48.316  34.640  27.253  1.00  0.00    -0.237 OA
ATOM    110  O   UNL A   1      47.494  32.600  26.142  1.00  0.00    -0.744 OA
ENDBRANCH 103 107
ENDBRANCH  77 100
ENDBRANCH  51  52
ENDBRANCH  44  46
ENDBRANCH  43  44
ENDBRANCH  42  43
ENDBRANCH  41  42
ENDBRANCH  40  41
ENDBRANCH  39  40
ENDBRANCH  38  39
ENDBRANCH  37  38
ENDBRANCH  36  37
ENDBRANCH  35  36
ENDBRANCH   1  35
TORSDOF 33
ENDMDL
MODEL 2
REMARK VINA RESULT:      -6.9      6.139     11.194
REMARK SMILES CCCCCCNC(=O)Oc1cccc(-c2ccc([C@@H](C)C(=O)OCCOCCOCCOCCOC(=O)c3ccc(-c4c5nc(c(-c6cc(S(=O)(=O)[O-])ccc6F)c6ccc([nH]6)c(-c6cc(S(=O)(=O)[O-])ccc6F)c6nc(c(-c7cc(S(=O)(=O)[O-])ccc7F)c7ccc4[nH]7)C=C6)C=C5)cc3)cc2N)c1
REMARK SMILES IDX 27 1 26 2 25 3 24 4 22 5 23 6 20 7 21 8 19 9 16 10 17 11
REMARK SMILES IDX 103 12 18 13 102 14 15 15 11 16 12 17 105 18 13 19 14 20
REMARK SMILES IDX 10 21 8 22 7 23 9 25 6 26 5 27 4 28 3 29 2 30 1 31 104 32
REMARK SMILES IDX 28 35 29 36 30 37 31 38 32 39 33 40 34 41 35 42 36 43 37 44
REMARK SMILES IDX 38 45 39 46 40 47 101 48 41 49 100 50 42 51 43 52 44 53
REMARK SMILES IDX 94 54 45 55 99 56 93 57 95 58 46 59 98 60 92 61 91 62 47 64
REMARK SMILES IDX 79 65 59 66 78 67 60 68 63 69 77 70 96 71 61 72 62 73 76 75
REMARK SMILES IDX 97 76 64 77 48 78 49 79 57 80 50 81 56 82 58 83 55 84 51 85
REMARK SMILES IDX 52 86 53 87 54 88 80 89 81 90 89 91 82 92 88 93 90 94 87 95
REMARK SMILES IDX 83 96 84 97 85 98 86 99 65 100 66 101 74 102 67 103 73 104
REMARK SMILES IDX 75 105 72 106 68 107 69 108 70 109 71 110
REMARK H PARENT 7 24 104 33 104 34 95 63 63 74
REMARK Flexibility Score: inf
ROOT
ATOM      1  O   UNL A   1      32.011  35.925  42.685  1.00  0.00    -0.376 OA
ENDROOT
BRANCH   1   2
ATOM      2  C   UNL A   1      31.084  36.998  42.593  1.00  0.00     0.202 C 
BRANCH   2   3
ATOM      3  C   UNL A   1      30.441  37.584  43.865  1.00  0.00     0.261 C 
BRANCH   3   4
ATOM      4  O   UNL A   1      31.269  38.437  44.684  1.00  0.00    -0.463 OA
BRANCH   4   5
ATOM      5  C   UNL A   1      30.858  39.716  44.829  1.00  0.00     0.313 C 
ATOM      6  O   UNL A   1      29.939  40.211  44.176  1.00  0.00    -0.252 OA
BRANCH   5   7
ATOM      7  C   UNL A   1      31.632  40.560  45.839  1.00  0.00     0.126 C 
ATOM      8  C   UNL A   1      30.635  41.385  46.646  1.00  0.00     0.025 C 
BRANCH   7   9
ATOM      9  C   UNL A   1      32.838  41.401  45.423  1.00  0.00    -0.032 A 
ATOM     10  C   UNL A   1      35.036  43.108  44.707  1.00  0.00     0.005 A 
ATOM     11  C   UNL A   1      34.880  41.815  44.163  1.00  0.00     0.011 A 
ATOM     12  C   UNL A   1      34.068  43.545  45.640  1.00  0.00     0.040 A 
ATOM     13  C   UNL A   1      33.802  40.977  44.506  1.00  0.00     0.005 A 
ATOM     14  C   UNL A   1      33.003  42.688  45.985  1.00  0.00     0.030 A 
BRANCH  10  15
ATOM     15  C   UNL A   1      36.131  43.988  44.218  1.00  0.00    -0.013 A 
ATOM     16  C   UNL A   1      38.478  44.619  44.045  1.00  0.00     0.133 A 
ATOM     17  C   UNL A   1      38.141  45.825  43.434  1.00  0.00     0.047 A 
ATOM     18  C   UNL A   1      37.493  43.699  44.426  1.00  0.00     0.056 A 
ATOM     19  C   UNL A   1      36.804  46.110  43.186  1.00  0.00     0.004 A 
ATOM     20  C   UNL A   1      35.813  45.205  43.579  1.00  0.00     0.009 A 
BRANCH  16  21
ATOM     21  O   UNL A   1      39.833  44.461  44.396  1.00  0.00    -0.410 OA
BRANCH  21  22
ATOM     22  C   UNL A   1      40.818  44.754  43.464  1.00  0.00     0.412 C 
ATOM     23  N   UNL A   1      41.117  43.698  42.645  1.00  0.00    -0.321 N 
ATOM     24  H   UNL A   1      41.812  43.857  41.966  1.00  0.00     0.167 HD
ATOM     25  O   UNL A   1      41.396  45.827  43.342  1.00  0.00    -0.224 OA
BRANCH  23  26
ATOM     26  C   UNL A   1      40.530  42.371  42.663  1.00  0.00     0.119 C 
BRANCH  26  27
ATOM     27  C   UNL A   1      39.569  42.151  41.492  1.00  0.00     0.021 C 
BRANCH  27  28
ATOM     28  C   UNL A   1      40.072  41.183  40.414  1.00  0.00     0.002 C 
BRANCH  28  29
ATOM     29  C   UNL A   1      41.577  41.235  40.126  1.00  0.00    -0.000 C 
BRANCH  29  30
ATOM     30  C   UNL A   1      42.272  39.877  40.006  1.00  0.00    -0.003 C 
ATOM     31  C   UNL A   1      41.466  38.731  40.598  1.00  0.00     0.004 C 
ENDBRANCH  29  30
ENDBRANCH  28  29
ENDBRANCH  27  28
ENDBRANCH  26  27
ENDBRANCH  23  26
ENDBRANCH  21  22
ENDBRANCH  16  21
ENDBRANCH  10  15
BRANCH  12  32
ATOM     32  N   UNL A   1      34.167  44.768  46.303  1.00  0.00    -0.398 N 
ATOM     33  H   UNL A   1      34.472  45.569  45.819  1.00  0.00     0.156 HD
ATOM     34  H   UNL A   1      33.929  44.831  47.257  1.00  0.00     0.156 HD
ENDBRANCH  12  32
ENDBRANCH   7   9
ENDBRANCH   5   7
ENDBRANCH   4   5
ENDBRANCH   3   4
ENDBRANCH   2   3
ENDBRANCH   1   2
BRANCH   1  35
ATOM     35  C   UNL A   1      32.249  35.073  41.572  1.00  0.00     0.188 C 
BRANCH  35  36
ATOM     36  C   UNL A   1      32.158  33.544  41.689  1.00  0.00     0.188 C 
BRANCH  36  37
ATOM     37  O   UNL A   1      33.202  32.932  42.415  1.00  0.00    -0.377 OA
BRANCH  37  38
ATOM     38  C   UNL A   1      34.474  32.906  41.787  1.00  0.00     0.188 C 
BRANCH  38  39
ATOM     39  C   UNL A   1      35.243  31.575  41.853  1.00  0.00     0.188 C 
BRANCH  39  40
ATOM     40  O   UNL A   1      36.062  31.439  43.013  1.00  0.00    -0.376 OA
BRANCH  40  41
ATOM     41  C   UNL A   1      37.391  30.960  42.844  1.00  0.00     0.202 C 
BRANCH  41  42
ATOM     42  C   UNL A   1      38.400  31.851  42.095  1.00  0.00     0.261 C 
BRANCH  42  43
ATOM     43  O   UNL A   1      38.561  33.192  42.573  1.00  0.00    -0.460 OA
BRANCH  43  44
ATOM     44  C   UNL A   1      37.957  34.196  41.897  1.00  0.00     0.338 C 
ATOM     45  O   UNL A   1      37.083  34.928  42.304  1.00  0.00    -0.246 OA
BRANCH  44  46
ATOM     46  C   UNL A   1      38.724  34.399  40.643  1.00  0.00     0.060 A 
ATOM     47  C   UNL A   1      38.740  35.674  40.060  1.00  0.00     0.016 A 
ATOM     48  C   UNL A   1      39.431  33.347  40.058  1.00  0.00     0.016 A 
ATOM     49  C   UNL A   1      39.436  35.892  38.869  1.00  0.00     0.010 A 
ATOM     50  C   UNL A   1      40.104  33.560  38.849  1.00  0.00     0.010 A 
ATOM     51  C   UNL A   1      40.082  34.825  38.232  1.00  0.00    -0.014 A 
BRANCH  51  52
ATOM     52  C   UNL A   1      40.545  34.975  36.827  1.00  0.00     0.031 A 
ATOM     53  C   UNL A   1      39.552  34.720  35.725  1.00  0.00     0.074 A 
ATOM     54  C   UNL A   1      41.803  35.347  36.530  1.00  0.00     0.049 A 
ATOM     55  N   UNL A   1      39.728  34.703  34.430  1.00  0.00    -0.248 NA
ATOM     56  C   UNL A   1      38.171  34.439  36.150  1.00  0.00     0.031 C 
ATOM     57  C   UNL A   1      42.838  35.685  37.505  1.00  0.00     0.029 A 
ATOM     58  N   UNL A   1      42.427  35.492  35.314  1.00  0.00    -0.354 N 
ATOM     59  C   UNL A   1      38.484  34.399  33.884  1.00  0.00     0.074 A 
ATOM     60  C   UNL A   1      37.574  34.210  34.992  1.00  0.00     0.031 C 
ATOM     61  C   UNL A   1      43.974  35.981  36.849  1.00  0.00     0.029 A 
ATOM     62  C   UNL A   1      43.764  35.808  35.411  1.00  0.00     0.049 A 
ATOM     63  H   UNL A   1      41.962  35.379  34.453  1.00  0.00     0.167 HD
ATOM     64  C   UNL A   1      38.136  34.291  32.579  1.00  0.00     0.034 A 
ATOM     65  C   UNL A   1      44.711  35.908  34.455  1.00  0.00     0.034 A 
ATOM     66  C   UNL A   1      39.061  34.468  31.486  1.00  0.00     0.049 A 
ATOM     67  C   UNL A   1      44.323  35.679  33.010  1.00  0.00     0.074 A 
ATOM     68  C   UNL A   1      38.811  34.395  30.127  1.00  0.00     0.029 A 
ATOM     69  N   UNL A   1      40.417  34.736  31.627  1.00  0.00    -0.354 N 
ATOM     70  N   UNL A   1      43.144  35.395  32.503  1.00  0.00    -0.248 NA
ATOM     71  C   UNL A   1      45.393  35.789  32.008  1.00  0.00     0.031 C 
ATOM     72  C   UNL A   1      40.028  34.529  29.451  1.00  0.00     0.029 A 
ATOM     73  C   UNL A   1      41.023  34.787  30.380  1.00  0.00     0.049 A 
ATOM     74  H   UNL A   1      40.880  34.870  32.484  1.00  0.00     0.167 HD
ATOM     75  C   UNL A   1      43.328  35.329  31.122  1.00  0.00     0.074 A 
ATOM     76  C   UNL A   1      44.726  35.614  30.877  1.00  0.00     0.031 C 
ATOM     77  C   UNL A   1      42.421  35.066  30.146  1.00  0.00     0.034 A 
BRANCH  64  78
ATOM     78  C   UNL A   1      36.710  33.899  32.269  1.00  0.00     0.023 A 
ATOM     79  C   UNL A   1      35.716  34.857  32.001  1.00  0.00     0.031 A 
ATOM     80  C   UNL A   1      36.336  32.544  32.268  1.00  0.00     0.131 A 
ATOM     81  C   UNL A   1      34.387  34.450  31.811  1.00  0.00     0.055 A 
ATOM     82  C   UNL A   1      35.028  32.140  31.996  1.00  0.00     0.041 A 
ATOM     83  F   UNL A   1      37.235  31.586  32.545  1.00  0.00    -0.206 F 
ATOM     84  C   UNL A   1      34.041  33.097  31.780  1.00  0.00     0.022 A 
BRANCH  81  85
ATOM     85  S   UNL A   1      33.090  35.717  31.754  1.00  0.00     0.124 S 
ATOM     86  O   UNL A   1      32.036  35.099  32.556  1.00  0.00    -0.237 OA
ATOM     87  O   UNL A   1      33.751  36.872  32.348  1.00  0.00    -0.237 OA
ATOM     88  O   UNL A   1      32.788  35.835  30.328  1.00  0.00    -0.744 OA
ENDBRANCH  81  85
ENDBRANCH  64  78
BRANCH  65  89
ATOM     89  C   UNL A   1      46.134  36.182  34.819  1.00  0.00     0.023 A 
ATOM     90  C   UNL A   1      46.606  37.493  34.988  1.00  0.00     0.031 A 
ATOM     91  C   UNL A   1      47.062  35.130  34.933  1.00  0.00     0.131 A 
ATOM     92  C   UNL A   1      47.974  37.723  35.210  1.00  0.00     0.055 A 
ATOM     93  C   UNL A   1      48.410  35.360  35.216  1.00  0.00     0.041 A 
ATOM     94  F   UNL A   1      46.670  33.856  34.771  1.00  0.00    -0.206 F 
ATOM     95  C   UNL A   1      48.876  36.665  35.342  1.00  0.00     0.022 A 
BRANCH  92  96
ATOM     96  S   UNL A   1      48.580  39.433  35.219  1.00  0.00     0.124 S 
ATOM     97  O   UNL A   1      48.858  39.656  33.805  1.00  0.00    -0.237 OA
ATOM     98  O   UNL A   1      47.439  40.156  35.771  1.00  0.00    -0.237 OA
ATOM     99  O   UNL A   1      49.755  39.373  36.085  1.00  0.00    -0.744 OA
ENDBRANCH  92  96
ENDBRANCH  65  89
BRANCH  77 100
ATOM    100  C   UNL A   1      42.900  35.131  28.713  1.00  0.00     0.023 A 
ATOM    101  C   UNL A   1      43.437  34.013  28.052  1.00  0.00     0.031 A 
ATOM    102  C   UNL A   1      42.809  36.339  27.996  1.00  0.00     0.131 A 
ATOM    103  C   UNL A   1      43.908  34.137  26.736  1.00  0.00     0.055 A 
ATOM    104  C   UNL A   1      43.216  36.439  26.665  1.00  0.00     0.041 A 
ATOM    105  F   UNL A   1      42.309  37.443  28.575  1.00  0.00    -0.206 F 
ATOM    106  C   UNL A   1      43.782  35.337  26.032  1.00  0.00     0.022 A 
BRANCH 103 107
ATOM    107  S   UNL A   1      44.775  32.733  25.982  1.00  0.00     0.124 S 
ATOM    108  O   UNL A   1      44.564  32.977  24.558  1.00  0.00    -0.237 OA
ATOM    109  O   UNL A   1      46.141  32.913  26.464  1.00  0.00    -0.237 OA
ATOM    110  O   UNL A   1      44.077  31.568  26.521  1.00  0.00    -0.744 OA
ENDBRANCH 103 107
ENDBRANCH  77 100
ENDBRANCH  51  52
ENDBRANCH  44  46
ENDBRANCH  43  44
ENDBRANCH  42  43
ENDBRANCH  41  42
ENDBRANCH  40  41
ENDBRANCH  39  40
ENDBRANCH  38  39
ENDBRANCH  37  38
ENDBRANCH  36  37
ENDBRANCH  35  36
ENDBRANCH   1  35
TORSDOF 33
ENDMDL
MODEL 3
REMARK VINA RESULT:      -6.6      6.304     12.589
REMARK SMILES CCCCCCNC(=O)Oc1cccc(-c2ccc([C@@H](C)C(=O)OCCOCCOCCOCCOC(=O)c3ccc(-c4c5nc(c(-c6cc(S(=O)(=O)[O-])ccc6F)c6ccc([nH]6)c(-c6cc(S(=O)(=O)[O-])ccc6F)c6nc(c(-c7cc(S(=O)(=O)[O-])ccc7F)c7ccc4[nH]7)C=C6)C=C5)cc3)cc2N)c1
REMARK SMILES IDX 27 1 26 2 25 3 24 4 22 5 23 6 20 7 21 8 19 9 16 10 17 11
REMARK SMILES IDX 103 12 18 13 102 14 15 15 11 16 12 17 105 18 13 19 14 20
REMARK SMILES IDX 10 21 8 22 7 23 9 25 6 26 5 27 4 28 3 29 2 30 1 31 104 32
REMARK SMILES IDX 28 35 29 36 30 37 31 38 32 39 33 40 34 41 35 42 36 43 37 44
REMARK SMILES IDX 38 45 39 46 40 47 101 48 41 49 100 50 42 51 43 52 44 53
REMARK SMILES IDX 94 54 45 55 99 56 93 57 95 58 46 59 98 60 92 61 91 62 47 64
REMARK SMILES IDX 79 65 59 66 78 67 60 68 63 69 77 70 96 71 61 72 62 73 76 75
REMARK SMILES IDX 97 76 64 77 48 78 49 79 57 80 50 81 56 82 58 83 55 84 51 85
REMARK SMILES IDX 52 86 53 87 54 88 80 89 81 90 89 91 82 92 88 93 90 94 87 95
REMARK SMILES IDX 83 96 84 97 85 98 86 99 65 100 66 101 74 102 67 103 73 104
REMARK SMILES IDX 75 105 72 106 68 107 69 108 70 109 71 110
REMARK H PARENT 7 24 104 33 104 34 95 63 63 74
REMARK Flexibility Score: inf
ROOT
ATOM      1  O   UNL A   1      41.268  29.024  33.819  1.00  0.00    -0.376 OA
ENDROOT
BRANCH   1   2
ATOM      2  C   UNL A   1      42.354  29.728  33.232  1.00  0.00     0.202 C 
BRANCH   2   3
ATOM      3  C   UNL A   1      43.505  28.962  32.553  1.00  0.00     0.261 C 
BRANCH   3   4
ATOM      4  O   UNL A   1      43.527  28.959  31.109  1.00  0.00    -0.463 OA
BRANCH   4   5
ATOM      5  C   UNL A   1      43.049  27.850  30.503  1.00  0.00     0.313 C 
ATOM      6  O   UNL A   1      43.397  26.708  30.804  1.00  0.00    -0.252 OA
BRANCH   5   7
ATOM      7  C   UNL A   1      42.058  28.082  29.364  1.00  0.00     0.126 C 
ATOM      8  C   UNL A   1      41.100  29.195  29.775  1.00  0.00     0.025 C 
BRANCH   7   9
ATOM      9  C   UNL A   1      41.310  26.923  28.706  1.00  0.00    -0.032 A 
ATOM     10  C   UNL A   1      40.020  24.735  27.361  1.00  0.00     0.005 A 
ATOM     11  C   UNL A   1      39.360  25.512  28.338  1.00  0.00     0.011 A 
ATOM     12  C   UNL A   1      41.362  25.064  27.064  1.00  0.00     0.040 A 
ATOM     13  C   UNL A   1      39.986  26.588  28.996  1.00  0.00     0.005 A 
ATOM     14  C   UNL A   1      41.979  26.134  27.742  1.00  0.00     0.030 A 
BRANCH  10  15
ATOM     15  C   UNL A   1      39.269  23.687  26.620  1.00  0.00    -0.013 A 
ATOM     16  C   UNL A   1      37.281  22.851  25.486  1.00  0.00     0.133 A 
ATOM     17  C   UNL A   1      37.827  21.571  25.407  1.00  0.00     0.047 A 
ATOM     18  C   UNL A   1      37.990  23.906  26.074  1.00  0.00     0.056 A 
ATOM     19  C   UNL A   1      39.104  21.345  25.906  1.00  0.00     0.004 A 
ATOM     20  C   UNL A   1      39.812  22.389  26.510  1.00  0.00     0.009 A 
BRANCH  16  21
ATOM     21  O   UNL A   1      35.933  22.973  25.095  1.00  0.00    -0.410 OA
BRANCH  21  22
ATOM     22  C   UNL A   1      35.632  23.350  23.795  1.00  0.00     0.412 C 
ATOM     23  N   UNL A   1      34.457  24.046  23.693  1.00  0.00    -0.321 N 
ATOM     24  H   UNL A   1      34.200  24.336  22.788  1.00  0.00     0.167 HD
ATOM     25  O   UNL A   1      36.308  23.110  22.802  1.00  0.00    -0.224 OA
BRANCH  23  26
ATOM     26  C   UNL A   1      33.547  24.405  24.764  1.00  0.00     0.119 C 
BRANCH  26  27
ATOM     27  C   UNL A   1      33.835  25.801  25.321  1.00  0.00     0.021 C 
BRANCH  27  28
ATOM     28  C   UNL A   1      33.747  26.939  24.296  1.00  0.00     0.002 C 
BRANCH  28  29
ATOM     29  C   UNL A   1      32.329  27.384  23.920  1.00  0.00    -0.000 C 
BRANCH  29  30
ATOM     30  C   UNL A   1      31.561  28.128  25.014  1.00  0.00    -0.003 C 
ATOM     31  C   UNL A   1      31.038  29.485  24.570  1.00  0.00     0.004 C 
ENDBRANCH  29  30
ENDBRANCH  28  29
ENDBRANCH  27  28
ENDBRANCH  26  27
ENDBRANCH  23  26
ENDBRANCH  21  22
ENDBRANCH  16  21
ENDBRANCH  10  15
BRANCH  12  32
ATOM     32  N   UNL A   1      42.137  24.314  26.178  1.00  0.00    -0.398 N 
ATOM     33  H   UNL A   1      43.095  24.513  26.071  1.00  0.00     0.156 HD
ATOM     34  H   UNL A   1      41.725  23.584  25.662  1.00  0.00     0.156 HD
ENDBRANCH  12  32
ENDBRANCH   7   9
ENDBRANCH   5   7
ENDBRANCH   4   5
ENDBRANCH   3   4
ENDBRANCH   2   3
ENDBRANCH   1   2
BRANCH   1  35
ATOM     35  C   UNL A   1      41.021  29.104  35.217  1.00  0.00     0.188 C 
BRANCH  35  36
ATOM     36  C   UNL A   1      41.871  28.327  36.234  1.00  0.00     0.188 C 
BRANCH  36  37
ATOM     37  O   UNL A   1      42.904  29.069  36.846  1.00  0.00    -0.377 OA
BRANCH  37  38
ATOM     38  C   UNL A   1      44.226  28.770  36.431  1.00  0.00     0.188 C 
BRANCH  38  39
ATOM     39  C   UNL A   1      44.708  27.327  36.659  1.00  0.00     0.188 C 
BRANCH  39  40
ATOM     40  O   UNL A   1      45.063  27.044  38.011  1.00  0.00    -0.376 OA
BRANCH  40  41
ATOM     41  C   UNL A   1      46.151  27.759  38.584  1.00  0.00     0.202 C 
BRANCH  41  42
ATOM     42  C   UNL A   1      46.550  27.444  40.038  1.00  0.00     0.261 C 
BRANCH  42  43
ATOM     43  O   UNL A   1      45.678  27.925  41.068  1.00  0.00    -0.460 OA
BRANCH  43  44
ATOM     44  C   UNL A   1      46.226  28.385  42.215  1.00  0.00     0.338 C 
ATOM     45  O   UNL A   1      47.070  27.841  42.891  1.00  0.00    -0.246 OA
BRANCH  44  46
ATOM     46  C   UNL A   1      45.784  29.793  42.375  1.00  0.00     0.060 A 
ATOM     47  C   UNL A   1      44.842  30.098  43.366  1.00  0.00     0.016 A 
ATOM     48  C   UNL A   1      46.305  30.803  41.563  1.00  0.00     0.016 A 
ATOM     49  C   UNL A   1      44.390  31.410  43.526  1.00  0.00     0.010 A 
ATOM     50  C   UNL A   1      45.831  32.113  41.706  1.00  0.00     0.010 A 
ATOM     51  C   UNL A   1      44.847  32.416  42.666  1.00  0.00    -0.014 A 
BRANCH  51  52
ATOM     52  C   UNL A   1      44.145  33.726  42.622  1.00  0.00     0.031 A 
ATOM     53  C   UNL A   1      42.892  33.828  41.794  1.00  0.00     0.074 A 
ATOM     54  C   UNL A   1      44.589  34.793  43.312  1.00  0.00     0.049 A 
ATOM     55  N   UNL A   1      42.150  34.871  41.529  1.00  0.00    -0.248 NA
ATOM     56  C   UNL A   1      42.419  32.579  41.177  1.00  0.00     0.031 C 
ATOM     57  C   UNL A   1      45.750  34.803  44.199  1.00  0.00     0.029 A 
ATOM     58  N   UNL A   1      44.116  36.082  43.362  1.00  0.00    -0.354 N 
ATOM     59  C   UNL A   1      41.129  34.407  40.705  1.00  0.00     0.074 A 
ATOM     60  C   UNL A   1      41.368  32.997  40.492  1.00  0.00     0.031 C 
ATOM     61  C   UNL A   1      45.909  36.044  44.692  1.00  0.00     0.029 A 
ATOM     62  C   UNL A   1      44.893  36.927  44.121  1.00  0.00     0.049 A 
ATOM     63  H   UNL A   1      43.298  36.373  42.899  1.00  0.00     0.167 HD
ATOM     64  C   UNL A   1      40.087  35.096  40.178  1.00  0.00     0.034 A 
ATOM     65  C   UNL A   1      44.813  38.262  44.301  1.00  0.00     0.034 A 
ATOM     66  C   UNL A   1      39.872  36.507  40.389  1.00  0.00     0.049 A 
ATOM     67  C   UNL A   1      43.703  39.032  43.617  1.00  0.00     0.074 A 
ATOM     68  C   UNL A   1      38.842  37.301  39.914  1.00  0.00     0.029 A 
ATOM     69  N   UNL A   1      40.709  37.339  41.121  1.00  0.00    -0.354 N 
ATOM     70  N   UNL A   1      42.740  38.584  42.843  1.00  0.00    -0.248 NA
ATOM     71  C   UNL A   1      43.666  40.485  43.836  1.00  0.00     0.031 C 
ATOM     72  C   UNL A   1      39.104  38.623  40.283  1.00  0.00     0.029 A 
ATOM     73  C   UNL A   1      40.242  38.645  41.072  1.00  0.00     0.049 A 
ATOM     74  H   UNL A   1      41.516  37.047  41.602  1.00  0.00     0.167 HD
ATOM     75  C   UNL A   1      41.966  39.697  42.515  1.00  0.00     0.074 A 
ATOM     76  C   UNL A   1      42.567  40.831  43.184  1.00  0.00     0.031 C 
ATOM     77  C   UNL A   1      40.854  39.771  41.739  1.00  0.00     0.034 A 
BRANCH  64  78
ATOM     78  C   UNL A   1      39.143  34.344  39.270  1.00  0.00     0.023 A 
ATOM     79  C   UNL A   1      38.291  33.334  39.753  1.00  0.00     0.031 A 
ATOM     80  C   UNL A   1      39.116  34.625  37.892  1.00  0.00     0.131 A 
ATOM     81  C   UNL A   1      37.500  32.599  38.856  1.00  0.00     0.055 A 
ATOM     82  C   UNL A   1      38.265  33.947  37.018  1.00  0.00     0.041 A 
ATOM     83  F   UNL A   1      39.927  35.559  37.369  1.00  0.00    -0.206 F 
ATOM     84  C   UNL A   1      37.461  32.917  37.496  1.00  0.00     0.022 A 
BRANCH  81  85
ATOM     85  S   UNL A   1      36.635  31.126  39.467  1.00  0.00     0.124 S 
ATOM     86  O   UNL A   1      36.813  30.196  38.353  1.00  0.00    -0.237 OA
ATOM     87  O   UNL A   1      37.371  30.811  40.686  1.00  0.00    -0.237 OA
ATOM     88  O   UNL A   1      35.264  31.591  39.666  1.00  0.00    -0.744 OA
ENDBRANCH  81  85
ENDBRANCH  64  78
BRANCH  65  89
ATOM     89  C   UNL A   1      45.840  38.983  45.114  1.00  0.00     0.023 A 
ATOM     90  C   UNL A   1      47.040  39.435  44.542  1.00  0.00     0.031 A 
ATOM     91  C   UNL A   1      45.662  39.167  46.498  1.00  0.00     0.131 A 
ATOM     92  C   UNL A   1      48.035  40.000  45.356  1.00  0.00     0.055 A 
ATOM     93  C   UNL A   1      46.629  39.786  47.292  1.00  0.00     0.041 A 
ATOM     94  F   UNL A   1      44.540  38.745  47.101  1.00  0.00    -0.206 F 
ATOM     95  C   UNL A   1      47.831  40.194  46.724  1.00  0.00     0.022 A 
BRANCH  92  96
ATOM     96  S   UNL A   1      49.648  40.384  44.619  1.00  0.00     0.124 S 
ATOM     97  O   UNL A   1      50.258  39.062  44.537  1.00  0.00    -0.237 OA
ATOM     98  O   UNL A   1      49.265  40.994  43.351  1.00  0.00    -0.237 OA
ATOM     99  O   UNL A   1      50.257  41.293  45.587  1.00  0.00    -0.744 OA
ENDBRANCH  92  96
ENDBRANCH  65  89
BRANCH  77 100
ATOM    100  C   UNL A   1      40.178  41.119  41.617  1.00  0.00     0.023 A 
ATOM    101  C   UNL A   1      39.297  41.604  42.599  1.00  0.00     0.031 A 
ATOM    102  C   UNL A   1      40.429  41.933  40.497  1.00  0.00     0.131 A 
ATOM    103  C   UNL A   1      38.661  42.842  42.417  1.00  0.00     0.055 A 
ATOM    104  C   UNL A   1      39.846  43.192  40.355  1.00  0.00     0.041 A 
ATOM    105  F   UNL A   1      41.258  41.521  39.523  1.00  0.00    -0.206 F 
ATOM    106  C   UNL A   1      38.946  43.648  41.312  1.00  0.00     0.022 A 
BRANCH 103 107
ATOM    107  S   UNL A   1      37.382  43.349  43.600  1.00  0.00     0.124 S 
ATOM    108  O   UNL A   1      36.905  42.063  44.100  1.00  0.00    -0.237 OA
ATOM    109  O   UNL A   1      38.136  44.163  44.548  1.00  0.00    -0.237 OA
ATOM    110  O   UNL A   1      36.425  44.085  42.777  1.00  0.00    -0.744 OA
ENDBRANCH 103 107
ENDBRANCH  77 100
ENDBRANCH  51  52
ENDBRANCH  44  46
ENDBRANCH  43  44
ENDBRANCH  42  43
ENDBRANCH  41  42
ENDBRANCH  40  41
ENDBRANCH  39  40
ENDBRANCH  38  39
ENDBRANCH  37  38
ENDBRANCH  36  37
ENDBRANCH  35  36
ENDBRANCH   1  35
TORSDOF 33
ENDMDL
