MODEL 1
REMARK VINA RESULT:      -7.1      0.000      0.000
REMARK SMILES O=C(OCCOCCOCCOCCOC(=O)[C@@H]1CS[C@@H](c2cc(Br)ccc2O)[NH2+]1)c1ccc(-c2c3nc(c(-c4cc(S(=O)(=O)[O-])ccc4F)c4ccc([nH]4)c(-c4cc(S(=O)(=O)[O-])ccc4F)c4nc(c(-c5cc(S(=O)(=O)[O-])ccc5F)c5ccc2[nH]5)C=C4)C=C3)cc1
REMARK SMILES IDX 8 1 7 2 6 3 5 4 4 5 3 6 2 7 1 8 31 9 32 10 93 11 33 12 92 13
REMARK SMILES IDX 34 14 35 15 36 16 86 17 37 18 91 19 85 20 87 21 38 22 90 23
REMARK SMILES IDX 84 24 83 25 39 27 71 28 51 29 70 30 52 31 55 32 69 33 88 34
REMARK SMILES IDX 53 35 54 36 68 38 89 39 56 40 40 41 41 42 49 43 42 44 48 45
REMARK SMILES IDX 50 46 47 47 43 48 44 49 45 50 46 51 72 52 73 53 81 54 74 55
REMARK SMILES IDX 80 56 82 57 79 58 75 59 76 60 77 61 78 62 57 63 58 64 66 65
REMARK SMILES IDX 59 66 65 67 67 68 64 69 60 70 61 71 62 72 63 73 9 74 10 75
REMARK SMILES IDX 11 76 12 77 13 78 14 79 15 80 16 81 17 82 18 83 19 84 30 85
REMARK SMILES IDX 20 86 21 87 22 90 23 91 28 92 24 93 27 94 25 95 26 96 29 97
REMARK H PARENT 87 26 55 37 30 88 30 89 29 98
REMARK Flexibility Score: inf
ROOT
ATOM      1  C   UNL A   1      43.387  35.254  32.201  1.00  0.00     0.188 C 
ENDROOT
BRANCH   1   2
ATOM      2  C   UNL A   1      43.463  36.286  31.077  1.00  0.00     0.188 C 
BRANCH   2   3
ATOM      3  O   UNL A   1      43.923  37.548  31.561  1.00  0.00    -0.376 OA
BRANCH   3   4
ATOM      4  C   UNL A   1      45.144  38.044  31.011  1.00  0.00     0.202 C 
BRANCH   4   5
ATOM      5  C   UNL A   1      44.981  38.918  29.770  1.00  0.00     0.261 C 
BRANCH   5   6
ATOM      6  O   UNL A   1      45.120  38.184  28.549  1.00  0.00    -0.460 OA
BRANCH   6   7
ATOM      7  C   UNL A   1      45.902  37.100  28.312  1.00  0.00     0.338 C 
ATOM      8  O   UNL A   1      47.096  37.309  28.089  1.00  0.00    -0.246 OA
BRANCH   7   9
ATOM      9  C   UNL A   1      45.416  35.679  28.233  1.00  0.00     0.060 A 
ATOM     10  C   UNL A   1      44.567  35.144  27.261  1.00  0.00     0.016 A 
ATOM     11  C   UNL A   1      45.934  34.790  29.194  1.00  0.00     0.016 A 
ATOM     12  C   UNL A   1      44.257  33.794  27.211  1.00  0.00     0.010 A 
ATOM     13  C   UNL A   1      45.605  33.431  29.176  1.00  0.00     0.010 A 
ATOM     14  C   UNL A   1      44.759  32.938  28.180  1.00  0.00    -0.014 A 
BRANCH  14  15
ATOM     15  C   UNL A   1      44.205  31.579  28.223  1.00  0.00     0.031 A 
ATOM     16  C   UNL A   1      45.033  30.490  27.617  1.00  0.00     0.074 A 
ATOM     17  C   UNL A   1      43.077  31.333  28.912  1.00  0.00     0.049 A 
ATOM     18  N   UNL A   1      44.739  29.237  27.426  1.00  0.00    -0.248 NA
ATOM     19  C   UNL A   1      46.392  30.866  27.183  1.00  0.00     0.031 C 
ATOM     20  C   UNL A   1      42.330  32.328  29.688  1.00  0.00     0.029 A 
ATOM     21  N   UNL A   1      42.372  30.175  29.088  1.00  0.00    -0.354 N 
ATOM     22  C   UNL A   1      45.856  28.684  26.810  1.00  0.00     0.074 A 
ATOM     23  C   UNL A   1      46.844  29.727  26.681  1.00  0.00     0.031 C 
ATOM     24  C   UNL A   1      41.257  31.736  30.238  1.00  0.00     0.029 A 
ATOM     25  C   UNL A   1      41.197  30.351  29.783  1.00  0.00     0.049 A 
ATOM     26  H   UNL A   1      42.674  29.300  28.750  1.00  0.00     0.167 HD
ATOM     27  C   UNL A   1      46.008  27.416  26.367  1.00  0.00     0.034 A 
ATOM     28  C   UNL A   1      40.168  29.498  29.955  1.00  0.00     0.034 A 
ATOM     29  C   UNL A   1      44.978  26.423  26.516  1.00  0.00     0.049 A 
ATOM     30  C   UNL A   1      40.306  28.128  29.326  1.00  0.00     0.074 A 
ATOM     31  C   UNL A   1      44.966  25.114  26.078  1.00  0.00     0.029 A 
ATOM     32  N   UNL A   1      43.758  26.650  27.148  1.00  0.00    -0.354 N 
ATOM     33  N   UNL A   1      41.337  27.615  28.688  1.00  0.00    -0.248 NA
ATOM     34  C   UNL A   1      39.148  27.233  29.416  1.00  0.00     0.031 C 
ATOM     35  C   UNL A   1      43.708  24.578  26.370  1.00  0.00     0.029 A 
ATOM     36  C   UNL A   1      42.965  25.522  27.065  1.00  0.00     0.049 A 
ATOM     37  H   UNL A   1      43.499  27.491  27.588  1.00  0.00     0.167 HD
ATOM     38  C   UNL A   1      40.953  26.333  28.311  1.00  0.00     0.074 A 
ATOM     39  C   UNL A   1      39.610  26.141  28.825  1.00  0.00     0.031 C 
ATOM     40  C   UNL A   1      41.629  25.395  27.598  1.00  0.00     0.034 A 
BRANCH  27  41
ATOM     41  C   UNL A   1      47.252  27.099  25.582  1.00  0.00     0.023 A 
ATOM     42  C   UNL A   1      48.405  26.558  26.174  1.00  0.00     0.031 A 
ATOM     43  C   UNL A   1      47.294  27.407  24.210  1.00  0.00     0.131 A 
ATOM     44  C   UNL A   1      49.570  26.390  25.405  1.00  0.00     0.055 A 
ATOM     45  C   UNL A   1      48.432  27.173  23.437  1.00  0.00     0.041 A 
ATOM     46  F   UNL A   1      46.235  27.965  23.603  1.00  0.00    -0.206 F 
ATOM     47  C   UNL A   1      49.582  26.670  24.037  1.00  0.00     0.022 A 
BRANCH  44  48
ATOM     48  S   UNL A   1      51.107  25.909  26.240  1.00  0.00     0.124 S 
ATOM     49  O   UNL A   1      51.430  27.123  26.985  1.00  0.00    -0.237 OA
ATOM     50  O   UNL A   1      50.690  24.763  27.039  1.00  0.00    -0.237 OA
ATOM     51  O   UNL A   1      52.016  25.602  25.137  1.00  0.00    -0.744 OA
ENDBRANCH  44  48
ENDBRANCH  27  41
BRANCH  28  52
ATOM     52  C   UNL A   1      38.895  29.928  30.611  1.00  0.00     0.023 A 
ATOM     53  C   UNL A   1      37.885  30.586  29.891  1.00  0.00     0.031 A 
ATOM     54  C   UNL A   1      38.709  29.781  32.000  1.00  0.00     0.131 A 
ATOM     55  C   UNL A   1      36.777  31.128  30.566  1.00  0.00     0.055 A 
ATOM     56  C   UNL A   1      37.572  30.256  32.656  1.00  0.00     0.041 A 
ATOM     57  F   UNL A   1      39.643  29.180  32.755  1.00  0.00    -0.206 F 
ATOM     58  C   UNL A   1      36.607  30.955  31.941  1.00  0.00     0.022 A 
BRANCH  55  59
ATOM     59  S   UNL A   1      35.637  32.198  29.644  1.00  0.00     0.124 S 
ATOM     60  O   UNL A   1      36.524  33.272  29.210  1.00  0.00    -0.237 OA
ATOM     61  O   UNL A   1      35.157  31.300  28.600  1.00  0.00    -0.237 OA
ATOM     62  O   UNL A   1      34.642  32.577  30.645  1.00  0.00    -0.744 OA
ENDBRANCH  55  59
ENDBRANCH  28  52
BRANCH  40  63
ATOM     63  C   UNL A   1      40.924  24.087  27.368  1.00  0.00     0.023 A 
ATOM     64  C   UNL A   1      39.755  24.017  26.593  1.00  0.00     0.031 A 
ATOM     65  C   UNL A   1      41.447  22.898  27.905  1.00  0.00     0.131 A 
ATOM     66  C   UNL A   1      39.119  22.783  26.412  1.00  0.00     0.055 A 
ATOM     67  C   UNL A   1      40.846  21.665  27.664  1.00  0.00     0.041 A 
ATOM     68  F   UNL A   1      42.563  22.918  28.651  1.00  0.00    -0.206 F 
ATOM     69  C   UNL A   1      39.669  21.604  26.923  1.00  0.00     0.022 A 
BRANCH  66  70
ATOM     70  S   UNL A   1      37.521  22.752  25.561  1.00  0.00     0.124 S 
ATOM     71  O   UNL A   1      37.273  21.319  25.435  1.00  0.00    -0.237 OA
ATOM     72  O   UNL A   1      36.655  23.469  26.492  1.00  0.00    -0.237 OA
ATOM     73  O   UNL A   1      37.790  23.448  24.303  1.00  0.00    -0.744 OA
ENDBRANCH  66  70
ENDBRANCH  40  63
ENDBRANCH  14  15
ENDBRANCH   7   9
ENDBRANCH   6   7
ENDBRANCH   5   6
ENDBRANCH   4   5
ENDBRANCH   3   4
ENDBRANCH   2   3
ENDBRANCH   1   2
BRANCH   1  74
ATOM     74  O   UNL A   1      44.646  34.737  32.606  1.00  0.00    -0.377 OA
BRANCH  74  75
ATOM     75  C   UNL A   1      44.618  33.476  33.256  1.00  0.00     0.188 C 
BRANCH  75  76
ATOM     76  C   UNL A   1      44.661  32.184  32.397  1.00  0.00     0.188 C 
BRANCH  76  77
ATOM     77  O   UNL A   1      43.756  31.194  32.841  1.00  0.00    -0.376 OA
BRANCH  77  78
ATOM     78  C   UNL A   1      44.338  30.140  33.595  1.00  0.00     0.202 C 
BRANCH  78  79
ATOM     79  C   UNL A   1      45.855  29.946  33.426  1.00  0.00     0.261 C 
BRANCH  79  80
ATOM     80  O   UNL A   1      46.312  28.677  32.892  1.00  0.00    -0.459 OA
BRANCH  80  81
ATOM     81  C   UNL A   1      46.314  28.471  31.543  1.00  0.00     0.365 C 
ATOM     82  O   UNL A   1      46.075  29.345  30.730  1.00  0.00    -0.245 OA
BRANCH  81  83
ATOM     83  C   UNL A   1      46.708  26.988  31.232  1.00  0.00     0.304 C 
ATOM     84  C   UNL A   1      46.088  26.358  29.967  1.00  0.00     0.153 C 
ATOM     85  N   UNL A   1      46.354  26.112  32.375  1.00  0.00    -0.319 N 
ATOM     86  S   UNL A   1      44.979  25.041  30.502  1.00  0.00    -0.087 SA
ATOM     87  C   UNL A   1      44.950  25.719  32.169  1.00  0.00     0.278 C 
ATOM     88  H   UNL A   1      46.454  26.621  33.254  1.00  0.00     0.348 HD
ATOM     89  H   UNL A   1      46.966  25.298  32.425  1.00  0.00     0.348 HD
BRANCH  87  90
ATOM     90  C   UNL A   1      44.487  24.814  33.276  1.00  0.00     0.063 A 
ATOM     91  C   UNL A   1      45.003  23.528  33.504  1.00  0.00     0.030 A 
ATOM     92  C   UNL A   1      43.539  25.321  34.181  1.00  0.00     0.125 A 
ATOM     93  C   UNL A   1      44.602  22.802  34.623  1.00  0.00     0.018 A 
ATOM     94  C   UNL A   1      43.152  24.604  35.307  1.00  0.00     0.048 A 
ATOM     95  Br  UNL A   1      45.316  21.075  34.917  1.00  0.00    -0.051 Br
ATOM     96  C   UNL A   1      43.695  23.341  35.533  1.00  0.00     0.019 A 
BRANCH  92  97
ATOM     97  O   UNL A   1      42.999  26.549  33.933  1.00  0.00    -0.507 OA
ATOM     98  H   UNL A   1      43.214  27.005  33.143  1.00  0.00     0.293 HD
ENDBRANCH  92  97
ENDBRANCH  87  90
ENDBRANCH  81  83
ENDBRANCH  80  81
ENDBRANCH  79  80
ENDBRANCH  78  79
ENDBRANCH  77  78
ENDBRANCH  76  77
ENDBRANCH  75  76
ENDBRANCH  74  75
ENDBRANCH   1  74
TORSDOF 25
ENDMDL
MODEL 2
REMARK VINA RESULT:      -7.1      6.279     13.460
REMARK SMILES O=C(OCCOCCOCCOCCOC(=O)[C@@H]1CS[C@@H](c2cc(Br)ccc2O)[NH2+]1)c1ccc(-c2c3nc(c(-c4cc(S(=O)(=O)[O-])ccc4F)c4ccc([nH]4)c(-c4cc(S(=O)(=O)[O-])ccc4F)c4nc(c(-c5cc(S(=O)(=O)[O-])ccc5F)c5ccc2[nH]5)C=C4)C=C3)cc1
REMARK SMILES IDX 8 1 7 2 6 3 5 4 4 5 3 6 2 7 1 8 31 9 32 10 93 11 33 12 92 13
REMARK SMILES IDX 34 14 35 15 36 16 86 17 37 18 91 19 85 20 87 21 38 22 90 23
REMARK SMILES IDX 84 24 83 25 39 27 71 28 51 29 70 30 52 31 55 32 69 33 88 34
REMARK SMILES IDX 53 35 54 36 68 38 89 39 56 40 40 41 41 42 49 43 42 44 48 45
REMARK SMILES IDX 50 46 47 47 43 48 44 49 45 50 46 51 72 52 73 53 81 54 74 55
REMARK SMILES IDX 80 56 82 57 79 58 75 59 76 60 77 61 78 62 57 63 58 64 66 65
REMARK SMILES IDX 59 66 65 67 67 68 64 69 60 70 61 71 62 72 63 73 9 74 10 75
REMARK SMILES IDX 11 76 12 77 13 78 14 79 15 80 16 81 17 82 18 83 19 84 30 85
REMARK SMILES IDX 20 86 21 87 22 90 23 91 28 92 24 93 27 94 25 95 26 96 29 97
REMARK H PARENT 87 26 55 37 30 88 30 89 29 98
REMARK Flexibility Score: inf
ROOT
ATOM      1  C   UNL A   1      37.553  30.017  28.110  1.00  0.00     0.188 C 
ENDROOT
BRANCH   1   2
ATOM      2  C   UNL A   1      38.730  29.089  27.819  1.00  0.00     0.188 C 
BRANCH   2   3
ATOM      3  O   UNL A   1      39.620  29.013  28.934  1.00  0.00    -0.376 OA
BRANCH   3   4
ATOM      4  C   UNL A   1      40.072  27.710  29.308  1.00  0.00     0.202 C 
BRANCH   4   5
ATOM      5  C   UNL A   1      39.002  26.812  29.926  1.00  0.00     0.261 C 
BRANCH   5   6
ATOM      6  O   UNL A   1      38.162  27.506  30.854  1.00  0.00    -0.460 OA
BRANCH   6   7
ATOM      7  C   UNL A   1      38.476  27.941  32.100  1.00  0.00     0.338 C 
ATOM      8  O   UNL A   1      38.186  27.202  33.042  1.00  0.00    -0.246 OA
BRANCH   7   9
ATOM      9  C   UNL A   1      39.086  29.277  32.425  1.00  0.00     0.060 A 
ATOM     10  C   UNL A   1      38.428  30.510  32.439  1.00  0.00     0.016 A 
ATOM     11  C   UNL A   1      40.435  29.264  32.828  1.00  0.00     0.016 A 
ATOM     12  C   UNL A   1      39.051  31.677  32.854  1.00  0.00     0.010 A 
ATOM     13  C   UNL A   1      41.086  30.438  33.219  1.00  0.00     0.010 A 
ATOM     14  C   UNL A   1      40.387  31.647  33.226  1.00  0.00    -0.014 A 
BRANCH  14  15
ATOM     15  C   UNL A   1      41.056  32.940  33.417  1.00  0.00     0.031 A 
ATOM     16  C   UNL A   1      41.603  33.607  32.194  1.00  0.00     0.074 A 
ATOM     17  C   UNL A   1      41.032  33.540  34.619  1.00  0.00     0.049 A 
ATOM     18  N   UNL A   1      42.325  34.685  32.093  1.00  0.00    -0.248 NA
ATOM     19  C   UNL A   1      41.273  32.977  30.901  1.00  0.00     0.031 C 
ATOM     20  C   UNL A   1      40.341  33.023  35.805  1.00  0.00     0.029 A 
ATOM     21  N   UNL A   1      41.583  34.718  35.041  1.00  0.00    -0.354 N 
ATOM     22  C   UNL A   1      42.573  34.840  30.734  1.00  0.00     0.074 A 
ATOM     23  C   UNL A   1      41.906  33.762  30.044  1.00  0.00     0.031 C 
ATOM     24  C   UNL A   1      40.532  33.874  36.826  1.00  0.00     0.029 A 
ATOM     25  C   UNL A   1      41.424  34.943  36.390  1.00  0.00     0.049 A 
ATOM     26  H   UNL A   1      42.047  35.345  34.440  1.00  0.00     0.167 HD
ATOM     27  C   UNL A   1      43.326  35.790  30.138  1.00  0.00     0.034 A 
ATOM     28  C   UNL A   1      42.005  35.869  37.178  1.00  0.00     0.034 A 
ATOM     29  C   UNL A   1      43.976  36.833  30.885  1.00  0.00     0.049 A 
ATOM     30  C   UNL A   1      42.956  36.835  36.505  1.00  0.00     0.074 A 
ATOM     31  C   UNL A   1      44.808  37.836  30.429  1.00  0.00     0.029 A 
ATOM     32  N   UNL A   1      43.872  36.989  32.265  1.00  0.00    -0.354 N 
ATOM     33  N   UNL A   1      43.245  36.951  35.225  1.00  0.00    -0.248 NA
ATOM     34  C   UNL A   1      43.674  37.775  37.371  1.00  0.00     0.031 C 
ATOM     35  C   UNL A   1      45.272  38.543  31.542  1.00  0.00     0.029 A 
ATOM     36  C   UNL A   1      44.666  38.038  32.684  1.00  0.00     0.049 A 
ATOM     37  H   UNL A   1      43.315  36.432  32.854  1.00  0.00     0.167 HD
ATOM     38  C   UNL A   1      44.169  37.985  35.135  1.00  0.00     0.074 A 
ATOM     39  C   UNL A   1      44.363  38.481  36.485  1.00  0.00     0.031 C 
ATOM     40  C   UNL A   1      44.816  38.483  34.049  1.00  0.00     0.034 A 
BRANCH  27  41
ATOM     41  C   UNL A   1      43.581  35.650  28.661  1.00  0.00     0.023 A 
ATOM     42  C   UNL A   1      44.627  34.867  28.144  1.00  0.00     0.031 A 
ATOM     43  C   UNL A   1      42.785  36.374  27.755  1.00  0.00     0.131 A 
ATOM     44  C   UNL A   1      44.879  34.867  26.761  1.00  0.00     0.055 A 
ATOM     45  C   UNL A   1      42.997  36.316  26.378  1.00  0.00     0.041 A 
ATOM     46  F   UNL A   1      41.801  37.171  28.198  1.00  0.00    -0.206 F 
ATOM     47  C   UNL A   1      44.056  35.566  25.874  1.00  0.00     0.022 A 
BRANCH  44  48
ATOM     48  S   UNL A   1      46.368  34.035  26.143  1.00  0.00     0.124 S 
ATOM     49  O   UNL A   1      46.615  34.759  24.898  1.00  0.00    -0.237 OA
ATOM     50  O   UNL A   1      47.329  34.266  27.215  1.00  0.00    -0.237 OA
ATOM     51  O   UNL A   1      45.943  32.647  25.976  1.00  0.00    -0.744 OA
ENDBRANCH  44  48
ENDBRANCH  27  41
BRANCH  28  52
ATOM     52  C   UNL A   1      41.831  35.855  38.663  1.00  0.00     0.023 A 
ATOM     53  C   UNL A   1      40.937  36.728  39.305  1.00  0.00     0.031 A 
ATOM     54  C   UNL A   1      42.636  35.036  39.480  1.00  0.00     0.131 A 
ATOM     55  C   UNL A   1      40.919  36.811  40.708  1.00  0.00     0.055 A 
ATOM     56  C   UNL A   1      42.562  35.069  40.874  1.00  0.00     0.041 A 
ATOM     57  F   UNL A   1      43.526  34.192  38.935  1.00  0.00    -0.206 F 
ATOM     58  C   UNL A   1      41.714  35.977  41.497  1.00  0.00     0.022 A 
BRANCH  55  59
ATOM     59  S   UNL A   1      39.951  38.134  41.487  1.00  0.00     0.124 S 
ATOM     60  O   UNL A   1      40.875  39.261  41.410  1.00  0.00    -0.237 OA
ATOM     61  O   UNL A   1      38.780  38.203  40.620  1.00  0.00    -0.237 OA
ATOM     62  O   UNL A   1      39.701  37.624  42.833  1.00  0.00    -0.744 OA
ENDBRANCH  55  59
ENDBRANCH  28  52
BRANCH  40  63
ATOM     63  C   UNL A   1      45.760  39.628  34.295  1.00  0.00     0.023 A 
ATOM     64  C   UNL A   1      45.333  40.961  34.181  1.00  0.00     0.031 A 
ATOM     65  C   UNL A   1      47.090  39.378  34.675  1.00  0.00     0.131 A 
ATOM     66  C   UNL A   1      46.243  41.999  34.405  1.00  0.00     0.055 A 
ATOM     67  C   UNL A   1      47.972  40.417  34.961  1.00  0.00     0.041 A 
ATOM     68  F   UNL A   1      47.541  38.120  34.797  1.00  0.00    -0.206 F 
ATOM     69  C   UNL A   1      47.553  41.738  34.815  1.00  0.00     0.022 A 
BRANCH  66  70
ATOM     70  S   UNL A   1      45.712  43.700  34.077  1.00  0.00     0.124 S 
ATOM     71  O   UNL A   1      45.346  43.636  32.665  1.00  0.00    -0.237 OA
ATOM     72  O   UNL A   1      44.607  43.870  35.014  1.00  0.00    -0.237 OA
ATOM     73  O   UNL A   1      46.904  44.494  34.373  1.00  0.00    -0.744 OA
ENDBRANCH  66  70
ENDBRANCH  40  63
ENDBRANCH  14  15
ENDBRANCH   7   9
ENDBRANCH   6   7
ENDBRANCH   5   6
ENDBRANCH   4   5
ENDBRANCH   3   4
ENDBRANCH   2   3
ENDBRANCH   1   2
BRANCH   1  74
ATOM     74  O   UNL A   1      36.312  29.349  28.286  1.00  0.00    -0.377 OA
BRANCH  74  75
ATOM     75  C   UNL A   1      35.281  29.709  27.379  1.00  0.00     0.188 C 
BRANCH  75  76
ATOM     76  C   UNL A   1      34.589  28.598  26.544  1.00  0.00     0.188 C 
BRANCH  76  77
ATOM     77  O   UNL A   1      33.228  28.870  26.281  1.00  0.00    -0.376 OA
BRANCH  77  78
ATOM     78  C   UNL A   1      32.934  29.235  24.940  1.00  0.00     0.202 C 
BRANCH  78  79
ATOM     79  C   UNL A   1      33.545  28.340  23.848  1.00  0.00     0.261 C 
BRANCH  79  80
ATOM     80  O   UNL A   1      32.911  27.060  23.600  1.00  0.00    -0.459 OA
BRANCH  80  81
ATOM     81  C   UNL A   1      33.126  26.415  22.417  1.00  0.00     0.365 C 
ATOM     82  O   UNL A   1      33.974  26.753  21.612  1.00  0.00    -0.245 OA
BRANCH  81  83
ATOM     83  C   UNL A   1      32.166  25.184  22.299  1.00  0.00     0.304 C 
ATOM     84  C   UNL A   1      30.924  25.184  23.214  1.00  0.00     0.153 C 
ATOM     85  N   UNL A   1      32.907  23.927  22.568  1.00  0.00    -0.319 N 
ATOM     86  S   UNL A   1      31.111  23.829  24.389  1.00  0.00    -0.087 SA
ATOM     87  C   UNL A   1      32.872  23.738  24.029  1.00  0.00     0.278 C 
ATOM     88  H   UNL A   1      33.871  24.009  22.245  1.00  0.00     0.348 HD
ATOM     89  H   UNL A   1      32.489  23.136  22.079  1.00  0.00     0.348 HD
BRANCH  87  90
ATOM     90  C   UNL A   1      33.593  22.477  24.414  1.00  0.00     0.063 A 
ATOM     91  C   UNL A   1      32.956  21.243  24.625  1.00  0.00     0.030 A 
ATOM     92  C   UNL A   1      34.996  22.523  24.490  1.00  0.00     0.125 A 
ATOM     93  C   UNL A   1      33.711  20.098  24.864  1.00  0.00     0.018 A 
ATOM     94  C   UNL A   1      35.751  21.378  24.711  1.00  0.00     0.048 A 
ATOM     95  Br  UNL A   1      32.834  18.444  25.135  1.00  0.00    -0.051 Br
ATOM     96  C   UNL A   1      35.103  20.156  24.890  1.00  0.00     0.019 A 
BRANCH  92  97
ATOM     97  O   UNL A   1      35.613  23.730  24.337  1.00  0.00    -0.507 OA
ATOM     98  H   UNL A   1      35.649  24.332  25.055  1.00  0.00     0.293 HD
ENDBRANCH  92  97
ENDBRANCH  87  90
ENDBRANCH  81  83
ENDBRANCH  80  81
ENDBRANCH  79  80
ENDBRANCH  78  79
ENDBRANCH  77  78
ENDBRANCH  76  77
ENDBRANCH  75  76
ENDBRANCH  74  75
ENDBRANCH   1  74
TORSDOF 25
ENDMDL
MODEL 3
REMARK VINA RESULT:      -7.1      6.058     12.985
REMARK SMILES O=C(OCCOCCOCCOCCOC(=O)[C@@H]1CS[C@@H](c2cc(Br)ccc2O)[NH2+]1)c1ccc(-c2c3nc(c(-c4cc(S(=O)(=O)[O-])ccc4F)c4ccc([nH]4)c(-c4cc(S(=O)(=O)[O-])ccc4F)c4nc(c(-c5cc(S(=O)(=O)[O-])ccc5F)c5ccc2[nH]5)C=C4)C=C3)cc1
REMARK SMILES IDX 8 1 7 2 6 3 5 4 4 5 3 6 2 7 1 8 31 9 32 10 93 11 33 12 92 13
REMARK SMILES IDX 34 14 35 15 36 16 86 17 37 18 91 19 85 20 87 21 38 22 90 23
REMARK SMILES IDX 84 24 83 25 39 27 71 28 51 29 70 30 52 31 55 32 69 33 88 34
REMARK SMILES IDX 53 35 54 36 68 38 89 39 56 40 40 41 41 42 49 43 42 44 48 45
REMARK SMILES IDX 50 46 47 47 43 48 44 49 45 50 46 51 72 52 73 53 81 54 74 55
REMARK SMILES IDX 80 56 82 57 79 58 75 59 76 60 77 61 78 62 57 63 58 64 66 65
REMARK SMILES IDX 59 66 65 67 67 68 64 69 60 70 61 71 62 72 63 73 9 74 10 75
REMARK SMILES IDX 11 76 12 77 13 78 14 79 15 80 16 81 17 82 18 83 19 84 30 85
REMARK SMILES IDX 20 86 21 87 22 90 23 91 28 92 24 93 27 94 25 95 26 96 29 97
REMARK H PARENT 87 26 55 37 30 88 30 89 29 98
REMARK Flexibility Score: inf
ROOT
ATOM      1  C   UNL A   1      32.987  30.176  27.124  1.00  0.00     0.188 C 
ENDROOT
BRANCH   1   2
ATOM      2  C   UNL A   1      33.679  31.472  27.539  1.00  0.00     0.188 C 
BRANCH   2   3
ATOM      3  O   UNL A   1      34.734  31.224  28.469  1.00  0.00    -0.376 OA
BRANCH   3   4
ATOM      4  C   UNL A   1      34.973  32.229  29.455  1.00  0.00     0.202 C 
BRANCH   4   5
ATOM      5  C   UNL A   1      36.411  32.299  29.965  1.00  0.00     0.261 C 
BRANCH   5   6
ATOM      6  O   UNL A   1      36.671  33.476  30.737  1.00  0.00    -0.460 OA
BRANCH   6   7
ATOM      7  C   UNL A   1      37.836  33.846  31.327  1.00  0.00     0.338 C 
ATOM      8  O   UNL A   1      37.841  33.926  32.557  1.00  0.00    -0.246 OA
BRANCH   7   9
ATOM      9  C   UNL A   1      39.095  34.230  30.598  1.00  0.00     0.060 A 
ATOM     10  C   UNL A   1      39.193  34.621  29.260  1.00  0.00     0.016 A 
ATOM     11  C   UNL A   1      40.272  34.269  31.368  1.00  0.00     0.016 A 
ATOM     12  C   UNL A   1      40.385  35.058  28.703  1.00  0.00     0.010 A 
ATOM     13  C   UNL A   1      41.488  34.677  30.812  1.00  0.00     0.010 A 
ATOM     14  C   UNL A   1      41.539  35.069  29.472  1.00  0.00    -0.014 A 
BRANCH  14  15
ATOM     15  C   UNL A   1      42.808  35.302  28.770  1.00  0.00     0.031 A 
ATOM     16  C   UNL A   1      43.655  34.102  28.486  1.00  0.00     0.074 A 
ATOM     17  C   UNL A   1      43.096  36.523  28.288  1.00  0.00     0.049 A 
ATOM     18  N   UNL A   1      44.855  34.037  27.984  1.00  0.00    -0.248 NA
ATOM     19  C   UNL A   1      43.057  32.790  28.794  1.00  0.00     0.031 C 
ATOM     20  C   UNL A   1      42.212  37.691  28.368  1.00  0.00     0.029 A 
ATOM     21  N   UNL A   1      44.198  36.984  27.623  1.00  0.00    -0.354 N 
ATOM     22  C   UNL A   1      45.172  32.685  27.957  1.00  0.00     0.074 A 
ATOM     23  C   UNL A   1      44.034  31.959  28.467  1.00  0.00     0.031 C 
ATOM     24  C   UNL A   1      42.821  38.740  27.791  1.00  0.00     0.029 A 
ATOM     25  C   UNL A   1      44.164  38.340  27.383  1.00  0.00     0.049 A 
ATOM     26  H   UNL A   1      44.942  36.405  27.342  1.00  0.00     0.167 HD
ATOM     27  C   UNL A   1      46.337  32.121  27.566  1.00  0.00     0.034 A 
ATOM     28  C   UNL A   1      45.144  39.158  26.953  1.00  0.00     0.034 A 
ATOM     29  C   UNL A   1      47.440  32.902  27.076  1.00  0.00     0.049 A 
ATOM     30  C   UNL A   1      46.483  38.518  26.656  1.00  0.00     0.074 A 
ATOM     31  C   UNL A   1      48.696  32.481  26.688  1.00  0.00     0.029 A 
ATOM     32  N   UNL A   1      47.413  34.286  26.924  1.00  0.00    -0.354 N 
ATOM     33  N   UNL A   1      46.813  37.243  26.686  1.00  0.00    -0.248 NA
ATOM     34  C   UNL A   1      47.585  39.415  26.293  1.00  0.00     0.031 C 
ATOM     35  C   UNL A   1      49.453  33.617  26.385  1.00  0.00     0.029 A 
ATOM     36  C   UNL A   1      48.646  34.740  26.500  1.00  0.00     0.049 A 
ATOM     37  H   UNL A   1      46.630  34.857  27.096  1.00  0.00     0.167 HD
ATOM     38  C   UNL A   1      48.156  37.188  26.334  1.00  0.00     0.074 A 
ATOM     39  C   UNL A   1      48.565  38.553  26.063  1.00  0.00     0.031 C 
ATOM     40  C   UNL A   1      48.991  36.120  26.249  1.00  0.00     0.034 A 
BRANCH  27  41
ATOM     41  C   UNL A   1      46.500  30.641  27.785  1.00  0.00     0.023 A 
ATOM     42  C   UNL A   1      46.181  29.689  26.802  1.00  0.00     0.031 A 
ATOM     43  C   UNL A   1      46.932  30.177  29.041  1.00  0.00     0.131 A 
ATOM     44  C   UNL A   1      46.251  28.319  27.109  1.00  0.00     0.055 A 
ATOM     45  C   UNL A   1      47.065  28.816  29.318  1.00  0.00     0.041 A 
ATOM     46  F   UNL A   1      47.208  31.041  30.029  1.00  0.00    -0.206 F 
ATOM     47  C   UNL A   1      46.715  27.878  28.351  1.00  0.00     0.022 A 
BRANCH  44  48
ATOM     48  S   UNL A   1      45.618  27.119  25.906  1.00  0.00     0.124 S 
ATOM     49  O   UNL A   1      44.404  27.784  25.437  1.00  0.00    -0.237 OA
ATOM     50  O   UNL A   1      46.708  27.030  24.941  1.00  0.00    -0.237 OA
ATOM     51  O   UNL A   1      45.394  25.916  26.705  1.00  0.00    -0.744 OA
ENDBRANCH  44  48
ENDBRANCH  27  41
BRANCH  28  52
ATOM     52  C   UNL A   1      44.963  40.641  26.908  1.00  0.00     0.023 A 
ATOM     53  C   UNL A   1      44.698  41.311  25.702  1.00  0.00     0.031 A 
ATOM     54  C   UNL A   1      45.156  41.432  28.058  1.00  0.00     0.131 A 
ATOM     55  C   UNL A   1      44.702  42.716  25.660  1.00  0.00     0.055 A 
ATOM     56  C   UNL A   1      45.086  42.826  28.027  1.00  0.00     0.041 A 
ATOM     57  F   UNL A   1      45.433  40.860  29.241  1.00  0.00    -0.206 F 
ATOM     58  C   UNL A   1      44.879  43.478  26.817  1.00  0.00     0.022 A 
BRANCH  55  59
ATOM     59  S   UNL A   1      44.624  43.537  24.043  1.00  0.00     0.124 S 
ATOM     60  O   UNL A   1      44.890  42.427  23.135  1.00  0.00    -0.237 OA
ATOM     61  O   UNL A   1      43.263  44.062  24.036  1.00  0.00    -0.237 OA
ATOM     62  O   UNL A   1      45.680  44.544  24.123  1.00  0.00    -0.744 OA
ENDBRANCH  55  59
ENDBRANCH  28  52
BRANCH  40  63
ATOM     63  C   UNL A   1      50.406  36.403  25.823  1.00  0.00     0.023 A 
ATOM     64  C   UNL A   1      51.446  36.484  26.764  1.00  0.00     0.031 A 
ATOM     65  C   UNL A   1      50.716  36.562  24.462  1.00  0.00     0.131 A 
ATOM     66  C   UNL A   1      52.747  36.763  26.331  1.00  0.00     0.055 A 
ATOM     67  C   UNL A   1      52.024  36.772  24.034  1.00  0.00     0.041 A 
ATOM     68  F   UNL A   1      49.754  36.492  23.529  1.00  0.00    -0.206 F 
ATOM     69  C   UNL A   1      53.048  36.885  24.972  1.00  0.00     0.022 A 
BRANCH  66  70
ATOM     70  S   UNL A   1      54.031  37.038  27.579  1.00  0.00     0.124 S 
ATOM     71  O   UNL A   1      54.790  35.794  27.512  1.00  0.00    -0.237 OA
ATOM     72  O   UNL A   1      54.711  38.227  27.073  1.00  0.00    -0.237 OA
ATOM     73  O   UNL A   1      53.272  37.237  28.813  1.00  0.00    -0.744 OA
ENDBRANCH  66  70
ENDBRANCH  40  63
ENDBRANCH  14  15
ENDBRANCH   7   9
ENDBRANCH   6   7
ENDBRANCH   5   6
ENDBRANCH   4   5
ENDBRANCH   3   4
ENDBRANCH   2   3
ENDBRANCH   1   2
BRANCH   1  74
ATOM     74  O   UNL A   1      31.777  30.364  26.404  1.00  0.00    -0.377 OA
BRANCH  74  75
ATOM     75  C   UNL A   1      31.446  29.346  25.472  1.00  0.00     0.188 C 
BRANCH  75  76
ATOM     76  C   UNL A   1      31.096  29.746  24.013  1.00  0.00     0.188 C 
BRANCH  76  77
ATOM     77  O   UNL A   1      29.716  29.650  23.729  1.00  0.00    -0.376 OA
BRANCH  77  78
ATOM     78  C   UNL A   1      29.286  28.386  23.244  1.00  0.00     0.202 C 
BRANCH  78  79
ATOM     79  C   UNL A   1      30.393  27.447  22.734  1.00  0.00     0.261 C 
BRANCH  79  80
ATOM     80  O   UNL A   1      30.337  26.058  23.149  1.00  0.00    -0.459 OA
BRANCH  80  81
ATOM     81  C   UNL A   1      30.768  25.706  24.395  1.00  0.00     0.365 C 
ATOM     82  O   UNL A   1      30.019  25.403  25.305  1.00  0.00    -0.245 OA
BRANCH  81  83
ATOM     83  C   UNL A   1      32.334  25.710  24.437  1.00  0.00     0.304 C 
ATOM     84  C   UNL A   1      33.062  25.966  23.101  1.00  0.00     0.153 C 
ATOM     85  N   UNL A   1      32.836  24.419  24.968  1.00  0.00    -0.319 N 
ATOM     86  S   UNL A   1      33.940  24.455  22.660  1.00  0.00    -0.087 SA
ATOM     87  C   UNL A   1      32.929  23.511  23.812  1.00  0.00     0.278 C 
ATOM     88  H   UNL A   1      32.186  24.045  25.660  1.00  0.00     0.348 HD
ATOM     89  H   UNL A   1      33.739  24.531  25.429  1.00  0.00     0.348 HD
BRANCH  87  90
ATOM     90  C   UNL A   1      33.442  22.164  24.239  1.00  0.00     0.063 A 
ATOM     91  C   UNL A   1      32.787  20.953  23.963  1.00  0.00     0.030 A 
ATOM     92  C   UNL A   1      34.690  22.115  24.884  1.00  0.00     0.125 A 
ATOM     93  C   UNL A   1      33.391  19.742  24.293  1.00  0.00     0.018 A 
ATOM     94  C   UNL A   1      35.300  20.907  25.197  1.00  0.00     0.048 A 
ATOM     95  Br  UNL A   1      32.498  18.120  23.903  1.00  0.00    -0.051 Br
ATOM     96  C   UNL A   1      34.649  19.713  24.890  1.00  0.00     0.019 A 
BRANCH  92  97
ATOM     97  O   UNL A   1      35.302  23.292  25.199  1.00  0.00    -0.507 OA
ATOM     98  H   UNL A   1      35.973  23.636  24.642  1.00  0.00     0.293 HD
ENDBRANCH  92  97
ENDBRANCH  87  90
ENDBRANCH  81  83
ENDBRANCH  80  81
ENDBRANCH  79  80
ENDBRANCH  78  79
ENDBRANCH  77  78
ENDBRANCH  76  77
ENDBRANCH  75  76
ENDBRANCH  74  75
ENDBRANCH   1  74
TORSDOF 25
ENDMDL
