MODEL 1
REMARK VINA RESULT:      -9.2      0.000      0.000
REMARK SMILES COc1ccc(/C=C(/Sc2nc(C)n[nH]2)C(=O)OCCOCCOCCOCCOC(=O)c2ccc(-c3c4nc(c(-c5cc(S(=O)(=O)[O-])ccc5F)c5ccc([nH]5)c(-c5cc(S(=O)(=O)[O-])ccc5F)c5nc(c(-c6cc(S(=O)(=O)[O-])ccc6F)c6ccc3[nH]6)C=C5)C=C4)cc2)cc1OC
REMARK SMILES IDX 25 1 24 2 23 3 22 4 21 5 20 6 19 7 18 8 16 9 17 10 8 11 7 12
REMARK SMILES IDX 6 13 3 14 4 15 97 16 5 17 96 18 2 19 1 20 98 21 99 22 9 23
REMARK SMILES IDX 10 24 11 25 15 26 12 27 14 28 13 30 26 31 27 32 28 33 29 34
REMARK SMILES IDX 30 35 31 36 32 37 33 38 34 39 95 40 35 41 94 42 36 43 37 44
REMARK SMILES IDX 38 45 88 46 39 47 93 48 87 49 89 50 40 51 92 52 86 53 85 54
REMARK SMILES IDX 41 56 73 57 53 58 72 59 54 60 57 61 71 62 90 63 55 64 56 65
REMARK SMILES IDX 70 67 91 68 58 69 42 70 43 71 51 72 44 73 50 74 52 75 49 76
REMARK SMILES IDX 45 77 46 78 47 79 48 80 74 81 75 82 83 83 76 84 82 85 84 86
REMARK SMILES IDX 81 87 77 88 78 89 79 90 80 91 59 92 60 93 68 94 61 95 67 96
REMARK SMILES IDX 69 97 66 98 62 99 63 100 64 101 65 102
REMARK H PARENT 15 29 89 55 57 66
REMARK Flexibility Score: inf
ROOT
ATOM      1  C   UNL A   1      33.668  29.278  25.186  1.00  0.00     0.188 C 
ENDROOT
BRANCH   1   2
ATOM      2  O   UNL A   1      33.655  29.024  23.781  1.00  0.00    -0.377 OA
BRANCH   2   3
ATOM      3  C   UNL A   1      32.774  28.029  23.295  1.00  0.00     0.188 C 
BRANCH   3   4
ATOM      4  C   UNL A   1      33.411  26.633  23.239  1.00  0.00     0.188 C 
BRANCH   4   5
ATOM      5  O   UNL A   1      33.681  26.167  21.921  1.00  0.00    -0.376 OA
BRANCH   5   6
ATOM      6  C   UNL A   1      33.152  24.923  21.494  1.00  0.00     0.202 C 
BRANCH   6   7
ATOM      7  C   UNL A   1      32.390  24.048  22.496  1.00  0.00     0.261 C 
BRANCH   7   8
ATOM      8  O   UNL A   1      33.221  23.489  23.521  1.00  0.00    -0.459 OA
BRANCH   8   9
ATOM      9  C   UNL A   1      33.008  22.216  23.930  1.00  0.00     0.345 C 
ATOM     10  O   UNL A   1      32.985  21.218  23.217  1.00  0.00    -0.246 OA
BRANCH   9  11
ATOM     11  C   UNL A   1      32.900  22.226  25.426  1.00  0.00     0.101 C 
ATOM     12  C   UNL A   1      33.963  22.413  26.242  1.00  0.00     0.031 C 
BRANCH  12  13
ATOM     13  C   UNL A   1      35.418  22.673  26.013  1.00  0.00    -0.020 A 
ATOM     14  C   UNL A   1      38.259  22.892  25.872  1.00  0.00     0.160 A 
ATOM     15  C   UNL A   1      37.467  24.011  26.120  1.00  0.00     0.051 A 
ATOM     16  C   UNL A   1      37.640  21.657  25.662  1.00  0.00     0.161 A 
ATOM     17  C   UNL A   1      36.069  23.904  26.150  1.00  0.00     0.012 A 
ATOM     18  C   UNL A   1      36.239  21.558  25.757  1.00  0.00     0.058 A 
BRANCH  14  19
ATOM     19  O   UNL A   1      39.622  22.971  25.949  1.00  0.00    -0.493 OA
ATOM     20  C   UNL A   1      40.108  24.263  26.297  1.00  0.00     0.278 C 
ENDBRANCH  14  19
BRANCH  16  21
ATOM     21  O   UNL A   1      38.261  20.462  25.398  1.00  0.00    -0.493 OA
ATOM     22  C   UNL A   1      37.457  19.452  24.800  1.00  0.00     0.278 C 
ENDBRANCH  16  21
ENDBRANCH  12  13
BRANCH  11  23
ATOM     23  S   UNL A   1      31.219  22.145  25.924  1.00  0.00    -0.043 SA
BRANCH  23  24
ATOM     24  C   UNL A   1      30.793  23.750  26.335  1.00  0.00     0.188 A 
ATOM     25  N   UNL A   1      31.519  24.841  26.335  1.00  0.00    -0.206 NA
ATOM     26  N   UNL A   1      29.487  24.065  26.527  1.00  0.00    -0.254 N 
ATOM     27  C   UNL A   1      30.580  25.827  26.540  1.00  0.00     0.148 A 
ATOM     28  N   UNL A   1      29.323  25.385  26.696  1.00  0.00    -0.158 NA
ATOM     29  H   UNL A   1      28.754  23.408  26.542  1.00  0.00     0.192 HD
ATOM     30  C   UNL A   1      30.918  27.267  26.543  1.00  0.00     0.092 C 
ENDBRANCH  23  24
ENDBRANCH  11  23
ENDBRANCH   9  11
ENDBRANCH   8   9
ENDBRANCH   7   8
ENDBRANCH   6   7
ENDBRANCH   5   6
ENDBRANCH   4   5
ENDBRANCH   3   4
ENDBRANCH   2   3
ENDBRANCH   1   2
BRANCH   1  31
ATOM     31  C   UNL A   1      32.699  30.258  25.917  1.00  0.00     0.188 C 
BRANCH  31  32
ATOM     32  O   UNL A   1      33.037  30.607  27.256  1.00  0.00    -0.376 OA
BRANCH  32  33
ATOM     33  C   UNL A   1      34.346  31.068  27.553  1.00  0.00     0.202 C 
BRANCH  33  34
ATOM     34  C   UNL A   1      34.355  31.952  28.796  1.00  0.00     0.261 C 
BRANCH  34  35
ATOM     35  O   UNL A   1      35.674  32.277  29.203  1.00  0.00    -0.460 OA
BRANCH  35  36
ATOM     36  C   UNL A   1      36.312  31.315  29.883  1.00  0.00     0.338 C 
ATOM     37  O   UNL A   1      35.935  30.767  30.927  1.00  0.00    -0.246 OA
BRANCH  36  38
ATOM     38  C   UNL A   1      37.588  31.046  29.241  1.00  0.00     0.060 A 
ATOM     39  C   UNL A   1      37.679  29.829  28.565  1.00  0.00     0.016 A 
ATOM     40  C   UNL A   1      38.711  31.782  29.650  1.00  0.00     0.016 A 
ATOM     41  C   UNL A   1      38.880  29.177  28.615  1.00  0.00     0.010 A 
ATOM     42  C   UNL A   1      39.901  31.117  29.727  1.00  0.00     0.010 A 
ATOM     43  C   UNL A   1      39.922  29.787  29.316  1.00  0.00    -0.014 A 
BRANCH  43  44
ATOM     44  C   UNL A   1      41.034  28.956  29.690  1.00  0.00     0.031 A 
ATOM     45  C   UNL A   1      41.221  28.844  31.139  1.00  0.00     0.074 A 
ATOM     46  C   UNL A   1      41.753  28.298  28.765  1.00  0.00     0.049 A 
ATOM     47  N   UNL A   1      42.190  29.310  31.848  1.00  0.00    -0.248 NA
ATOM     48  C   UNL A   1      40.097  28.303  31.917  1.00  0.00     0.031 C 
ATOM     49  C   UNL A   1      41.452  28.127  27.340  1.00  0.00     0.029 A 
ATOM     50  N   UNL A   1      42.854  27.529  28.949  1.00  0.00    -0.354 N 
ATOM     51  C   UNL A   1      41.906  28.914  33.146  1.00  0.00     0.074 A 
ATOM     52  C   UNL A   1      40.525  28.522  33.157  1.00  0.00     0.031 C 
ATOM     53  C   UNL A   1      42.217  27.127  26.850  1.00  0.00     0.029 A 
ATOM     54  C   UNL A   1      43.131  26.680  27.889  1.00  0.00     0.049 A 
ATOM     55  H   UNL A   1      43.408  27.570  29.762  1.00  0.00     0.167 HD
ATOM     56  C   UNL A   1      42.903  28.685  34.039  1.00  0.00     0.034 A 
ATOM     57  C   UNL A   1      43.975  25.618  27.916  1.00  0.00     0.034 A 
ATOM     58  C   UNL A   1      44.132  29.324  33.625  1.00  0.00     0.049 A 
ATOM     59  C   UNL A   1      44.913  25.834  29.049  1.00  0.00     0.074 A 
ATOM     60  C   UNL A   1      44.490  30.632  33.352  1.00  0.00     0.029 A 
ATOM     61  N   UNL A   1      45.118  28.546  33.058  1.00  0.00    -0.354 N 
ATOM     62  N   UNL A   1      45.778  26.810  29.092  1.00  0.00    -0.248 NA
ATOM     63  C   UNL A   1      44.585  25.254  30.345  1.00  0.00     0.031 C 
ATOM     64  C   UNL A   1      45.395  30.553  32.253  1.00  0.00     0.029 A 
ATOM     65  C   UNL A   1      45.583  29.205  31.944  1.00  0.00     0.049 A 
ATOM     66  H   UNL A   1      45.433  27.675  33.391  1.00  0.00     0.167 HD
ATOM     67  C   UNL A   1      45.772  27.246  30.410  1.00  0.00     0.074 A 
ATOM     68  C   UNL A   1      45.117  26.176  31.155  1.00  0.00     0.031 C 
ATOM     69  C   UNL A   1      46.038  28.549  30.729  1.00  0.00     0.034 A 
BRANCH  56  70
ATOM     70  C   UNL A   1      42.846  27.601  35.089  1.00  0.00     0.023 A 
ATOM     71  C   UNL A   1      43.571  26.426  34.830  1.00  0.00     0.031 A 
ATOM     72  C   UNL A   1      41.937  27.534  36.175  1.00  0.00     0.131 A 
ATOM     73  C   UNL A   1      43.323  25.252  35.558  1.00  0.00     0.055 A 
ATOM     74  C   UNL A   1      41.752  26.385  36.945  1.00  0.00     0.041 A 
ATOM     75  F   UNL A   1      41.107  28.531  36.499  1.00  0.00    -0.206 F 
ATOM     76  C   UNL A   1      42.423  25.224  36.620  1.00  0.00     0.022 A 
BRANCH  73  77
ATOM     77  S   UNL A   1      44.062  23.712  34.965  1.00  0.00     0.124 S 
ATOM     78  O   UNL A   1      44.435  23.061  36.217  1.00  0.00    -0.237 OA
ATOM     79  O   UNL A   1      42.950  23.113  34.232  1.00  0.00    -0.237 OA
ATOM     80  O   UNL A   1      45.179  24.168  34.144  1.00  0.00    -0.744 OA
ENDBRANCH  73  77
ENDBRANCH  56  70
BRANCH  57  81
ATOM     81  C   UNL A   1      43.754  24.314  27.239  1.00  0.00     0.023 A 
ATOM     82  C   UNL A   1      44.527  23.891  26.142  1.00  0.00     0.031 A 
ATOM     83  C   UNL A   1      42.887  23.354  27.813  1.00  0.00     0.131 A 
ATOM     84  C   UNL A   1      44.404  22.568  25.656  1.00  0.00     0.055 A 
ATOM     85  C   UNL A   1      42.754  22.056  27.318  1.00  0.00     0.041 A 
ATOM     86  F   UNL A   1      42.195  23.618  28.934  1.00  0.00    -0.206 F 
ATOM     87  C   UNL A   1      43.520  21.655  26.237  1.00  0.00     0.022 A 
BRANCH  84  88
ATOM     88  S   UNL A   1      45.484  21.986  24.313  1.00  0.00     0.124 S 
ATOM     89  O   UNL A   1      44.554  21.251  23.464  1.00  0.00    -0.237 OA
ATOM     90  O   UNL A   1      46.010  23.234  23.772  1.00  0.00    -0.237 OA
ATOM     91  O   UNL A   1      46.472  21.156  25.005  1.00  0.00    -0.744 OA
ENDBRANCH  84  88
ENDBRANCH  57  81
BRANCH  69  92
ATOM     92  C   UNL A   1      46.628  29.441  29.651  1.00  0.00     0.023 A 
ATOM     93  C   UNL A   1      45.869  30.303  28.825  1.00  0.00     0.031 A 
ATOM     94  C   UNL A   1      48.028  29.512  29.550  1.00  0.00     0.131 A 
ATOM     95  C   UNL A   1      46.517  31.181  27.935  1.00  0.00     0.055 A 
ATOM     96  C   UNL A   1      48.667  30.398  28.681  1.00  0.00     0.041 A 
ATOM     97  F   UNL A   1      48.807  28.746  30.332  1.00  0.00    -0.206 F 
ATOM     98  C   UNL A   1      47.911  31.233  27.864  1.00  0.00     0.022 A 
BRANCH  95  99
ATOM     99  S   UNL A   1      45.546  32.281  26.852  1.00  0.00     0.124 S 
ATOM    100  O   UNL A   1      46.219  33.568  26.985  1.00  0.00    -0.237 OA
ATOM    101  O   UNL A   1      45.663  31.627  25.552  1.00  0.00    -0.237 OA
ATOM    102  O   UNL A   1      44.204  32.234  27.435  1.00  0.00    -0.744 OA
ENDBRANCH  95  99
ENDBRANCH  69  92
ENDBRANCH  43  44
ENDBRANCH  36  38
ENDBRANCH  35  36
ENDBRANCH  34  35
ENDBRANCH  33  34
ENDBRANCH  32  33
ENDBRANCH  31  32
ENDBRANCH   1  31
TORSDOF 28
ENDMDL
MODEL 2
REMARK VINA RESULT:      -8.8      3.317      9.021
REMARK SMILES COc1ccc(/C=C(/Sc2nc(C)n[nH]2)C(=O)OCCOCCOCCOCCOC(=O)c2ccc(-c3c4nc(c(-c5cc(S(=O)(=O)[O-])ccc5F)c5ccc([nH]5)c(-c5cc(S(=O)(=O)[O-])ccc5F)c5nc(c(-c6cc(S(=O)(=O)[O-])ccc6F)c6ccc3[nH]6)C=C5)C=C4)cc2)cc1OC
REMARK SMILES IDX 25 1 24 2 23 3 22 4 21 5 20 6 19 7 18 8 16 9 17 10 8 11 7 12
REMARK SMILES IDX 6 13 3 14 4 15 97 16 5 17 96 18 2 19 1 20 98 21 99 22 9 23
REMARK SMILES IDX 10 24 11 25 15 26 12 27 14 28 13 30 26 31 27 32 28 33 29 34
REMARK SMILES IDX 30 35 31 36 32 37 33 38 34 39 95 40 35 41 94 42 36 43 37 44
REMARK SMILES IDX 38 45 88 46 39 47 93 48 87 49 89 50 40 51 92 52 86 53 85 54
REMARK SMILES IDX 41 56 73 57 53 58 72 59 54 60 57 61 71 62 90 63 55 64 56 65
REMARK SMILES IDX 70 67 91 68 58 69 42 70 43 71 51 72 44 73 50 74 52 75 49 76
REMARK SMILES IDX 45 77 46 78 47 79 48 80 74 81 75 82 83 83 76 84 82 85 84 86
REMARK SMILES IDX 81 87 77 88 78 89 79 90 80 91 59 92 60 93 68 94 61 95 67 96
REMARK SMILES IDX 69 97 66 98 62 99 63 100 64 101 65 102
REMARK H PARENT 15 29 89 55 57 66
REMARK Flexibility Score: inf
ROOT
ATOM      1  C   UNL A   1      39.223  21.130  25.865  1.00  0.00     0.188 C 
ENDROOT
BRANCH   1   2
ATOM      2  O   UNL A   1      38.130  20.638  25.089  1.00  0.00    -0.377 OA
BRANCH   2   3
ATOM      3  C   UNL A   1      37.110  21.549  24.727  1.00  0.00     0.188 C 
BRANCH   3   4
ATOM      4  C   UNL A   1      37.487  23.014  24.987  1.00  0.00     0.188 C 
BRANCH   4   5
ATOM      5  O   UNL A   1      36.380  23.908  25.009  1.00  0.00    -0.376 OA
BRANCH   5   6
ATOM      6  C   UNL A   1      35.492  23.900  26.114  1.00  0.00     0.202 C 
BRANCH   6   7
ATOM      7  C   UNL A   1      34.017  24.255  25.894  1.00  0.00     0.261 C 
BRANCH   7   8
ATOM      8  O   UNL A   1      33.105  23.305  26.457  1.00  0.00    -0.459 OA
BRANCH   8   9
ATOM      9  C   UNL A   1      31.773  23.479  26.289  1.00  0.00     0.345 C 
ATOM     10  O   UNL A   1      30.954  23.710  27.173  1.00  0.00    -0.246 OA
BRANCH   9  11
ATOM     11  C   UNL A   1      31.485  23.434  24.819  1.00  0.00     0.101 C 
ATOM     12  C   UNL A   1      31.735  22.349  24.049  1.00  0.00     0.031 C 
BRANCH  12  13
ATOM     13  C   UNL A   1      32.279  20.983  24.323  1.00  0.00    -0.020 A 
ATOM     14  C   UNL A   1      32.957  18.238  24.700  1.00  0.00     0.160 A 
ATOM     15  C   UNL A   1      32.980  19.133  25.767  1.00  0.00     0.051 A 
ATOM     16  C   UNL A   1      32.624  18.709  23.428  1.00  0.00     0.161 A 
ATOM     17  C   UNL A   1      32.683  20.489  25.568  1.00  0.00     0.012 A 
ATOM     18  C   UNL A   1      32.269  20.060  23.259  1.00  0.00     0.058 A 
BRANCH  14  19
ATOM     19  O   UNL A   1      33.140  16.898  24.908  1.00  0.00    -0.493 OA
ATOM     20  C   UNL A   1      34.504  16.489  24.871  1.00  0.00     0.278 C 
ENDBRANCH  14  19
BRANCH  16  21
ATOM     21  O   UNL A   1      32.561  17.973  22.271  1.00  0.00    -0.493 OA
ATOM     22  C   UNL A   1      32.081  18.653  21.117  1.00  0.00     0.278 C 
ENDBRANCH  16  21
ENDBRANCH  12  13
BRANCH  11  23
ATOM     23  S   UNL A   1      30.635  24.883  24.311  1.00  0.00    -0.043 SA
BRANCH  23  24
ATOM     24  C   UNL A   1      31.827  26.109  24.254  1.00  0.00     0.188 A 
ATOM     25  N   UNL A   1      32.627  26.462  23.278  1.00  0.00    -0.206 NA
ATOM     26  N   UNL A   1      31.899  27.016  25.261  1.00  0.00    -0.254 N 
ATOM     27  C   UNL A   1      33.186  27.627  23.754  1.00  0.00     0.148 A 
ATOM     28  N   UNL A   1      32.787  27.983  24.984  1.00  0.00    -0.158 NA
ATOM     29  H   UNL A   1      31.369  26.969  26.089  1.00  0.00     0.192 HD
ATOM     30  C   UNL A   1      34.118  28.453  22.956  1.00  0.00     0.092 C 
ENDBRANCH  23  24
ENDBRANCH  11  23
ENDBRANCH   9  11
ENDBRANCH   8   9
ENDBRANCH   7   8
ENDBRANCH   6   7
ENDBRANCH   5   6
ENDBRANCH   4   5
ENDBRANCH   3   4
ENDBRANCH   2   3
ENDBRANCH   1   2
BRANCH   1  31
ATOM     31  C   UNL A   1      40.432  20.265  26.339  1.00  0.00     0.188 C 
BRANCH  31  32
ATOM     32  O   UNL A   1      41.695  20.560  25.750  1.00  0.00    -0.376 OA
BRANCH  32  33
ATOM     33  C   UNL A   1      42.690  21.220  26.515  1.00  0.00     0.202 C 
BRANCH  33  34
ATOM     34  C   UNL A   1      42.406  22.715  26.625  1.00  0.00     0.261 C 
BRANCH  34  35
ATOM     35  O   UNL A   1      41.809  23.050  27.868  1.00  0.00    -0.460 OA
BRANCH  35  36
ATOM     36  C   UNL A   1      40.924  24.053  27.820  1.00  0.00     0.338 C 
ATOM     37  O   UNL A   1      39.690  23.959  27.857  1.00  0.00    -0.246 OA
BRANCH  36  38
ATOM     38  C   UNL A   1      41.637  25.307  27.640  1.00  0.00     0.060 A 
ATOM     39  C   UNL A   1      42.619  25.584  28.591  1.00  0.00     0.016 A 
ATOM     40  C   UNL A   1      41.063  26.292  26.822  1.00  0.00     0.016 A 
ATOM     41  C   UNL A   1      42.770  26.889  28.969  1.00  0.00     0.010 A 
ATOM     42  C   UNL A   1      41.190  27.591  27.222  1.00  0.00     0.010 A 
ATOM     43  C   UNL A   1      41.947  27.841  28.363  1.00  0.00    -0.014 A 
BRANCH  43  44
ATOM     44  C   UNL A   1      41.833  29.118  29.014  1.00  0.00     0.031 A 
ATOM     45  C   UNL A   1      42.829  30.095  28.569  1.00  0.00     0.074 A 
ATOM     46  C   UNL A   1      40.837  29.370  29.880  1.00  0.00     0.049 A 
ATOM     47  N   UNL A   1      43.810  30.586  29.245  1.00  0.00    -0.248 NA
ATOM     48  C   UNL A   1      42.845  30.427  27.137  1.00  0.00     0.031 C 
ATOM     49  C   UNL A   1      39.648  28.556  30.152  1.00  0.00     0.029 A 
ATOM     50  N   UNL A   1      40.625  30.490  30.614  1.00  0.00    -0.354 N 
ATOM     51  C   UNL A   1      44.431  31.474  28.381  1.00  0.00     0.074 A 
ATOM     52  C   UNL A   1      43.954  31.158  27.064  1.00  0.00     0.031 C 
ATOM     53  C   UNL A   1      38.742  29.313  30.808  1.00  0.00     0.029 A 
ATOM     54  C   UNL A   1      39.333  30.610  31.100  1.00  0.00     0.049 A 
ATOM     55  H   UNL A   1      41.327  31.160  30.785  1.00  0.00     0.167 HD
ATOM     56  C   UNL A   1      45.078  32.570  28.853  1.00  0.00     0.034 A 
ATOM     57  C   UNL A   1      38.770  31.736  31.602  1.00  0.00     0.034 A 
ATOM     58  C   UNL A   1      45.408  32.419  30.253  1.00  0.00     0.049 A 
ATOM     59  C   UNL A   1      39.881  32.630  32.024  1.00  0.00     0.074 A 
ATOM     60  C   UNL A   1      46.152  31.500  30.971  1.00  0.00     0.029 A 
ATOM     61  N   UNL A   1      44.631  33.073  31.184  1.00  0.00    -0.354 N 
ATOM     62  N   UNL A   1      40.710  32.342  32.991  1.00  0.00    -0.248 NA
ATOM     63  C   UNL A   1      40.370  33.627  31.080  1.00  0.00     0.031 C 
ATOM     64  C   UNL A   1      45.453  31.327  32.200  1.00  0.00     0.029 A 
ATOM     65  C   UNL A   1      44.349  32.183  32.194  1.00  0.00     0.049 A 
ATOM     66  H   UNL A   1      44.333  34.010  31.136  1.00  0.00     0.167 HD
ATOM     67  C   UNL A   1      41.952  32.776  32.549  1.00  0.00     0.074 A 
ATOM     68  C   UNL A   1      41.660  33.665  31.429  1.00  0.00     0.031 C 
ATOM     69  C   UNL A   1      43.104  32.155  32.944  1.00  0.00     0.034 A 
BRANCH  56  70
ATOM     70  C   UNL A   1      45.092  33.900  28.138  1.00  0.00     0.023 A 
ATOM     71  C   UNL A   1      46.351  34.441  27.825  1.00  0.00     0.031 A 
ATOM     72  C   UNL A   1      43.992  34.780  27.982  1.00  0.00     0.131 A 
ATOM     73  C   UNL A   1      46.487  35.793  27.474  1.00  0.00     0.055 A 
ATOM     74  C   UNL A   1      44.126  36.103  27.558  1.00  0.00     0.041 A 
ATOM     75  F   UNL A   1      42.739  34.454  28.321  1.00  0.00    -0.206 F 
ATOM     76  C   UNL A   1      45.382  36.628  27.331  1.00  0.00     0.022 A 
BRANCH  73  77
ATOM     77  S   UNL A   1      48.154  36.488  27.395  1.00  0.00     0.124 S 
ATOM     78  O   UNL A   1      47.969  37.779  28.048  1.00  0.00    -0.237 OA
ATOM     79  O   UNL A   1      48.924  35.494  28.137  1.00  0.00    -0.237 OA
ATOM     80  O   UNL A   1      48.426  36.548  25.962  1.00  0.00    -0.744 OA
ENDBRANCH  73  77
ENDBRANCH  56  70
BRANCH  57  81
ATOM     81  C   UNL A   1      37.366  32.176  31.392  1.00  0.00     0.023 A 
ATOM     82  C   UNL A   1      36.826  32.393  30.111  1.00  0.00     0.031 A 
ATOM     83  C   UNL A   1      36.456  32.187  32.475  1.00  0.00     0.131 A 
ATOM     84  C   UNL A   1      35.439  32.624  29.956  1.00  0.00     0.055 A 
ATOM     85  C   UNL A   1      35.092  32.437  32.320  1.00  0.00     0.041 A 
ATOM     86  F   UNL A   1      36.848  31.874  33.721  1.00  0.00    -0.206 F 
ATOM     87  C   UNL A   1      34.575  32.651  31.054  1.00  0.00     0.022 A 
BRANCH  84  88
ATOM     88  S   UNL A   1      34.722  32.792  28.293  1.00  0.00     0.124 S 
ATOM     89  O   UNL A   1      35.898  33.061  27.473  1.00  0.00    -0.237 OA
ATOM     90  O   UNL A   1      34.077  31.498  28.099  1.00  0.00    -0.237 OA
ATOM     91  O   UNL A   1      33.799  33.920  28.432  1.00  0.00    -0.744 OA
ENDBRANCH  84  88
ENDBRANCH  57  81
BRANCH  69  92
ATOM     92  C   UNL A   1      43.025  31.175  34.101  1.00  0.00     0.023 A 
ATOM     93  C   UNL A   1      42.473  29.876  34.010  1.00  0.00     0.031 A 
ATOM     94  C   UNL A   1      43.654  31.529  35.307  1.00  0.00     0.131 A 
ATOM     95  C   UNL A   1      42.552  28.994  35.105  1.00  0.00     0.055 A 
ATOM     96  C   UNL A   1      43.748  30.646  36.383  1.00  0.00     0.041 A 
ATOM     97  F   UNL A   1      44.230  32.734  35.446  1.00  0.00    -0.206 F 
ATOM     98  C   UNL A   1      43.191  29.375  36.288  1.00  0.00     0.022 A 
BRANCH  95  99
ATOM     99  S   UNL A   1      41.824  27.326  35.003  1.00  0.00     0.124 S 
ATOM    100  O   UNL A   1      42.922  26.507  34.502  1.00  0.00    -0.237 OA
ATOM    101  O   UNL A   1      41.414  27.076  36.382  1.00  0.00    -0.237 OA
ATOM    102  O   UNL A   1      40.714  27.496  34.063  1.00  0.00    -0.744 OA
ENDBRANCH  95  99
ENDBRANCH  69  92
ENDBRANCH  43  44
ENDBRANCH  36  38
ENDBRANCH  35  36
ENDBRANCH  34  35
ENDBRANCH  33  34
ENDBRANCH  32  33
ENDBRANCH  31  32
ENDBRANCH   1  31
TORSDOF 28
ENDMDL
MODEL 3
REMARK VINA RESULT:      -8.1      5.214     11.341
REMARK SMILES COc1ccc(/C=C(/Sc2nc(C)n[nH]2)C(=O)OCCOCCOCCOCCOC(=O)c2ccc(-c3c4nc(c(-c5cc(S(=O)(=O)[O-])ccc5F)c5ccc([nH]5)c(-c5cc(S(=O)(=O)[O-])ccc5F)c5nc(c(-c6cc(S(=O)(=O)[O-])ccc6F)c6ccc3[nH]6)C=C5)C=C4)cc2)cc1OC
REMARK SMILES IDX 25 1 24 2 23 3 22 4 21 5 20 6 19 7 18 8 16 9 17 10 8 11 7 12
REMARK SMILES IDX 6 13 3 14 4 15 97 16 5 17 96 18 2 19 1 20 98 21 99 22 9 23
REMARK SMILES IDX 10 24 11 25 15 26 12 27 14 28 13 30 26 31 27 32 28 33 29 34
REMARK SMILES IDX 30 35 31 36 32 37 33 38 34 39 95 40 35 41 94 42 36 43 37 44
REMARK SMILES IDX 38 45 88 46 39 47 93 48 87 49 89 50 40 51 92 52 86 53 85 54
REMARK SMILES IDX 41 56 73 57 53 58 72 59 54 60 57 61 71 62 90 63 55 64 56 65
REMARK SMILES IDX 70 67 91 68 58 69 42 70 43 71 51 72 44 73 50 74 52 75 49 76
REMARK SMILES IDX 45 77 46 78 47 79 48 80 74 81 75 82 83 83 76 84 82 85 84 86
REMARK SMILES IDX 81 87 77 88 78 89 79 90 80 91 59 92 60 93 68 94 61 95 67 96
REMARK SMILES IDX 69 97 66 98 62 99 63 100 64 101 65 102
REMARK H PARENT 15 29 89 55 57 66
REMARK Flexibility Score: inf
ROOT
ATOM      1  C   UNL A   1      37.516  32.150  35.030  1.00  0.00     0.188 C 
ENDROOT
BRANCH   1   2
ATOM      2  O   UNL A   1      36.884  33.139  35.843  1.00  0.00    -0.377 OA
BRANCH   2   3
ATOM      3  C   UNL A   1      37.370  33.327  37.158  1.00  0.00     0.188 C 
BRANCH   3   4
ATOM      4  C   UNL A   1      38.902  33.311  37.244  1.00  0.00     0.188 C 
BRANCH   4   5
ATOM      5  O   UNL A   1      39.529  34.474  36.713  1.00  0.00    -0.376 OA
BRANCH   5   6
ATOM      6  C   UNL A   1      40.478  34.345  35.668  1.00  0.00     0.202 C 
BRANCH   6   7
ATOM      7  C   UNL A   1      41.970  34.497  35.986  1.00  0.00     0.261 C 
BRANCH   7   8
ATOM      8  O   UNL A   1      42.669  35.353  35.074  1.00  0.00    -0.459 OA
BRANCH   8   9
ATOM      9  C   UNL A   1      44.014  35.244  34.956  1.00  0.00     0.345 C 
ATOM     10  O   UNL A   1      44.821  36.168  34.968  1.00  0.00    -0.246 OA
BRANCH   9  11
ATOM     11  C   UNL A   1      44.354  33.784  34.903  1.00  0.00     0.101 C 
ATOM     12  C   UNL A   1      43.916  32.958  33.924  1.00  0.00     0.031 C 
BRANCH  12  13
ATOM     13  C   UNL A   1      43.085  33.150  32.696  1.00  0.00    -0.020 A 
ATOM     14  C   UNL A   1      41.413  33.887  30.505  1.00  0.00     0.160 A 
ATOM     15  C   UNL A   1      41.146  32.745  31.255  1.00  0.00     0.051 A 
ATOM     16  C   UNL A   1      42.534  34.659  30.822  1.00  0.00     0.161 A 
ATOM     17  C   UNL A   1      41.993  32.366  32.307  1.00  0.00     0.012 A 
ATOM     18  C   UNL A   1      43.338  34.297  31.919  1.00  0.00     0.058 A 
BRANCH  14  19
ATOM     19  O   UNL A   1      40.532  34.318  29.551  1.00  0.00    -0.493 OA
ATOM     20  C   UNL A   1      39.413  35.025  30.074  1.00  0.00     0.278 C 
ENDBRANCH  14  19
BRANCH  16  21
ATOM     21  O   UNL A   1      42.949  35.802  30.187  1.00  0.00    -0.493 OA
ATOM     22  C   UNL A   1      44.208  35.735  29.527  1.00  0.00     0.278 C 
ENDBRANCH  16  21
ENDBRANCH  12  13
BRANCH  11  23
ATOM     23  S   UNL A   1      45.513  33.374  36.155  1.00  0.00    -0.043 SA
BRANCH  23  24
ATOM     24  C   UNL A   1      44.594  32.645  37.400  1.00  0.00     0.188 A 
ATOM     25  N   UNL A   1      43.954  33.191  38.405  1.00  0.00    -0.206 NA
ATOM     26  N   UNL A   1      44.276  31.329  37.310  1.00  0.00    -0.254 N 
ATOM     27  C   UNL A   1      43.237  32.132  38.916  1.00  0.00     0.148 A 
ATOM     28  N   UNL A   1      43.435  30.962  38.289  1.00  0.00    -0.158 NA
ATOM     29  H   UNL A   1      44.619  30.721  36.617  1.00  0.00     0.192 HD
ATOM     30  C   UNL A   1      42.286  32.275  40.039  1.00  0.00     0.092 C 
ENDBRANCH  23  24
ENDBRANCH  11  23
ENDBRANCH   9  11
ENDBRANCH   8   9
ENDBRANCH   7   8
ENDBRANCH   6   7
ENDBRANCH   5   6
ENDBRANCH   4   5
ENDBRANCH   3   4
ENDBRANCH   2   3
ENDBRANCH   1   2
BRANCH   1  31
ATOM     31  C   UNL A   1      37.877  32.342  33.523  1.00  0.00     0.188 C 
BRANCH  31  32
ATOM     32  O   UNL A   1      36.970  33.118  32.747  1.00  0.00    -0.376 OA
BRANCH  32  33
ATOM     33  C   UNL A   1      36.694  32.746  31.406  1.00  0.00     0.202 C 
BRANCH  33  34
ATOM     34  C   UNL A   1      37.823  31.904  30.820  1.00  0.00     0.261 C 
BRANCH  34  35
ATOM     35  O   UNL A   1      37.371  31.082  29.755  1.00  0.00    -0.460 OA
BRANCH  35  36
ATOM     36  C   UNL A   1      37.054  29.828  30.102  1.00  0.00     0.338 C 
ATOM     37  O   UNL A   1      36.307  29.477  31.024  1.00  0.00    -0.246 OA
BRANCH  36  38
ATOM     38  C   UNL A   1      37.793  28.902  29.260  1.00  0.00     0.060 A 
ATOM     39  C   UNL A   1      38.256  27.749  29.893  1.00  0.00     0.016 A 
ATOM     40  C   UNL A   1      38.318  29.374  28.047  1.00  0.00     0.016 A 
ATOM     41  C   UNL A   1      39.475  27.269  29.500  1.00  0.00     0.010 A 
ATOM     42  C   UNL A   1      39.550  28.914  27.676  1.00  0.00     0.010 A 
ATOM     43  C   UNL A   1      40.148  27.954  28.487  1.00  0.00    -0.014 A 
BRANCH  43  44
ATOM     44  C   UNL A   1      41.555  27.695  28.343  1.00  0.00     0.031 A 
ATOM     45  C   UNL A   1      41.852  26.400  27.725  1.00  0.00     0.074 A 
ATOM     46  C   UNL A   1      42.471  28.617  28.681  1.00  0.00     0.049 A 
ATOM     47  N   UNL A   1      42.396  25.369  28.273  1.00  0.00    -0.248 NA
ATOM     48  C   UNL A   1      41.308  26.163  26.380  1.00  0.00     0.031 C 
ATOM     49  C   UNL A   1      42.250  30.026  29.026  1.00  0.00     0.029 A 
ATOM     50  N   UNL A   1      43.822  28.506  28.660  1.00  0.00    -0.354 N 
ATOM     51  C   UNL A   1      42.473  24.424  27.262  1.00  0.00     0.074 A 
ATOM     52  C   UNL A   1      41.592  24.872  26.221  1.00  0.00     0.031 C 
ATOM     53  C   UNL A   1      43.430  30.681  28.955  1.00  0.00     0.029 A 
ATOM     54  C   UNL A   1      44.487  29.722  28.680  1.00  0.00     0.049 A 
ATOM     55  H   UNL A   1      44.289  27.639  28.633  1.00  0.00     0.167 HD
ATOM     56  C   UNL A   1      43.460  23.493  27.252  1.00  0.00     0.034 A 
ATOM     57  C   UNL A   1      45.795  29.921  28.378  1.00  0.00     0.034 A 
ATOM     58  C   UNL A   1      44.051  23.343  28.564  1.00  0.00     0.049 A 
ATOM     59  C   UNL A   1      46.486  28.616  28.545  1.00  0.00     0.074 A 
ATOM     60  C   UNL A   1      43.553  23.001  29.808  1.00  0.00     0.029 A 
ATOM     61  N   UNL A   1      45.273  23.933  28.804  1.00  0.00    -0.354 N 
ATOM     62  N   UNL A   1      46.609  28.007  29.693  1.00  0.00    -0.248 NA
ATOM     63  C   UNL A   1      46.635  27.753  27.380  1.00  0.00     0.031 C 
ATOM     64  C   UNL A   1      44.267  23.814  30.736  1.00  0.00     0.029 A 
ATOM     65  C   UNL A   1      45.198  24.571  30.020  1.00  0.00     0.049 A 
ATOM     66  H   UNL A   1      46.059  23.902  28.212  1.00  0.00     0.167 HD
ATOM     67  C   UNL A   1      46.420  26.660  29.416  1.00  0.00     0.074 A 
ATOM     68  C   UNL A   1      46.564  26.553  27.967  1.00  0.00     0.031 C 
ATOM     69  C   UNL A   1      45.883  25.811  30.344  1.00  0.00     0.034 A 
BRANCH  56  70
ATOM     70  C   UNL A   1      44.112  22.985  25.988  1.00  0.00     0.023 A 
ATOM     71  C   UNL A   1      44.101  21.596  25.780  1.00  0.00     0.031 A 
ATOM     72  C   UNL A   1      44.957  23.727  25.124  1.00  0.00     0.131 A 
ATOM     73  C   UNL A   1      44.951  21.002  24.834  1.00  0.00     0.055 A 
ATOM     74  C   UNL A   1      45.742  23.138  24.132  1.00  0.00     0.041 A 
ATOM     75  F   UNL A   1      45.152  25.045  25.244  1.00  0.00    -0.206 F 
ATOM     76  C   UNL A   1      45.767  21.764  24.002  1.00  0.00     0.022 A 
BRANCH  73  77
ATOM     77  S   UNL A   1      45.109  19.201  24.843  1.00  0.00     0.124 S 
ATOM     78  O   UNL A   1      44.040  18.814  25.758  1.00  0.00    -0.237 OA
ATOM     79  O   UNL A   1      44.902  18.878  23.435  1.00  0.00    -0.237 OA
ATOM     80  O   UNL A   1      46.464  18.984  25.342  1.00  0.00    -0.744 OA
ENDBRANCH  73  77
ENDBRANCH  56  70
BRANCH  57  81
ATOM     81  C   UNL A   1      46.348  31.081  27.633  1.00  0.00     0.023 A 
ATOM     82  C   UNL A   1      45.533  31.994  26.941  1.00  0.00     0.031 A 
ATOM     83  C   UNL A   1      47.713  31.428  27.772  1.00  0.00     0.131 A 
ATOM     84  C   UNL A   1      46.089  33.181  26.409  1.00  0.00     0.055 A 
ATOM     85  C   UNL A   1      48.262  32.590  27.228  1.00  0.00     0.041 A 
ATOM     86  F   UNL A   1      48.551  30.687  28.515  1.00  0.00    -0.206 F 
ATOM     87  C   UNL A   1      47.447  33.477  26.547  1.00  0.00     0.022 A 
BRANCH  84  88
ATOM     88  S   UNL A   1      45.015  34.415  25.613  1.00  0.00     0.124 S 
ATOM     89  O   UNL A   1      45.235  34.150  24.196  1.00  0.00    -0.237 OA
ATOM     90  O   UNL A   1      43.700  34.073  26.142  1.00  0.00    -0.237 OA
ATOM     91  O   UNL A   1      45.552  35.691  26.090  1.00  0.00    -0.744 OA
ENDBRANCH  84  88
ENDBRANCH  57  81
BRANCH  69  92
ATOM     92  C   UNL A   1      45.773  26.300  31.777  1.00  0.00     0.023 A 
ATOM     93  C   UNL A   1      44.641  26.958  32.310  1.00  0.00     0.031 A 
ATOM     94  C   UNL A   1      46.808  25.966  32.667  1.00  0.00     0.131 A 
ATOM     95  C   UNL A   1      44.583  27.267  33.683  1.00  0.00     0.055 A 
ATOM     96  C   UNL A   1      46.739  26.256  34.030  1.00  0.00     0.041 A 
ATOM     97  F   UNL A   1      47.895  25.308  32.231  1.00  0.00    -0.206 F 
ATOM     98  C   UNL A   1      45.626  26.914  34.543  1.00  0.00     0.022 A 
BRANCH  95  99
ATOM     99  S   UNL A   1      43.136  28.134  34.375  1.00  0.00     0.124 S 
ATOM    100  O   UNL A   1      42.860  29.174  33.391  1.00  0.00    -0.237 OA
ATOM    101  O   UNL A   1      42.147  27.065  34.475  1.00  0.00    -0.237 OA
ATOM    102  O   UNL A   1      43.622  28.630  35.664  1.00  0.00    -0.744 OA
ENDBRANCH  95  99
ENDBRANCH  69  92
ENDBRANCH  43  44
ENDBRANCH  36  38
ENDBRANCH  35  36
ENDBRANCH  34  35
ENDBRANCH  33  34
ENDBRANCH  32  33
ENDBRANCH  31  32
ENDBRANCH   1  31
TORSDOF 28
ENDMDL
