MODEL 1
REMARK VINA RESULT:      -9.5      0.000      0.000
REMARK SMILES Cc1cc(OC(F)(F)F)cc2c1O[C@H](C(F)(F)F)C(C(=O)OCCOCCOCCOCCOC(=O)c1ccc(-c3c4nc(c(-c5cc(S(=O)(=O)[O-])ccc5F)c5ccc([nH]5)c(-c5cc(S(=O)(=O)[O-])ccc5F)c5nc(c(-c6cc(S(=O)(=O)[O-])ccc6F)c6ccc3[nH]6)C=C5)C=C4)cc1)=C2
REMARK SMILES IDX 29 1 28 2 27 3 26 4 25 5 24 6 23 7 22 8 20 9 21 10 19 11
REMARK SMILES IDX 1 12 2 13 3 14 12 15 4 16 11 17 13 18 10 19 100 20 14 21
REMARK SMILES IDX 5 22 6 23 7 24 8 25 9 26 15 27 16 28 17 29 18 30 30 31 31 32
REMARK SMILES IDX 32 33 33 34 34 35 35 36 36 37 37 38 38 39 99 40 39 41 98 42
REMARK SMILES IDX 40 43 41 44 42 45 92 46 43 47 97 48 91 49 93 50 44 51 96 52
REMARK SMILES IDX 90 53 89 54 45 56 77 57 57 58 76 59 58 60 61 61 75 62 94 63
REMARK SMILES IDX 59 64 60 65 74 67 95 68 62 69 46 70 47 71 55 72 48 73 54 74
REMARK SMILES IDX 56 75 53 76 49 77 50 78 51 79 52 80 78 81 79 82 87 83 80 84
REMARK SMILES IDX 86 85 88 86 85 87 81 88 82 89 83 90 84 91 63 92 64 93 72 94
REMARK SMILES IDX 65 95 71 96 73 97 70 98 66 99 67 100 68 101 69 102
REMARK H PARENT 93 55 61 66
REMARK Flexibility Score: inf
ROOT
ATOM      1  C   UNL A   1      33.209  30.457  27.242  1.00  0.00     0.188 C 
ENDROOT
BRANCH   1   2
ATOM      2  O   UNL A   1      32.938  30.013  25.912  1.00  0.00    -0.377 OA
BRANCH   2   3
ATOM      3  C   UNL A   1      31.657  29.470  25.645  1.00  0.00     0.188 C 
BRANCH   3   4
ATOM      4  C   UNL A   1      31.598  27.949  25.873  1.00  0.00     0.188 C 
BRANCH   4   5
ATOM      5  O   UNL A   1      31.382  27.213  24.674  1.00  0.00    -0.376 OA
BRANCH   5   6
ATOM      6  C   UNL A   1      30.218  26.400  24.580  1.00  0.00     0.202 C 
BRANCH   6   7
ATOM      7  C   UNL A   1      30.218  25.168  23.660  1.00  0.00     0.261 C 
BRANCH   7   8
ATOM      8  O   UNL A   1      31.274  24.222  23.871  1.00  0.00    -0.460 OA
BRANCH   8   9
ATOM      9  C   UNL A   1      31.194  23.401  24.933  1.00  0.00     0.338 C 
ATOM     10  O   UNL A   1      30.306  23.364  25.765  1.00  0.00    -0.246 OA
BRANCH   9  11
ATOM     11  C   UNL A   1      32.289  22.411  24.815  1.00  0.00     0.087 C 
ATOM     12  C   UNL A   1      36.772  19.963  24.915  1.00  0.00     0.048 C 
ATOM     13  C   UNL A   1      35.344  19.565  24.654  1.00  0.00    -0.005 A 
ATOM     14  C   UNL A   1      35.010  18.209  24.494  1.00  0.00     0.054 A 
ATOM     15  C   UNL A   1      34.328  20.534  24.632  1.00  0.00     0.131 A 
ATOM     16  C   UNL A   1      33.684  17.825  24.296  1.00  0.00     0.130 A 
ATOM     17  C   UNL A   1      32.996  20.150  24.477  1.00  0.00     0.021 A 
ATOM     18  O   UNL A   1      34.717  21.833  24.784  1.00  0.00    -0.475 OA
ATOM     19  C   UNL A   1      32.685  18.802  24.273  1.00  0.00     0.058 A 
ATOM     20  C   UNL A   1      31.937  21.137  24.596  1.00  0.00     0.027 C 
ATOM     21  C   UNL A   1      33.721  22.887  24.872  1.00  0.00     0.316 C 
BRANCH  16  22
ATOM     22  O   UNL A   1      33.227  16.548  24.124  1.00  0.00    -0.406 OA
BRANCH  22  23
ATOM     23  C   UNL A   1      33.306  15.668  25.232  1.00  0.00     0.573 C 
ATOM     24  F   UNL A   1      32.936  16.285  26.374  1.00  0.00    -0.132 F 
ATOM     25  F   UNL A   1      32.546  14.568  25.044  1.00  0.00    -0.132 F 
ATOM     26  F   UNL A   1      34.590  15.268  25.371  1.00  0.00    -0.132 F 
ENDBRANCH  22  23
ENDBRANCH  16  22
BRANCH  21  27
ATOM     27  C   UNL A   1      34.009  23.696  26.145  1.00  0.00     0.430 C 
ATOM     28  F   UNL A   1      33.076  23.472  27.094  1.00  0.00    -0.167 F 
ATOM     29  F   UNL A   1      35.212  23.388  26.682  1.00  0.00    -0.167 F 
ATOM     30  F   UNL A   1      34.017  25.026  25.886  1.00  0.00    -0.167 F 
ENDBRANCH  21  27
ENDBRANCH   9  11
ENDBRANCH   8   9
ENDBRANCH   7   8
ENDBRANCH   6   7
ENDBRANCH   5   6
ENDBRANCH   4   5
ENDBRANCH   3   4
ENDBRANCH   2   3
ENDBRANCH   1   2
BRANCH   1  31
ATOM     31  C   UNL A   1      33.448  31.950  27.568  1.00  0.00     0.188 C 
BRANCH  31  32
ATOM     32  O   UNL A   1      34.554  32.189  28.436  1.00  0.00    -0.376 OA
BRANCH  32  33
ATOM     33  C   UNL A   1      35.831  31.776  27.972  1.00  0.00     0.202 C 
BRANCH  33  34
ATOM     34  C   UNL A   1      36.447  30.613  28.758  1.00  0.00     0.261 C 
BRANCH  34  35
ATOM     35  O   UNL A   1      37.254  30.988  29.885  1.00  0.00    -0.460 OA
BRANCH  35  36
ATOM     36  C   UNL A   1      37.020  30.372  31.063  1.00  0.00     0.338 C 
ATOM     37  O   UNL A   1      36.509  29.280  31.240  1.00  0.00    -0.246 OA
BRANCH  36  38
ATOM     38  C   UNL A   1      37.666  31.190  32.107  1.00  0.00     0.060 A 
ATOM     39  C   UNL A   1      38.741  30.658  32.830  1.00  0.00     0.016 A 
ATOM     40  C   UNL A   1      37.231  32.497  32.333  1.00  0.00     0.016 A 
ATOM     41  C   UNL A   1      39.381  31.439  33.792  1.00  0.00     0.010 A 
ATOM     42  C   UNL A   1      37.853  33.266  33.315  1.00  0.00     0.010 A 
ATOM     43  C   UNL A   1      38.916  32.734  34.062  1.00  0.00    -0.014 A 
BRANCH  43  44
ATOM     44  C   UNL A   1      39.425  33.466  35.243  1.00  0.00     0.031 A 
ATOM     45  C   UNL A   1      40.558  34.430  35.048  1.00  0.00     0.074 A 
ATOM     46  C   UNL A   1      38.895  33.275  36.464  1.00  0.00     0.049 A 
ATOM     47  N   UNL A   1      41.152  35.195  35.925  1.00  0.00    -0.248 NA
ATOM     48  C   UNL A   1      41.094  34.547  33.682  1.00  0.00     0.031 C 
ATOM     49  C   UNL A   1      37.789  32.372  36.772  1.00  0.00     0.029 A 
ATOM     50  N   UNL A   1      39.227  33.831  37.675  1.00  0.00    -0.354 N 
ATOM     51  C   UNL A   1      42.118  35.896  35.216  1.00  0.00     0.074 A 
ATOM     52  C   UNL A   1      42.061  35.438  33.846  1.00  0.00     0.031 C 
ATOM     53  C   UNL A   1      37.542  32.424  38.092  1.00  0.00     0.029 A 
ATOM     54  C   UNL A   1      38.483  33.351  38.725  1.00  0.00     0.049 A 
ATOM     55  H   UNL A   1      39.934  34.508  37.781  1.00  0.00     0.167 HD
ATOM     56  C   UNL A   1      42.968  36.848  35.666  1.00  0.00     0.034 A 
ATOM     57  C   UNL A   1      38.556  33.624  40.045  1.00  0.00     0.034 A 
ATOM     58  C   UNL A   1      43.036  37.281  37.036  1.00  0.00     0.049 A 
ATOM     59  C   UNL A   1      39.551  34.647  40.534  1.00  0.00     0.074 A 
ATOM     60  C   UNL A   1      43.852  38.256  37.581  1.00  0.00     0.029 A 
ATOM     61  N   UNL A   1      42.278  36.764  38.075  1.00  0.00    -0.354 N 
ATOM     62  N   UNL A   1      40.404  35.366  39.841  1.00  0.00    -0.248 NA
ATOM     63  C   UNL A   1      39.589  34.909  41.981  1.00  0.00     0.031 C 
ATOM     64  C   UNL A   1      43.627  38.290  38.959  1.00  0.00     0.029 A 
ATOM     65  C   UNL A   1      42.627  37.381  39.265  1.00  0.00     0.049 A 
ATOM     66  H   UNL A   1      41.594  36.063  37.980  1.00  0.00     0.167 HD
ATOM     67  C   UNL A   1      41.061  36.179  40.764  1.00  0.00     0.074 A 
ATOM     68  C   UNL A   1      40.491  35.879  42.060  1.00  0.00     0.031 C 
ATOM     69  C   UNL A   1      42.048  37.087  40.554  1.00  0.00     0.034 A 
BRANCH  56  70
ATOM     70  C   UNL A   1      43.892  37.499  34.676  1.00  0.00     0.023 A 
ATOM     71  C   UNL A   1      43.512  38.692  34.037  1.00  0.00     0.031 A 
ATOM     72  C   UNL A   1      45.094  36.881  34.285  1.00  0.00     0.131 A 
ATOM     73  C   UNL A   1      44.311  39.211  33.011  1.00  0.00     0.055 A 
ATOM     74  C   UNL A   1      45.903  37.423  33.288  1.00  0.00     0.041 A 
ATOM     75  F   UNL A   1      45.499  35.745  34.878  1.00  0.00    -0.206 F 
ATOM     76  C   UNL A   1      45.506  38.588  32.638  1.00  0.00     0.022 A 
BRANCH  73  77
ATOM     77  S   UNL A   1      43.808  40.695  32.099  1.00  0.00     0.124 S 
ATOM     78  O   UNL A   1      42.356  40.679  32.273  1.00  0.00    -0.237 OA
ATOM     79  O   UNL A   1      44.511  41.748  32.823  1.00  0.00    -0.237 OA
ATOM     80  O   UNL A   1      44.268  40.441  30.738  1.00  0.00    -0.744 OA
ENDBRANCH  73  77
ENDBRANCH  56  70
BRANCH  57  81
ATOM     81  C   UNL A   1      37.620  32.940  40.982  1.00  0.00     0.023 A 
ATOM     82  C   UNL A   1      36.329  33.446  41.212  1.00  0.00     0.031 A 
ATOM     83  C   UNL A   1      38.030  31.813  41.714  1.00  0.00     0.131 A 
ATOM     84  C   UNL A   1      35.515  32.859  42.189  1.00  0.00     0.055 A 
ATOM     85  C   UNL A   1      37.195  31.196  42.645  1.00  0.00     0.041 A 
ATOM     86  F   UNL A   1      39.256  31.298  41.529  1.00  0.00    -0.206 F 
ATOM     87  C   UNL A   1      35.932  31.727  42.895  1.00  0.00     0.022 A 
BRANCH  84  88
ATOM     88  S   UNL A   1      33.919  33.598  42.635  1.00  0.00     0.124 S 
ATOM     89  O   UNL A   1      33.065  32.421  42.779  1.00  0.00    -0.237 OA
ATOM     90  O   UNL A   1      34.254  34.290  43.876  1.00  0.00    -0.237 OA
ATOM     91  O   UNL A   1      33.611  34.461  41.501  1.00  0.00    -0.744 OA
ENDBRANCH  84  88
ENDBRANCH  57  81
BRANCH  69  92
ATOM     92  C   UNL A   1      42.598  37.845  41.737  1.00  0.00     0.023 A 
ATOM     93  C   UNL A   1      42.110  39.133  42.039  1.00  0.00     0.031 A 
ATOM     94  C   UNL A   1      43.694  37.362  42.470  1.00  0.00     0.131 A 
ATOM     95  C   UNL A   1      42.739  39.904  43.023  1.00  0.00     0.055 A 
ATOM     96  C   UNL A   1      44.291  38.118  43.481  1.00  0.00     0.041 A 
ATOM     97  F   UNL A   1      44.205  36.147  42.211  1.00  0.00    -0.206 F 
ATOM     98  C   UNL A   1      43.822  39.400  43.752  1.00  0.00     0.022 A 
BRANCH  95  99
ATOM     99  S   UNL A   1      42.226  41.615  43.345  1.00  0.00     0.124 S 
ATOM    100  O   UNL A   1      41.818  41.549  44.746  1.00  0.00    -0.237 OA
ATOM    101  O   UNL A   1      43.457  42.358  43.087  1.00  0.00    -0.237 OA
ATOM    102  O   UNL A   1      41.144  41.843  42.393  1.00  0.00    -0.744 OA
ENDBRANCH  95  99
ENDBRANCH  69  92
ENDBRANCH  43  44
ENDBRANCH  36  38
ENDBRANCH  35  36
ENDBRANCH  34  35
ENDBRANCH  33  34
ENDBRANCH  32  33
ENDBRANCH  31  32
ENDBRANCH   1  31
TORSDOF 26
ENDMDL
MODEL 2
REMARK VINA RESULT:      -8.9      7.698     12.746
REMARK SMILES Cc1cc(OC(F)(F)F)cc2c1O[C@H](C(F)(F)F)C(C(=O)OCCOCCOCCOCCOC(=O)c1ccc(-c3c4nc(c(-c5cc(S(=O)(=O)[O-])ccc5F)c5ccc([nH]5)c(-c5cc(S(=O)(=O)[O-])ccc5F)c5nc(c(-c6cc(S(=O)(=O)[O-])ccc6F)c6ccc3[nH]6)C=C5)C=C4)cc1)=C2
REMARK SMILES IDX 29 1 28 2 27 3 26 4 25 5 24 6 23 7 22 8 20 9 21 10 19 11
REMARK SMILES IDX 1 12 2 13 3 14 12 15 4 16 11 17 13 18 10 19 100 20 14 21
REMARK SMILES IDX 5 22 6 23 7 24 8 25 9 26 15 27 16 28 17 29 18 30 30 31 31 32
REMARK SMILES IDX 32 33 33 34 34 35 35 36 36 37 37 38 38 39 99 40 39 41 98 42
REMARK SMILES IDX 40 43 41 44 42 45 92 46 43 47 97 48 91 49 93 50 44 51 96 52
REMARK SMILES IDX 90 53 89 54 45 56 77 57 57 58 76 59 58 60 61 61 75 62 94 63
REMARK SMILES IDX 59 64 60 65 74 67 95 68 62 69 46 70 47 71 55 72 48 73 54 74
REMARK SMILES IDX 56 75 53 76 49 77 50 78 51 79 52 80 78 81 79 82 87 83 80 84
REMARK SMILES IDX 86 85 88 86 85 87 81 88 82 89 83 90 84 91 63 92 64 93 72 94
REMARK SMILES IDX 65 95 71 96 73 97 70 98 66 99 67 100 68 101 69 102
REMARK H PARENT 93 55 61 66
REMARK Flexibility Score: inf
ROOT
ATOM      1  C   UNL A   1      35.981  31.897  30.403  1.00  0.00     0.188 C 
ENDROOT
BRANCH   1   2
ATOM      2  O   UNL A   1      37.192  32.648  30.314  1.00  0.00    -0.377 OA
BRANCH   2   3
ATOM      3  C   UNL A   1      38.083  32.344  29.254  1.00  0.00     0.188 C 
BRANCH   3   4
ATOM      4  C   UNL A   1      38.227  30.830  29.018  1.00  0.00     0.188 C 
BRANCH   4   5
ATOM      5  O   UNL A   1      39.021  30.184  30.006  1.00  0.00    -0.376 OA
BRANCH   5   6
ATOM      6  C   UNL A   1      40.369  29.864  29.687  1.00  0.00     0.202 C 
BRANCH   6   7
ATOM      7  C   UNL A   1      40.728  29.398  28.266  1.00  0.00     0.261 C 
BRANCH   7   8
ATOM      8  O   UNL A   1      40.315  28.071  27.912  1.00  0.00    -0.460 OA
BRANCH   8   9
ATOM      9  C   UNL A   1      40.589  27.067  28.764  1.00  0.00     0.338 C 
ATOM     10  O   UNL A   1      40.065  26.859  29.844  1.00  0.00    -0.246 OA
BRANCH   9  11
ATOM     11  C   UNL A   1      41.516  26.140  28.077  1.00  0.00     0.087 C 
ATOM     12  C   UNL A   1      45.617  23.700  26.251  1.00  0.00     0.048 C 
ATOM     13  C   UNL A   1      44.138  23.422  26.290  1.00  0.00    -0.005 A 
ATOM     14  C   UNL A   1      43.645  22.180  25.851  1.00  0.00     0.054 A 
ATOM     15  C   UNL A   1      43.249  24.369  26.821  1.00  0.00     0.131 A 
ATOM     16  C   UNL A   1      42.281  21.894  25.923  1.00  0.00     0.130 A 
ATOM     17  C   UNL A   1      41.891  24.071  26.934  1.00  0.00     0.021 A 
ATOM     18  O   UNL A   1      43.788  25.557  27.221  1.00  0.00    -0.475 OA
ATOM     19  C   UNL A   1      41.409  22.850  26.451  1.00  0.00     0.058 A 
ATOM     20  C   UNL A   1      40.998  24.995  27.613  1.00  0.00     0.027 C 
ATOM     21  C   UNL A   1      42.954  26.553  27.872  1.00  0.00     0.316 C 
BRANCH  16  22
ATOM     22  O   UNL A   1      41.674  20.735  25.529  1.00  0.00    -0.406 OA
BRANCH  22  23
ATOM     23  C   UNL A   1      42.045  19.541  26.198  1.00  0.00     0.573 C 
ATOM     24  F   UNL A   1      42.355  19.780  27.489  1.00  0.00    -0.132 F 
ATOM     25  F   UNL A   1      41.066  18.614  26.129  1.00  0.00    -0.132 F 
ATOM     26  F   UNL A   1      43.142  19.033  25.592  1.00  0.00    -0.132 F 
ENDBRANCH  22  23
ENDBRANCH  16  22
BRANCH  21  27
ATOM     27  C   UNL A   1      43.636  26.942  29.192  1.00  0.00     0.430 C 
ATOM     28  F   UNL A   1      43.495  28.259  29.451  1.00  0.00    -0.167 F 
ATOM     29  F   UNL A   1      43.125  26.266  30.247  1.00  0.00    -0.167 F 
ATOM     30  F   UNL A   1      44.964  26.674  29.152  1.00  0.00    -0.167 F 
ENDBRANCH  21  27
ENDBRANCH   9  11
ENDBRANCH   8   9
ENDBRANCH   7   8
ENDBRANCH   6   7
ENDBRANCH   5   6
ENDBRANCH   4   5
ENDBRANCH   3   4
ENDBRANCH   2   3
ENDBRANCH   1   2
BRANCH   1  31
ATOM     31  C   UNL A   1      34.813  32.341  31.315  1.00  0.00     0.188 C 
BRANCH  31  32
ATOM     32  O   UNL A   1      34.946  33.663  31.834  1.00  0.00    -0.376 OA
BRANCH  32  33
ATOM     33  C   UNL A   1      34.228  33.958  33.022  1.00  0.00     0.202 C 
BRANCH  33  34
ATOM     34  C   UNL A   1      34.923  34.957  33.954  1.00  0.00     0.261 C 
BRANCH  34  35
ATOM     35  O   UNL A   1      36.321  34.721  34.180  1.00  0.00    -0.460 OA
BRANCH  35  36
ATOM     36  C   UNL A   1      36.665  33.791  35.097  1.00  0.00     0.338 C 
ATOM     37  O   UNL A   1      36.020  33.432  36.066  1.00  0.00    -0.246 OA
BRANCH  36  38
ATOM     38  C   UNL A   1      37.898  33.147  34.608  1.00  0.00     0.060 A 
ATOM     39  C   UNL A   1      39.140  33.592  35.079  1.00  0.00     0.016 A 
ATOM     40  C   UNL A   1      37.815  32.074  33.717  1.00  0.00     0.016 A 
ATOM     41  C   UNL A   1      40.308  32.962  34.648  1.00  0.00     0.010 A 
ATOM     42  C   UNL A   1      38.985  31.465  33.266  1.00  0.00     0.010 A 
ATOM     43  C   UNL A   1      40.237  31.920  33.714  1.00  0.00    -0.014 A 
BRANCH  43  44
ATOM     44  C   UNL A   1      41.473  31.423  33.071  1.00  0.00     0.031 A 
ATOM     45  C   UNL A   1      42.170  30.244  33.686  1.00  0.00     0.074 A 
ATOM     46  C   UNL A   1      41.970  32.009  31.967  1.00  0.00     0.049 A 
ATOM     47  N   UNL A   1      43.249  29.625  33.290  1.00  0.00    -0.248 NA
ATOM     48  C   UNL A   1      41.569  29.691  34.911  1.00  0.00     0.031 C 
ATOM     49  C   UNL A   1      41.376  33.152  31.280  1.00  0.00     0.029 A 
ATOM     50  N   UNL A   1      43.096  31.720  31.238  1.00  0.00    -0.354 N 
ATOM     51  C   UNL A   1      43.449  28.599  34.205  1.00  0.00     0.074 A 
ATOM     52  C   UNL A   1      42.405  28.704  35.199  1.00  0.00     0.031 C 
ATOM     53  C   UNL A   1      42.153  33.479  30.232  1.00  0.00     0.029 A 
ATOM     54  C   UNL A   1      43.307  32.578  30.185  1.00  0.00     0.049 A 
ATOM     55  H   UNL A   1      43.698  30.970  31.449  1.00  0.00     0.167 HD
ATOM     56  C   UNL A   1      44.410  27.647  34.206  1.00  0.00     0.034 A 
ATOM     57  C   UNL A   1      44.318  32.635  29.292  1.00  0.00     0.034 A 
ATOM     58  C   UNL A   1      45.460  27.564  33.228  1.00  0.00     0.049 A 
ATOM     59  C   UNL A   1      45.412  31.596  29.347  1.00  0.00     0.074 A 
ATOM     60  C   UNL A   1      46.467  26.620  33.137  1.00  0.00     0.029 A 
ATOM     61  N   UNL A   1      45.652  28.457  32.186  1.00  0.00    -0.354 N 
ATOM     62  N   UNL A   1      45.544  30.580  30.168  1.00  0.00    -0.248 NA
ATOM     63  C   UNL A   1      46.488  31.702  28.351  1.00  0.00     0.031 C 
ATOM     64  C   UNL A   1      47.300  26.974  32.073  1.00  0.00     0.029 A 
ATOM     65  C   UNL A   1      46.778  28.102  31.461  1.00  0.00     0.049 A 
ATOM     66  H   UNL A   1      45.073  29.229  31.989  1.00  0.00     0.167 HD
ATOM     67  C   UNL A   1      46.702  29.914  29.771  1.00  0.00     0.074 A 
ATOM     68  C   UNL A   1      47.220  30.629  28.624  1.00  0.00     0.031 C 
ATOM     69  C   UNL A   1      47.284  28.812  30.311  1.00  0.00     0.034 A 
BRANCH  56  70
ATOM     70  C   UNL A   1      44.375  26.607  35.291  1.00  0.00     0.023 A 
ATOM     71  C   UNL A   1      44.972  26.868  36.537  1.00  0.00     0.031 A 
ATOM     72  C   UNL A   1      43.854  25.323  35.053  1.00  0.00     0.131 A 
ATOM     73  C   UNL A   1      45.065  25.845  37.487  1.00  0.00     0.055 A 
ATOM     74  C   UNL A   1      43.918  24.318  36.017  1.00  0.00     0.041 A 
ATOM     75  F   UNL A   1      43.266  25.033  33.879  1.00  0.00    -0.206 F 
ATOM     76  C   UNL A   1      44.536  24.574  37.237  1.00  0.00     0.022 A 
BRANCH  73  77
ATOM     77  S   UNL A   1      45.910  26.116  39.068  1.00  0.00     0.124 S 
ATOM     78  O   UNL A   1      47.275  25.693  38.757  1.00  0.00    -0.237 OA
ATOM     79  O   UNL A   1      45.731  27.550  39.265  1.00  0.00    -0.237 OA
ATOM     80  O   UNL A   1      45.194  25.251  39.999  1.00  0.00    -0.744 OA
ENDBRANCH  73  77
ENDBRANCH  56  70
BRANCH  57  81
ATOM     81  C   UNL A   1      44.304  33.695  28.244  1.00  0.00     0.023 A 
ATOM     82  C   UNL A   1      44.532  35.041  28.576  1.00  0.00     0.031 A 
ATOM     83  C   UNL A   1      43.991  33.383  26.911  1.00  0.00     0.131 A 
ATOM     84  C   UNL A   1      44.390  36.032  27.596  1.00  0.00     0.055 A 
ATOM     85  C   UNL A   1      43.907  34.368  25.925  1.00  0.00     0.041 A 
ATOM     86  F   UNL A   1      43.762  32.111  26.549  1.00  0.00    -0.206 F 
ATOM     87  C   UNL A   1      44.096  35.704  26.269  1.00  0.00     0.022 A 
BRANCH  84  88
ATOM     88  S   UNL A   1      44.500  37.790  28.031  1.00  0.00     0.124 S 
ATOM     89  O   UNL A   1      45.886  37.911  28.477  1.00  0.00    -0.237 OA
ATOM     90  O   UNL A   1      44.190  38.427  26.754  1.00  0.00    -0.237 OA
ATOM     91  O   UNL A   1      43.491  37.951  29.071  1.00  0.00    -0.744 OA
ENDBRANCH  84  88
ENDBRANCH  57  81
BRANCH  69  92
ATOM     92  C   UNL A   1      48.552  28.283  29.687  1.00  0.00     0.023 A 
ATOM     93  C   UNL A   1      48.486  27.291  28.689  1.00  0.00     0.031 A 
ATOM     94  C   UNL A   1      49.816  28.649  30.177  1.00  0.00     0.131 A 
ATOM     95  C   UNL A   1      49.661  26.676  28.238  1.00  0.00     0.055 A 
ATOM     96  C   UNL A   1      50.988  28.065  29.694  1.00  0.00     0.041 A 
ATOM     97  F   UNL A   1      49.931  29.580  31.139  1.00  0.00    -0.206 F 
ATOM     98  C   UNL A   1      50.912  27.064  28.729  1.00  0.00     0.022 A 
BRANCH  95  99
ATOM     99  S   UNL A   1      49.606  25.302  27.054  1.00  0.00     0.124 S 
ATOM    100  O   UNL A   1      50.897  24.657  27.280  1.00  0.00    -0.237 OA
ATOM    101  O   UNL A   1      48.442  24.548  27.513  1.00  0.00    -0.237 OA
ATOM    102  O   UNL A   1      49.458  25.958  25.759  1.00  0.00    -0.744 OA
ENDBRANCH  95  99
ENDBRANCH  69  92
ENDBRANCH  43  44
ENDBRANCH  36  38
ENDBRANCH  35  36
ENDBRANCH  34  35
ENDBRANCH  33  34
ENDBRANCH  32  33
ENDBRANCH  31  32
ENDBRANCH   1  31
TORSDOF 26
ENDMDL
MODEL 3
REMARK VINA RESULT:      -8.8      7.778     11.408
REMARK SMILES Cc1cc(OC(F)(F)F)cc2c1O[C@H](C(F)(F)F)C(C(=O)OCCOCCOCCOCCOC(=O)c1ccc(-c3c4nc(c(-c5cc(S(=O)(=O)[O-])ccc5F)c5ccc([nH]5)c(-c5cc(S(=O)(=O)[O-])ccc5F)c5nc(c(-c6cc(S(=O)(=O)[O-])ccc6F)c6ccc3[nH]6)C=C5)C=C4)cc1)=C2
REMARK SMILES IDX 29 1 28 2 27 3 26 4 25 5 24 6 23 7 22 8 20 9 21 10 19 11
REMARK SMILES IDX 1 12 2 13 3 14 12 15 4 16 11 17 13 18 10 19 100 20 14 21
REMARK SMILES IDX 5 22 6 23 7 24 8 25 9 26 15 27 16 28 17 29 18 30 30 31 31 32
REMARK SMILES IDX 32 33 33 34 34 35 35 36 36 37 37 38 38 39 99 40 39 41 98 42
REMARK SMILES IDX 40 43 41 44 42 45 92 46 43 47 97 48 91 49 93 50 44 51 96 52
REMARK SMILES IDX 90 53 89 54 45 56 77 57 57 58 76 59 58 60 61 61 75 62 94 63
REMARK SMILES IDX 59 64 60 65 74 67 95 68 62 69 46 70 47 71 55 72 48 73 54 74
REMARK SMILES IDX 56 75 53 76 49 77 50 78 51 79 52 80 78 81 79 82 87 83 80 84
REMARK SMILES IDX 86 85 88 86 85 87 81 88 82 89 83 90 84 91 63 92 64 93 72 94
REMARK SMILES IDX 65 95 71 96 73 97 70 98 66 99 67 100 68 101 69 102
REMARK H PARENT 93 55 61 66
REMARK Flexibility Score: inf
ROOT
ATOM      1  C   UNL A   1      33.352  30.320  27.295  1.00  0.00     0.188 C 
ENDROOT
BRANCH   1   2
ATOM      2  O   UNL A   1      33.236  30.035  25.901  1.00  0.00    -0.377 OA
BRANCH   2   3
ATOM      3  C   UNL A   1      31.935  29.851  25.370  1.00  0.00     0.188 C 
BRANCH   3   4
ATOM      4  C   UNL A   1      31.553  28.365  25.242  1.00  0.00     0.188 C 
BRANCH   4   5
ATOM      5  O   UNL A   1      31.038  28.030  23.959  1.00  0.00    -0.376 OA
BRANCH   5   6
ATOM      6  C   UNL A   1      29.749  27.434  23.882  1.00  0.00     0.202 C 
BRANCH   6   7
ATOM      7  C   UNL A   1      29.617  25.938  23.553  1.00  0.00     0.261 C 
BRANCH   7   8
ATOM      8  O   UNL A   1      30.762  25.124  23.841  1.00  0.00    -0.460 OA
BRANCH   8   9
ATOM      9  C   UNL A   1      31.667  24.927  22.866  1.00  0.00     0.338 C 
ATOM     10  O   UNL A   1      31.825  25.602  21.865  1.00  0.00    -0.246 OA
BRANCH   9  11
ATOM     11  C   UNL A   1      32.574  23.845  23.312  1.00  0.00     0.087 C 
ATOM     12  C   UNL A   1      36.385  21.107  25.334  1.00  0.00     0.048 C 
ATOM     13  C   UNL A   1      35.045  20.787  24.727  1.00  0.00    -0.005 A 
ATOM     14  C   UNL A   1      34.555  19.470  24.761  1.00  0.00     0.054 A 
ATOM     15  C   UNL A   1      34.249  21.806  24.182  1.00  0.00     0.131 A 
ATOM     16  C   UNL A   1      33.296  19.169  24.240  1.00  0.00     0.130 A 
ATOM     17  C   UNL A   1      32.972  21.517  23.700  1.00  0.00     0.021 A 
ATOM     18  O   UNL A   1      34.784  23.061  24.170  1.00  0.00    -0.475 OA
ATOM     19  C   UNL A   1      32.517  20.195  23.698  1.00  0.00     0.058 A 
ATOM     20  C   UNL A   1      32.097  22.594  23.268  1.00  0.00     0.027 C 
ATOM     21  C   UNL A   1      33.988  24.189  23.715  1.00  0.00     0.316 C 
BRANCH  16  22
ATOM     22  O   UNL A   1      32.706  17.936  24.208  1.00  0.00    -0.406 OA
BRANCH  22  23
ATOM     23  C   UNL A   1      32.740  17.161  25.393  1.00  0.00     0.573 C 
ATOM     24  F   UNL A   1      32.526  17.926  26.484  1.00  0.00    -0.132 F 
ATOM     25  F   UNL A   1      31.834  16.161  25.355  1.00  0.00    -0.132 F 
ATOM     26  F   UNL A   1      33.968  16.605  25.507  1.00  0.00    -0.132 F 
ENDBRANCH  22  23
ENDBRANCH  16  22
BRANCH  21  27
ATOM     27  C   UNL A   1      34.030  25.262  24.812  1.00  0.00     0.430 C 
ATOM     28  F   UNL A   1      32.982  25.147  25.655  1.00  0.00    -0.167 F 
ATOM     29  F   UNL A   1      35.157  25.185  25.556  1.00  0.00    -0.167 F 
ATOM     30  F   UNL A   1      33.990  26.507  24.278  1.00  0.00    -0.167 F 
ENDBRANCH  21  27
ENDBRANCH   9  11
ENDBRANCH   8   9
ENDBRANCH   7   8
ENDBRANCH   6   7
ENDBRANCH   5   6
ENDBRANCH   4   5
ENDBRANCH   3   4
ENDBRANCH   2   3
ENDBRANCH   1   2
BRANCH   1  31
ATOM     31  C   UNL A   1      34.076  31.587  27.810  1.00  0.00     0.188 C 
BRANCH  31  32
ATOM     32  O   UNL A   1      35.366  31.339  28.365  1.00  0.00    -0.376 OA
BRANCH  32  33
ATOM     33  C   UNL A   1      35.677  29.990  28.679  1.00  0.00     0.202 C 
BRANCH  33  34
ATOM     34  C   UNL A   1      36.393  29.799  30.022  1.00  0.00     0.261 C 
BRANCH  34  35
ATOM     35  O   UNL A   1      37.819  29.655  29.946  1.00  0.00    -0.460 OA
BRANCH  35  36
ATOM     36  C   UNL A   1      38.536  29.843  31.075  1.00  0.00     0.338 C 
ATOM     37  O   UNL A   1      38.232  29.514  32.208  1.00  0.00    -0.246 OA
BRANCH  36  38
ATOM     38  C   UNL A   1      39.852  30.364  30.663  1.00  0.00     0.060 A 
ATOM     39  C   UNL A   1      40.562  31.204  31.530  1.00  0.00     0.016 A 
ATOM     40  C   UNL A   1      40.396  29.982  29.435  1.00  0.00     0.016 A 
ATOM     41  C   UNL A   1      41.824  31.670  31.161  1.00  0.00     0.010 A 
ATOM     42  C   UNL A   1      41.645  30.473  29.056  1.00  0.00     0.010 A 
ATOM     43  C   UNL A   1      42.354  31.334  29.908  1.00  0.00    -0.014 A 
BRANCH  43  44
ATOM     44  C   UNL A   1      43.568  32.023  29.415  1.00  0.00     0.031 A 
ATOM     45  C   UNL A   1      43.521  33.513  29.245  1.00  0.00     0.074 A 
ATOM     46  C   UNL A   1      44.687  31.338  29.119  1.00  0.00     0.049 A 
ATOM     47  N   UNL A   1      44.460  34.329  28.849  1.00  0.00    -0.248 NA
ATOM     48  C   UNL A   1      42.242  34.171  29.562  1.00  0.00     0.031 C 
ATOM     49  C   UNL A   1      44.851  29.893  29.252  1.00  0.00     0.029 A 
ATOM     50  N   UNL A   1      45.896  31.776  28.638  1.00  0.00    -0.354 N 
ATOM     51  C   UNL A   1      43.895  35.597  28.887  1.00  0.00     0.074 A 
ATOM     52  C   UNL A   1      42.519  35.440  29.302  1.00  0.00     0.031 C 
ATOM     53  C   UNL A   1      46.089  29.559  28.847  1.00  0.00     0.029 A 
ATOM     54  C   UNL A   1      46.798  30.764  28.412  1.00  0.00     0.049 A 
ATOM     55  H   UNL A   1      46.098  32.725  28.469  1.00  0.00     0.167 HD
ATOM     56  C   UNL A   1      44.476  36.787  28.612  1.00  0.00     0.034 A 
ATOM     57  C   UNL A   1      48.049  30.806  27.906  1.00  0.00     0.034 A 
ATOM     58  C   UNL A   1      45.839  36.934  28.175  1.00  0.00     0.049 A 
ATOM     59  C   UNL A   1      48.659  32.140  27.550  1.00  0.00     0.074 A 
ATOM     60  C   UNL A   1      46.522  38.103  27.892  1.00  0.00     0.029 A 
ATOM     61  N   UNL A   1      46.719  35.888  27.942  1.00  0.00    -0.354 N 
ATOM     62  N   UNL A   1      48.142  33.341  27.669  1.00  0.00    -0.248 NA
ATOM     63  C   UNL A   1      50.024  32.130  27.004  1.00  0.00     0.031 C 
ATOM     64  C   UNL A   1      47.797  37.762  27.436  1.00  0.00     0.029 A 
ATOM     65  C   UNL A   1      47.932  36.384  27.493  1.00  0.00     0.049 A 
ATOM     66  H   UNL A   1      46.512  34.935  28.077  1.00  0.00     0.167 HD
ATOM     67  C   UNL A   1      49.127  34.228  27.236  1.00  0.00     0.074 A 
ATOM     68  C   UNL A   1      50.276  33.426  26.874  1.00  0.00     0.031 C 
ATOM     69  C   UNL A   1      49.079  35.581  27.144  1.00  0.00     0.034 A 
BRANCH  56  70
ATOM     70  C   UNL A   1      43.654  38.034  28.780  1.00  0.00     0.023 A 
ATOM     71  C   UNL A   1      42.892  38.525  27.706  1.00  0.00     0.031 A 
ATOM     72  C   UNL A   1      43.715  38.792  29.963  1.00  0.00     0.131 A 
ATOM     73  C   UNL A   1      42.249  39.762  27.824  1.00  0.00     0.055 A 
ATOM     74  C   UNL A   1      43.042  40.007  30.087  1.00  0.00     0.041 A 
ATOM     75  F   UNL A   1      44.423  38.354  31.017  1.00  0.00    -0.206 F 
ATOM     76  C   UNL A   1      42.314  40.502  29.009  1.00  0.00     0.022 A 
BRANCH  73  77
ATOM     77  S   UNL A   1      41.335  40.474  26.429  1.00  0.00     0.124 S 
ATOM     78  O   UNL A   1      40.358  41.323  27.110  1.00  0.00    -0.237 OA
ATOM     79  O   UNL A   1      42.386  41.186  25.710  1.00  0.00    -0.237 OA
ATOM     80  O   UNL A   1      40.773  39.312  25.749  1.00  0.00    -0.744 OA
ENDBRANCH  73  77
ENDBRANCH  56  70
BRANCH  57  81
ATOM     81  C   UNL A   1      48.814  29.536  27.752  1.00  0.00     0.023 A 
ATOM     82  C   UNL A   1      48.866  28.869  26.516  1.00  0.00     0.031 A 
ATOM     83  C   UNL A   1      49.441  28.936  28.856  1.00  0.00     0.131 A 
ATOM     84  C   UNL A   1      49.485  27.616  26.428  1.00  0.00     0.055 A 
ATOM     85  C   UNL A   1      50.107  27.714  28.751  1.00  0.00     0.041 A 
ATOM     86  F   UNL A   1      49.413  29.536  30.057  1.00  0.00    -0.206 F 
ATOM     87  C   UNL A   1      50.121  27.041  27.533  1.00  0.00     0.022 A 
BRANCH  84  88
ATOM     88  S   UNL A   1      49.412  26.650  24.894  1.00  0.00     0.124 S 
ATOM     89  O   UNL A   1      50.685  25.933  24.920  1.00  0.00    -0.237 OA
ATOM     90  O   UNL A   1      48.224  25.832  25.119  1.00  0.00    -0.237 OA
ATOM     91  O   UNL A   1      49.286  27.664  23.854  1.00  0.00    -0.744 OA
ENDBRANCH  84  88
ENDBRANCH  57  81
BRANCH  69  92
ATOM     92  C   UNL A   1      50.296  36.316  26.635  1.00  0.00     0.023 A 
ATOM     93  C   UNL A   1      51.154  36.971  27.541  1.00  0.00     0.031 A 
ATOM     94  C   UNL A   1      50.523  36.491  25.260  1.00  0.00     0.131 A 
ATOM     95  C   UNL A   1      52.177  37.796  27.059  1.00  0.00     0.055 A 
ATOM     96  C   UNL A   1      51.571  37.279  24.784  1.00  0.00     0.041 A 
ATOM     97  F   UNL A   1      49.724  35.899  24.357  1.00  0.00    -0.206 F 
ATOM     98  C   UNL A   1      52.396  37.946  25.686  1.00  0.00     0.022 A 
BRANCH  95  99
ATOM     99  S   UNL A   1      53.216  38.761  28.192  1.00  0.00     0.124 S 
ATOM    100  O   UNL A   1      54.523  38.136  28.010  1.00  0.00    -0.237 OA
ATOM    101  O   UNL A   1      53.088  40.111  27.650  1.00  0.00    -0.237 OA
ATOM    102  O   UNL A   1      52.602  38.550  29.499  1.00  0.00    -0.744 OA
ENDBRANCH  95  99
ENDBRANCH  69  92
ENDBRANCH  43  44
ENDBRANCH  36  38
ENDBRANCH  35  36
ENDBRANCH  34  35
ENDBRANCH  33  34
ENDBRANCH  32  33
ENDBRANCH  31  32
ENDBRANCH   1  31
TORSDOF 26
ENDMDL
