MODEL 1
REMARK VINA RESULT:      -9.4      0.000      0.000
REMARK SMILES C[C@@H](NC(=O)N1CC[N@@H+]2CCCC[C@H]2C1)C(=O)OCCOCCOCCOCCOC(=O)c1ccc(-c2c3nc(c(-c4cc(S(=O)(=O)[O-])ccc4F)c4ccc([nH]4)c(-c4cc(S(=O)(=O)[O-])ccc4F)c4nc(c(-c5cc(S(=O)(=O)[O-])ccc5F)c5ccc2[nH]5)C=C4)C=C3)cc1
REMARK SMILES IDX 25 1 24 2 23 3 22 4 21 5 20 6 19 7 18 8 16 9 17 10 2 11 1 12
REMARK SMILES IDX 3 13 4 14 5 16 6 17 7 18 15 19 8 20 14 21 9 22 13 23 10 24
REMARK SMILES IDX 12 26 11 27 26 28 27 29 28 30 29 31 30 32 31 33 32 34 33 35
REMARK SMILES IDX 34 36 95 37 35 38 94 39 36 40 37 41 38 42 88 43 39 44 93 45
REMARK SMILES IDX 87 46 89 47 40 48 92 49 86 50 85 51 41 53 73 54 53 55 72 56
REMARK SMILES IDX 54 57 57 58 71 59 90 60 55 61 56 62 70 64 91 65 58 66 42 67
REMARK SMILES IDX 43 68 51 69 44 70 50 71 52 72 49 73 45 74 46 75 47 76 48 77
REMARK SMILES IDX 74 78 75 79 83 80 76 81 82 82 84 83 81 84 77 85 78 86 79 87
REMARK SMILES IDX 80 88 59 89 60 90 68 91 61 92 67 93 69 94 66 95 62 96 63 97
REMARK SMILES IDX 64 98 65 99
REMARK H PARENT 3 15 9 25 89 52 57 63
REMARK Flexibility Score: inf
ROOT
ATOM      1  C   UNL A   1      46.661  42.155  30.942  1.00  0.00     0.188 C 
ENDROOT
BRANCH   1   2
ATOM      2  O   UNL A   1      45.781  43.043  31.627  1.00  0.00    -0.377 OA
BRANCH   2   3
ATOM      3  C   UNL A   1      44.407  42.723  31.751  1.00  0.00     0.188 C 
BRANCH   3   4
ATOM      4  C   UNL A   1      44.050  41.255  31.441  1.00  0.00     0.188 C 
BRANCH   4   5
ATOM      5  O   UNL A   1      42.682  41.034  31.134  1.00  0.00    -0.376 OA
BRANCH   5   6
ATOM      6  C   UNL A   1      42.350  40.809  29.773  1.00  0.00     0.202 C 
BRANCH   6   7
ATOM      7  C   UNL A   1      43.467  40.426  28.808  1.00  0.00     0.261 C 
BRANCH   7   8
ATOM      8  O   UNL A   1      43.729  41.310  27.727  1.00  0.00    -0.462 OA
BRANCH   8   9
ATOM      9  C   UNL A   1      43.938  40.704  26.536  1.00  0.00     0.328 C 
ATOM     10  O   UNL A   1      44.755  39.814  26.332  1.00  0.00    -0.250 OA
BRANCH   9  11
ATOM     11  C   UNL A   1      43.111  41.368  25.451  1.00  0.00     0.190 C 
ATOM     12  C   UNL A   1      41.634  40.956  25.464  1.00  0.00     0.043 C 
BRANCH  11  13
ATOM     13  N   UNL A   1      43.315  42.823  25.371  1.00  0.00    -0.325 N 
ATOM     14  C   UNL A   1      44.241  43.485  24.629  1.00  0.00     0.318 C 
ATOM     15  H   UNL A   1      42.714  43.380  25.919  1.00  0.00     0.166 HD
ATOM     16  O   UNL A   1      45.001  44.242  25.234  1.00  0.00    -0.249 OA
BRANCH  14  17
ATOM     17  N   UNL A   1      44.284  43.318  23.266  1.00  0.00    -0.313 N 
ATOM     18  C   UNL A   1      45.451  42.743  22.581  1.00  0.00     0.183 C 
ATOM     19  C   UNL A   1      43.034  42.945  22.605  1.00  0.00     0.186 C 
ATOM     20  C   UNL A   1      45.422  42.825  21.016  1.00  0.00     0.284 C 
ATOM     21  C   UNL A   1      43.024  43.503  21.177  1.00  0.00     0.203 C 
ATOM     22  N   UNL A   1      44.120  42.980  20.331  1.00  0.00    -0.330 N 
ATOM     23  C   UNL A   1      41.702  43.226  20.455  1.00  0.00     0.067 C 
ATOM     24  C   UNL A   1      44.203  43.761  19.082  1.00  0.00     0.262 C 
ATOM     25  H   UNL A   1      43.876  42.018  20.097  1.00  0.00     0.348 HD
ATOM     26  C   UNL A   1      41.656  44.046  19.169  1.00  0.00     0.012 C 
ATOM     27  C   UNL A   1      42.882  43.777  18.297  1.00  0.00     0.062 C 
ENDBRANCH  14  17
ENDBRANCH  11  13
ENDBRANCH   9  11
ENDBRANCH   8   9
ENDBRANCH   7   8
ENDBRANCH   6   7
ENDBRANCH   5   6
ENDBRANCH   4   5
ENDBRANCH   3   4
ENDBRANCH   2   3
ENDBRANCH   1   2
BRANCH   1  28
ATOM     28  C   UNL A   1      47.008  42.349  29.455  1.00  0.00     0.188 C 
BRANCH  28  29
ATOM     29  O   UNL A   1      46.955  41.153  28.688  1.00  0.00    -0.376 OA
BRANCH  29  30
ATOM     30  C   UNL A   1      47.115  39.932  29.394  1.00  0.00     0.202 C 
BRANCH  30  31
ATOM     31  C   UNL A   1      47.558  38.741  28.529  1.00  0.00     0.261 C 
BRANCH  31  32
ATOM     32  O   UNL A   1      46.760  37.550  28.636  1.00  0.00    -0.460 OA
BRANCH  32  33
ATOM     33  C   UNL A   1      47.337  36.379  28.280  1.00  0.00     0.338 C 
ATOM     34  O   UNL A   1      48.512  36.201  28.009  1.00  0.00    -0.246 OA
BRANCH  33  35
ATOM     35  C   UNL A   1      46.351  35.290  28.459  1.00  0.00     0.060 A 
ATOM     36  C   UNL A   1      46.525  34.394  29.523  1.00  0.00     0.016 A 
ATOM     37  C   UNL A   1      45.276  35.139  27.577  1.00  0.00     0.016 A 
ATOM     38  C   UNL A   1      45.673  33.296  29.658  1.00  0.00     0.010 A 
ATOM     39  C   UNL A   1      44.434  34.031  27.704  1.00  0.00     0.010 A 
ATOM     40  C   UNL A   1      44.664  33.076  28.711  1.00  0.00    -0.014 A 
BRANCH  40  41
ATOM     41  C   UNL A   1      44.051  31.727  28.591  1.00  0.00     0.031 A 
ATOM     42  C   UNL A   1      44.813  30.687  27.811  1.00  0.00     0.074 A 
ATOM     43  C   UNL A   1      42.869  31.422  29.154  1.00  0.00     0.049 A 
ATOM     44  N   UNL A   1      44.473  29.466  27.490  1.00  0.00    -0.248 NA
ATOM     45  C   UNL A   1      46.142  31.089  27.321  1.00  0.00     0.031 C 
ATOM     46  C   UNL A   1      42.062  32.321  29.974  1.00  0.00     0.029 A 
ATOM     47  N   UNL A   1      42.138  30.260  29.107  1.00  0.00    -0.354 N 
ATOM     48  C   UNL A   1      45.541  28.958  26.755  1.00  0.00     0.074 A 
ATOM     49  C   UNL A   1      46.521  30.016  26.648  1.00  0.00     0.031 C 
ATOM     50  C   UNL A   1      40.937  31.682  30.341  1.00  0.00     0.029 A 
ATOM     51  C   UNL A   1      40.924  30.343  29.750  1.00  0.00     0.049 A 
ATOM     52  H   UNL A   1      42.453  29.443  28.655  1.00  0.00     0.167 HD
ATOM     53  C   UNL A   1      45.695  27.720  26.225  1.00  0.00     0.034 A 
ATOM     54  C   UNL A   1      39.913  29.451  29.823  1.00  0.00     0.034 A 
ATOM     55  C   UNL A   1      44.702  26.680  26.322  1.00  0.00     0.049 A 
ATOM     56  C   UNL A   1      40.063  28.109  29.140  1.00  0.00     0.074 A 
ATOM     57  C   UNL A   1      44.755  25.390  25.826  1.00  0.00     0.029 A 
ATOM     58  N   UNL A   1      43.468  26.818  26.943  1.00  0.00    -0.354 N 
ATOM     59  N   UNL A   1      41.080  27.637  28.453  1.00  0.00    -0.248 NA
ATOM     60  C   UNL A   1      38.931  27.179  29.247  1.00  0.00     0.031 C 
ATOM     61  C   UNL A   1      43.527  24.773  26.081  1.00  0.00     0.029 A 
ATOM     62  C   UNL A   1      42.738  25.647  26.812  1.00  0.00     0.049 A 
ATOM     63  H   UNL A   1      43.158  27.628  27.408  1.00  0.00     0.167 HD
ATOM     64  C   UNL A   1      40.719  26.343  28.079  1.00  0.00     0.074 A 
ATOM     65  C   UNL A   1      39.399  26.107  28.624  1.00  0.00     0.031 C 
ATOM     66  C   UNL A   1      41.418  25.428  27.356  1.00  0.00     0.034 A 
BRANCH  53  67
ATOM     67  C   UNL A   1      46.959  27.459  25.441  1.00  0.00     0.023 A 
ATOM     68  C   UNL A   1      47.101  27.869  24.103  1.00  0.00     0.031 A 
ATOM     69  C   UNL A   1      48.020  26.748  26.028  1.00  0.00     0.131 A 
ATOM     70  C   UNL A   1      48.243  27.501  23.376  1.00  0.00     0.055 A 
ATOM     71  C   UNL A   1      49.190  26.457  25.324  1.00  0.00     0.041 A 
ATOM     72  F   UNL A   1      47.930  26.306  27.293  1.00  0.00    -0.206 F 
ATOM     73  C   UNL A   1      49.300  26.821  23.986  1.00  0.00     0.022 A 
BRANCH  70  74
ATOM     74  S   UNL A   1      48.262  27.791  21.586  1.00  0.00     0.124 S 
ATOM     75  O   UNL A   1      49.321  28.791  21.460  1.00  0.00    -0.237 OA
ATOM     76  O   UNL A   1      48.565  26.468  21.055  1.00  0.00    -0.237 OA
ATOM     77  O   UNL A   1      46.915  28.284  21.305  1.00  0.00    -0.744 OA
ENDBRANCH  70  74
ENDBRANCH  53  67
BRANCH  54  78
ATOM     78  C   UNL A   1      38.642  29.801  30.524  1.00  0.00     0.023 A 
ATOM     79  C   UNL A   1      37.666  30.600  29.908  1.00  0.00     0.031 A 
ATOM     80  C   UNL A   1      38.417  29.395  31.852  1.00  0.00     0.131 A 
ATOM     81  C   UNL A   1      36.534  31.008  30.633  1.00  0.00     0.055 A 
ATOM     82  C   UNL A   1      37.264  29.757  32.551  1.00  0.00     0.041 A 
ATOM     83  F   UNL A   1      39.320  28.634  32.492  1.00  0.00    -0.206 F 
ATOM     84  C   UNL A   1      36.320  30.581  31.946  1.00  0.00     0.022 A 
BRANCH  81  85
ATOM     85  S   UNL A   1      35.385  32.184  29.865  1.00  0.00     0.124 S 
ATOM     86  O   UNL A   1      34.492  32.495  30.976  1.00  0.00    -0.237 OA
ATOM     87  O   UNL A   1      36.284  33.253  29.445  1.00  0.00    -0.237 OA
ATOM     88  O   UNL A   1      34.786  31.413  28.778  1.00  0.00    -0.744 OA
ENDBRANCH  81  85
ENDBRANCH  54  78
BRANCH  66  89
ATOM     89  C   UNL A   1      40.788  24.068  27.163  1.00  0.00     0.023 A 
ATOM     90  C   UNL A   1      39.655  23.879  26.354  1.00  0.00     0.031 A 
ATOM     91  C   UNL A   1      41.342  22.940  27.797  1.00  0.00     0.131 A 
ATOM     92  C   UNL A   1      39.079  22.603  26.242  1.00  0.00     0.055 A 
ATOM     93  C   UNL A   1      40.802  21.664  27.633  1.00  0.00     0.041 A 
ATOM     94  F   UNL A   1      42.424  23.060  28.583  1.00  0.00    -0.206 F 
ATOM     95  C   UNL A   1      39.656  21.492  26.862  1.00  0.00     0.022 A 
BRANCH  92  96
ATOM     96  S   UNL A   1      37.511  22.428  25.349  1.00  0.00     0.124 S 
ATOM     97  O   UNL A   1      37.356  23.747  24.744  1.00  0.00    -0.237 OA
ATOM     98  O   UNL A   1      37.797  21.333  24.427  1.00  0.00    -0.237 OA
ATOM     99  O   UNL A   1      36.547  22.113  26.403  1.00  0.00    -0.744 OA
ENDBRANCH  92  96
ENDBRANCH  66  89
ENDBRANCH  40  41
ENDBRANCH  33  35
ENDBRANCH  32  33
ENDBRANCH  31  32
ENDBRANCH  30  31
ENDBRANCH  29  30
ENDBRANCH  28  29
ENDBRANCH   1  28
TORSDOF 25
ENDMDL
MODEL 2
REMARK VINA RESULT:      -8.4      5.562     13.735
REMARK SMILES C[C@@H](NC(=O)N1CC[N@@H+]2CCCC[C@H]2C1)C(=O)OCCOCCOCCOCCOC(=O)c1ccc(-c2c3nc(c(-c4cc(S(=O)(=O)[O-])ccc4F)c4ccc([nH]4)c(-c4cc(S(=O)(=O)[O-])ccc4F)c4nc(c(-c5cc(S(=O)(=O)[O-])ccc5F)c5ccc2[nH]5)C=C4)C=C3)cc1
REMARK SMILES IDX 25 1 24 2 23 3 22 4 21 5 20 6 19 7 18 8 16 9 17 10 2 11 1 12
REMARK SMILES IDX 3 13 4 14 5 16 6 17 7 18 15 19 8 20 14 21 9 22 13 23 10 24
REMARK SMILES IDX 12 26 11 27 26 28 27 29 28 30 29 31 30 32 31 33 32 34 33 35
REMARK SMILES IDX 34 36 95 37 35 38 94 39 36 40 37 41 38 42 88 43 39 44 93 45
REMARK SMILES IDX 87 46 89 47 40 48 92 49 86 50 85 51 41 53 73 54 53 55 72 56
REMARK SMILES IDX 54 57 57 58 71 59 90 60 55 61 56 62 70 64 91 65 58 66 42 67
REMARK SMILES IDX 43 68 51 69 44 70 50 71 52 72 49 73 45 74 46 75 47 76 48 77
REMARK SMILES IDX 74 78 75 79 83 80 76 81 82 82 84 83 81 84 77 85 78 86 79 87
REMARK SMILES IDX 80 88 59 89 60 90 68 91 61 92 67 93 69 94 66 95 62 96 63 97
REMARK SMILES IDX 64 98 65 99
REMARK H PARENT 3 15 9 25 89 52 57 63
REMARK Flexibility Score: inf
ROOT
ATOM      1  C   UNL A   1      37.347  28.953  29.884  1.00  0.00     0.188 C 
ENDROOT
BRANCH   1   2
ATOM      2  O   UNL A   1      36.980  29.377  28.574  1.00  0.00    -0.377 OA
BRANCH   2   3
ATOM      3  C   UNL A   1      35.852  30.213  28.389  1.00  0.00     0.188 C 
BRANCH   3   4
ATOM      4  C   UNL A   1      34.840  29.717  27.335  1.00  0.00     0.188 C 
BRANCH   4   5
ATOM      5  O   UNL A   1      34.764  28.306  27.210  1.00  0.00    -0.376 OA
BRANCH   5   6
ATOM      6  C   UNL A   1      33.684  27.778  26.456  1.00  0.00     0.202 C 
BRANCH   6   7
ATOM      7  C   UNL A   1      32.530  28.707  26.095  1.00  0.00     0.261 C 
BRANCH   7   8
ATOM      8  O   UNL A   1      31.612  28.257  25.108  1.00  0.00    -0.462 OA
BRANCH   8   9
ATOM      9  C   UNL A   1      31.280  29.182  24.177  1.00  0.00     0.328 C 
ATOM     10  O   UNL A   1      30.526  30.129  24.365  1.00  0.00    -0.250 OA
BRANCH   9  11
ATOM     11  C   UNL A   1      31.867  28.811  22.829  1.00  0.00     0.190 C 
ATOM     12  C   UNL A   1      33.393  28.665  22.840  1.00  0.00     0.043 C 
BRANCH  11  13
ATOM     13  N   UNL A   1      31.173  27.686  22.181  1.00  0.00    -0.325 N 
ATOM     14  C   UNL A   1      31.675  26.452  21.916  1.00  0.00     0.318 C 
ATOM     15  H   UNL A   1      30.240  27.846  21.908  1.00  0.00     0.166 HD
ATOM     16  O   UNL A   1      31.637  26.075  20.744  1.00  0.00    -0.249 OA
BRANCH  14  17
ATOM     17  N   UNL A   1      32.170  25.672  22.933  1.00  0.00    -0.313 N 
ATOM     18  C   UNL A   1      31.335  25.224  24.058  1.00  0.00     0.183 C 
ATOM     19  C   UNL A   1      33.170  24.667  22.571  1.00  0.00     0.186 C 
ATOM     20  C   UNL A   1      32.106  24.530  25.234  1.00  0.00     0.284 C 
ATOM     21  C   UNL A   1      34.115  24.437  23.756  1.00  0.00     0.203 C 
ATOM     22  N   UNL A   1      33.432  23.933  24.968  1.00  0.00    -0.330 N 
ATOM     23  C   UNL A   1      35.245  23.460  23.415  1.00  0.00     0.067 C 
ATOM     24  C   UNL A   1      34.348  24.000  26.122  1.00  0.00     0.262 C 
ATOM     25  H   UNL A   1      33.204  22.955  24.790  1.00  0.00     0.348 HD
ATOM     26  C   UNL A   1      36.292  23.503  24.525  1.00  0.00     0.012 C 
ATOM     27  C   UNL A   1      35.660  23.234  25.891  1.00  0.00     0.062 C 
ENDBRANCH  14  17
ENDBRANCH  11  13
ENDBRANCH   9  11
ENDBRANCH   8   9
ENDBRANCH   7   8
ENDBRANCH   6   7
ENDBRANCH   5   6
ENDBRANCH   4   5
ENDBRANCH   3   4
ENDBRANCH   2   3
ENDBRANCH   1   2
BRANCH   1  28
ATOM     28  C   UNL A   1      38.549  28.023  30.125  1.00  0.00     0.188 C 
BRANCH  28  29
ATOM     29  O   UNL A   1      38.724  27.033  29.119  1.00  0.00    -0.376 OA
BRANCH  29  30
ATOM     30  C   UNL A   1      39.823  27.204  28.236  1.00  0.00     0.202 C 
BRANCH  30  31
ATOM     31  C   UNL A   1      40.444  25.897  27.720  1.00  0.00     0.261 C 
BRANCH  31  32
ATOM     32  O   UNL A   1      40.760  25.856  26.319  1.00  0.00    -0.460 OA
BRANCH  32  33
ATOM     33  C   UNL A   1      42.059  25.995  25.968  1.00  0.00     0.338 C 
ATOM     34  O   UNL A   1      42.698  25.254  25.240  1.00  0.00    -0.246 OA
BRANCH  33  35
ATOM     35  C   UNL A   1      42.544  27.306  26.451  1.00  0.00     0.060 A 
ATOM     36  C   UNL A   1      43.442  27.336  27.527  1.00  0.00     0.016 A 
ATOM     37  C   UNL A   1      42.105  28.497  25.866  1.00  0.00     0.016 A 
ATOM     38  C   UNL A   1      43.839  28.558  28.073  1.00  0.00     0.010 A 
ATOM     39  C   UNL A   1      42.489  29.720  26.424  1.00  0.00     0.010 A 
ATOM     40  C   UNL A   1      43.313  29.752  27.564  1.00  0.00    -0.014 A 
BRANCH  40  41
ATOM     41  C   UNL A   1      43.377  30.992  28.382  1.00  0.00     0.031 A 
ATOM     42  C   UNL A   1      44.474  31.976  28.064  1.00  0.00     0.074 A 
ATOM     43  C   UNL A   1      42.498  31.250  29.366  1.00  0.00     0.049 A 
ATOM     44  N   UNL A   1      44.801  33.088  28.668  1.00  0.00    -0.248 NA
ATOM     45  C   UNL A   1      45.321  31.649  26.905  1.00  0.00     0.031 C 
ATOM     46  C   UNL A   1      41.365  30.407  29.735  1.00  0.00     0.029 A 
ATOM     47  N   UNL A   1      42.434  32.305  30.244  1.00  0.00    -0.354 N 
ATOM     48  C   UNL A   1      45.895  33.589  27.968  1.00  0.00     0.074 A 
ATOM     49  C   UNL A   1      46.196  32.640  26.920  1.00  0.00     0.031 C 
ATOM     50  C   UNL A   1      40.725  30.969  30.776  1.00  0.00     0.029 A 
ATOM     51  C   UNL A   1      41.426  32.191  31.173  1.00  0.00     0.049 A 
ATOM     52  H   UNL A   1      43.052  33.071  30.211  1.00  0.00     0.167 HD
ATOM     53  C   UNL A   1      46.581  34.739  28.175  1.00  0.00     0.034 A 
ATOM     54  C   UNL A   1      41.128  32.968  32.237  1.00  0.00     0.034 A 
ATOM     55  C   UNL A   1      46.284  35.668  29.236  1.00  0.00     0.049 A 
ATOM     56  C   UNL A   1      41.968  34.196  32.510  1.00  0.00     0.074 A 
ATOM     57  C   UNL A   1      46.910  36.864  29.535  1.00  0.00     0.029 A 
ATOM     58  N   UNL A   1      45.284  35.495  30.183  1.00  0.00    -0.354 N 
ATOM     59  N   UNL A   1      42.997  34.664  31.838  1.00  0.00    -0.248 NA
ATOM     60  C   UNL A   1      41.603  35.003  33.682  1.00  0.00     0.031 C 
ATOM     61  C   UNL A   1      46.340  37.376  30.705  1.00  0.00     0.029 A 
ATOM     62  C   UNL A   1      45.299  36.545  31.088  1.00  0.00     0.049 A 
ATOM     63  H   UNL A   1      44.655  34.738  30.209  1.00  0.00     0.167 HD
ATOM     64  C   UNL A   1      43.375  35.838  32.489  1.00  0.00     0.074 A 
ATOM     65  C   UNL A   1      42.460  36.011  33.597  1.00  0.00     0.031 C 
ATOM     66  C   UNL A   1      44.383  36.700  32.194  1.00  0.00     0.034 A 
BRANCH  53  67
ATOM     67  C   UNL A   1      47.758  35.012  27.269  1.00  0.00     0.023 A 
ATOM     68  C   UNL A   1      49.059  34.588  27.593  1.00  0.00     0.031 A 
ATOM     69  C   UNL A   1      47.582  35.748  26.084  1.00  0.00     0.131 A 
ATOM     70  C   UNL A   1      50.140  34.966  26.783  1.00  0.00     0.055 A 
ATOM     71  C   UNL A   1      48.651  36.050  25.238  1.00  0.00     0.041 A 
ATOM     72  F   UNL A   1      46.367  36.204  25.736  1.00  0.00    -0.206 F 
ATOM     73  C   UNL A   1      49.941  35.672  25.594  1.00  0.00     0.022 A 
BRANCH  70  74
ATOM     74  S   UNL A   1      51.823  34.654  27.383  1.00  0.00     0.124 S 
ATOM     75  O   UNL A   1      51.843  35.429  28.622  1.00  0.00    -0.237 OA
ATOM     76  O   UNL A   1      51.840  33.204  27.535  1.00  0.00    -0.237 OA
ATOM     77  O   UNL A   1      52.671  35.180  26.315  1.00  0.00    -0.744 OA
ENDBRANCH  70  74
ENDBRANCH  53  67
BRANCH  54  78
ATOM     78  C   UNL A   1      40.017  32.595  33.162  1.00  0.00     0.023 A 
ATOM     79  C   UNL A   1      38.718  33.097  32.981  1.00  0.00     0.031 A 
ATOM     80  C   UNL A   1      40.258  31.784  34.285  1.00  0.00     0.131 A 
ATOM     81  C   UNL A   1      37.722  32.822  33.932  1.00  0.00     0.055 A 
ATOM     82  C   UNL A   1      39.250  31.468  35.199  1.00  0.00     0.041 A 
ATOM     83  F   UNL A   1      41.483  31.282  34.511  1.00  0.00    -0.206 F 
ATOM     84  C   UNL A   1      37.976  32.000  35.032  1.00  0.00     0.022 A 
BRANCH  81  85
ATOM     85  S   UNL A   1      36.107  33.631  33.760  1.00  0.00     0.124 S 
ATOM     86  O   UNL A   1      35.488  32.837  32.704  1.00  0.00    -0.237 OA
ATOM     87  O   UNL A   1      35.544  33.471  35.096  1.00  0.00    -0.237 OA
ATOM     88  O   UNL A   1      36.451  35.003  33.390  1.00  0.00    -0.744 OA
ENDBRANCH  81  85
ENDBRANCH  54  78
BRANCH  66  89
ATOM     89  C   UNL A   1      44.512  37.939  33.052  1.00  0.00     0.023 A 
ATOM     90  C   UNL A   1      43.821  39.125  32.757  1.00  0.00     0.031 A 
ATOM     91  C   UNL A   1      45.340  37.922  34.190  1.00  0.00     0.131 A 
ATOM     92  C   UNL A   1      44.009  40.263  33.558  1.00  0.00     0.055 A 
ATOM     93  C   UNL A   1      45.475  39.037  35.018  1.00  0.00     0.041 A 
ATOM     94  F   UNL A   1      46.026  36.816  34.521  1.00  0.00    -0.206 F 
ATOM     95  C   UNL A   1      44.818  40.221  34.696  1.00  0.00     0.022 A 
BRANCH  92  96
ATOM     96  S   UNL A   1      43.254  41.829  33.042  1.00  0.00     0.124 S 
ATOM     97  O   UNL A   1      43.252  42.591  34.286  1.00  0.00    -0.237 OA
ATOM     98  O   UNL A   1      44.175  42.295  32.011  1.00  0.00    -0.237 OA
ATOM     99  O   UNL A   1      41.933  41.430  32.557  1.00  0.00    -0.744 OA
ENDBRANCH  92  96
ENDBRANCH  66  89
ENDBRANCH  40  41
ENDBRANCH  33  35
ENDBRANCH  32  33
ENDBRANCH  31  32
ENDBRANCH  30  31
ENDBRANCH  29  30
ENDBRANCH  28  29
ENDBRANCH   1  28
TORSDOF 25
ENDMDL
MODEL 3
REMARK VINA RESULT:      -8.2      5.314     12.877
REMARK SMILES C[C@@H](NC(=O)N1CC[N@@H+]2CCCC[C@H]2C1)C(=O)OCCOCCOCCOCCOC(=O)c1ccc(-c2c3nc(c(-c4cc(S(=O)(=O)[O-])ccc4F)c4ccc([nH]4)c(-c4cc(S(=O)(=O)[O-])ccc4F)c4nc(c(-c5cc(S(=O)(=O)[O-])ccc5F)c5ccc2[nH]5)C=C4)C=C3)cc1
REMARK SMILES IDX 25 1 24 2 23 3 22 4 21 5 20 6 19 7 18 8 16 9 17 10 2 11 1 12
REMARK SMILES IDX 3 13 4 14 5 16 6 17 7 18 15 19 8 20 14 21 9 22 13 23 10 24
REMARK SMILES IDX 12 26 11 27 26 28 27 29 28 30 29 31 30 32 31 33 32 34 33 35
REMARK SMILES IDX 34 36 95 37 35 38 94 39 36 40 37 41 38 42 88 43 39 44 93 45
REMARK SMILES IDX 87 46 89 47 40 48 92 49 86 50 85 51 41 53 73 54 53 55 72 56
REMARK SMILES IDX 54 57 57 58 71 59 90 60 55 61 56 62 70 64 91 65 58 66 42 67
REMARK SMILES IDX 43 68 51 69 44 70 50 71 52 72 49 73 45 74 46 75 47 76 48 77
REMARK SMILES IDX 74 78 75 79 83 80 76 81 82 82 84 83 81 84 77 85 78 86 79 87
REMARK SMILES IDX 80 88 59 89 60 90 68 91 61 92 67 93 69 94 66 95 62 96 63 97
REMARK SMILES IDX 64 98 65 99
REMARK H PARENT 3 15 9 25 89 52 57 63
REMARK Flexibility Score: inf
ROOT
ATOM      1  C   UNL A   1      34.491  32.885  28.974  1.00  0.00     0.188 C 
ENDROOT
BRANCH   1   2
ATOM      2  O   UNL A   1      34.232  31.558  28.522  1.00  0.00    -0.377 OA
BRANCH   2   3
ATOM      3  C   UNL A   1      35.132  30.925  27.631  1.00  0.00     0.188 C 
BRANCH   3   4
ATOM      4  C   UNL A   1      35.970  29.788  28.251  1.00  0.00     0.188 C 
BRANCH   4   5
ATOM      5  O   UNL A   1      37.367  30.033  28.276  1.00  0.00    -0.376 OA
BRANCH   5   6
ATOM      6  C   UNL A   1      38.132  29.334  29.246  1.00  0.00     0.202 C 
BRANCH   6   7
ATOM      7  C   UNL A   1      39.648  29.490  29.223  1.00  0.00     0.261 C 
BRANCH   7   8
ATOM      8  O   UNL A   1      40.341  28.993  28.086  1.00  0.00    -0.462 OA
BRANCH   8   9
ATOM      9  C   UNL A   1      41.432  28.244  28.368  1.00  0.00     0.328 C 
ATOM     10  O   UNL A   1      42.387  28.617  29.038  1.00  0.00    -0.250 OA
BRANCH   9  11
ATOM     11  C   UNL A   1      41.371  26.920  27.631  1.00  0.00     0.190 C 
ATOM     12  C   UNL A   1      40.299  25.965  28.169  1.00  0.00     0.043 C 
BRANCH  11  13
ATOM     13  N   UNL A   1      41.344  27.069  26.167  1.00  0.00    -0.325 N 
ATOM     14  C   UNL A   1      42.399  27.308  25.344  1.00  0.00     0.318 C 
ATOM     15  H   UNL A   1      40.462  26.989  25.735  1.00  0.00     0.166 HD
ATOM     16  O   UNL A   1      42.328  28.302  24.621  1.00  0.00    -0.249 OA
BRANCH  14  17
ATOM     17  N   UNL A   1      43.469  26.446  25.323  1.00  0.00    -0.313 N 
ATOM     18  C   UNL A   1      44.849  26.901  25.547  1.00  0.00     0.183 C 
ATOM     19  C   UNL A   1      43.250  25.104  25.863  1.00  0.00     0.186 C 
ATOM     20  C   UNL A   1      45.964  25.833  25.273  1.00  0.00     0.284 C 
ATOM     21  C   UNL A   1      44.164  24.107  25.142  1.00  0.00     0.203 C 
ATOM     22  N   UNL A   1      45.605  24.398  25.310  1.00  0.00    -0.330 N 
ATOM     23  C   UNL A   1      43.922  22.665  25.597  1.00  0.00     0.067 C 
ATOM     24  C   UNL A   1      46.394  23.573  24.377  1.00  0.00     0.262 C 
ATOM     25  H   UNL A   1      45.848  24.133  26.264  1.00  0.00     0.348 HD
ATOM     26  C   UNL A   1      44.647  21.715  24.647  1.00  0.00     0.012 C 
ATOM     27  C   UNL A   1      46.130  22.067  24.539  1.00  0.00     0.062 C 
ENDBRANCH  14  17
ENDBRANCH  11  13
ENDBRANCH   9  11
ENDBRANCH   8   9
ENDBRANCH   7   8
ENDBRANCH   6   7
ENDBRANCH   5   6
ENDBRANCH   4   5
ENDBRANCH   3   4
ENDBRANCH   2   3
ENDBRANCH   1   2
BRANCH   1  28
ATOM     28  C   UNL A   1      34.802  33.189  30.450  1.00  0.00     0.188 C 
BRANCH  28  29
ATOM     29  O   UNL A   1      34.601  34.549  30.816  1.00  0.00    -0.376 OA
BRANCH  29  30
ATOM     30  C   UNL A   1      34.653  34.854  32.201  1.00  0.00     0.202 C 
BRANCH  30  31
ATOM     31  C   UNL A   1      34.048  33.781  33.120  1.00  0.00     0.261 C 
BRANCH  31  32
ATOM     32  O   UNL A   1      34.949  32.762  33.583  1.00  0.00    -0.460 OA
BRANCH  32  33
ATOM     33  C   UNL A   1      35.960  33.145  34.395  1.00  0.00     0.338 C 
ATOM     34  O   UNL A   1      35.865  33.825  35.402  1.00  0.00    -0.246 OA
BRANCH  33  35
ATOM     35  C   UNL A   1      37.195  32.443  33.979  1.00  0.00     0.060 A 
ATOM     36  C   UNL A   1      38.297  32.452  34.846  1.00  0.00     0.016 A 
ATOM     37  C   UNL A   1      37.276  31.800  32.740  1.00  0.00     0.016 A 
ATOM     38  C   UNL A   1      39.508  31.888  34.441  1.00  0.00     0.010 A 
ATOM     39  C   UNL A   1      38.494  31.251  32.329  1.00  0.00     0.010 A 
ATOM     40  C   UNL A   1      39.629  31.343  33.156  1.00  0.00    -0.014 A 
BRANCH  40  41
ATOM     41  C   UNL A   1      40.979  31.143  32.566  1.00  0.00     0.031 A 
ATOM     42  C   UNL A   1      41.595  32.310  31.835  1.00  0.00     0.074 A 
ATOM     43  C   UNL A   1      41.646  29.982  32.673  1.00  0.00     0.049 A 
ATOM     44  N   UNL A   1      42.716  32.381  31.167  1.00  0.00    -0.248 NA
ATOM     45  C   UNL A   1      40.829  33.567  31.860  1.00  0.00     0.031 C 
ATOM     46  C   UNL A   1      41.182  28.801  33.396  1.00  0.00     0.029 A 
ATOM     47  N   UNL A   1      42.862  29.606  32.158  1.00  0.00    -0.354 N 
ATOM     48  C   UNL A   1      42.787  33.685  30.687  1.00  0.00     0.074 A 
ATOM     49  C   UNL A   1      41.578  34.357  31.109  1.00  0.00     0.031 C 
ATOM     50  C   UNL A   1      42.097  27.824  33.265  1.00  0.00     0.029 A 
ATOM     51  C   UNL A   1      43.193  28.296  32.417  1.00  0.00     0.049 A 
ATOM     52  H   UNL A   1      43.445  30.218  31.651  1.00  0.00     0.167 HD
ATOM     53  C   UNL A   1      43.773  34.273  29.966  1.00  0.00     0.034 A 
ATOM     54  C   UNL A   1      44.241  27.560  31.990  1.00  0.00     0.034 A 
ATOM     55  C   UNL A   1      44.965  33.587  29.535  1.00  0.00     0.049 A 
ATOM     56  C   UNL A   1      45.283  28.207  31.103  1.00  0.00     0.074 A 
ATOM     57  C   UNL A   1      46.029  34.085  28.805  1.00  0.00     0.029 A 
ATOM     58  N   UNL A   1      45.241  32.248  29.779  1.00  0.00    -0.354 N 
ATOM     59  N   UNL A   1      45.343  29.443  30.660  1.00  0.00    -0.248 NA
ATOM     60  C   UNL A   1      46.400  27.360  30.664  1.00  0.00     0.031 C 
ATOM     61  C   UNL A   1      46.911  33.032  28.543  1.00  0.00     0.029 A 
ATOM     62  C   UNL A   1      46.442  31.895  29.184  1.00  0.00     0.049 A 
ATOM     63  H   UNL A   1      44.669  31.639  30.299  1.00  0.00     0.167 HD
ATOM     64  C   UNL A   1      46.522  29.526  29.920  1.00  0.00     0.074 A 
ATOM     65  C   UNL A   1      47.146  28.221  29.986  1.00  0.00     0.031 C 
ATOM     66  C   UNL A   1      47.049  30.586  29.253  1.00  0.00     0.034 A 
BRANCH  53  67
ATOM     67  C   UNL A   1      43.562  35.709  29.553  1.00  0.00     0.023 A 
ATOM     68  C   UNL A   1      44.083  36.781  30.300  1.00  0.00     0.031 A 
ATOM     69  C   UNL A   1      42.788  36.012  28.419  1.00  0.00     0.131 A 
ATOM     70  C   UNL A   1      43.762  38.101  29.948  1.00  0.00     0.055 A 
ATOM     71  C   UNL A   1      42.542  37.329  28.025  1.00  0.00     0.041 A 
ATOM     72  F   UNL A   1      42.241  35.031  27.683  1.00  0.00    -0.206 F 
ATOM     73  C   UNL A   1      43.017  38.382  28.800  1.00  0.00     0.022 A 
BRANCH  70  74
ATOM     74  S   UNL A   1      44.204  39.435  31.093  1.00  0.00     0.124 S 
ATOM     75  O   UNL A   1      45.525  39.822  30.601  1.00  0.00    -0.237 OA
ATOM     76  O   UNL A   1      43.134  40.402  30.880  1.00  0.00    -0.237 OA
ATOM     77  O   UNL A   1      44.203  38.780  32.400  1.00  0.00    -0.744 OA
ENDBRANCH  70  74
ENDBRANCH  53  67
BRANCH  54  78
ATOM     78  C   UNL A   1      44.348  26.113  32.344  1.00  0.00     0.023 A 
ATOM     79  C   UNL A   1      44.814  25.704  33.604  1.00  0.00     0.031 A 
ATOM     80  C   UNL A   1      44.050  25.117  31.397  1.00  0.00     0.131 A 
ATOM     81  C   UNL A   1      45.013  24.339  33.867  1.00  0.00     0.055 A 
ATOM     82  C   UNL A   1      44.197  23.758  31.683  1.00  0.00     0.041 A 
ATOM     83  F   UNL A   1      43.606  25.452  30.175  1.00  0.00    -0.206 F 
ATOM     84  C   UNL A   1      44.695  23.363  32.920  1.00  0.00     0.022 A 
BRANCH  81  85
ATOM     85  S   UNL A   1      45.784  23.859  35.439  1.00  0.00     0.124 S 
ATOM     86  O   UNL A   1      46.133  25.157  36.006  1.00  0.00    -0.237 OA
ATOM     87  O   UNL A   1      44.700  23.140  36.100  1.00  0.00    -0.237 OA
ATOM     88  O   UNL A   1      46.916  23.032  35.025  1.00  0.00    -0.744 OA
ENDBRANCH  81  85
ENDBRANCH  54  78
BRANCH  66  89
ATOM     89  C   UNL A   1      48.392  30.391  28.587  1.00  0.00     0.023 A 
ATOM     90  C   UNL A   1      49.593  30.778  29.205  1.00  0.00     0.031 A 
ATOM     91  C   UNL A   1      48.466  29.801  27.312  1.00  0.00     0.131 A 
ATOM     92  C   UNL A   1      50.812  30.619  28.527  1.00  0.00     0.055 A 
ATOM     93  C   UNL A   1      49.686  29.588  26.668  1.00  0.00     0.041 A 
ATOM     94  F   UNL A   1      47.351  29.412  26.672  1.00  0.00    -0.206 F 
ATOM     95  C   UNL A   1      50.867  30.010  27.270  1.00  0.00     0.022 A 
BRANCH  92  96
ATOM     96  S   UNL A   1      52.320  31.301  29.269  1.00  0.00     0.124 S 
ATOM     97  O   UNL A   1      51.918  31.485  30.660  1.00  0.00    -0.237 OA
ATOM     98  O   UNL A   1      53.295  30.244  29.023  1.00  0.00    -0.237 OA
ATOM     99  O   UNL A   1      52.544  32.537  28.519  1.00  0.00    -0.744 OA
ENDBRANCH  92  96
ENDBRANCH  66  89
ENDBRANCH  40  41
ENDBRANCH  33  35
ENDBRANCH  32  33
ENDBRANCH  31  32
ENDBRANCH  30  31
ENDBRANCH  29  30
ENDBRANCH  28  29
ENDBRANCH   1  28
TORSDOF 25
ENDMDL
