MODEL 1
REMARK VINA RESULT:      -7.4      0.000      0.000
REMARK SMILES C[C@H](C(=O)OCCOCCOCCOCCOC(=O)c1ccc(-c2c3nc(c(-c4cc(S(=O)(=O)[O-])ccc4F)c4ccc([nH]4)c(-c4cc(S(=O)(=O)[O-])ccc4F)c4nc(c(-c5cc(S(=O)(=O)[O-])ccc5F)c5ccc2[nH]5)C=C4)C=C3)cc1)[C@H](C)[N@H+]1CC[C@H]([NH+]2CCCCC2)C1
REMARK SMILES IDX 11 1 10 2 9 3 8 4 7 5 6 6 5 7 3 8 4 9 2 10 1 11 83 12 84 13
REMARK SMILES IDX 85 14 86 15 95 16 87 18 88 19 89 20 90 21 94 22 91 24 93 25
REMARK SMILES IDX 92 26 12 27 13 28 14 29 15 30 16 31 17 32 18 33 19 34 20 35
REMARK SMILES IDX 21 36 82 37 22 38 81 39 23 40 24 41 25 42 75 43 26 44 80 45
REMARK SMILES IDX 74 46 76 47 27 48 79 49 73 50 72 51 28 53 60 54 40 55 59 56
REMARK SMILES IDX 41 57 44 58 58 59 77 60 42 61 43 62 57 64 78 65 45 66 29 67
REMARK SMILES IDX 30 68 38 69 31 70 37 71 39 72 36 73 32 74 33 75 34 76 35 77
REMARK SMILES IDX 61 78 62 79 70 80 63 81 69 82 71 83 68 84 64 85 65 86 66 87
REMARK SMILES IDX 67 88 46 89 47 90 55 91 48 92 54 93 56 94 53 95 49 96 50 97
REMARK SMILES IDX 51 98 52 99
REMARK H PARENT 85 17 89 23 76 52 44 63
REMARK Flexibility Score: inf
ROOT
ATOM      1  O   UNL A   1      42.753  22.833  27.612  1.00  0.00    -0.377 OA
ENDROOT
BRANCH   1   2
ATOM      2  C   UNL A   1      41.891  23.421  26.668  1.00  0.00     0.188 C 
BRANCH   2   3
ATOM      3  C   UNL A   1      40.457  22.923  26.803  1.00  0.00     0.188 C 
BRANCH   3   4
ATOM      4  O   UNL A   1      39.506  23.787  27.417  1.00  0.00    -0.376 OA
BRANCH   4   5
ATOM      5  C   UNL A   1      39.771  25.181  27.387  1.00  0.00     0.202 C 
BRANCH   5   6
ATOM      6  C   UNL A   1      39.416  25.953  28.672  1.00  0.00     0.261 C 
BRANCH   6   7
ATOM      7  O   UNL A   1      40.375  26.895  29.222  1.00  0.00    -0.463 OA
BRANCH   7   8
ATOM      8  C   UNL A   1      39.933  28.132  29.569  1.00  0.00     0.314 C 
ATOM      9  O   UNL A   1      40.606  29.148  29.408  1.00  0.00    -0.252 OA
BRANCH   8  10
ATOM     10  C   UNL A   1      38.550  28.197  30.261  1.00  0.00     0.154 C 
ATOM     11  C   UNL A   1      38.712  28.042  31.779  1.00  0.00     0.026 C 
BRANCH  10  12
ATOM     12  C   UNL A   1      37.483  29.291  29.887  1.00  0.00     0.195 C 
ATOM     13  C   UNL A   1      37.158  29.152  28.384  1.00  0.00     0.076 C 
BRANCH  12  14
ATOM     14  N   UNL A   1      37.840  30.641  30.330  1.00  0.00    -0.327 N 
ATOM     15  C   UNL A   1      38.332  31.624  29.366  1.00  0.00     0.269 C 
ATOM     16  C   UNL A   1      36.888  31.438  31.127  1.00  0.00     0.328 C 
ATOM     17  H   UNL A   1      38.587  30.246  30.901  1.00  0.00     0.348 HD
ATOM     18  C   UNL A   1      38.781  32.708  30.341  1.00  0.00     0.132 C 
ATOM     19  C   UNL A   1      37.707  32.730  31.443  1.00  0.00     0.245 C 
BRANCH  19  20
ATOM     20  N   UNL A   1      38.194  32.946  32.814  1.00  0.00    -0.328 N 
ATOM     21  C   UNL A   1      38.997  34.452  33.214  1.00  0.00     0.262 C 
ATOM     22  C   UNL A   1      37.466  31.934  34.120  1.00  0.00     0.262 C 
ATOM     23  H   UNL A   1      39.085  32.453  32.751  1.00  0.00     0.348 HD
ATOM     24  C   UNL A   1      39.351  35.017  34.993  1.00  0.00     0.062 C 
ATOM     25  C   UNL A   1      37.876  32.269  36.060  1.00  0.00     0.062 C 
ATOM     26  C   UNL A   1      38.733  33.977  36.483  1.00  0.00     0.012 C 
ENDBRANCH  19  20
ENDBRANCH  12  14
ENDBRANCH  10  12
ENDBRANCH   8  10
ENDBRANCH   7   8
ENDBRANCH   6   7
ENDBRANCH   5   6
ENDBRANCH   4   5
ENDBRANCH   3   4
ENDBRANCH   2   3
ENDBRANCH   1   2
BRANCH   1  27
ATOM     27  C   UNL A   1      42.660  23.388  28.906  1.00  0.00     0.188 C 
BRANCH  27  28
ATOM     28  C   UNL A   1      43.340  24.779  29.113  1.00  0.00     0.188 C 
BRANCH  28  29
ATOM     29  O   UNL A   1      44.483  25.008  30.224  1.00  0.00    -0.376 OA
BRANCH  29  30
ATOM     30  C   UNL A   1      44.855  25.427  32.069  1.00  0.00     0.202 C 
BRANCH  30  31
ATOM     31  C   UNL A   1      44.007  26.355  33.300  1.00  0.00     0.261 C 
BRANCH  31  32
ATOM     32  O   UNL A   1      42.828  27.205  33.065  1.00  0.00    -0.460 OA
BRANCH  32  33
ATOM     33  C   UNL A   1      41.889  27.506  34.011  1.00  0.00     0.338 C 
ATOM     34  O   UNL A   1      41.215  26.701  34.639  1.00  0.00    -0.246 OA
BRANCH  33  35
ATOM     35  C   UNL A   1      41.993  28.963  34.387  1.00  0.00     0.060 A 
ATOM     36  C   UNL A   1      40.896  29.834  34.224  1.00  0.00     0.016 A 
ATOM     37  C   UNL A   1      43.169  29.473  34.939  1.00  0.00     0.016 A 
ATOM     38  C   UNL A   1      41.003  31.208  34.528  1.00  0.00     0.010 A 
ATOM     39  C   UNL A   1      43.284  30.846  35.222  1.00  0.00     0.010 A 
ATOM     40  C   UNL A   1      42.223  31.739  34.967  1.00  0.00    -0.014 A 
BRANCH  40  41
ATOM     41  C   UNL A   1      42.520  33.206  34.859  1.00  0.00     0.031 A 
ATOM     42  C   UNL A   1      42.722  33.768  33.468  1.00  0.00     0.074 A 
ATOM     43  C   UNL A   1      42.641  34.037  35.914  1.00  0.00     0.049 A 
ATOM     44  N   UNL A   1      43.112  34.959  33.089  1.00  0.00    -0.248 NA
ATOM     45  C   UNL A   1      42.456  32.843  32.355  1.00  0.00     0.031 C 
ATOM     46  C   UNL A   1      42.416  33.681  37.312  1.00  0.00     0.029 A 
ATOM     47  N   UNL A   1      43.002  35.368  35.964  1.00  0.00    -0.354 N 
ATOM     48  C   UNL A   1      43.154  34.920  31.697  1.00  0.00     0.074 A 
ATOM     49  C   UNL A   1      42.780  33.578  31.305  1.00  0.00     0.031 C 
ATOM     50  C   UNL A   1      42.653  34.762  38.081  1.00  0.00     0.029 A 
ATOM     51  C   UNL A   1      43.092  35.879  37.241  1.00  0.00     0.049 A 
ATOM     52  H   UNL A   1      43.179  35.906  35.159  1.00  0.00     0.167 HD
ATOM     53  C   UNL A   1      43.471  35.905  30.819  1.00  0.00     0.034 A 
ATOM     54  C   UNL A   1      43.504  37.089  37.685  1.00  0.00     0.034 A 
ATOM     55  C   UNL A   1      43.853  37.242  31.200  1.00  0.00     0.049 A 
ATOM     56  C   UNL A   1      43.962  38.143  36.693  1.00  0.00     0.074 A 
ATOM     57  C   UNL A   1      44.169  38.310  30.379  1.00  0.00     0.029 A 
ATOM     58  N   UNL A   1      43.991  37.692  32.504  1.00  0.00    -0.354 N 
ATOM     59  N   UNL A   1      43.998  38.091  35.382  1.00  0.00    -0.248 NA
ATOM     60  C   UNL A   1      44.439  39.421  37.248  1.00  0.00     0.031 C 
ATOM     61  C   UNL A   1      44.584  39.377  31.183  1.00  0.00     0.029 A 
ATOM     62  C   UNL A   1      44.431  39.008  32.509  1.00  0.00     0.049 A 
ATOM     63  H   UNL A   1      43.804  37.157  33.310  1.00  0.00     0.167 HD
ATOM     64  C   UNL A   1      44.457  39.340  34.960  1.00  0.00     0.074 A 
ATOM     65  C   UNL A   1      44.680  40.127  36.153  1.00  0.00     0.031 C 
ATOM     66  C   UNL A   1      44.663  39.797  33.697  1.00  0.00     0.034 A 
BRANCH  53  67
ATOM     67  C   UNL A   1      43.476  35.548  29.351  1.00  0.00     0.023 A 
ATOM     68  C   UNL A   1      44.624  35.056  28.708  1.00  0.00     0.031 A 
ATOM     69  C   UNL A   1      42.313  35.725  28.579  1.00  0.00     0.131 A 
ATOM     70  C   UNL A   1      44.605  34.825  27.324  1.00  0.00     0.055 A 
ATOM     71  C   UNL A   1      42.277  35.411  27.220  1.00  0.00     0.041 A 
ATOM     72  F   UNL A   1      41.194  36.215  29.133  1.00  0.00    -0.206 F 
ATOM     73  C   UNL A   1      43.432  34.972  26.581  1.00  0.00     0.022 A 
BRANCH  70  74
ATOM     74  S   UNL A   1      46.173  34.472  26.483  1.00  0.00     0.124 S 
ATOM     75  O   UNL A   1      46.479  33.132  26.978  1.00  0.00    -0.237 OA
ATOM     76  O   UNL A   1      45.804  34.564  25.075  1.00  0.00    -0.237 OA
ATOM     77  O   UNL A   1      47.065  35.525  26.965  1.00  0.00    -0.744 OA
ENDBRANCH  70  74
ENDBRANCH  53  67
BRANCH  54  78
ATOM     78  C   UNL A   1      43.561  37.390  39.151  1.00  0.00     0.023 A 
ATOM     79  C   UNL A   1      44.707  37.101  39.912  1.00  0.00     0.031 A 
ATOM     80  C   UNL A   1      42.434  37.889  39.830  1.00  0.00     0.131 A 
ATOM     81  C   UNL A   1      44.686  37.268  41.307  1.00  0.00     0.055 A 
ATOM     82  C   UNL A   1      42.438  38.108  41.210  1.00  0.00     0.041 A 
ATOM     83  F   UNL A   1      41.304  38.166  39.159  1.00  0.00    -0.206 F 
ATOM     84  C   UNL A   1      43.565  37.786  41.958  1.00  0.00     0.022 A 
BRANCH  81  85
ATOM     85  S   UNL A   1      46.117  36.713  42.278  1.00  0.00     0.124 S 
ATOM     86  O   UNL A   1      45.483  35.859  43.275  1.00  0.00    -0.237 OA
ATOM     87  O   UNL A   1      46.923  36.033  41.269  1.00  0.00    -0.237 OA
ATOM     88  O   UNL A   1      46.685  37.958  42.791  1.00  0.00    -0.744 OA
ENDBRANCH  81  85
ENDBRANCH  54  78
BRANCH  66  89
ATOM     89  C   UNL A   1      45.097  41.237  33.527  1.00  0.00     0.023 A 
ATOM     90  C   UNL A   1      44.194  42.311  33.634  1.00  0.00     0.031 A 
ATOM     91  C   UNL A   1      46.445  41.540  33.260  1.00  0.00     0.131 A 
ATOM     92  C   UNL A   1      44.640  43.627  33.424  1.00  0.00     0.055 A 
ATOM     93  C   UNL A   1      46.895  42.854  33.117  1.00  0.00     0.041 A 
ATOM     94  F   UNL A   1      47.356  40.560  33.144  1.00  0.00    -0.206 F 
ATOM     95  C   UNL A   1      45.988  43.906  33.185  1.00  0.00     0.022 A 
BRANCH  92  96
ATOM     96  S   UNL A   1      43.418  44.968  33.372  1.00  0.00     0.124 S 
ATOM     97  O   UNL A   1      44.176  46.090  33.915  1.00  0.00    -0.237 OA
ATOM     98  O   UNL A   1      43.099  45.043  31.950  1.00  0.00    -0.237 OA
ATOM     99  O   UNL A   1      42.335  44.481  34.224  1.00  0.00    -0.744 OA
ENDBRANCH  92  96
ENDBRANCH  66  89
ENDBRANCH  40  41
ENDBRANCH  33  35
ENDBRANCH  32  33
ENDBRANCH  31  32
ENDBRANCH  30  31
ENDBRANCH  29  30
ENDBRANCH  28  29
ENDBRANCH  27  28
ENDBRANCH   1  27
TORSDOF 26
ENDMDL
MODEL 2
REMARK VINA RESULT:      -7.1      5.090      9.184
REMARK SMILES C[C@H](C(=O)OCCOCCOCCOCCOC(=O)c1ccc(-c2c3nc(c(-c4cc(S(=O)(=O)[O-])ccc4F)c4ccc([nH]4)c(-c4cc(S(=O)(=O)[O-])ccc4F)c4nc(c(-c5cc(S(=O)(=O)[O-])ccc5F)c5ccc2[nH]5)C=C4)C=C3)cc1)[C@H](C)[N@H+]1CC[C@H]([NH+]2CCCCC2)C1
REMARK SMILES IDX 11 1 10 2 9 3 8 4 7 5 6 6 5 7 3 8 4 9 2 10 1 11 83 12 84 13
REMARK SMILES IDX 85 14 86 15 95 16 87 18 88 19 89 20 90 21 94 22 91 24 93 25
REMARK SMILES IDX 92 26 12 27 13 28 14 29 15 30 16 31 17 32 18 33 19 34 20 35
REMARK SMILES IDX 21 36 82 37 22 38 81 39 23 40 24 41 25 42 75 43 26 44 80 45
REMARK SMILES IDX 74 46 76 47 27 48 79 49 73 50 72 51 28 53 60 54 40 55 59 56
REMARK SMILES IDX 41 57 44 58 58 59 77 60 42 61 43 62 57 64 78 65 45 66 29 67
REMARK SMILES IDX 30 68 38 69 31 70 37 71 39 72 36 73 32 74 33 75 34 76 35 77
REMARK SMILES IDX 61 78 62 79 70 80 63 81 69 82 71 83 68 84 64 85 65 86 66 87
REMARK SMILES IDX 67 88 46 89 47 90 55 91 48 92 54 93 56 94 53 95 49 96 50 97
REMARK SMILES IDX 51 98 52 99
REMARK H PARENT 85 17 89 23 76 52 44 63
REMARK Flexibility Score: inf
ROOT
ATOM      1  O   UNL A   1      39.258  28.005  29.574  1.00  0.00    -0.377 OA
ENDROOT
BRANCH   1   2
ATOM      2  C   UNL A   1      39.250  27.106  28.490  1.00  0.00     0.188 C 
BRANCH   2   3
ATOM      3  C   UNL A   1      40.653  26.672  28.087  1.00  0.00     0.188 C 
BRANCH   3   4
ATOM      4  O   UNL A   1      40.783  25.535  27.240  1.00  0.00    -0.376 OA
BRANCH   4   5
ATOM      5  C   UNL A   1      40.382  24.278  27.764  1.00  0.00     0.202 C 
BRANCH   5   6
ATOM      6  C   UNL A   1      41.518  23.266  28.008  1.00  0.00     0.261 C 
BRANCH   6   7
ATOM      7  O   UNL A   1      42.179  23.239  29.302  1.00  0.00    -0.463 OA
BRANCH   7   8
ATOM      8  C   UNL A   1      43.516  23.470  29.344  1.00  0.00     0.314 C 
ATOM      9  O   UNL A   1      44.350  22.574  29.232  1.00  0.00    -0.252 OA
BRANCH   8  10
ATOM     10  C   UNL A   1      43.952  24.928  29.625  1.00  0.00     0.154 C 
ATOM     11  C   UNL A   1      44.675  25.012  30.976  1.00  0.00     0.026 C 
BRANCH  10  12
ATOM     12  C   UNL A   1      44.641  25.818  28.526  1.00  0.00     0.195 C 
ATOM     13  C   UNL A   1      44.122  27.264  28.682  1.00  0.00     0.076 C 
BRANCH  12  14
ATOM     14  N   UNL A   1      44.552  25.261  27.174  1.00  0.00    -0.327 N 
ATOM     15  C   UNL A   1      44.001  26.065  26.084  1.00  0.00     0.269 C 
ATOM     16  C   UNL A   1      45.737  24.652  26.542  1.00  0.00     0.328 C 
ATOM     17  H   UNL A   1      43.893  24.562  27.515  1.00  0.00     0.348 HD
ATOM     18  C   UNL A   1      43.898  24.979  25.017  1.00  0.00     0.132 C 
ATOM     19  C   UNL A   1      45.167  24.125  25.186  1.00  0.00     0.245 C 
BRANCH  19  20
ATOM     20  N   UNL A   1      44.998  22.676  25.001  1.00  0.00    -0.328 N 
ATOM     21  C   UNL A   1      46.392  21.693  24.592  1.00  0.00     0.262 C 
ATOM     22  C   UNL A   1      43.537  21.913  25.737  1.00  0.00     0.262 C 
ATOM     23  H   UNL A   1      44.674  22.670  24.034  1.00  0.00     0.348 HD
ATOM     24  C   UNL A   1      46.404  19.795  24.678  1.00  0.00     0.062 C 
ATOM     25  C   UNL A   1      43.289  19.917  25.751  1.00  0.00     0.062 C 
ATOM     26  C   UNL A   1      44.872  18.843  25.334  1.00  0.00     0.012 C 
ENDBRANCH  19  20
ENDBRANCH  12  14
ENDBRANCH  10  12
ENDBRANCH   8  10
ENDBRANCH   7   8
ENDBRANCH   6   7
ENDBRANCH   5   6
ENDBRANCH   4   5
ENDBRANCH   3   4
ENDBRANCH   2   3
ENDBRANCH   1   2
BRANCH   1  27
ATOM     27  C   UNL A   1      39.266  29.365  29.199  1.00  0.00     0.188 C 
BRANCH  27  28
ATOM     28  C   UNL A   1      38.583  29.711  27.837  1.00  0.00     0.188 C 
BRANCH  28  29
ATOM     29  O   UNL A   1      37.008  29.485  27.596  1.00  0.00    -0.376 OA
BRANCH  29  30
ATOM     30  C   UNL A   1      35.223  30.065  28.043  1.00  0.00     0.202 C 
BRANCH  30  31
ATOM     31  C   UNL A   1      34.142  31.288  27.384  1.00  0.00     0.261 C 
BRANCH  31  32
ATOM     32  O   UNL A   1      34.281  32.741  27.578  1.00  0.00    -0.460 OA
BRANCH  32  33
ATOM     33  C   UNL A   1      33.684  33.448  28.584  1.00  0.00     0.338 C 
ATOM     34  O   UNL A   1      32.525  33.839  28.600  1.00  0.00    -0.246 OA
BRANCH  33  35
ATOM     35  C   UNL A   1      34.568  33.440  29.807  1.00  0.00     0.060 A 
ATOM     36  C   UNL A   1      35.092  34.640  30.330  1.00  0.00     0.016 A 
ATOM     37  C   UNL A   1      34.855  32.245  30.469  1.00  0.00     0.016 A 
ATOM     38  C   UNL A   1      35.959  34.633  31.444  1.00  0.00     0.010 A 
ATOM     39  C   UNL A   1      35.735  32.235  31.565  1.00  0.00     0.010 A 
ATOM     40  C   UNL A   1      36.342  33.420  32.031  1.00  0.00    -0.014 A 
BRANCH  40  41
ATOM     41  C   UNL A   1      37.575  33.317  32.879  1.00  0.00     0.031 A 
ATOM     42  C   UNL A   1      38.893  33.121  32.160  1.00  0.00     0.074 A 
ATOM     43  C   UNL A   1      37.578  33.366  34.227  1.00  0.00     0.049 A 
ATOM     44  N   UNL A   1      40.086  32.875  32.640  1.00  0.00    -0.248 NA
ATOM     45  C   UNL A   1      38.842  33.201  30.692  1.00  0.00     0.031 C 
ATOM     46  C   UNL A   1      36.415  33.614  35.074  1.00  0.00     0.029 A 
ATOM     47  N   UNL A   1      38.612  33.190  35.124  1.00  0.00    -0.354 N 
ATOM     48  C   UNL A   1      40.923  32.755  31.532  1.00  0.00     0.074 A 
ATOM     49  C   UNL A   1      40.092  32.924  30.360  1.00  0.00     0.031 C 
ATOM     50  C   UNL A   1      36.798  33.566  36.366  1.00  0.00     0.029 A 
ATOM     51  C   UNL A   1      38.223  33.238  36.446  1.00  0.00     0.049 A 
ATOM     52  H   UNL A   1      39.544  33.045  34.845  1.00  0.00     0.167 HD
ATOM     53  C   UNL A   1      42.260  32.529  31.487  1.00  0.00     0.034 A 
ATOM     54  C   UNL A   1      38.923  33.016  37.583  1.00  0.00     0.034 A 
ATOM     55  C   UNL A   1      43.095  32.350  32.649  1.00  0.00     0.049 A 
ATOM     56  C   UNL A   1      40.395  32.653  37.508  1.00  0.00     0.074 A 
ATOM     57  C   UNL A   1      44.461  32.138  32.698  1.00  0.00     0.029 A 
ATOM     58  N   UNL A   1      42.646  32.344  33.961  1.00  0.00    -0.354 N 
ATOM     59  N   UNL A   1      41.171  32.541  36.455  1.00  0.00    -0.248 NA
ATOM     60  C   UNL A   1      41.082  32.382  38.782  1.00  0.00     0.031 C 
ATOM     61  C   UNL A   1      44.825  31.914  34.031  1.00  0.00     0.029 A 
ATOM     62  C   UNL A   1      43.702  32.086  34.824  1.00  0.00     0.049 A 
ATOM     63  H   UNL A   1      41.714  32.499  34.241  1.00  0.00     0.167 HD
ATOM     64  C   UNL A   1      42.442  32.234  36.946  1.00  0.00     0.074 A 
ATOM     65  C   UNL A   1      42.331  32.181  38.387  1.00  0.00     0.031 C 
ATOM     66  C   UNL A   1      43.597  32.025  36.263  1.00  0.00     0.034 A 
BRANCH  53  67
ATOM     67  C   UNL A   1      42.894  32.398  30.121  1.00  0.00     0.023 A 
ATOM     68  C   UNL A   1      43.372  33.512  29.412  1.00  0.00     0.031 A 
ATOM     69  C   UNL A   1      42.999  31.134  29.513  1.00  0.00     0.131 A 
ATOM     70  C   UNL A   1      43.869  33.351  28.110  1.00  0.00     0.055 A 
ATOM     71  C   UNL A   1      43.574  30.970  28.252  1.00  0.00     0.041 A 
ATOM     72  F   UNL A   1      42.537  30.037  30.131  1.00  0.00    -0.206 F 
ATOM     73  C   UNL A   1      44.000  32.085  27.536  1.00  0.00     0.022 A 
BRANCH  70  74
ATOM     74  S   UNL A   1      44.205  34.834  27.120  1.00  0.00     0.124 S 
ATOM     75  O   UNL A   1      45.664  34.885  27.151  1.00  0.00    -0.237 OA
ATOM     76  O   UNL A   1      43.604  34.498  25.835  1.00  0.00    -0.237 OA
ATOM     77  O   UNL A   1      43.536  35.900  27.864  1.00  0.00    -0.744 OA
ENDBRANCH  70  74
ENDBRANCH  53  67
BRANCH  54  78
ATOM     78  C   UNL A   1      38.251  33.078  38.920  1.00  0.00     0.023 A 
ATOM     79  C   UNL A   1      38.534  34.110  39.832  1.00  0.00     0.031 A 
ATOM     80  C   UNL A   1      37.384  32.053  39.342  1.00  0.00     0.131 A 
ATOM     81  C   UNL A   1      37.994  34.072  41.129  1.00  0.00     0.055 A 
ATOM     82  C   UNL A   1      36.803  32.051  40.612  1.00  0.00     0.041 A 
ATOM     83  F   UNL A   1      37.091  31.031  38.521  1.00  0.00    -0.206 F 
ATOM     84  C   UNL A   1      37.116  33.058  41.518  1.00  0.00     0.022 A 
BRANCH  81  85
ATOM     85  S   UNL A   1      38.524  35.319  42.337  1.00  0.00     0.124 S 
ATOM     86  O   UNL A   1      37.383  35.356  43.244  1.00  0.00    -0.237 OA
ATOM     87  O   UNL A   1      39.748  34.727  42.868  1.00  0.00    -0.237 OA
ATOM     88  O   UNL A   1      38.717  36.519  41.526  1.00  0.00    -0.744 OA
ENDBRANCH  81  85
ENDBRANCH  54  78
BRANCH  66  89
ATOM     89  C   UNL A   1      44.859  31.781  37.064  1.00  0.00     0.023 A 
ATOM     90  C   UNL A   1      45.264  30.490  37.450  1.00  0.00     0.031 A 
ATOM     91  C   UNL A   1      45.675  32.864  37.439  1.00  0.00     0.131 A 
ATOM     92  C   UNL A   1      46.421  30.322  38.230  1.00  0.00     0.055 A 
ATOM     93  C   UNL A   1      46.859  32.685  38.159  1.00  0.00     0.041 A 
ATOM     94  F   UNL A   1      45.342  34.121  37.104  1.00  0.00    -0.206 F 
ATOM     95  C   UNL A   1      47.230  31.409  38.570  1.00  0.00     0.022 A 
BRANCH  92  96
ATOM     96  S   UNL A   1      46.807  28.672  38.879  1.00  0.00     0.124 S 
ATOM     97  O   UNL A   1      45.685  28.430  39.779  1.00  0.00    -0.237 OA
ATOM     98  O   UNL A   1      46.840  27.860  37.667  1.00  0.00    -0.237 OA
ATOM     99  O   UNL A   1      48.101  28.855  39.536  1.00  0.00    -0.744 OA
ENDBRANCH  92  96
ENDBRANCH  66  89
ENDBRANCH  40  41
ENDBRANCH  33  35
ENDBRANCH  32  33
ENDBRANCH  31  32
ENDBRANCH  30  31
ENDBRANCH  29  30
ENDBRANCH  28  29
ENDBRANCH  27  28
ENDBRANCH   1  27
TORSDOF 26
ENDMDL
MODEL 3
REMARK VINA RESULT:      -7.0      3.975      6.186
REMARK SMILES C[C@H](C(=O)OCCOCCOCCOCCOC(=O)c1ccc(-c2c3nc(c(-c4cc(S(=O)(=O)[O-])ccc4F)c4ccc([nH]4)c(-c4cc(S(=O)(=O)[O-])ccc4F)c4nc(c(-c5cc(S(=O)(=O)[O-])ccc5F)c5ccc2[nH]5)C=C4)C=C3)cc1)[C@H](C)[N@H+]1CC[C@H]([NH+]2CCCCC2)C1
REMARK SMILES IDX 11 1 10 2 9 3 8 4 7 5 6 6 5 7 3 8 4 9 2 10 1 11 83 12 84 13
REMARK SMILES IDX 85 14 86 15 95 16 87 18 88 19 89 20 90 21 94 22 91 24 93 25
REMARK SMILES IDX 92 26 12 27 13 28 14 29 15 30 16 31 17 32 18 33 19 34 20 35
REMARK SMILES IDX 21 36 82 37 22 38 81 39 23 40 24 41 25 42 75 43 26 44 80 45
REMARK SMILES IDX 74 46 76 47 27 48 79 49 73 50 72 51 28 53 60 54 40 55 59 56
REMARK SMILES IDX 41 57 44 58 58 59 77 60 42 61 43 62 57 64 78 65 45 66 29 67
REMARK SMILES IDX 30 68 38 69 31 70 37 71 39 72 36 73 32 74 33 75 34 76 35 77
REMARK SMILES IDX 61 78 62 79 70 80 63 81 69 82 71 83 68 84 64 85 65 86 66 87
REMARK SMILES IDX 67 88 46 89 47 90 55 91 48 92 54 93 56 94 53 95 49 96 50 97
REMARK SMILES IDX 51 98 52 99
REMARK H PARENT 85 17 89 23 76 52 44 63
REMARK Flexibility Score: inf
ROOT
ATOM      1  O   UNL A   1      42.219  27.990  30.501  1.00  0.00    -0.377 OA
ENDROOT
BRANCH   1   2
ATOM      2  C   UNL A   1      41.619  29.263  30.508  1.00  0.00     0.188 C 
BRANCH   2   3
ATOM      3  C   UNL A   1      40.590  29.413  31.621  1.00  0.00     0.188 C 
BRANCH   3   4
ATOM      4  O   UNL A   1      39.310  29.937  31.280  1.00  0.00    -0.376 OA
BRANCH   4   5
ATOM      5  C   UNL A   1      39.265  31.227  30.689  1.00  0.00     0.202 C 
BRANCH   5   6
ATOM      6  C   UNL A   1      38.050  31.502  29.784  1.00  0.00     0.261 C 
BRANCH   6   7
ATOM      7  O   UNL A   1      37.883  32.821  29.201  1.00  0.00    -0.463 OA
BRANCH   7   8
ATOM      8  C   UNL A   1      37.076  33.707  29.839  1.00  0.00     0.314 C 
ATOM      9  O   UNL A   1      37.384  34.238  30.905  1.00  0.00    -0.252 OA
BRANCH   8  10
ATOM     10  C   UNL A   1      35.693  33.965  29.196  1.00  0.00     0.154 C 
ATOM     11  C   UNL A   1      35.522  33.094  27.944  1.00  0.00     0.026 C 
BRANCH  10  12
ATOM     12  C   UNL A   1      34.375  34.036  30.053  1.00  0.00     0.195 C 
ATOM     13  C   UNL A   1      33.400  35.009  29.357  1.00  0.00     0.076 C 
BRANCH  12  14
ATOM     14  N   UNL A   1      34.610  34.293  31.476  1.00  0.00    -0.327 N 
ATOM     15  C   UNL A   1      33.981  35.441  32.129  1.00  0.00     0.269 C 
ATOM     16  C   UNL A   1      34.407  33.222  32.469  1.00  0.00     0.328 C 
ATOM     17  H   UNL A   1      35.598  34.453  31.276  1.00  0.00     0.348 HD
ATOM     18  C   UNL A   1      34.728  35.398  33.458  1.00  0.00     0.132 C 
ATOM     19  C   UNL A   1      34.854  33.902  33.802  1.00  0.00     0.245 C 
BRANCH  19  20
ATOM     20  N   UNL A   1      36.122  33.489  34.421  1.00  0.00    -0.328 N 
ATOM     21  C   UNL A   1      36.408  33.844  36.114  1.00  0.00     0.262 C 
ATOM     22  C   UNL A   1      37.055  32.179  33.601  1.00  0.00     0.262 C 
ATOM     23  H   UNL A   1      36.710  34.269  34.128  1.00  0.00     0.348 HD
ATOM     24  C   UNL A   1      37.815  33.069  37.130  1.00  0.00     0.062 C 
ATOM     25  C   UNL A   1      38.689  31.366  34.447  1.00  0.00     0.062 C 
ATOM     26  C   UNL A   1      38.960  31.742  36.348  1.00  0.00     0.012 C 
ENDBRANCH  19  20
ENDBRANCH  12  14
ENDBRANCH  10  12
ENDBRANCH   8  10
ENDBRANCH   7   8
ENDBRANCH   6   7
ENDBRANCH   5   6
ENDBRANCH   4   5
ENDBRANCH   3   4
ENDBRANCH   2   3
ENDBRANCH   1   2
BRANCH   1  27
ATOM     27  C   UNL A   1      42.724  27.593  29.245  1.00  0.00     0.188 C 
BRANCH  27  28
ATOM     28  C   UNL A   1      43.272  26.134  29.149  1.00  0.00     0.188 C 
BRANCH  28  29
ATOM     29  O   UNL A   1      43.731  25.313  30.456  1.00  0.00    -0.376 OA
BRANCH  29  30
ATOM     30  C   UNL A   1      44.319  23.612  31.150  1.00  0.00     0.202 C 
BRANCH  30  31
ATOM     31  C   UNL A   1      44.270  22.866  32.743  1.00  0.00     0.261 C 
BRANCH  31  32
ATOM     32  O   UNL A   1      45.231  23.116  33.830  1.00  0.00    -0.460 OA
BRANCH  32  33
ATOM     33  C   UNL A   1      44.941  23.797  34.979  1.00  0.00     0.338 C 
ATOM     34  O   UNL A   1      45.055  23.369  36.119  1.00  0.00    -0.246 OA
BRANCH  33  35
ATOM     35  C   UNL A   1      44.725  25.257  34.665  1.00  0.00     0.060 A 
ATOM     36  C   UNL A   1      43.457  25.734  34.272  1.00  0.00     0.016 A 
ATOM     37  C   UNL A   1      45.770  26.173  34.793  1.00  0.00     0.016 A 
ATOM     38  C   UNL A   1      43.262  27.089  33.930  1.00  0.00     0.010 A 
ATOM     39  C   UNL A   1      45.581  27.519  34.432  1.00  0.00     0.010 A 
ATOM     40  C   UNL A   1      44.342  27.981  33.943  1.00  0.00    -0.014 A 
BRANCH  40  41
ATOM     41  C   UNL A   1      44.301  29.267  33.171  1.00  0.00     0.031 A 
ATOM     42  C   UNL A   1      45.077  29.316  31.871  1.00  0.00     0.074 A 
ATOM     43  C   UNL A   1      43.644  30.375  33.571  1.00  0.00     0.049 A 
ATOM     44  N   UNL A   1      45.321  30.325  31.073  1.00  0.00    -0.248 NA
ATOM     45  C   UNL A   1      45.668  28.044  31.427  1.00  0.00     0.031 C 
ATOM     46  C   UNL A   1      42.799  30.485  34.755  1.00  0.00     0.029 A 
ATOM     47  N   UNL A   1      43.603  31.638  33.015  1.00  0.00    -0.354 N 
ATOM     48  C   UNL A   1      46.106  29.812  30.043  1.00  0.00     0.074 A 
ATOM     49  C   UNL A   1      46.322  28.412  30.338  1.00  0.00     0.031 C 
ATOM     50  C   UNL A   1      42.331  31.746  34.843  1.00  0.00     0.029 A 
ATOM     51  C   UNL A   1      42.877  32.551  33.749  1.00  0.00     0.049 A 
ATOM     52  H   UNL A   1      44.052  31.866  32.170  1.00  0.00     0.167 HD
ATOM     53  C   UNL A   1      46.604  30.440  28.948  1.00  0.00     0.034 A 
ATOM     54  C   UNL A   1      42.696  33.882  33.577  1.00  0.00     0.034 A 
ATOM     55  C   UNL A   1      46.402  31.837  28.650  1.00  0.00     0.049 A 
ATOM     56  C   UNL A   1      43.354  34.591  32.407  1.00  0.00     0.074 A 
ATOM     57  C   UNL A   1      46.850  32.553  27.553  1.00  0.00     0.029 A 
ATOM     58  N   UNL A   1      45.714  32.734  29.453  1.00  0.00    -0.354 N 
ATOM     59  N   UNL A   1      44.094  34.094  31.444  1.00  0.00    -0.248 NA
ATOM     60  C   UNL A   1      43.150  36.046  32.308  1.00  0.00     0.031 C 
ATOM     61  C   UNL A   1      46.511  33.898  27.737  1.00  0.00     0.029 A 
ATOM     62  C   UNL A   1      45.765  34.005  28.899  1.00  0.00     0.049 A 
ATOM     63  H   UNL A   1      45.257  32.503  30.295  1.00  0.00     0.167 HD
ATOM     64  C   UNL A   1      44.402  35.166  30.605  1.00  0.00     0.074 A 
ATOM     65  C   UNL A   1      43.766  36.335  31.171  1.00  0.00     0.031 C 
ATOM     66  C   UNL A   1      45.137  35.178  29.462  1.00  0.00     0.034 A 
BRANCH  53  67
ATOM     67  C   UNL A   1      47.474  29.627  28.018  1.00  0.00     0.023 A 
ATOM     68  C   UNL A   1      47.001  29.145  26.787  1.00  0.00     0.031 A 
ATOM     69  C   UNL A   1      48.795  29.312  28.386  1.00  0.00     0.131 A 
ATOM     70  C   UNL A   1      47.817  28.317  26.000  1.00  0.00     0.055 A 
ATOM     71  C   UNL A   1      49.630  28.560  27.559  1.00  0.00     0.041 A 
ATOM     72  F   UNL A   1      49.293  29.723  29.563  1.00  0.00    -0.206 F 
ATOM     73  C   UNL A   1      49.137  28.045  26.364  1.00  0.00     0.022 A 
BRANCH  70  74
ATOM     74  S   UNL A   1      47.081  27.481  24.569  1.00  0.00     0.124 S 
ATOM     75  O   UNL A   1      46.635  28.614  23.762  1.00  0.00    -0.237 OA
ATOM     76  O   UNL A   1      48.203  26.719  24.036  1.00  0.00    -0.237 OA
ATOM     77  O   UNL A   1      46.005  26.683  25.156  1.00  0.00    -0.744 OA
ENDBRANCH  70  74
ENDBRANCH  53  67
BRANCH  54  78
ATOM     78  C   UNL A   1      41.890  34.678  34.557  1.00  0.00     0.023 A 
ATOM     79  C   UNL A   1      42.458  35.156  35.751  1.00  0.00     0.031 A 
ATOM     80  C   UNL A   1      40.515  34.895  34.355  1.00  0.00     0.131 A 
ATOM     81  C   UNL A   1      41.649  35.783  36.714  1.00  0.00     0.055 A 
ATOM     82  C   UNL A   1      39.727  35.571  35.289  1.00  0.00     0.041 A 
ATOM     83  F   UNL A   1      39.913  34.445  33.241  1.00  0.00    -0.206 F 
ATOM     84  C   UNL A   1      40.291  36.009  36.482  1.00  0.00     0.022 A 
BRANCH  81  85
ATOM     85  S   UNL A   1      42.376  36.223  38.319  1.00  0.00     0.124 S 
ATOM     86  O   UNL A   1      41.212  36.169  39.195  1.00  0.00    -0.237 OA
ATOM     87  O   UNL A   1      43.368  35.168  38.502  1.00  0.00    -0.237 OA
ATOM     88  O   UNL A   1      42.925  37.557  38.090  1.00  0.00    -0.744 OA
ENDBRANCH  81  85
ENDBRANCH  54  78
BRANCH  66  89
ATOM     89  C   UNL A   1      45.248  36.484  28.704  1.00  0.00     0.023 A 
ATOM     90  C   UNL A   1      46.328  37.367  28.884  1.00  0.00     0.031 A 
ATOM     91  C   UNL A   1      44.254  36.845  27.776  1.00  0.00     0.131 A 
ATOM     92  C   UNL A   1      46.361  38.587  28.188  1.00  0.00     0.055 A 
ATOM     93  C   UNL A   1      44.325  38.029  27.038  1.00  0.00     0.041 A 
ATOM     94  F   UNL A   1      43.196  36.047  27.560  1.00  0.00    -0.206 F 
ATOM     95  C   UNL A   1      45.376  38.914  27.252  1.00  0.00     0.022 A 
BRANCH  92  96
ATOM     96  S   UNL A   1      47.659  39.790  28.589  1.00  0.00     0.124 S 
ATOM     97  O   UNL A   1      47.868  40.449  27.304  1.00  0.00    -0.237 OA
ATOM     98  O   UNL A   1      47.025  40.599  29.625  1.00  0.00    -0.237 OA
ATOM     99  O   UNL A   1      48.770  38.958  29.047  1.00  0.00    -0.744 OA
ENDBRANCH  92  96
ENDBRANCH  66  89
ENDBRANCH  40  41
ENDBRANCH  33  35
ENDBRANCH  32  33
ENDBRANCH  31  32
ENDBRANCH  30  31
ENDBRANCH  29  30
ENDBRANCH  28  29
ENDBRANCH  27  28
ENDBRANCH   1  27
TORSDOF 26
ENDMDL
