MODEL 1
REMARK VINA RESULT:      -9.3      0.000      0.000
REMARK SMILES CC(C)(C)[NH2+]Cc1ccn(CC(C)(C)C(=O)OCCOCCOCCOCCOC(=O)c2ccc(-c3c4nc(c(-c5cc(S(=O)(=O)[O-])ccc5F)c5ccc([nH]5)c(-c5cc(S(=O)(=O)[O-])ccc5F)c5nc(c(-c6cc(S(=O)(=O)[O-])ccc6F)c6ccc3[nH]6)C=C5)C=C4)cc2)c1
REMARK SMILES IDX 22 1 21 2 20 3 19 4 18 5 17 6 15 7 16 8 12 9 13 10 14 11
REMARK SMILES IDX 11 12 10 13 7 14 8 15 95 16 9 17 6 18 5 19 2 22 1 23 3 24
REMARK SMILES IDX 4 25 23 26 24 27 25 28 26 29 27 30 28 31 29 32 30 33 31 34
REMARK SMILES IDX 32 35 33 36 94 37 34 38 93 39 35 40 36 41 37 42 87 43 38 44
REMARK SMILES IDX 92 45 86 46 88 47 39 48 91 49 85 50 84 51 40 53 72 54 52 55
REMARK SMILES IDX 71 56 53 57 56 58 70 59 89 60 54 61 55 62 69 64 90 65 57 66
REMARK SMILES IDX 41 67 42 68 50 69 43 70 49 71 51 72 48 73 44 74 45 75 46 76
REMARK SMILES IDX 47 77 73 78 74 79 82 80 75 81 81 82 83 83 80 84 76 85 77 86
REMARK SMILES IDX 78 87 79 88 58 89 59 90 67 91 60 92 66 93 68 94 65 95 61 96
REMARK SMILES IDX 62 97 63 98 64 99
REMARK H PARENT 5 20 5 21 88 52 56 63
REMARK Flexibility Score: inf
ROOT
ATOM      1  C   UNL A   1      40.544  20.257  26.393  1.00  0.00     0.188 C 
ENDROOT
BRANCH   1   2
ATOM      2  C   UNL A   1      39.198  20.654  25.764  1.00  0.00     0.188 C 
BRANCH   2   3
ATOM      3  O   UNL A   1      38.892  22.035  25.926  1.00  0.00    -0.376 OA
BRANCH   3   4
ATOM      4  C   UNL A   1      37.676  22.469  25.326  1.00  0.00     0.202 C 
BRANCH   4   5
ATOM      5  C   UNL A   1      37.040  23.742  25.898  1.00  0.00     0.261 C 
BRANCH   5   6
ATOM      6  O   UNL A   1      35.976  24.253  25.068  1.00  0.00    -0.463 OA
BRANCH   6   7
ATOM      7  C   UNL A   1      34.695  24.041  25.424  1.00  0.00     0.313 C 
ATOM      8  O   UNL A   1      34.364  23.384  26.404  1.00  0.00    -0.252 OA
BRANCH   7   9
ATOM      9  C   UNL A   1      33.711  24.724  24.447  1.00  0.00     0.080 C 
ATOM     10  C   UNL A   1      32.284  24.280  24.833  1.00  0.00     0.025 C 
ATOM     11  C   UNL A   1      33.899  24.227  22.987  1.00  0.00     0.025 C 
BRANCH   9  12
ATOM     12  C   UNL A   1      33.869  26.277  24.475  1.00  0.00     0.139 C 
BRANCH  12  13
ATOM     13  N   UNL A   1      32.802  27.098  23.924  1.00  0.00    -0.353 N 
ATOM     14  C   UNL A   1      31.151  28.607  23.762  1.00  0.00     0.024 A 
ATOM     15  C   UNL A   1      31.117  27.733  22.646  1.00  0.00     0.029 A 
ATOM     16  C   UNL A   1      32.186  28.150  24.567  1.00  0.00     0.095 A 
ATOM     17  C   UNL A   1      32.253  26.970  22.686  1.00  0.00     0.086 A 
BRANCH  14  18
ATOM     18  C   UNL A   1      30.233  29.765  23.970  1.00  0.00     0.299 C 
BRANCH  18  19
ATOM     19  N   UNL A   1      30.015  30.503  22.723  1.00  0.00    -0.338 N 
ATOM     20  H   UNL A   1      30.700  31.258  22.704  1.00  0.00     0.347 HD
ATOM     21  H   UNL A   1      30.094  29.781  22.005  1.00  0.00     0.347 HD
BRANCH  19  22
ATOM     22  C   UNL A   1      28.699  31.113  22.447  1.00  0.00     0.088 C 
ATOM     23  C   UNL A   1      28.763  32.566  21.942  1.00  0.00     0.078 C 
ATOM     24  C   UNL A   1      27.729  30.994  23.643  1.00  0.00     0.078 C 
ATOM     25  C   UNL A   1      28.092  30.268  21.306  1.00  0.00     0.078 C 
ENDBRANCH  19  22
ENDBRANCH  18  19
ENDBRANCH  14  18
ENDBRANCH  12  13
ENDBRANCH   9  12
ENDBRANCH   7   9
ENDBRANCH   6   7
ENDBRANCH   5   6
ENDBRANCH   4   5
ENDBRANCH   3   4
ENDBRANCH   2   3
ENDBRANCH   1   2
BRANCH   1  26
ATOM     26  O   UNL A   1      41.213  19.179  25.763  1.00  0.00    -0.377 OA
BRANCH  26  27
ATOM     27  C   UNL A   1      42.576  18.931  26.102  1.00  0.00     0.188 C 
BRANCH  27  28
ATOM     28  C   UNL A   1      43.668  18.778  25.020  1.00  0.00     0.188 C 
BRANCH  28  29
ATOM     29  O   UNL A   1      44.935  18.330  25.488  1.00  0.00    -0.376 OA
BRANCH  29  30
ATOM     30  C   UNL A   1      46.021  19.244  25.504  1.00  0.00     0.202 C 
BRANCH  30  31
ATOM     31  C   UNL A   1      45.850  20.511  24.654  1.00  0.00     0.261 C 
BRANCH  31  32
ATOM     32  O   UNL A   1      45.091  21.564  25.247  1.00  0.00    -0.460 OA
BRANCH  32  33
ATOM     33  C   UNL A   1      44.455  22.353  24.371  1.00  0.00     0.338 C 
ATOM     34  O   UNL A   1      44.494  22.309  23.145  1.00  0.00    -0.246 OA
BRANCH  33  35
ATOM     35  C   UNL A   1      43.706  23.384  25.053  1.00  0.00     0.060 A 
ATOM     36  C   UNL A   1      44.194  24.689  24.936  1.00  0.00     0.016 A 
ATOM     37  C   UNL A   1      42.821  22.983  26.057  1.00  0.00     0.016 A 
ATOM     38  C   UNL A   1      43.911  25.581  25.943  1.00  0.00     0.010 A 
ATOM     39  C   UNL A   1      42.572  23.867  27.083  1.00  0.00     0.010 A 
ATOM     40  C   UNL A   1      43.164  25.138  27.039  1.00  0.00    -0.014 A 
BRANCH  40  41
ATOM     41  C   UNL A   1      42.953  26.078  28.143  1.00  0.00     0.031 A 
ATOM     42  C   UNL A   1      44.006  25.888  29.232  1.00  0.00     0.074 A 
ATOM     43  C   UNL A   1      41.870  26.904  28.017  1.00  0.00     0.049 A 
ATOM     44  N   UNL A   1      43.953  26.164  30.496  1.00  0.00    -0.248 NA
ATOM     45  C   UNL A   1      45.280  25.188  28.890  1.00  0.00     0.031 C 
ATOM     46  C   UNL A   1      40.927  26.897  26.871  1.00  0.00     0.029 A 
ATOM     47  N   UNL A   1      41.334  27.904  28.800  1.00  0.00    -0.354 N 
ATOM     48  C   UNL A   1      45.250  25.962  31.010  1.00  0.00     0.074 A 
ATOM     49  C   UNL A   1      45.955  25.190  30.038  1.00  0.00     0.031 C 
ATOM     50  C   UNL A   1      39.922  27.781  27.060  1.00  0.00     0.029 A 
ATOM     51  C   UNL A   1      40.129  28.482  28.313  1.00  0.00     0.049 A 
ATOM     52  H   UNL A   1      41.756  28.199  29.639  1.00  0.00     0.167 HD
ATOM     53  C   UNL A   1      45.722  26.621  32.106  1.00  0.00     0.034 A 
ATOM     54  C   UNL A   1      39.342  29.449  28.880  1.00  0.00     0.034 A 
ATOM     55  C   UNL A   1      44.685  27.423  32.674  1.00  0.00     0.049 A 
ATOM     56  C   UNL A   1      40.111  29.934  30.037  1.00  0.00     0.074 A 
ATOM     57  C   UNL A   1      43.510  27.128  33.312  1.00  0.00     0.029 A 
ATOM     58  N   UNL A   1      44.683  28.759  32.339  1.00  0.00    -0.354 N 
ATOM     59  N   UNL A   1      41.170  30.683  29.958  1.00  0.00    -0.248 NA
ATOM     60  C   UNL A   1      39.717  29.508  31.385  1.00  0.00     0.031 C 
ATOM     61  C   UNL A   1      42.653  28.188  32.946  1.00  0.00     0.029 A 
ATOM     62  C   UNL A   1      43.373  29.144  32.215  1.00  0.00     0.049 A 
ATOM     63  H   UNL A   1      45.474  29.332  32.211  1.00  0.00     0.167 HD
ATOM     64  C   UNL A   1      41.737  30.539  31.199  1.00  0.00     0.074 A 
ATOM     65  C   UNL A   1      40.676  30.110  32.086  1.00  0.00     0.031 C 
ATOM     66  C   UNL A   1      43.053  30.219  31.294  1.00  0.00     0.034 A 
BRANCH  53  67
ATOM     67  C   UNL A   1      47.126  26.863  32.600  1.00  0.00     0.023 A 
ATOM     68  C   UNL A   1      47.320  26.679  33.990  1.00  0.00     0.031 A 
ATOM     69  C   UNL A   1      48.144  27.544  31.918  1.00  0.00     0.131 A 
ATOM     70  C   UNL A   1      48.372  27.300  34.670  1.00  0.00     0.055 A 
ATOM     71  C   UNL A   1      49.251  28.086  32.590  1.00  0.00     0.041 A 
ATOM     72  F   UNL A   1      48.079  27.797  30.605  1.00  0.00    -0.206 F 
ATOM     73  C   UNL A   1      49.346  28.007  33.977  1.00  0.00     0.022 A 
BRANCH  70  74
ATOM     74  S   UNL A   1      48.294  27.343  36.483  1.00  0.00     0.124 S 
ATOM     75  O   UNL A   1      47.163  26.466  36.760  1.00  0.00    -0.237 OA
ATOM     76  O   UNL A   1      49.608  26.827  36.853  1.00  0.00    -0.237 OA
ATOM     77  O   UNL A   1      48.075  28.757  36.777  1.00  0.00    -0.744 OA
ENDBRANCH  70  74
ENDBRANCH  53  67
BRANCH  54  78
ATOM     78  C   UNL A   1      37.987  30.098  28.662  1.00  0.00     0.023 A 
ATOM     79  C   UNL A   1      37.666  31.448  28.883  1.00  0.00     0.031 A 
ATOM     80  C   UNL A   1      36.916  29.313  28.128  1.00  0.00     0.131 A 
ATOM     81  C   UNL A   1      36.382  31.950  28.528  1.00  0.00     0.055 A 
ATOM     82  C   UNL A   1      35.684  29.824  27.720  1.00  0.00     0.041 A 
ATOM     83  F   UNL A   1      37.013  27.988  27.962  1.00  0.00    -0.206 F 
ATOM     84  C   UNL A   1      35.414  31.156  27.908  1.00  0.00     0.022 A 
BRANCH  81  85
ATOM     85  S   UNL A   1      35.909  33.677  28.835  1.00  0.00     0.124 S 
ATOM     86  O   UNL A   1      34.897  33.532  29.877  1.00  0.00    -0.237 OA
ATOM     87  O   UNL A   1      37.162  34.302  29.244  1.00  0.00    -0.237 OA
ATOM     88  O   UNL A   1      35.400  34.108  27.533  1.00  0.00    -0.744 OA
ENDBRANCH  81  85
ENDBRANCH  54  78
BRANCH  66  89
ATOM     89  C   UNL A   1      43.899  30.676  30.103  1.00  0.00     0.023 A 
ATOM     90  C   UNL A   1      44.124  29.817  29.009  1.00  0.00     0.031 A 
ATOM     91  C   UNL A   1      44.592  31.899  30.075  1.00  0.00     0.131 A 
ATOM     92  C   UNL A   1      45.019  30.175  27.979  1.00  0.00     0.055 A 
ATOM     93  C   UNL A   1      45.474  32.263  29.050  1.00  0.00     0.041 A 
ATOM     94  F   UNL A   1      44.448  32.789  31.054  1.00  0.00    -0.206 F 
ATOM     95  C   UNL A   1      45.698  31.394  27.995  1.00  0.00     0.022 A 
BRANCH  92  96
ATOM     96  S   UNL A   1      45.285  29.041  26.587  1.00  0.00     0.124 S 
ATOM     97  O   UNL A   1      46.114  29.830  25.682  1.00  0.00    -0.237 OA
ATOM     98  O   UNL A   1      45.941  27.903  27.225  1.00  0.00    -0.237 OA
ATOM     99  O   UNL A   1      43.932  28.771  26.101  1.00  0.00    -0.744 OA
ENDBRANCH  92  96
ENDBRANCH  66  89
ENDBRANCH  40  41
ENDBRANCH  33  35
ENDBRANCH  32  33
ENDBRANCH  31  32
ENDBRANCH  30  31
ENDBRANCH  29  30
ENDBRANCH  28  29
ENDBRANCH  27  28
ENDBRANCH  26  27
ENDBRANCH   1  26
TORSDOF 28
ENDMDL
MODEL 2
REMARK VINA RESULT:      -9.1      1.779      2.054
REMARK SMILES CC(C)(C)[NH2+]Cc1ccn(CC(C)(C)C(=O)OCCOCCOCCOCCOC(=O)c2ccc(-c3c4nc(c(-c5cc(S(=O)(=O)[O-])ccc5F)c5ccc([nH]5)c(-c5cc(S(=O)(=O)[O-])ccc5F)c5nc(c(-c6cc(S(=O)(=O)[O-])ccc6F)c6ccc3[nH]6)C=C5)C=C4)cc2)c1
REMARK SMILES IDX 22 1 21 2 20 3 19 4 18 5 17 6 15 7 16 8 12 9 13 10 14 11
REMARK SMILES IDX 11 12 10 13 7 14 8 15 95 16 9 17 6 18 5 19 2 22 1 23 3 24
REMARK SMILES IDX 4 25 23 26 24 27 25 28 26 29 27 30 28 31 29 32 30 33 31 34
REMARK SMILES IDX 32 35 33 36 94 37 34 38 93 39 35 40 36 41 37 42 87 43 38 44
REMARK SMILES IDX 92 45 86 46 88 47 39 48 91 49 85 50 84 51 40 53 72 54 52 55
REMARK SMILES IDX 71 56 53 57 56 58 70 59 89 60 54 61 55 62 69 64 90 65 57 66
REMARK SMILES IDX 41 67 42 68 50 69 43 70 49 71 51 72 48 73 44 74 45 75 46 76
REMARK SMILES IDX 47 77 73 78 74 79 82 80 75 81 81 82 83 83 80 84 76 85 77 86
REMARK SMILES IDX 78 87 79 88 58 89 59 90 67 91 60 92 66 93 68 94 65 95 61 96
REMARK SMILES IDX 62 97 63 98 64 99
REMARK H PARENT 5 20 5 21 88 52 56 63
REMARK Flexibility Score: inf
ROOT
ATOM      1  C   UNL A   1      40.614  20.281  26.348  1.00  0.00     0.188 C 
ENDROOT
BRANCH   1   2
ATOM      2  C   UNL A   1      39.230  20.607  25.761  1.00  0.00     0.188 C 
BRANCH   2   3
ATOM      3  O   UNL A   1      38.819  21.947  26.012  1.00  0.00    -0.376 OA
BRANCH   3   4
ATOM      4  C   UNL A   1      37.599  22.340  25.395  1.00  0.00     0.202 C 
BRANCH   4   5
ATOM      5  C   UNL A   1      36.837  23.500  26.048  1.00  0.00     0.261 C 
BRANCH   5   6
ATOM      6  O   UNL A   1      35.814  24.047  25.190  1.00  0.00    -0.463 OA
BRANCH   6   7
ATOM      7  C   UNL A   1      34.519  23.934  25.544  1.00  0.00     0.313 C 
ATOM      8  O   UNL A   1      34.147  23.716  26.690  1.00  0.00    -0.252 OA
BRANCH   7   9
ATOM      9  C   UNL A   1      33.579  24.112  24.330  1.00  0.00     0.080 C 
ATOM     10  C   UNL A   1      32.134  24.202  24.867  1.00  0.00     0.025 C 
ATOM     11  C   UNL A   1      33.580  22.865  23.403  1.00  0.00     0.025 C 
BRANCH   9  12
ATOM     12  C   UNL A   1      33.970  25.366  23.487  1.00  0.00     0.139 C 
BRANCH  12  13
ATOM     13  N   UNL A   1      32.930  26.315  23.122  1.00  0.00    -0.353 N 
ATOM     14  C   UNL A   1      31.533  28.068  23.195  1.00  0.00     0.024 A 
ATOM     15  C   UNL A   1      31.086  27.135  22.226  1.00  0.00     0.029 A 
ATOM     16  C   UNL A   1      32.661  27.500  23.773  1.00  0.00     0.095 A 
ATOM     17  C   UNL A   1      32.070  26.195  22.075  1.00  0.00     0.086 A 
BRANCH  14  18
ATOM     18  C   UNL A   1      30.878  29.376  23.488  1.00  0.00     0.299 C 
BRANCH  18  19
ATOM     19  N   UNL A   1      30.103  29.853  22.339  1.00  0.00    -0.338 N 
ATOM     20  H   UNL A   1      30.675  30.553  21.867  1.00  0.00     0.347 HD
ATOM     21  H   UNL A   1      29.893  28.996  21.826  1.00  0.00     0.347 HD
BRANCH  19  22
ATOM     22  C   UNL A   1      28.772  30.459  22.548  1.00  0.00     0.088 C 
ATOM     23  C   UNL A   1      27.651  29.447  22.846  1.00  0.00     0.078 C 
ATOM     24  C   UNL A   1      28.363  31.401  21.395  1.00  0.00     0.078 C 
ATOM     25  C   UNL A   1      28.924  31.344  23.804  1.00  0.00     0.078 C 
ENDBRANCH  19  22
ENDBRANCH  18  19
ENDBRANCH  14  18
ENDBRANCH  12  13
ENDBRANCH   9  12
ENDBRANCH   7   9
ENDBRANCH   6   7
ENDBRANCH   5   6
ENDBRANCH   4   5
ENDBRANCH   3   4
ENDBRANCH   2   3
ENDBRANCH   1   2
BRANCH   1  26
ATOM     26  O   UNL A   1      41.297  19.205  25.728  1.00  0.00    -0.377 OA
BRANCH  26  27
ATOM     27  C   UNL A   1      42.643  18.937  26.117  1.00  0.00     0.188 C 
BRANCH  27  28
ATOM     28  C   UNL A   1      43.777  18.794  25.077  1.00  0.00     0.188 C 
BRANCH  28  29
ATOM     29  O   UNL A   1      45.012  18.300  25.583  1.00  0.00    -0.376 OA
BRANCH  29  30
ATOM     30  C   UNL A   1      46.160  19.130  25.518  1.00  0.00     0.202 C 
BRANCH  30  31
ATOM     31  C   UNL A   1      46.013  20.422  24.701  1.00  0.00     0.261 C 
BRANCH  31  32
ATOM     32  O   UNL A   1      45.189  21.435  25.276  1.00  0.00    -0.460 OA
BRANCH  32  33
ATOM     33  C   UNL A   1      44.533  22.190  24.385  1.00  0.00     0.338 C 
ATOM     34  O   UNL A   1      44.523  22.085  23.163  1.00  0.00    -0.246 OA
BRANCH  33  35
ATOM     35  C   UNL A   1      43.827  23.269  25.042  1.00  0.00     0.060 A 
ATOM     36  C   UNL A   1      44.335  24.556  24.845  1.00  0.00     0.016 A 
ATOM     37  C   UNL A   1      42.970  22.933  26.093  1.00  0.00     0.016 A 
ATOM     38  C   UNL A   1      44.104  25.501  25.817  1.00  0.00     0.010 A 
ATOM     39  C   UNL A   1      42.773  23.870  27.084  1.00  0.00     0.010 A 
ATOM     40  C   UNL A   1      43.387  25.126  26.958  1.00  0.00    -0.014 A 
BRANCH  40  41
ATOM     41  C   UNL A   1      43.232  26.121  28.022  1.00  0.00     0.031 A 
ATOM     42  C   UNL A   1      44.369  26.019  29.036  1.00  0.00     0.074 A 
ATOM     43  C   UNL A   1      42.120  26.912  27.934  1.00  0.00     0.049 A 
ATOM     44  N   UNL A   1      44.402  26.365  30.283  1.00  0.00    -0.248 NA
ATOM     45  C   UNL A   1      45.633  25.332  28.637  1.00  0.00     0.031 C 
ATOM     46  C   UNL A   1      41.095  26.817  26.864  1.00  0.00     0.029 A 
ATOM     47  N   UNL A   1      41.616  27.941  28.699  1.00  0.00    -0.354 N 
ATOM     48  C   UNL A   1      45.739  26.223  30.708  1.00  0.00     0.074 A 
ATOM     49  C   UNL A   1      46.392  25.415  29.729  1.00  0.00     0.031 C 
ATOM     50  C   UNL A   1      40.082  27.685  27.081  1.00  0.00     0.029 A 
ATOM     51  C   UNL A   1      40.361  28.461  28.274  1.00  0.00     0.049 A 
ATOM     52  H   UNL A   1      42.090  28.293  29.486  1.00  0.00     0.167 HD
ATOM     53  C   UNL A   1      46.273  26.955  31.727  1.00  0.00     0.034 A 
ATOM     54  C   UNL A   1      39.592  29.439  28.846  1.00  0.00     0.034 A 
ATOM     55  C   UNL A   1      45.259  27.763  32.327  1.00  0.00     0.049 A 
ATOM     56  C   UNL A   1      40.430  30.008  29.913  1.00  0.00     0.074 A 
ATOM     57  C   UNL A   1      44.143  27.476  33.068  1.00  0.00     0.029 A 
ATOM     58  N   UNL A   1      45.193  29.077  31.921  1.00  0.00    -0.354 N 
ATOM     59  N   UNL A   1      41.458  30.776  29.713  1.00  0.00    -0.248 NA
ATOM     60  C   UNL A   1      40.151  29.650  31.308  1.00  0.00     0.031 C 
ATOM     61  C   UNL A   1      43.232  28.492  32.711  1.00  0.00     0.029 A 
ATOM     62  C   UNL A   1      43.867  29.422  31.876  1.00  0.00     0.049 A 
ATOM     63  H   UNL A   1      45.956  29.661  31.702  1.00  0.00     0.167 HD
ATOM     64  C   UNL A   1      42.120  30.716  30.913  1.00  0.00     0.074 A 
ATOM     65  C   UNL A   1      41.142  30.313  31.900  1.00  0.00     0.031 C 
ATOM     66  C   UNL A   1      43.449  30.435  30.925  1.00  0.00     0.034 A 
BRANCH  53  67
ATOM     67  C   UNL A   1      47.702  27.259  32.099  1.00  0.00     0.023 A 
ATOM     68  C   UNL A   1      48.438  27.991  31.135  1.00  0.00     0.031 A 
ATOM     69  C   UNL A   1      48.452  26.634  33.106  1.00  0.00     0.131 A 
ATOM     70  C   UNL A   1      49.833  27.940  31.088  1.00  0.00     0.055 A 
ATOM     71  C   UNL A   1      49.855  26.664  33.110  1.00  0.00     0.041 A 
ATOM     72  F   UNL A   1      47.882  25.899  34.068  1.00  0.00    -0.206 F 
ATOM     73  C   UNL A   1      50.554  27.279  32.073  1.00  0.00     0.022 A 
BRANCH  70  74
ATOM     74  S   UNL A   1      50.649  28.564  29.591  1.00  0.00     0.124 S 
ATOM     75  O   UNL A   1      50.646  27.386  28.730  1.00  0.00    -0.237 OA
ATOM     76  O   UNL A   1      49.757  29.648  29.192  1.00  0.00    -0.237 OA
ATOM     77  O   UNL A   1      51.963  28.983  30.073  1.00  0.00    -0.744 OA
ENDBRANCH  70  74
ENDBRANCH  53  67
BRANCH  54  78
ATOM     78  C   UNL A   1      38.206  30.041  28.696  1.00  0.00     0.023 A 
ATOM     79  C   UNL A   1      37.857  31.387  28.899  1.00  0.00     0.031 A 
ATOM     80  C   UNL A   1      37.128  29.210  28.254  1.00  0.00     0.131 A 
ATOM     81  C   UNL A   1      36.539  31.841  28.612  1.00  0.00     0.055 A 
ATOM     82  C   UNL A   1      35.858  29.672  27.911  1.00  0.00     0.041 A 
ATOM     83  F   UNL A   1      37.255  27.883  28.120  1.00  0.00    -0.206 F 
ATOM     84  C   UNL A   1      35.559  31.001  28.078  1.00  0.00     0.022 A 
BRANCH  81  85
ATOM     85  S   UNL A   1      36.033  33.562  28.900  1.00  0.00     0.124 S 
ATOM     86  O   UNL A   1      35.662  33.996  27.557  1.00  0.00    -0.237 OA
ATOM     87  O   UNL A   1      34.937  33.436  29.855  1.00  0.00    -0.237 OA
ATOM     88  O   UNL A   1      37.251  34.170  29.435  1.00  0.00    -0.744 OA
ENDBRANCH  81  85
ENDBRANCH  54  78
BRANCH  66  89
ATOM     89  C   UNL A   1      44.189  30.845  29.650  1.00  0.00     0.023 A 
ATOM     90  C   UNL A   1      44.592  29.876  28.709  1.00  0.00     0.031 A 
ATOM     91  C   UNL A   1      44.619  32.160  29.396  1.00  0.00     0.131 A 
ATOM     92  C   UNL A   1      45.401  30.227  27.608  1.00  0.00     0.055 A 
ATOM     93  C   UNL A   1      45.413  32.515  28.300  1.00  0.00     0.041 A 
ATOM     94  F   UNL A   1      44.289  33.156  30.216  1.00  0.00    -0.206 F 
ATOM     95  C   UNL A   1      45.816  31.543  27.400  1.00  0.00     0.022 A 
BRANCH  92  96
ATOM     96  S   UNL A   1      45.902  28.950  26.419  1.00  0.00     0.124 S 
ATOM     97  O   UNL A   1      46.408  27.888  27.281  1.00  0.00    -0.237 OA
ATOM     98  O   UNL A   1      44.655  28.664  25.716  1.00  0.00    -0.237 OA
ATOM     99  O   UNL A   1      46.920  29.618  25.607  1.00  0.00    -0.744 OA
ENDBRANCH  92  96
ENDBRANCH  66  89
ENDBRANCH  40  41
ENDBRANCH  33  35
ENDBRANCH  32  33
ENDBRANCH  31  32
ENDBRANCH  30  31
ENDBRANCH  29  30
ENDBRANCH  28  29
ENDBRANCH  27  28
ENDBRANCH  26  27
ENDBRANCH   1  26
TORSDOF 28
ENDMDL
MODEL 3
REMARK VINA RESULT:      -8.8      4.897     11.345
REMARK SMILES CC(C)(C)[NH2+]Cc1ccn(CC(C)(C)C(=O)OCCOCCOCCOCCOC(=O)c2ccc(-c3c4nc(c(-c5cc(S(=O)(=O)[O-])ccc5F)c5ccc([nH]5)c(-c5cc(S(=O)(=O)[O-])ccc5F)c5nc(c(-c6cc(S(=O)(=O)[O-])ccc6F)c6ccc3[nH]6)C=C5)C=C4)cc2)c1
REMARK SMILES IDX 22 1 21 2 20 3 19 4 18 5 17 6 15 7 16 8 12 9 13 10 14 11
REMARK SMILES IDX 11 12 10 13 7 14 8 15 95 16 9 17 6 18 5 19 2 22 1 23 3 24
REMARK SMILES IDX 4 25 23 26 24 27 25 28 26 29 27 30 28 31 29 32 30 33 31 34
REMARK SMILES IDX 32 35 33 36 94 37 34 38 93 39 35 40 36 41 37 42 87 43 38 44
REMARK SMILES IDX 92 45 86 46 88 47 39 48 91 49 85 50 84 51 40 53 72 54 52 55
REMARK SMILES IDX 71 56 53 57 56 58 70 59 89 60 54 61 55 62 69 64 90 65 57 66
REMARK SMILES IDX 41 67 42 68 50 69 43 70 49 71 51 72 48 73 44 74 45 75 46 76
REMARK SMILES IDX 47 77 73 78 74 79 82 80 75 81 81 82 83 83 80 84 76 85 77 86
REMARK SMILES IDX 78 87 79 88 58 89 59 90 67 91 60 92 66 93 68 94 65 95 61 96
REMARK SMILES IDX 62 97 63 98 64 99
REMARK H PARENT 5 20 5 21 88 52 56 63
REMARK Flexibility Score: inf
ROOT
ATOM      1  C   UNL A   1      42.989  19.320  26.184  1.00  0.00     0.188 C 
ENDROOT
BRANCH   1   2
ATOM      2  C   UNL A   1      43.541  20.569  25.476  1.00  0.00     0.188 C 
BRANCH   2   3
ATOM      3  O   UNL A   1      43.012  21.785  25.995  1.00  0.00    -0.376 OA
BRANCH   3   4
ATOM      4  C   UNL A   1      43.017  22.889  25.097  1.00  0.00     0.202 C 
BRANCH   4   5
ATOM      5  C   UNL A   1      44.354  23.225  24.424  1.00  0.00     0.261 C 
BRANCH   5   6
ATOM      6  O   UNL A   1      44.824  24.548  24.751  1.00  0.00    -0.463 OA
BRANCH   6   7
ATOM      7  C   UNL A   1      44.976  24.901  26.042  1.00  0.00     0.313 C 
ATOM      8  O   UNL A   1      45.602  24.234  26.857  1.00  0.00    -0.252 OA
BRANCH   7   9
ATOM      9  C   UNL A   1      44.264  26.237  26.356  1.00  0.00     0.080 C 
ATOM     10  C   UNL A   1      43.536  26.072  27.708  1.00  0.00     0.025 C 
ATOM     11  C   UNL A   1      43.136  26.551  25.334  1.00  0.00     0.025 C 
BRANCH   9  12
ATOM     12  C   UNL A   1      45.273  27.427  26.375  1.00  0.00     0.139 C 
BRANCH  12  13
ATOM     13  N   UNL A   1      46.538  27.283  25.671  1.00  0.00    -0.353 N 
ATOM     14  C   UNL A   1      48.731  27.042  25.274  1.00  0.00     0.024 A 
ATOM     15  C   UNL A   1      48.071  27.465  24.093  1.00  0.00     0.029 A 
ATOM     16  C   UNL A   1      47.751  26.986  26.255  1.00  0.00     0.095 A 
ATOM     17  C   UNL A   1      46.724  27.400  24.329  1.00  0.00     0.086 A 
BRANCH  14  18
ATOM     18  C   UNL A   1      50.189  26.736  25.375  1.00  0.00     0.299 C 
BRANCH  18  19
ATOM     19  N   UNL A   1      50.754  27.240  26.629  1.00  0.00    -0.338 N 
ATOM     20  H   UNL A   1      51.073  28.191  26.448  1.00  0.00     0.347 HD
ATOM     21  H   UNL A   1      49.989  27.122  27.296  1.00  0.00     0.347 HD
BRANCH  19  22
ATOM     22  C   UNL A   1      51.877  26.527  27.271  1.00  0.00     0.088 C 
ATOM     23  C   UNL A   1      52.483  25.396  26.420  1.00  0.00     0.078 C 
ATOM     24  C   UNL A   1      51.523  26.015  28.685  1.00  0.00     0.078 C 
ATOM     25  C   UNL A   1      52.980  27.592  27.454  1.00  0.00     0.078 C 
ENDBRANCH  19  22
ENDBRANCH  18  19
ENDBRANCH  14  18
ENDBRANCH  12  13
ENDBRANCH   9  12
ENDBRANCH   7   9
ENDBRANCH   6   7
ENDBRANCH   5   6
ENDBRANCH   4   5
ENDBRANCH   3   4
ENDBRANCH   2   3
ENDBRANCH   1   2
BRANCH   1  26
ATOM     26  O   UNL A   1      42.158  19.576  27.302  1.00  0.00    -0.377 OA
BRANCH  26  27
ATOM     27  C   UNL A   1      40.815  19.997  27.072  1.00  0.00     0.188 C 
BRANCH  27  28
ATOM     28  C   UNL A   1      40.058  19.629  25.776  1.00  0.00     0.188 C 
BRANCH  28  29
ATOM     29  O   UNL A   1      38.762  20.201  25.641  1.00  0.00    -0.376 OA
BRANCH  29  30
ATOM     30  C   UNL A   1      38.643  21.611  25.535  1.00  0.00     0.202 C 
BRANCH  30  31
ATOM     31  C   UNL A   1      39.058  22.418  26.774  1.00  0.00     0.261 C 
BRANCH  31  32
ATOM     32  O   UNL A   1      39.423  23.778  26.541  1.00  0.00    -0.460 OA
BRANCH  32  33
ATOM     33  C   UNL A   1      40.154  24.332  27.518  1.00  0.00     0.338 C 
ATOM     34  O   UNL A   1      41.079  23.832  28.150  1.00  0.00    -0.246 OA
BRANCH  33  35
ATOM     35  C   UNL A   1      39.676  25.661  27.829  1.00  0.00     0.060 A 
ATOM     36  C   UNL A   1      39.912  26.649  26.868  1.00  0.00     0.016 A 
ATOM     37  C   UNL A   1      39.382  25.944  29.165  1.00  0.00     0.016 A 
ATOM     38  C   UNL A   1      40.009  27.954  27.288  1.00  0.00     0.010 A 
ATOM     39  C   UNL A   1      39.519  27.248  29.590  1.00  0.00     0.010 A 
ATOM     40  C   UNL A   1      39.883  28.229  28.655  1.00  0.00    -0.014 A 
BRANCH  40  41
ATOM     41  C   UNL A   1      40.082  29.613  29.092  1.00  0.00     0.031 A 
ATOM     42  C   UNL A   1      38.746  30.298  29.364  1.00  0.00     0.074 A 
ATOM     43  C   UNL A   1      41.382  30.035  29.146  1.00  0.00     0.049 A 
ATOM     44  N   UNL A   1      38.436  31.554  29.336  1.00  0.00    -0.248 NA
ATOM     45  C   UNL A   1      37.537  29.454  29.602  1.00  0.00     0.031 C 
ATOM     46  C   UNL A   1      42.559  29.202  28.791  1.00  0.00     0.029 A 
ATOM     47  N   UNL A   1      41.989  31.221  29.498  1.00  0.00    -0.354 N 
ATOM     48  C   UNL A   1      37.123  31.660  29.838  1.00  0.00     0.074 A 
ATOM     49  C   UNL A   1      36.567  30.346  29.797  1.00  0.00     0.031 C 
ATOM     50  C   UNL A   1      43.705  29.913  28.881  1.00  0.00     0.029 A 
ATOM     51  C   UNL A   1      43.403  31.254  29.344  1.00  0.00     0.049 A 
ATOM     52  H   UNL A   1      41.479  31.993  29.834  1.00  0.00     0.167 HD
ATOM     53  C   UNL A   1      36.652  32.784  30.449  1.00  0.00     0.034 A 
ATOM     54  C   UNL A   1      44.273  32.289  29.563  1.00  0.00     0.034 A 
ATOM     55  C   UNL A   1      37.638  33.816  30.391  1.00  0.00     0.049 A 
ATOM     56  C   UNL A   1      43.462  33.340  30.196  1.00  0.00     0.074 A 
ATOM     57  C   UNL A   1      38.171  34.552  29.366  1.00  0.00     0.029 A 
ATOM     58  N   UNL A   1      38.419  33.990  31.512  1.00  0.00    -0.354 N 
ATOM     59  N   UNL A   1      43.026  33.300  31.419  1.00  0.00    -0.248 NA
ATOM     60  C   UNL A   1      43.045  34.499  29.398  1.00  0.00     0.031 C 
ATOM     61  C   UNL A   1      39.499  34.789  29.777  1.00  0.00     0.029 A 
ATOM     62  C   UNL A   1      39.681  34.307  31.081  1.00  0.00     0.049 A 
ATOM     63  H   UNL A   1      38.126  33.902  32.448  1.00  0.00     0.167 HD
ATOM     64  C   UNL A   1      42.034  34.248  31.420  1.00  0.00     0.074 A 
ATOM     65  C   UNL A   1      42.316  35.136  30.312  1.00  0.00     0.031 C 
ATOM     66  C   UNL A   1      40.810  33.926  31.911  1.00  0.00     0.034 A 
BRANCH  53  67
ATOM     67  C   UNL A   1      35.479  33.005  31.370  1.00  0.00     0.023 A 
ATOM     68  C   UNL A   1      34.558  33.996  30.951  1.00  0.00     0.031 A 
ATOM     69  C   UNL A   1      35.377  32.591  32.705  1.00  0.00     0.131 A 
ATOM     70  C   UNL A   1      33.724  34.650  31.862  1.00  0.00     0.055 A 
ATOM     71  C   UNL A   1      34.470  33.185  33.597  1.00  0.00     0.041 A 
ATOM     72  F   UNL A   1      36.196  31.672  33.232  1.00  0.00    -0.206 F 
ATOM     73  C   UNL A   1      33.671  34.251  33.191  1.00  0.00     0.022 A 
BRANCH  70  74
ATOM     74  S   UNL A   1      32.895  36.166  31.307  1.00  0.00     0.124 S 
ATOM     75  O   UNL A   1      31.802  36.284  32.265  1.00  0.00    -0.237 OA
ATOM     76  O   UNL A   1      33.961  37.155  31.429  1.00  0.00    -0.237 OA
ATOM     77  O   UNL A   1      32.494  35.849  29.938  1.00  0.00    -0.744 OA
ENDBRANCH  70  74
ENDBRANCH  53  67
BRANCH  54  78
ATOM     78  C   UNL A   1      45.736  32.625  29.333  1.00  0.00     0.023 A 
ATOM     79  C   UNL A   1      46.319  33.011  28.114  1.00  0.00     0.031 A 
ATOM     80  C   UNL A   1      46.636  32.616  30.445  1.00  0.00     0.131 A 
ATOM     81  C   UNL A   1      47.685  33.408  28.064  1.00  0.00     0.055 A 
ATOM     82  C   UNL A   1      47.954  33.070  30.403  1.00  0.00     0.041 A 
ATOM     83  F   UNL A   1      46.277  32.167  31.654  1.00  0.00    -0.206 F 
ATOM     84  C   UNL A   1      48.485  33.482  29.207  1.00  0.00     0.022 A 
BRANCH  81  85
ATOM     85  S   UNL A   1      48.492  33.873  26.503  1.00  0.00     0.124 S 
ATOM     86  O   UNL A   1      49.094  35.157  26.846  1.00  0.00    -0.237 OA
ATOM     87  O   UNL A   1      49.422  32.775  26.264  1.00  0.00    -0.237 OA
ATOM     88  O   UNL A   1      47.368  33.944  25.569  1.00  0.00    -0.744 OA
ENDBRANCH  81  85
ENDBRANCH  54  78
BRANCH  66  89
ATOM     89  C   UNL A   1      40.827  32.821  32.969  1.00  0.00     0.023 A 
ATOM     90  C   UNL A   1      40.759  31.465  32.593  1.00  0.00     0.031 A 
ATOM     91  C   UNL A   1      40.785  33.077  34.352  1.00  0.00     0.131 A 
ATOM     92  C   UNL A   1      40.626  30.450  33.564  1.00  0.00     0.055 A 
ATOM     93  C   UNL A   1      40.664  32.072  35.319  1.00  0.00     0.041 A 
ATOM     94  F   UNL A   1      40.851  34.321  34.818  1.00  0.00    -0.206 F 
ATOM     95  C   UNL A   1      40.576  30.747  34.927  1.00  0.00     0.022 A 
BRANCH  92  96
ATOM     96  S   UNL A   1      40.538  28.713  33.041  1.00  0.00     0.124 S 
ATOM     97  O   UNL A   1      41.579  28.631  32.023  1.00  0.00    -0.237 OA
ATOM     98  O   UNL A   1      40.802  27.994  34.284  1.00  0.00    -0.237 OA
ATOM     99  O   UNL A   1      39.172  28.577  32.535  1.00  0.00    -0.744 OA
ENDBRANCH  92  96
ENDBRANCH  66  89
ENDBRANCH  40  41
ENDBRANCH  33  35
ENDBRANCH  32  33
ENDBRANCH  31  32
ENDBRANCH  30  31
ENDBRANCH  29  30
ENDBRANCH  28  29
ENDBRANCH  27  28
ENDBRANCH  26  27
ENDBRANCH   1  26
TORSDOF 28
ENDMDL
