MODEL 1
REMARK VINA RESULT:      -8.7      0.000      0.000
REMARK SMILES CCc1cc(OC(F)(F)F)cc2c1O[C@@H](C(F)(F)F)C(C(=O)OCCOCCOCCOCCOC(=O)c1ccc(-c3c4nc(c(-c5cc(S(=O)(=O)[O-])ccc5F)c5ccc([nH]5)c(-c5cc(S(=O)(=O)[O-])ccc5F)c5nc(c(-c6cc(S(=O)(=O)[O-])ccc6F)c6ccc3[nH]6)C=C5)C=C4)cc1)=C2
REMARK SMILES IDX 30 1 29 2 28 3 27 4 26 5 25 6 24 7 23 8 21 9 22 10 20 11
REMARK SMILES IDX 3 12 4 13 13 14 5 15 12 16 14 17 11 18 101 19 15 20 2 21
REMARK SMILES IDX 1 22 6 23 7 24 8 25 9 26 10 27 16 28 17 29 18 30 19 31 31 32
REMARK SMILES IDX 32 33 33 34 34 35 35 36 36 37 37 38 38 39 39 40 100 41 40 42
REMARK SMILES IDX 99 43 41 44 42 45 43 46 93 47 44 48 98 49 92 50 94 51 45 52
REMARK SMILES IDX 97 53 91 54 90 55 46 57 78 58 58 59 77 60 59 61 62 62 76 63
REMARK SMILES IDX 95 64 60 65 61 66 75 68 96 69 63 70 47 71 48 72 56 73 49 74
REMARK SMILES IDX 55 75 57 76 54 77 50 78 51 79 52 80 53 81 79 82 80 83 88 84
REMARK SMILES IDX 81 85 87 86 89 87 86 88 82 89 83 90 84 91 85 92 64 93 65 94
REMARK SMILES IDX 73 95 66 96 72 97 74 98 71 99 67 100 68 101 69 102 70 103
REMARK H PARENT 94 56 62 67
REMARK Flexibility Score: inf
ROOT
ATOM      1  C   UNL A   1      36.291  21.939  25.872  1.00  0.00     0.188 C 
ENDROOT
BRANCH   1   2
ATOM      2  O   UNL A   1      35.224  22.330  26.738  1.00  0.00    -0.377 OA
BRANCH   2   3
ATOM      3  C   UNL A   1      34.208  21.396  27.048  1.00  0.00     0.188 C 
BRANCH   3   4
ATOM      4  C   UNL A   1      33.296  20.936  25.898  1.00  0.00     0.188 C 
BRANCH   4   5
ATOM      5  O   UNL A   1      32.798  21.990  25.090  1.00  0.00    -0.376 OA
BRANCH   5   6
ATOM      6  C   UNL A   1      31.460  22.410  25.302  1.00  0.00     0.202 C 
BRANCH   6   7
ATOM      7  C   UNL A   1      30.862  23.383  24.275  1.00  0.00     0.261 C 
BRANCH   7   8
ATOM      8  O   UNL A   1      31.455  23.332  22.968  1.00  0.00    -0.460 OA
BRANCH   8   9
ATOM      9  C   UNL A   1      32.539  24.106  22.748  1.00  0.00     0.338 C 
ATOM     10  O   UNL A   1      33.574  23.764  22.207  1.00  0.00    -0.246 OA
BRANCH   9  11
ATOM     11  C   UNL A   1      32.221  25.502  23.107  1.00  0.00     0.087 C 
ATOM     12  C   UNL A   1      31.109  29.138  24.839  1.00  0.00    -0.002 A 
ATOM     13  C   UNL A   1      30.077  29.886  24.238  1.00  0.00     0.054 A 
ATOM     14  C   UNL A   1      31.468  27.926  24.242  1.00  0.00     0.131 A 
ATOM     15  C   UNL A   1      29.437  29.446  23.073  1.00  0.00     0.130 A 
ATOM     16  C   UNL A   1      30.834  27.464  23.073  1.00  0.00     0.021 A 
ATOM     17  O   UNL A   1      32.391  27.142  24.880  1.00  0.00    -0.475 OA
ATOM     18  C   UNL A   1      29.839  28.244  22.480  1.00  0.00     0.058 A 
ATOM     19  C   UNL A   1      31.139  26.113  22.592  1.00  0.00     0.027 C 
ATOM     20  C   UNL A   1      33.154  26.279  24.003  1.00  0.00     0.316 C 
BRANCH  12  21
ATOM     21  C   UNL A   1      31.676  29.652  26.149  1.00  0.00     0.036 C 
ATOM     22  C   UNL A   1      33.033  30.347  26.132  1.00  0.00     0.009 C 
ENDBRANCH  12  21
BRANCH  15  23
ATOM     23  O   UNL A   1      28.406  30.085  22.441  1.00  0.00    -0.406 OA
BRANCH  23  24
ATOM     24  C   UNL A   1      28.681  31.347  21.857  1.00  0.00     0.573 C 
ATOM     25  F   UNL A   1      29.849  31.335  21.176  1.00  0.00    -0.132 F 
ATOM     26  F   UNL A   1      27.685  31.722  21.025  1.00  0.00    -0.132 F 
ATOM     27  F   UNL A   1      28.780  32.274  22.835  1.00  0.00    -0.132 F 
ENDBRANCH  23  24
ENDBRANCH  15  23
BRANCH  20  28
ATOM     28  C   UNL A   1      34.194  25.548  24.870  1.00  0.00     0.430 C 
ATOM     29  F   UNL A   1      34.901  26.393  25.651  1.00  0.00    -0.167 F 
ATOM     30  F   UNL A   1      33.554  24.710  25.734  1.00  0.00    -0.167 F 
ATOM     31  F   UNL A   1      35.050  24.795  24.156  1.00  0.00    -0.167 F 
ENDBRANCH  20  28
ENDBRANCH   9  11
ENDBRANCH   8   9
ENDBRANCH   7   8
ENDBRANCH   6   7
ENDBRANCH   5   6
ENDBRANCH   4   5
ENDBRANCH   3   4
ENDBRANCH   2   3
ENDBRANCH   1   2
BRANCH   1  32
ATOM     32  C   UNL A   1      37.471  22.885  25.532  1.00  0.00     0.188 C 
BRANCH  32  33
ATOM     33  O   UNL A   1      38.696  22.589  26.189  1.00  0.00    -0.376 OA
BRANCH  33  34
ATOM     34  C   UNL A   1      39.254  21.307  25.949  1.00  0.00     0.202 C 
BRANCH  34  35
ATOM     35  C   UNL A   1      40.697  21.132  26.437  1.00  0.00     0.261 C 
BRANCH  35  36
ATOM     36  O   UNL A   1      41.338  22.328  26.907  1.00  0.00    -0.460 OA
BRANCH  36  37
ATOM     37  C   UNL A   1      42.275  22.876  26.091  1.00  0.00     0.338 C 
ATOM     38  O   UNL A   1      42.630  22.465  25.012  1.00  0.00    -0.246 OA
BRANCH  37  39
ATOM     39  C   UNL A   1      42.642  24.192  26.663  1.00  0.00     0.060 A 
ATOM     40  C   UNL A   1      42.697  24.333  28.056  1.00  0.00     0.016 A 
ATOM     41  C   UNL A   1      42.951  25.267  25.828  1.00  0.00     0.016 A 
ATOM     42  C   UNL A   1      43.030  25.564  28.618  1.00  0.00     0.010 A 
ATOM     43  C   UNL A   1      43.260  26.507  26.393  1.00  0.00     0.010 A 
ATOM     44  C   UNL A   1      43.269  26.669  27.789  1.00  0.00    -0.014 A 
BRANCH  44  45
ATOM     45  C   UNL A   1      43.303  28.030  28.379  1.00  0.00     0.031 A 
ATOM     46  C   UNL A   1      44.642  28.700  28.531  1.00  0.00     0.074 A 
ATOM     47  C   UNL A   1      42.176  28.671  28.739  1.00  0.00     0.049 A 
ATOM     48  N   UNL A   1      44.938  29.867  29.039  1.00  0.00    -0.248 NA
ATOM     49  C   UNL A   1      45.804  27.941  28.043  1.00  0.00     0.031 C 
ATOM     50  C   UNL A   1      40.821  28.145  28.597  1.00  0.00     0.029 A 
ATOM     51  N   UNL A   1      41.998  29.911  29.305  1.00  0.00    -0.354 N 
ATOM     52  C   UNL A   1      46.319  29.984  28.933  1.00  0.00     0.074 A 
ATOM     53  C   UNL A   1      46.805  28.750  28.353  1.00  0.00     0.031 C 
ATOM     54  C   UNL A   1      39.949  29.054  29.069  1.00  0.00     0.029 A 
ATOM     55  C   UNL A   1      40.685  30.209  29.581  1.00  0.00     0.049 A 
ATOM     56  H   UNL A   1      42.743  30.527  29.493  1.00  0.00     0.167 HD
ATOM     57  C   UNL A   1      47.111  31.030  29.276  1.00  0.00     0.034 A 
ATOM     58  C   UNL A   1      40.146  31.282  30.199  1.00  0.00     0.034 A 
ATOM     59  C   UNL A   1      46.615  32.246  29.871  1.00  0.00     0.049 A 
ATOM     60  C   UNL A   1      41.059  32.393  30.666  1.00  0.00     0.074 A 
ATOM     61  C   UNL A   1      47.324  33.371  30.250  1.00  0.00     0.029 A 
ATOM     62  N   UNL A   1      45.284  32.491  30.190  1.00  0.00    -0.354 N 
ATOM     63  N   UNL A   1      42.364  32.501  30.547  1.00  0.00    -0.248 NA
ATOM     64  C   UNL A   1      40.424  33.532  31.343  1.00  0.00     0.031 C 
ATOM     65  C   UNL A   1      46.439  34.259  30.870  1.00  0.00     0.029 A 
ATOM     66  C   UNL A   1      45.160  33.731  30.798  1.00  0.00     0.049 A 
ATOM     67  H   UNL A   1      44.538  31.873  30.011  1.00  0.00     0.167 HD
ATOM     68  C   UNL A   1      42.697  33.733  31.107  1.00  0.00     0.074 A 
ATOM     69  C   UNL A   1      41.456  34.338  31.545  1.00  0.00     0.031 C 
ATOM     70  C   UNL A   1      43.916  34.316  31.243  1.00  0.00     0.034 A 
BRANCH  57  71
ATOM     71  C   UNL A   1      48.598  30.870  29.068  1.00  0.00     0.023 A 
ATOM     72  C   UNL A   1      49.237  31.333  27.904  1.00  0.00     0.031 A 
ATOM     73  C   UNL A   1      49.380  30.209  30.031  1.00  0.00     0.131 A 
ATOM     74  C   UNL A   1      50.600  31.066  27.702  1.00  0.00     0.055 A 
ATOM     75  C   UNL A   1      50.753  30.021  29.861  1.00  0.00     0.041 A 
ATOM     76  F   UNL A   1      48.820  29.720  31.148  1.00  0.00    -0.206 F 
ATOM     77  C   UNL A   1      51.368  30.437  28.684  1.00  0.00     0.022 A 
BRANCH  74  78
ATOM     78  S   UNL A   1      51.319  31.416  26.073  1.00  0.00     0.124 S 
ATOM     79  O   UNL A   1      50.498  32.537  25.623  1.00  0.00    -0.237 OA
ATOM     80  O   UNL A   1      52.705  31.729  26.401  1.00  0.00    -0.237 OA
ATOM     81  O   UNL A   1      51.117  30.170  25.335  1.00  0.00    -0.744 OA
ENDBRANCH  74  78
ENDBRANCH  57  71
BRANCH  58  82
ATOM     82  C   UNL A   1      38.677  31.351  30.459  1.00  0.00     0.023 A 
ATOM     83  C   UNL A   1      37.803  31.966  29.548  1.00  0.00     0.031 A 
ATOM     84  C   UNL A   1      38.135  30.864  31.662  1.00  0.00     0.131 A 
ATOM     85  C   UNL A   1      36.447  32.123  29.875  1.00  0.00     0.055 A 
ATOM     86  C   UNL A   1      36.775  30.970  31.958  1.00  0.00     0.041 A 
ATOM     87  F   UNL A   1      38.925  30.273  32.573  1.00  0.00    -0.206 F 
ATOM     88  C   UNL A   1      35.924  31.616  31.067  1.00  0.00     0.022 A 
BRANCH  85  89
ATOM     89  S   UNL A   1      35.389  33.089  28.762  1.00  0.00     0.124 S 
ATOM     90  O   UNL A   1      35.643  34.450  29.217  1.00  0.00    -0.237 OA
ATOM     91  O   UNL A   1      35.930  32.738  27.452  1.00  0.00    -0.237 OA
ATOM     92  O   UNL A   1      34.048  32.576  29.037  1.00  0.00    -0.744 OA
ENDBRANCH  85  89
ENDBRANCH  58  82
BRANCH  70  93
ATOM     93  C   UNL A   1      43.957  35.699  31.853  1.00  0.00     0.023 A 
ATOM     94  C   UNL A   1      44.089  35.896  33.239  1.00  0.00     0.031 A 
ATOM     95  C   UNL A   1      43.852  36.837  31.033  1.00  0.00     0.131 A 
ATOM     96  C   UNL A   1      44.050  37.195  33.768  1.00  0.00     0.055 A 
ATOM     97  C   UNL A   1      43.884  38.130  31.560  1.00  0.00     0.041 A 
ATOM     98  F   UNL A   1      43.721  36.713  29.703  1.00  0.00    -0.206 F 
ATOM     99  C   UNL A   1      43.968  38.314  32.936  1.00  0.00     0.022 A 
BRANCH  96 100
ATOM    100  S   UNL A   1      44.000  37.400  35.569  1.00  0.00     0.124 S 
ATOM    101  O   UNL A   1      43.970  38.853  35.709  1.00  0.00    -0.237 OA
ATOM    102  O   UNL A   1      42.771  36.700  35.929  1.00  0.00    -0.237 OA
ATOM    103  O   UNL A   1      45.233  36.758  36.023  1.00  0.00    -0.744 OA
ENDBRANCH  96 100
ENDBRANCH  70  93
ENDBRANCH  44  45
ENDBRANCH  37  39
ENDBRANCH  36  37
ENDBRANCH  35  36
ENDBRANCH  34  35
ENDBRANCH  33  34
ENDBRANCH  32  33
ENDBRANCH   1  32
TORSDOF 27
ENDMDL
MODEL 2
REMARK VINA RESULT:      -8.0      6.335      9.563
REMARK SMILES CCc1cc(OC(F)(F)F)cc2c1O[C@@H](C(F)(F)F)C(C(=O)OCCOCCOCCOCCOC(=O)c1ccc(-c3c4nc(c(-c5cc(S(=O)(=O)[O-])ccc5F)c5ccc([nH]5)c(-c5cc(S(=O)(=O)[O-])ccc5F)c5nc(c(-c6cc(S(=O)(=O)[O-])ccc6F)c6ccc3[nH]6)C=C5)C=C4)cc1)=C2
REMARK SMILES IDX 30 1 29 2 28 3 27 4 26 5 25 6 24 7 23 8 21 9 22 10 20 11
REMARK SMILES IDX 3 12 4 13 13 14 5 15 12 16 14 17 11 18 101 19 15 20 2 21
REMARK SMILES IDX 1 22 6 23 7 24 8 25 9 26 10 27 16 28 17 29 18 30 19 31 31 32
REMARK SMILES IDX 32 33 33 34 34 35 35 36 36 37 37 38 38 39 39 40 100 41 40 42
REMARK SMILES IDX 99 43 41 44 42 45 43 46 93 47 44 48 98 49 92 50 94 51 45 52
REMARK SMILES IDX 97 53 91 54 90 55 46 57 78 58 58 59 77 60 59 61 62 62 76 63
REMARK SMILES IDX 95 64 60 65 61 66 75 68 96 69 63 70 47 71 48 72 56 73 49 74
REMARK SMILES IDX 55 75 57 76 54 77 50 78 51 79 52 80 53 81 79 82 80 83 88 84
REMARK SMILES IDX 81 85 87 86 89 87 86 88 82 89 83 90 84 91 85 92 64 93 65 94
REMARK SMILES IDX 73 95 66 96 72 97 74 98 71 99 67 100 68 101 69 102 70 103
REMARK H PARENT 94 56 62 67
REMARK Flexibility Score: inf
ROOT
ATOM      1  C   UNL A   1      39.654  25.777  28.670  1.00  0.00     0.188 C 
ENDROOT
BRANCH   1   2
ATOM      2  O   UNL A   1      39.567  25.885  27.249  1.00  0.00    -0.377 OA
BRANCH   2   3
ATOM      3  C   UNL A   1      39.877  24.759  26.450  1.00  0.00     0.188 C 
BRANCH   3   4
ATOM      4  C   UNL A   1      39.364  23.390  26.930  1.00  0.00     0.188 C 
BRANCH   4   5
ATOM      5  O   UNL A   1      39.250  22.417  25.903  1.00  0.00    -0.376 OA
BRANCH   5   6
ATOM      6  C   UNL A   1      38.046  21.672  25.829  1.00  0.00     0.202 C 
BRANCH   6   7
ATOM      7  C   UNL A   1      37.123  21.950  24.633  1.00  0.00     0.261 C 
BRANCH   7   8
ATOM      8  O   UNL A   1      36.023  22.831  24.904  1.00  0.00    -0.460 OA
BRANCH   8   9
ATOM      9  C   UNL A   1      35.301  23.265  23.849  1.00  0.00     0.338 C 
ATOM     10  O   UNL A   1      35.393  22.873  22.700  1.00  0.00    -0.246 OA
BRANCH   9  11
ATOM     11  C   UNL A   1      34.243  24.177  24.324  1.00  0.00     0.087 C 
ATOM     12  C   UNL A   1      30.932  26.654  24.928  1.00  0.00    -0.002 A 
ATOM     13  C   UNL A   1      31.151  28.009  25.250  1.00  0.00     0.054 A 
ATOM     14  C   UNL A   1      32.054  25.842  24.733  1.00  0.00     0.131 A 
ATOM     15  C   UNL A   1      32.444  28.529  25.388  1.00  0.00     0.130 A 
ATOM     16  C   UNL A   1      33.361  26.347  24.863  1.00  0.00     0.021 A 
ATOM     17  O   UNL A   1      31.851  24.555  24.313  1.00  0.00    -0.475 OA
ATOM     18  C   UNL A   1      33.546  27.685  25.218  1.00  0.00     0.058 A 
ATOM     19  C   UNL A   1      34.489  25.489  24.484  1.00  0.00     0.027 C 
ATOM     20  C   UNL A   1      32.890  23.625  24.703  1.00  0.00     0.316 C 
BRANCH  12  21
ATOM     21  C   UNL A   1      29.499  26.208  24.711  1.00  0.00     0.036 C 
ATOM     22  C   UNL A   1      28.703  26.842  23.574  1.00  0.00     0.009 C 
ENDBRANCH  12  21
BRANCH  15  23
ATOM     23  O   UNL A   1      32.753  29.833  25.662  1.00  0.00    -0.406 OA
BRANCH  23  24
ATOM     24  C   UNL A   1      32.616  30.266  27.006  1.00  0.00     0.573 C 
ATOM     25  F   UNL A   1      31.983  31.458  27.081  1.00  0.00    -0.132 F 
ATOM     26  F   UNL A   1      31.938  29.356  27.740  1.00  0.00    -0.132 F 
ATOM     27  F   UNL A   1      33.844  30.411  27.550  1.00  0.00    -0.132 F 
ENDBRANCH  23  24
ENDBRANCH  15  23
BRANCH  20  28
ATOM     28  C   UNL A   1      32.455  22.227  24.231  1.00  0.00     0.430 C 
ATOM     29  F   UNL A   1      31.521  21.677  25.036  1.00  0.00    -0.167 F 
ATOM     30  F   UNL A   1      31.863  22.327  23.007  1.00  0.00    -0.167 F 
ATOM     31  F   UNL A   1      33.480  21.365  24.101  1.00  0.00    -0.167 F 
ENDBRANCH  20  28
ENDBRANCH   9  11
ENDBRANCH   8   9
ENDBRANCH   7   8
ENDBRANCH   6   7
ENDBRANCH   5   6
ENDBRANCH   4   5
ENDBRANCH   3   4
ENDBRANCH   2   3
ENDBRANCH   1   2
BRANCH   1  32
ATOM     32  C   UNL A   1      38.937  26.770  29.621  1.00  0.00     0.188 C 
BRANCH  32  33
ATOM     33  O   UNL A   1      38.502  27.982  29.019  1.00  0.00    -0.376 OA
BRANCH  33  34
ATOM     34  C   UNL A   1      38.443  29.124  29.857  1.00  0.00     0.202 C 
BRANCH  34  35
ATOM     35  C   UNL A   1      38.111  28.829  31.325  1.00  0.00     0.261 C 
BRANCH  35  36
ATOM     36  O   UNL A   1      36.885  29.399  31.807  1.00  0.00    -0.460 OA
BRANCH  36  37
ATOM     37  C   UNL A   1      36.644  30.693  31.473  1.00  0.00     0.338 C 
ATOM     38  O   UNL A   1      35.889  31.095  30.620  1.00  0.00    -0.246 OA
BRANCH  37  39
ATOM     39  C   UNL A   1      37.315  31.541  32.484  1.00  0.00     0.060 A 
ATOM     40  C   UNL A   1      38.664  31.304  32.777  1.00  0.00     0.016 A 
ATOM     41  C   UNL A   1      36.622  32.574  33.117  1.00  0.00     0.016 A 
ATOM     42  C   UNL A   1      39.316  32.083  33.733  1.00  0.00     0.010 A 
ATOM     43  C   UNL A   1      37.269  33.337  34.092  1.00  0.00     0.010 A 
ATOM     44  C   UNL A   1      38.608  33.073  34.428  1.00  0.00    -0.014 A 
BRANCH  44  45
ATOM     45  C   UNL A   1      39.200  33.671  35.650  1.00  0.00     0.031 A 
ATOM     46  C   UNL A   1      40.337  34.643  35.480  1.00  0.00     0.074 A 
ATOM     47  C   UNL A   1      38.722  33.390  36.876  1.00  0.00     0.049 A 
ATOM     48  N   UNL A   1      41.036  35.274  36.385  1.00  0.00    -0.248 NA
ATOM     49  C   UNL A   1      40.739  34.934  34.094  1.00  0.00     0.031 C 
ATOM     50  C   UNL A   1      37.597  32.504  37.162  1.00  0.00     0.029 A 
ATOM     51  N   UNL A   1      39.132  33.824  38.113  1.00  0.00    -0.354 N 
ATOM     52  C   UNL A   1      41.960  36.039  35.681  1.00  0.00     0.074 A 
ATOM     53  C   UNL A   1      41.761  35.755  34.276  1.00  0.00     0.031 C 
ATOM     54  C   UNL A   1      37.409  32.455  38.493  1.00  0.00     0.029 A 
ATOM     55  C   UNL A   1      38.423  33.275  39.155  1.00  0.00     0.049 A 
ATOM     56  H   UNL A   1      39.865  34.470  38.240  1.00  0.00     0.167 HD
ATOM     57  C   UNL A   1      42.884  36.907  36.161  1.00  0.00     0.034 A 
ATOM     58  C   UNL A   1      38.593  33.402  40.488  1.00  0.00     0.034 A 
ATOM     59  C   UNL A   1      43.085  37.165  37.565  1.00  0.00     0.049 A 
ATOM     60  C   UNL A   1      39.696  34.299  41.004  1.00  0.00     0.074 A 
ATOM     61  C   UNL A   1      43.985  38.030  38.163  1.00  0.00     0.029 A 
ATOM     62  N   UNL A   1      42.387  36.546  38.596  1.00  0.00    -0.354 N 
ATOM     63  N   UNL A   1      40.556  35.029  40.328  1.00  0.00    -0.248 NA
ATOM     64  C   UNL A   1      39.846  34.393  42.462  1.00  0.00     0.031 C 
ATOM     65  C   UNL A   1      43.887  37.875  39.549  1.00  0.00     0.029 A 
ATOM     66  C   UNL A   1      42.864  36.981  39.823  1.00  0.00     0.049 A 
ATOM     67  H   UNL A   1      41.660  35.894  38.472  1.00  0.00     0.167 HD
ATOM     68  C   UNL A   1      41.325  35.692  41.283  1.00  0.00     0.074 A 
ATOM     69  C   UNL A   1      40.815  35.289  42.577  1.00  0.00     0.031 C 
ATOM     70  C   UNL A   1      42.356  36.559  41.108  1.00  0.00     0.034 A 
BRANCH  57  71
ATOM     71  C   UNL A   1      43.780  37.589  35.156  1.00  0.00     0.023 A 
ATOM     72  C   UNL A   1      43.415  38.799  34.538  1.00  0.00     0.031 A 
ATOM     73  C   UNL A   1      45.000  37.001  34.781  1.00  0.00     0.131 A 
ATOM     74  C   UNL A   1      44.225  39.342  33.529  1.00  0.00     0.055 A 
ATOM     75  C   UNL A   1      45.843  37.591  33.836  1.00  0.00     0.041 A 
ATOM     76  F   UNL A   1      45.389  35.833  35.315  1.00  0.00    -0.206 F 
ATOM     77  C   UNL A   1      45.450  38.761  33.193  1.00  0.00     0.022 A 
BRANCH  74  78
ATOM     78  S   UNL A   1      43.584  40.732  32.556  1.00  0.00     0.124 S 
ATOM     79  O   UNL A   1      44.457  41.821  32.986  1.00  0.00    -0.237 OA
ATOM     80  O   UNL A   1      43.766  40.269  31.186  1.00  0.00    -0.237 OA
ATOM     81  O   UNL A   1      42.195  40.847  32.997  1.00  0.00    -0.744 OA
ENDBRANCH  74  78
ENDBRANCH  57  71
BRANCH  58  82
ATOM     82  C   UNL A   1      37.734  32.636  41.440  1.00  0.00     0.023 A 
ATOM     83  C   UNL A   1      36.448  33.081  41.783  1.00  0.00     0.031 A 
ATOM     84  C   UNL A   1      38.221  31.481  42.078  1.00  0.00     0.131 A 
ATOM     85  C   UNL A   1      35.713  32.407  42.771  1.00  0.00     0.055 A 
ATOM     86  C   UNL A   1      37.464  30.780  43.018  1.00  0.00     0.041 A 
ATOM     87  F   UNL A   1      39.448  31.014  41.796  1.00  0.00    -0.206 F 
ATOM     88  C   UNL A   1      36.206  31.251  43.381  1.00  0.00     0.022 A 
BRANCH  85  89
ATOM     89  S   UNL A   1      34.137  33.119  43.323  1.00  0.00     0.124 S 
ATOM     90  O   UNL A   1      34.479  34.530  43.450  1.00  0.00    -0.237 OA
ATOM     91  O   UNL A   1      33.247  32.770  42.221  1.00  0.00    -0.237 OA
ATOM     92  O   UNL A   1      33.871  32.423  44.580  1.00  0.00    -0.744 OA
ENDBRANCH  85  89
ENDBRANCH  58  82
BRANCH  70  93
ATOM     93  C   UNL A   1      42.969  37.164  42.351  1.00  0.00     0.023 A 
ATOM     94  C   UNL A   1      42.490  38.363  42.908  1.00  0.00     0.031 A 
ATOM     95  C   UNL A   1      44.058  36.534  42.980  1.00  0.00     0.131 A 
ATOM     96  C   UNL A   1      43.136  38.925  44.020  1.00  0.00     0.055 A 
ATOM     97  C   UNL A   1      44.652  37.063  44.128  1.00  0.00     0.041 A 
ATOM     98  F   UNL A   1      44.561  35.389  42.493  1.00  0.00    -0.206 F 
ATOM     99  C   UNL A   1      44.202  38.273  44.645  1.00  0.00     0.022 A 
BRANCH  96 100
ATOM    100  S   UNL A   1      42.634  40.577  44.575  1.00  0.00     0.124 S 
ATOM    101  O   UNL A   1      42.557  41.310  43.315  1.00  0.00    -0.237 OA
ATOM    102  O   UNL A   1      41.361  40.311  45.236  1.00  0.00    -0.237 OA
ATOM    103  O   UNL A   1      43.720  40.986  45.465  1.00  0.00    -0.744 OA
ENDBRANCH  96 100
ENDBRANCH  70  93
ENDBRANCH  44  45
ENDBRANCH  37  39
ENDBRANCH  36  37
ENDBRANCH  35  36
ENDBRANCH  34  35
ENDBRANCH  33  34
ENDBRANCH  32  33
ENDBRANCH   1  32
TORSDOF 27
ENDMDL
MODEL 3
REMARK VINA RESULT:      -8.0      4.827      8.463
REMARK SMILES CCc1cc(OC(F)(F)F)cc2c1O[C@@H](C(F)(F)F)C(C(=O)OCCOCCOCCOCCOC(=O)c1ccc(-c3c4nc(c(-c5cc(S(=O)(=O)[O-])ccc5F)c5ccc([nH]5)c(-c5cc(S(=O)(=O)[O-])ccc5F)c5nc(c(-c6cc(S(=O)(=O)[O-])ccc6F)c6ccc3[nH]6)C=C5)C=C4)cc1)=C2
REMARK SMILES IDX 30 1 29 2 28 3 27 4 26 5 25 6 24 7 23 8 21 9 22 10 20 11
REMARK SMILES IDX 3 12 4 13 13 14 5 15 12 16 14 17 11 18 101 19 15 20 2 21
REMARK SMILES IDX 1 22 6 23 7 24 8 25 9 26 10 27 16 28 17 29 18 30 19 31 31 32
REMARK SMILES IDX 32 33 33 34 34 35 35 36 36 37 37 38 38 39 39 40 100 41 40 42
REMARK SMILES IDX 99 43 41 44 42 45 43 46 93 47 44 48 98 49 92 50 94 51 45 52
REMARK SMILES IDX 97 53 91 54 90 55 46 57 78 58 58 59 77 60 59 61 62 62 76 63
REMARK SMILES IDX 95 64 60 65 61 66 75 68 96 69 63 70 47 71 48 72 56 73 49 74
REMARK SMILES IDX 55 75 57 76 54 77 50 78 51 79 52 80 53 81 79 82 80 83 88 84
REMARK SMILES IDX 81 85 87 86 89 87 86 88 82 89 83 90 84 91 85 92 64 93 65 94
REMARK SMILES IDX 73 95 66 96 72 97 74 98 71 99 67 100 68 101 69 102 70 103
REMARK H PARENT 94 56 62 67
REMARK Flexibility Score: inf
ROOT
ATOM      1  C   UNL A   1      47.803  25.046  25.922  1.00  0.00     0.188 C 
ENDROOT
BRANCH   1   2
ATOM      2  O   UNL A   1      46.470  25.058  26.433  1.00  0.00    -0.377 OA
BRANCH   2   3
ATOM      3  C   UNL A   1      46.050  24.016  27.294  1.00  0.00     0.188 C 
BRANCH   3   4
ATOM      4  C   UNL A   1      44.700  23.345  26.984  1.00  0.00     0.188 C 
BRANCH   4   5
ATOM      5  O   UNL A   1      43.936  24.004  25.988  1.00  0.00    -0.376 OA
BRANCH   5   6
ATOM      6  C   UNL A   1      43.079  23.214  25.180  1.00  0.00     0.202 C 
BRANCH   6   7
ATOM      7  C   UNL A   1      42.406  22.006  25.847  1.00  0.00     0.261 C 
BRANCH   7   8
ATOM      8  O   UNL A   1      41.035  21.791  25.479  1.00  0.00    -0.460 OA
BRANCH   8   9
ATOM      9  C   UNL A   1      40.181  21.418  26.456  1.00  0.00     0.338 C 
ATOM     10  O   UNL A   1      40.483  21.029  27.569  1.00  0.00    -0.246 OA
BRANCH   9  11
ATOM     11  C   UNL A   1      38.799  21.718  26.036  1.00  0.00     0.087 C 
ATOM     12  C   UNL A   1      34.753  22.684  25.641  1.00  0.00    -0.002 A 
ATOM     13  C   UNL A   1      33.883  21.733  25.072  1.00  0.00     0.054 A 
ATOM     14  C   UNL A   1      36.104  22.342  25.761  1.00  0.00     0.131 A 
ATOM     15  C   UNL A   1      34.348  20.490  24.625  1.00  0.00     0.130 A 
ATOM     16  C   UNL A   1      36.590  21.096  25.322  1.00  0.00     0.021 A 
ATOM     17  O   UNL A   1      36.933  23.215  26.412  1.00  0.00    -0.475 OA
ATOM     18  C   UNL A   1      35.710  20.188  24.730  1.00  0.00     0.058 A 
ATOM     19  C   UNL A   1      37.978  20.734  25.627  1.00  0.00     0.027 C 
ATOM     20  C   UNL A   1      38.319  23.148  25.997  1.00  0.00     0.316 C 
BRANCH  12  21
ATOM     21  C   UNL A   1      34.139  23.963  26.178  1.00  0.00     0.036 C 
ATOM     22  C   UNL A   1      34.490  25.282  25.497  1.00  0.00     0.009 C 
ENDBRANCH  12  21
BRANCH  15  23
ATOM     23  O   UNL A   1      33.576  19.494  24.095  1.00  0.00    -0.406 OA
BRANCH  23  24
ATOM     24  C   UNL A   1      33.130  18.476  24.976  1.00  0.00     0.573 C 
ATOM     25  F   UNL A   1      33.932  17.388  24.922  1.00  0.00    -0.132 F 
ATOM     26  F   UNL A   1      33.078  18.927  26.248  1.00  0.00    -0.132 F 
ATOM     27  F   UNL A   1      31.885  18.094  24.616  1.00  0.00    -0.132 F 
ENDBRANCH  23  24
ENDBRANCH  15  23
BRANCH  20  28
ATOM     28  C   UNL A   1      39.079  24.249  26.757  1.00  0.00     0.430 C 
ATOM     29  F   UNL A   1      40.075  24.789  26.023  1.00  0.00    -0.167 F 
ATOM     30  F   UNL A   1      38.230  25.281  27.027  1.00  0.00    -0.167 F 
ATOM     31  F   UNL A   1      39.581  23.836  27.935  1.00  0.00    -0.167 F 
ENDBRANCH  20  28
ENDBRANCH   9  11
ENDBRANCH   8   9
ENDBRANCH   7   8
ENDBRANCH   6   7
ENDBRANCH   5   6
ENDBRANCH   4   5
ENDBRANCH   3   4
ENDBRANCH   2   3
ENDBRANCH   1   2
BRANCH   1  32
ATOM     32  C   UNL A   1      48.154  25.589  24.513  1.00  0.00     0.188 C 
BRANCH  32  33
ATOM     33  O   UNL A   1      48.255  27.003  24.414  1.00  0.00    -0.376 OA
BRANCH  33  34
ATOM     34  C   UNL A   1      49.374  27.607  25.041  1.00  0.00     0.202 C 
BRANCH  34  35
ATOM     35  C   UNL A   1      49.048  28.406  26.308  1.00  0.00     0.261 C 
BRANCH  35  36
ATOM     36  O   UNL A   1      47.672  28.378  26.718  1.00  0.00    -0.460 OA
BRANCH  36  37
ATOM     37  C   UNL A   1      46.950  29.507  26.504  1.00  0.00     0.338 C 
ATOM     38  O   UNL A   1      46.713  30.028  25.439  1.00  0.00    -0.246 OA
BRANCH  37  39
ATOM     39  C   UNL A   1      46.323  29.881  27.792  1.00  0.00     0.060 A 
ATOM     40  C   UNL A   1      45.693  28.887  28.551  1.00  0.00     0.016 A 
ATOM     41  C   UNL A   1      46.381  31.198  28.253  1.00  0.00     0.016 A 
ATOM     42  C   UNL A   1      45.087  29.216  29.763  1.00  0.00     0.010 A 
ATOM     43  C   UNL A   1      45.752  31.531  29.456  1.00  0.00     0.010 A 
ATOM     44  C   UNL A   1      45.073  30.548  30.199  1.00  0.00    -0.014 A 
BRANCH  44  45
ATOM     45  C   UNL A   1      44.166  30.946  31.303  1.00  0.00     0.031 A 
ATOM     46  C   UNL A   1      44.696  30.879  32.710  1.00  0.00     0.074 A 
ATOM     47  C   UNL A   1      42.918  31.388  31.066  1.00  0.00     0.049 A 
ATOM     48  N   UNL A   1      44.097  31.145  33.840  1.00  0.00    -0.248 NA
ATOM     49  C   UNL A   1      46.096  30.448  32.855  1.00  0.00     0.031 C 
ATOM     50  C   UNL A   1      42.311  31.542  29.746  1.00  0.00     0.029 A 
ATOM     51  N   UNL A   1      41.934  31.787  31.937  1.00  0.00    -0.354 N 
ATOM     52  C   UNL A   1      45.044  30.914  34.832  1.00  0.00     0.074 A 
ATOM     53  C   UNL A   1      46.242  30.444  34.170  1.00  0.00     0.031 C 
ATOM     54  C   UNL A   1      41.055  31.997  29.895  1.00  0.00     0.029 A 
ATOM     55  C   UNL A   1      40.754  32.131  31.320  1.00  0.00     0.049 A 
ATOM     56  H   UNL A   1      42.062  31.825  32.913  1.00  0.00     0.167 HD
ATOM     57  C   UNL A   1      44.930  31.090  36.171  1.00  0.00     0.034 A 
ATOM     58  C   UNL A   1      39.565  32.488  31.849  1.00  0.00     0.034 A 
ATOM     59  C   UNL A   1      43.723  31.541  36.818  1.00  0.00     0.049 A 
ATOM     60  C   UNL A   1      39.430  32.579  33.352  1.00  0.00     0.074 A 
ATOM     61  C   UNL A   1      43.498  31.762  38.165  1.00  0.00     0.029 A 
ATOM     62  N   UNL A   1      42.529  31.824  36.166  1.00  0.00    -0.354 N 
ATOM     63  N   UNL A   1      40.337  32.373  34.281  1.00  0.00    -0.248 NA
ATOM     64  C   UNL A   1      38.112  32.960  33.877  1.00  0.00     0.031 C 
ATOM     65  C   UNL A   1      42.151  32.098  38.335  1.00  0.00     0.029 A 
ATOM     66  C   UNL A   1      41.554  32.178  37.087  1.00  0.00     0.049 A 
ATOM     67  H   UNL A   1      42.394  31.780  35.191  1.00  0.00     0.167 HD
ATOM     68  C   UNL A   1      39.704  32.631  35.496  1.00  0.00     0.074 A 
ATOM     69  C   UNL A   1      38.346  33.025  35.179  1.00  0.00     0.031 C 
ATOM     70  C   UNL A   1      40.199  32.555  36.758  1.00  0.00     0.034 A 
BRANCH  57  71
ATOM     71  C   UNL A   1      46.127  30.734  37.020  1.00  0.00     0.023 A 
ATOM     72  C   UNL A   1      47.069  31.700  37.415  1.00  0.00     0.031 A 
ATOM     73  C   UNL A   1      46.349  29.401  37.407  1.00  0.00     0.131 A 
ATOM     74  C   UNL A   1      48.224  31.308  38.110  1.00  0.00     0.055 A 
ATOM     75  C   UNL A   1      47.457  29.031  38.171  1.00  0.00     0.041 A 
ATOM     76  F   UNL A   1      45.499  28.431  37.036  1.00  0.00    -0.206 F 
ATOM     77  C   UNL A   1      48.411  29.985  38.514  1.00  0.00     0.022 A 
BRANCH  74  78
ATOM     78  S   UNL A   1      49.549  32.525  38.344  1.00  0.00     0.124 S 
ATOM     79  O   UNL A   1      49.402  33.355  37.151  1.00  0.00    -0.237 OA
ATOM     80  O   UNL A   1      49.183  33.151  39.608  1.00  0.00    -0.237 OA
ATOM     81  O   UNL A   1      50.761  31.708  38.379  1.00  0.00    -0.744 OA
ENDBRANCH  74  78
ENDBRANCH  57  71
BRANCH  58  82
ATOM     82  C   UNL A   1      38.387  32.745  30.967  1.00  0.00     0.023 A 
ATOM     83  C   UNL A   1      37.641  31.689  30.420  1.00  0.00     0.031 A 
ATOM     84  C   UNL A   1      38.034  34.057  30.602  1.00  0.00     0.131 A 
ATOM     85  C   UNL A   1      36.615  31.958  29.500  1.00  0.00     0.055 A 
ATOM     86  C   UNL A   1      36.976  34.323  29.731  1.00  0.00     0.041 A 
ATOM     87  F   UNL A   1      38.717  35.105  31.089  1.00  0.00    -0.206 F 
ATOM     88  C   UNL A   1      36.268  33.269  29.163  1.00  0.00     0.022 A 
BRANCH  85  89
ATOM     89  S   UNL A   1      35.801  30.565  28.670  1.00  0.00     0.124 S 
ATOM     90  O   UNL A   1      34.435  31.058  28.538  1.00  0.00    -0.237 OA
ATOM     91  O   UNL A   1      36.568  30.460  27.433  1.00  0.00    -0.237 OA
ATOM     92  O   UNL A   1      35.980  29.459  29.608  1.00  0.00    -0.744 OA
ENDBRANCH  85  89
ENDBRANCH  58  82
BRANCH  70  93
ATOM     93  C   UNL A   1      39.275  32.950  37.888  1.00  0.00     0.023 A 
ATOM     94  C   UNL A   1      38.273  32.086  38.364  1.00  0.00     0.031 A 
ATOM     95  C   UNL A   1      39.395  34.215  38.491  1.00  0.00     0.131 A 
ATOM     96  C   UNL A   1      37.391  32.522  39.366  1.00  0.00     0.055 A 
ATOM     97  C   UNL A   1      38.558  34.616  39.534  1.00  0.00     0.041 A 
ATOM     98  F   UNL A   1      40.330  35.085  38.077  1.00  0.00    -0.206 F 
ATOM     99  C   UNL A   1      37.540  33.774  39.967  1.00  0.00     0.022 A 
BRANCH  96 100
ATOM    100  S   UNL A   1      35.977  31.471  39.798  1.00  0.00     0.124 S 
ATOM    101  O   UNL A   1      36.228  31.191  41.208  1.00  0.00    -0.237 OA
ATOM    102  O   UNL A   1      34.842  32.342  39.514  1.00  0.00    -0.237 OA
ATOM    103  O   UNL A   1      36.116  30.323  38.903  1.00  0.00    -0.744 OA
ENDBRANCH  96 100
ENDBRANCH  70  93
ENDBRANCH  44  45
ENDBRANCH  37  39
ENDBRANCH  36  37
ENDBRANCH  35  36
ENDBRANCH  34  35
ENDBRANCH  33  34
ENDBRANCH  32  33
ENDBRANCH   1  32
TORSDOF 27
ENDMDL
