MODEL 1
REMARK VINA RESULT:     -10.0      0.000      0.000
REMARK SMILES O=C(C[N@H+]1CCC[C@@H]1c1ccccc1Cl)OCCOCCOCCOCCOC(=O)c1ccc(-c2c3nc(c(-c4cc(S(=O)(=O)[O-])ccc4F)c4ccc([nH]4)c(-c4cc(S(=O)(=O)[O-])ccc4F)c4nc(c(-c5cc(S(=O)(=O)[O-])ccc5F)c5ccc2[nH]5)C=C4)C=C3)cc1
REMARK SMILES IDX 23 1 22 2 21 3 20 4 19 5 18 6 17 7 16 8 2 9 1 10 3 11 4 12
REMARK SMILES IDX 5 13 8 14 6 16 7 17 9 18 10 19 14 20 11 21 13 22 15 23 12 24
REMARK SMILES IDX 24 25 25 26 26 27 27 28 28 29 29 30 30 31 31 32 32 33 93 34
REMARK SMILES IDX 33 35 92 36 34 37 35 38 36 39 86 40 37 41 91 42 85 43 87 44
REMARK SMILES IDX 38 45 90 46 84 47 83 48 39 50 71 51 51 52 70 53 52 54 55 55
REMARK SMILES IDX 69 56 88 57 53 58 54 59 68 61 89 62 56 63 40 64 41 65 49 66
REMARK SMILES IDX 42 67 48 68 50 69 47 70 43 71 44 72 45 73 46 74 72 75 73 76
REMARK SMILES IDX 81 77 74 78 80 79 82 80 79 81 75 82 76 83 77 84 78 85 57 86
REMARK SMILES IDX 58 87 66 88 59 89 65 90 67 91 64 92 60 93 61 94 62 95 63 96
REMARK H PARENT 4 15 87 49 55 60
REMARK Flexibility Score: inf
ROOT
ATOM      1  C   UNL A   1      32.632  29.259  23.673  1.00  0.00     0.188 C 
ENDROOT
BRANCH   1   2
ATOM      2  O   UNL A   1      33.593  28.278  23.998  1.00  0.00    -0.377 OA
BRANCH   2   3
ATOM      3  C   UNL A   1      33.815  27.270  23.031  1.00  0.00     0.188 C 
BRANCH   3   4
ATOM      4  C   UNL A   1      32.592  26.808  22.228  1.00  0.00     0.188 C 
BRANCH   4   5
ATOM      5  O   UNL A   1      31.492  26.112  22.796  1.00  0.00    -0.376 OA
BRANCH   5   6
ATOM      6  C   UNL A   1      31.384  24.710  22.893  1.00  0.00     0.202 C 
BRANCH   6   7
ATOM      7  C   UNL A   1      30.529  24.090  23.985  1.00  0.00     0.261 C 
BRANCH   7   8
ATOM      8  O   UNL A   1      30.901  24.282  25.367  1.00  0.00    -0.459 OA
BRANCH   8   9
ATOM      9  C   UNL A   1      31.188  23.410  26.349  1.00  0.00     0.361 C 
ATOM     10  O   UNL A   1      30.482  23.411  27.363  1.00  0.00    -0.245 OA
BRANCH   9  11
ATOM     11  C   UNL A   1      32.347  22.436  26.258  1.00  0.00     0.387 C 
BRANCH  11  12
ATOM     12  N   UNL A   1      33.382  22.785  25.301  1.00  0.00    -0.319 N 
ATOM     13  C   UNL A   1      34.132  23.963  25.737  1.00  0.00     0.263 C 
ATOM     14  C   UNL A   1      34.395  21.810  24.821  1.00  0.00     0.217 C 
ATOM     15  H   UNL A   1      32.768  22.902  24.495  1.00  0.00     0.349 HD
ATOM     16  C   UNL A   1      35.029  24.182  24.542  1.00  0.00     0.068 C 
ATOM     17  C   UNL A   1      35.107  22.803  23.874  1.00  0.00     0.076 C 
BRANCH  14  18
ATOM     18  C   UNL A   1      33.840  20.484  24.280  1.00  0.00     0.028 A 
ATOM     19  C   UNL A   1      34.371  19.296  24.838  1.00  0.00     0.011 A 
ATOM     20  C   UNL A   1      32.772  20.310  23.381  1.00  0.00     0.050 A 
ATOM     21  C   UNL A   1      33.685  18.077  24.774  1.00  0.00     0.001 A 
ATOM     22  C   UNL A   1      32.085  19.084  23.313  1.00  0.00     0.021 A 
ATOM     23  Cl  UNL A   1      32.203  21.520  22.289  1.00  0.00    -0.084 Cl
ATOM     24  C   UNL A   1      32.504  17.987  24.058  1.00  0.00     0.002 A 
ENDBRANCH  14  18
ENDBRANCH  11  12
ENDBRANCH   9  11
ENDBRANCH   8   9
ENDBRANCH   7   8
ENDBRANCH   6   7
ENDBRANCH   5   6
ENDBRANCH   4   5
ENDBRANCH   3   4
ENDBRANCH   2   3
ENDBRANCH   1   2
BRANCH   1  25
ATOM     25  C   UNL A   1      31.395  29.290  24.593  1.00  0.00     0.188 C 
BRANCH  25  26
ATOM     26  O   UNL A   1      31.027  30.444  25.348  1.00  0.00    -0.376 OA
BRANCH  26  27
ATOM     27  C   UNL A   1      31.803  30.875  26.451  1.00  0.00     0.202 C 
BRANCH  27  28
ATOM     28  C   UNL A   1      31.548  32.307  26.942  1.00  0.00     0.261 C 
BRANCH  28  29
ATOM     29  O   UNL A   1      32.663  33.202  26.828  1.00  0.00    -0.460 OA
BRANCH  29  30
ATOM     30  C   UNL A   1      33.163  33.646  28.009  1.00  0.00     0.338 C 
ATOM     31  O   UNL A   1      32.596  34.373  28.809  1.00  0.00    -0.246 OA
BRANCH  30  32
ATOM     32  C   UNL A   1      34.446  32.960  28.302  1.00  0.00     0.060 A 
ATOM     33  C   UNL A   1      34.387  31.610  28.679  1.00  0.00     0.016 A 
ATOM     34  C   UNL A   1      35.687  33.601  28.191  1.00  0.00     0.016 A 
ATOM     35  C   UNL A   1      35.546  30.923  29.030  1.00  0.00     0.010 A 
ATOM     36  C   UNL A   1      36.851  32.923  28.577  1.00  0.00     0.010 A 
ATOM     37  C   UNL A   1      36.768  31.606  29.068  1.00  0.00    -0.014 A 
BRANCH  37  38
ATOM     38  C   UNL A   1      37.804  31.082  29.997  1.00  0.00     0.031 A 
ATOM     39  C   UNL A   1      38.759  30.058  29.429  1.00  0.00     0.074 A 
ATOM     40  C   UNL A   1      37.977  31.560  31.241  1.00  0.00     0.049 A 
ATOM     41  N   UNL A   1      39.787  29.472  29.981  1.00  0.00    -0.248 NA
ATOM     42  C   UNL A   1      38.514  29.646  28.035  1.00  0.00     0.031 C 
ATOM     43  C   UNL A   1      37.167  32.601  31.871  1.00  0.00     0.029 A 
ATOM     44  N   UNL A   1      38.910  31.235  32.193  1.00  0.00    -0.354 N 
ATOM     45  C   UNL A   1      40.306  28.626  29.005  1.00  0.00     0.074 A 
ATOM     46  C   UNL A   1      39.454  28.739  27.844  1.00  0.00     0.031 C 
ATOM     47  C   UNL A   1      37.644  32.830  33.110  1.00  0.00     0.029 A 
ATOM     48  C   UNL A   1      38.770  31.935  33.370  1.00  0.00     0.049 A 
ATOM     49  H   UNL A   1      39.614  30.563  32.048  1.00  0.00     0.167 HD
ATOM     50  C   UNL A   1      41.402  27.832  29.062  1.00  0.00     0.034 A 
ATOM     51  C   UNL A   1      39.470  31.847  34.521  1.00  0.00     0.034 A 
ATOM     52  C   UNL A   1      42.234  27.716  30.230  1.00  0.00     0.049 A 
ATOM     53  C   UNL A   1      40.631  30.878  34.598  1.00  0.00     0.074 A 
ATOM     54  C   UNL A   1      43.363  26.938  30.410  1.00  0.00     0.029 A 
ATOM     55  N   UNL A   1      42.017  28.388  31.427  1.00  0.00    -0.354 N 
ATOM     56  N   UNL A   1      41.113  30.083  33.668  1.00  0.00    -0.248 NA
ATOM     57  C   UNL A   1      41.351  30.810  35.877  1.00  0.00     0.031 C 
ATOM     58  C   UNL A   1      43.780  27.077  31.738  1.00  0.00     0.029 A 
ATOM     59  C   UNL A   1      42.970  28.015  32.360  1.00  0.00     0.049 A 
ATOM     60  H   UNL A   1      41.291  29.033  31.589  1.00  0.00     0.167 HD
ATOM     61  C   UNL A   1      42.220  29.457  34.240  1.00  0.00     0.074 A 
ATOM     62  C   UNL A   1      42.338  29.976  35.587  1.00  0.00     0.031 C 
ATOM     63  C   UNL A   1      43.071  28.543  33.701  1.00  0.00     0.034 A 
BRANCH  50  64
ATOM     64  C   UNL A   1      41.701  26.981  27.850  1.00  0.00     0.023 A 
ATOM     65  C   UNL A   1      41.526  25.585  27.854  1.00  0.00     0.031 A 
ATOM     66  C   UNL A   1      42.229  27.574  26.690  1.00  0.00     0.131 A 
ATOM     67  C   UNL A   1      41.948  24.825  26.752  1.00  0.00     0.055 A 
ATOM     68  C   UNL A   1      42.565  26.821  25.565  1.00  0.00     0.041 A 
ATOM     69  F   UNL A   1      42.451  28.898  26.639  1.00  0.00    -0.206 F 
ATOM     70  C   UNL A   1      42.441  25.436  25.597  1.00  0.00     0.022 A 
BRANCH  67  71
ATOM     71  S   UNL A   1      41.996  23.017  26.911  1.00  0.00     0.124 S 
ATOM     72  O   UNL A   1      43.419  22.743  26.721  1.00  0.00    -0.237 OA
ATOM     73  O   UNL A   1      41.478  22.805  28.258  1.00  0.00    -0.237 OA
ATOM     74  O   UNL A   1      41.131  22.555  25.828  1.00  0.00    -0.744 OA
ENDBRANCH  67  71
ENDBRANCH  50  64
BRANCH  51  75
ATOM     75  C   UNL A   1      39.091  32.667  35.711  1.00  0.00     0.023 A 
ATOM     76  C   UNL A   1      39.566  33.979  35.876  1.00  0.00     0.031 A 
ATOM     77  C   UNL A   1      38.311  32.118  36.744  1.00  0.00     0.131 A 
ATOM     78  C   UNL A   1      39.301  34.677  37.066  1.00  0.00     0.055 A 
ATOM     79  C   UNL A   1      38.003  32.837  37.902  1.00  0.00     0.041 A 
ATOM     80  F   UNL A   1      37.837  30.865  36.645  1.00  0.00    -0.206 F 
ATOM     81  C   UNL A   1      38.512  34.119  38.074  1.00  0.00     0.022 A 
BRANCH  78  82
ATOM     82  S   UNL A   1      40.088  36.292  37.324  1.00  0.00     0.124 S 
ATOM     83  O   UNL A   1      41.409  35.904  37.802  1.00  0.00    -0.237 OA
ATOM     84  O   UNL A   1      40.034  36.871  35.985  1.00  0.00    -0.237 OA
ATOM     85  O   UNL A   1      39.228  36.936  38.314  1.00  0.00    -0.744 OA
ENDBRANCH  78  82
ENDBRANCH  51  75
BRANCH  63  86
ATOM     86  C   UNL A   1      44.241  28.101  34.549  1.00  0.00     0.023 A 
ATOM     87  C   UNL A   1      44.109  27.130  35.558  1.00  0.00     0.031 A 
ATOM     88  C   UNL A   1      45.509  28.678  34.352  1.00  0.00     0.131 A 
ATOM     89  C   UNL A   1      45.206  26.821  36.377  1.00  0.00     0.055 A 
ATOM     90  C   UNL A   1      46.615  28.310  35.121  1.00  0.00     0.041 A 
ATOM     91  F   UNL A   1      45.697  29.611  33.405  1.00  0.00    -0.206 F 
ATOM     92  C   UNL A   1      46.462  27.390  36.153  1.00  0.00     0.022 A 
BRANCH  89  93
ATOM     93  S   UNL A   1      44.937  25.759  37.823  1.00  0.00     0.124 S 
ATOM     94  O   UNL A   1      44.151  24.668  37.256  1.00  0.00    -0.237 OA
ATOM     95  O   UNL A   1      46.300  25.425  38.221  1.00  0.00    -0.237 OA
ATOM     96  O   UNL A   1      44.214  26.623  38.755  1.00  0.00    -0.744 OA
ENDBRANCH  89  93
ENDBRANCH  63  86
ENDBRANCH  37  38
ENDBRANCH  30  32
ENDBRANCH  29  30
ENDBRANCH  28  29
ENDBRANCH  27  28
ENDBRANCH  26  27
ENDBRANCH  25  26
ENDBRANCH   1  25
TORSDOF 25
ENDMDL
MODEL 2
REMARK VINA RESULT:      -9.9      1.853      7.622
REMARK SMILES O=C(C[N@H+]1CCC[C@@H]1c1ccccc1Cl)OCCOCCOCCOCCOC(=O)c1ccc(-c2c3nc(c(-c4cc(S(=O)(=O)[O-])ccc4F)c4ccc([nH]4)c(-c4cc(S(=O)(=O)[O-])ccc4F)c4nc(c(-c5cc(S(=O)(=O)[O-])ccc5F)c5ccc2[nH]5)C=C4)C=C3)cc1
REMARK SMILES IDX 23 1 22 2 21 3 20 4 19 5 18 6 17 7 16 8 2 9 1 10 3 11 4 12
REMARK SMILES IDX 5 13 8 14 6 16 7 17 9 18 10 19 14 20 11 21 13 22 15 23 12 24
REMARK SMILES IDX 24 25 25 26 26 27 27 28 28 29 29 30 30 31 31 32 32 33 93 34
REMARK SMILES IDX 33 35 92 36 34 37 35 38 36 39 86 40 37 41 91 42 85 43 87 44
REMARK SMILES IDX 38 45 90 46 84 47 83 48 39 50 71 51 51 52 70 53 52 54 55 55
REMARK SMILES IDX 69 56 88 57 53 58 54 59 68 61 89 62 56 63 40 64 41 65 49 66
REMARK SMILES IDX 42 67 48 68 50 69 47 70 43 71 44 72 45 73 46 74 72 75 73 76
REMARK SMILES IDX 81 77 74 78 80 79 82 80 79 81 75 82 76 83 77 84 78 85 57 86
REMARK SMILES IDX 58 87 66 88 59 89 65 90 67 91 64 92 60 93 61 94 62 95 63 96
REMARK H PARENT 4 15 87 49 55 60
REMARK Flexibility Score: inf
ROOT
ATOM      1  C   UNL A   1      31.880  29.108  25.077  1.00  0.00     0.188 C 
ENDROOT
BRANCH   1   2
ATOM      2  O   UNL A   1      31.227  29.531  23.900  1.00  0.00    -0.377 OA
BRANCH   2   3
ATOM      3  C   UNL A   1      31.422  28.731  22.750  1.00  0.00     0.188 C 
BRANCH   3   4
ATOM      4  C   UNL A   1      30.758  27.348  22.754  1.00  0.00     0.188 C 
BRANCH   4   5
ATOM      5  O   UNL A   1      31.181  26.267  21.936  1.00  0.00    -0.376 OA
BRANCH   5   6
ATOM      6  C   UNL A   1      32.407  25.585  22.068  1.00  0.00     0.202 C 
BRANCH   6   7
ATOM      7  C   UNL A   1      32.645  24.678  23.263  1.00  0.00     0.261 C 
BRANCH   7   8
ATOM      8  O   UNL A   1      31.543  23.913  23.798  1.00  0.00    -0.459 OA
BRANCH   8   9
ATOM      9  C   UNL A   1      31.131  23.693  25.059  1.00  0.00     0.361 C 
ATOM     10  O   UNL A   1      30.390  24.526  25.591  1.00  0.00    -0.245 OA
BRANCH   9  11
ATOM     11  C   UNL A   1      31.549  22.467  25.848  1.00  0.00     0.387 C 
BRANCH  11  12
ATOM     12  N   UNL A   1      32.955  22.117  25.759  1.00  0.00    -0.319 N 
ATOM     13  C   UNL A   1      33.728  22.745  26.830  1.00  0.00     0.263 C 
ATOM     14  C   UNL A   1      33.430  20.711  25.682  1.00  0.00     0.217 C 
ATOM     15  H   UNL A   1      33.108  22.469  24.813  1.00  0.00     0.349 HD
ATOM     16  C   UNL A   1      35.129  22.338  26.441  1.00  0.00     0.068 C 
ATOM     17  C   UNL A   1      34.930  21.075  25.592  1.00  0.00     0.076 C 
BRANCH  14  18
ATOM     18  C   UNL A   1      32.776  19.845  24.596  1.00  0.00     0.028 A 
ATOM     19  C   UNL A   1      32.383  20.504  23.407  1.00  0.00     0.011 A 
ATOM     20  C   UNL A   1      32.634  18.445  24.591  1.00  0.00     0.050 A 
ATOM     21  C   UNL A   1      32.190  19.813  22.205  1.00  0.00     0.001 A 
ATOM     22  C   UNL A   1      32.435  17.749  23.384  1.00  0.00     0.021 A 
ATOM     23  Cl  UNL A   1      32.671  17.452  26.002  1.00  0.00    -0.084 Cl
ATOM     24  C   UNL A   1      32.277  18.432  22.183  1.00  0.00     0.002 A 
ENDBRANCH  14  18
ENDBRANCH  11  12
ENDBRANCH   9  11
ENDBRANCH   8   9
ENDBRANCH   7   8
ENDBRANCH   6   7
ENDBRANCH   5   6
ENDBRANCH   4   5
ENDBRANCH   3   4
ENDBRANCH   2   3
ENDBRANCH   1   2
BRANCH   1  25
ATOM     25  C   UNL A   1      31.917  30.152  26.213  1.00  0.00     0.188 C 
BRANCH  25  26
ATOM     26  O   UNL A   1      31.565  31.520  26.010  1.00  0.00    -0.376 OA
BRANCH  26  27
ATOM     27  C   UNL A   1      31.413  32.407  27.103  1.00  0.00     0.202 C 
BRANCH  27  28
ATOM     28  C   UNL A   1      32.651  33.228  27.489  1.00  0.00     0.261 C 
BRANCH  28  29
ATOM     29  O   UNL A   1      32.616  33.812  28.798  1.00  0.00    -0.460 OA
BRANCH  29  30
ATOM     30  C   UNL A   1      33.754  34.452  29.169  1.00  0.00     0.338 C 
ATOM     31  O   UNL A   1      33.833  35.574  29.645  1.00  0.00    -0.246 OA
BRANCH  30  32
ATOM     32  C   UNL A   1      34.904  33.516  29.101  1.00  0.00     0.060 A 
ATOM     33  C   UNL A   1      34.727  32.233  29.641  1.00  0.00     0.016 A 
ATOM     34  C   UNL A   1      36.123  33.861  28.503  1.00  0.00     0.016 A 
ATOM     35  C   UNL A   1      35.783  31.327  29.668  1.00  0.00     0.010 A 
ATOM     36  C   UNL A   1      37.198  32.963  28.560  1.00  0.00     0.010 A 
ATOM     37  C   UNL A   1      37.046  31.725  29.211  1.00  0.00    -0.014 A 
BRANCH  37  38
ATOM     38  C   UNL A   1      38.224  31.033  29.798  1.00  0.00     0.031 A 
ATOM     39  C   UNL A   1      38.524  31.333  31.248  1.00  0.00     0.074 A 
ATOM     40  C   UNL A   1      38.929  30.102  29.132  1.00  0.00     0.049 A 
ATOM     41  N   UNL A   1      39.444  30.840  32.033  1.00  0.00    -0.248 NA
ATOM     42  C   UNL A   1      37.654  32.328  31.899  1.00  0.00     0.031 C 
ATOM     43  C   UNL A   1      38.685  29.674  27.756  1.00  0.00     0.029 A 
ATOM     44  N   UNL A   1      39.991  29.335  29.542  1.00  0.00    -0.354 N 
ATOM     45  C   UNL A   1      39.262  31.465  33.263  1.00  0.00     0.074 A 
ATOM     46  C   UNL A   1      38.176  32.405  33.108  1.00  0.00     0.031 C 
ATOM     47  C   UNL A   1      39.576  28.716  27.437  1.00  0.00     0.029 A 
ATOM     48  C   UNL A   1      40.468  28.484  28.572  1.00  0.00     0.049 A 
ATOM     49  H   UNL A   1      40.376  29.390  30.446  1.00  0.00     0.167 HD
ATOM     50  C   UNL A   1      39.930  31.269  34.426  1.00  0.00     0.034 A 
ATOM     51  C   UNL A   1      41.512  27.628  28.604  1.00  0.00     0.034 A 
ATOM     52  C   UNL A   1      41.020  30.341  34.563  1.00  0.00     0.049 A 
ATOM     53  C   UNL A   1      42.309  27.497  29.884  1.00  0.00     0.074 A 
ATOM     54  C   UNL A   1      41.778  30.063  35.686  1.00  0.00     0.029 A 
ATOM     55  N   UNL A   1      41.521  29.549  33.537  1.00  0.00    -0.354 N 
ATOM     56  N   UNL A   1      42.127  28.093  31.042  1.00  0.00    -0.248 NA
ATOM     57  C   UNL A   1      43.443  26.563  29.863  1.00  0.00     0.031 C 
ATOM     58  C   UNL A   1      42.786  29.165  35.319  1.00  0.00     0.029 A 
ATOM     59  C   UNL A   1      42.599  28.808  33.992  1.00  0.00     0.049 A 
ATOM     60  H   UNL A   1      41.161  29.519  32.620  1.00  0.00     0.167 HD
ATOM     61  C   UNL A   1      43.097  27.570  31.896  1.00  0.00     0.074 A 
ATOM     62  C   UNL A   1      43.850  26.604  31.123  1.00  0.00     0.031 C 
ATOM     63  C   UNL A   1      43.339  27.851  33.204  1.00  0.00     0.034 A 
BRANCH  50  64
ATOM     64  C   UNL A   1      39.536  32.134  35.601  1.00  0.00     0.023 A 
ATOM     65  C   UNL A   1      38.759  31.641  36.665  1.00  0.00     0.031 A 
ATOM     66  C   UNL A   1      39.896  33.492  35.624  1.00  0.00     0.131 A 
ATOM     67  C   UNL A   1      38.303  32.518  37.662  1.00  0.00     0.055 A 
ATOM     68  C   UNL A   1      39.513  34.338  36.664  1.00  0.00     0.041 A 
ATOM     69  F   UNL A   1      40.609  34.027  34.619  1.00  0.00    -0.206 F 
ATOM     70  C   UNL A   1      38.698  33.857  37.683  1.00  0.00     0.022 A 
BRANCH  67  71
ATOM     71  S   UNL A   1      37.057  31.923  38.840  1.00  0.00     0.124 S 
ATOM     72  O   UNL A   1      36.921  30.524  38.444  1.00  0.00    -0.237 OA
ATOM     73  O   UNL A   1      37.698  32.165  40.127  1.00  0.00    -0.237 OA
ATOM     74  O   UNL A   1      35.892  32.759  38.555  1.00  0.00    -0.744 OA
ENDBRANCH  67  71
ENDBRANCH  50  64
BRANCH  51  75
ATOM     75  C   UNL A   1      41.895  26.844  27.392  1.00  0.00     0.023 A 
ATOM     76  C   UNL A   1      41.698  25.454  27.327  1.00  0.00     0.031 A 
ATOM     77  C   UNL A   1      42.543  27.465  26.309  1.00  0.00     0.131 A 
ATOM     78  C   UNL A   1      42.189  24.726  26.230  1.00  0.00     0.055 A 
ATOM     79  C   UNL A   1      42.980  26.744  25.195  1.00  0.00     0.041 A 
ATOM     80  F   UNL A   1      42.767  28.789  26.319  1.00  0.00    -0.206 F 
ATOM     81  C   UNL A   1      42.816  25.363  25.158  1.00  0.00     0.022 A 
BRANCH  78  82
ATOM     82  S   UNL A   1      42.085  22.914  26.270  1.00  0.00     0.124 S 
ATOM     83  O   UNL A   1      40.650  22.703  26.416  1.00  0.00    -0.237 OA
ATOM     84  O   UNL A   1      42.660  22.551  24.978  1.00  0.00    -0.237 OA
ATOM     85  O   UNL A   1      42.894  22.552  27.432  1.00  0.00    -0.744 OA
ENDBRANCH  78  82
ENDBRANCH  51  75
BRANCH  63  86
ATOM     86  C   UNL A   1      44.422  27.053  33.895  1.00  0.00     0.023 A 
ATOM     87  C   UNL A   1      44.246  25.703  34.249  1.00  0.00     0.031 A 
ATOM     88  C   UNL A   1      45.647  27.664  34.219  1.00  0.00     0.131 A 
ATOM     89  C   UNL A   1      45.247  25.034  34.969  1.00  0.00     0.055 A 
ATOM     90  C   UNL A   1      46.669  26.970  34.868  1.00  0.00     0.041 A 
ATOM     91  F   UNL A   1      45.874  28.950  33.907  1.00  0.00    -0.206 F 
ATOM     92  C   UNL A   1      46.465  25.652  35.264  1.00  0.00     0.022 A 
BRANCH  89  93
ATOM     93  S   UNL A   1      44.887  23.383  35.628  1.00  0.00     0.124 S 
ATOM     94  O   UNL A   1      43.427  23.366  35.623  1.00  0.00    -0.237 OA
ATOM     95  O   UNL A   1      45.538  22.511  34.656  1.00  0.00    -0.237 OA
ATOM     96  O   UNL A   1      45.501  23.401  36.954  1.00  0.00    -0.744 OA
ENDBRANCH  89  93
ENDBRANCH  63  86
ENDBRANCH  37  38
ENDBRANCH  30  32
ENDBRANCH  29  30
ENDBRANCH  28  29
ENDBRANCH  27  28
ENDBRANCH  26  27
ENDBRANCH  25  26
ENDBRANCH   1  25
TORSDOF 25
ENDMDL
MODEL 3
REMARK VINA RESULT:      -9.6      1.470      7.751
REMARK SMILES O=C(C[N@H+]1CCC[C@@H]1c1ccccc1Cl)OCCOCCOCCOCCOC(=O)c1ccc(-c2c3nc(c(-c4cc(S(=O)(=O)[O-])ccc4F)c4ccc([nH]4)c(-c4cc(S(=O)(=O)[O-])ccc4F)c4nc(c(-c5cc(S(=O)(=O)[O-])ccc5F)c5ccc2[nH]5)C=C4)C=C3)cc1
REMARK SMILES IDX 23 1 22 2 21 3 20 4 19 5 18 6 17 7 16 8 2 9 1 10 3 11 4 12
REMARK SMILES IDX 5 13 8 14 6 16 7 17 9 18 10 19 14 20 11 21 13 22 15 23 12 24
REMARK SMILES IDX 24 25 25 26 26 27 27 28 28 29 29 30 30 31 31 32 32 33 93 34
REMARK SMILES IDX 33 35 92 36 34 37 35 38 36 39 86 40 37 41 91 42 85 43 87 44
REMARK SMILES IDX 38 45 90 46 84 47 83 48 39 50 71 51 51 52 70 53 52 54 55 55
REMARK SMILES IDX 69 56 88 57 53 58 54 59 68 61 89 62 56 63 40 64 41 65 49 66
REMARK SMILES IDX 42 67 48 68 50 69 47 70 43 71 44 72 45 73 46 74 72 75 73 76
REMARK SMILES IDX 81 77 74 78 80 79 82 80 79 81 75 82 76 83 77 84 78 85 57 86
REMARK SMILES IDX 58 87 66 88 59 89 65 90 67 91 64 92 60 93 61 94 62 95 63 96
REMARK H PARENT 4 15 87 49 55 60
REMARK Flexibility Score: inf
ROOT
ATOM      1  C   UNL A   1      33.655  28.929  25.196  1.00  0.00     0.188 C 
ENDROOT
BRANCH   1   2
ATOM      2  O   UNL A   1      33.191  29.268  23.908  1.00  0.00    -0.377 OA
BRANCH   2   3
ATOM      3  C   UNL A   1      33.481  28.349  22.872  1.00  0.00     0.188 C 
BRANCH   3   4
ATOM      4  C   UNL A   1      32.536  27.149  22.735  1.00  0.00     0.188 C 
BRANCH   4   5
ATOM      5  O   UNL A   1      32.155  26.316  23.822  1.00  0.00    -0.376 OA
BRANCH   5   6
ATOM      6  C   UNL A   1      30.829  26.099  24.248  1.00  0.00     0.202 C 
BRANCH   6   7
ATOM      7  C   UNL A   1      30.498  24.890  25.106  1.00  0.00     0.261 C 
BRANCH   7   8
ATOM      8  O   UNL A   1      31.544  23.951  25.436  1.00  0.00    -0.459 OA
BRANCH   8   9
ATOM      9  C   UNL A   1      31.510  22.726  25.988  1.00  0.00     0.361 C 
ATOM     10  O   UNL A   1      30.443  22.103  25.975  1.00  0.00    -0.245 OA
BRANCH   9  11
ATOM     11  C   UNL A   1      32.728  22.089  26.630  1.00  0.00     0.387 C 
BRANCH  11  12
ATOM     12  N   UNL A   1      33.987  22.326  25.949  1.00  0.00    -0.319 N 
ATOM     13  C   UNL A   1      34.888  23.139  26.766  1.00  0.00     0.263 C 
ATOM     14  C   UNL A   1      34.820  21.228  25.393  1.00  0.00     0.217 C 
ATOM     15  H   UNL A   1      33.595  22.768  25.117  1.00  0.00     0.349 HD
ATOM     16  C   UNL A   1      36.035  23.340  25.805  1.00  0.00     0.068 C 
ATOM     17  C   UNL A   1      35.922  22.158  24.834  1.00  0.00     0.076 C 
BRANCH  14  18
ATOM     18  C   UNL A   1      34.092  20.244  24.465  1.00  0.00     0.028 A 
ATOM     19  C   UNL A   1      34.373  18.869  24.649  1.00  0.00     0.011 A 
ATOM     20  C   UNL A   1      33.079  20.539  23.534  1.00  0.00     0.050 A 
ATOM     21  C   UNL A   1      33.499  17.868  24.206  1.00  0.00     0.001 A 
ATOM     22  C   UNL A   1      32.204  19.534  23.085  1.00  0.00     0.021 A 
ATOM     23  Cl  UNL A   1      32.805  22.099  22.847  1.00  0.00    -0.084 Cl
ATOM     24  C   UNL A   1      32.376  18.210  23.472  1.00  0.00     0.002 A 
ENDBRANCH  14  18
ENDBRANCH  11  12
ENDBRANCH   9  11
ENDBRANCH   8   9
ENDBRANCH   7   8
ENDBRANCH   6   7
ENDBRANCH   5   6
ENDBRANCH   4   5
ENDBRANCH   3   4
ENDBRANCH   2   3
ENDBRANCH   1   2
BRANCH   1  25
ATOM     25  C   UNL A   1      33.212  29.886  26.322  1.00  0.00     0.188 C 
BRANCH  25  26
ATOM     26  O   UNL A   1      32.257  30.926  26.113  1.00  0.00    -0.376 OA
BRANCH  26  27
ATOM     27  C   UNL A   1      31.927  31.836  27.147  1.00  0.00     0.202 C 
BRANCH  27  28
ATOM     28  C   UNL A   1      32.809  33.088  27.258  1.00  0.00     0.261 C 
BRANCH  28  29
ATOM     29  O   UNL A   1      32.507  33.955  28.358  1.00  0.00    -0.460 OA
BRANCH  29  30
ATOM     30  C   UNL A   1      33.587  34.518  28.956  1.00  0.00     0.338 C 
ATOM     31  O   UNL A   1      33.610  35.573  29.570  1.00  0.00    -0.246 OA
BRANCH  30  32
ATOM     32  C   UNL A   1      34.728  33.567  28.933  1.00  0.00     0.060 A 
ATOM     33  C   UNL A   1      34.544  32.320  29.547  1.00  0.00     0.016 A 
ATOM     34  C   UNL A   1      35.945  33.866  28.307  1.00  0.00     0.016 A 
ATOM     35  C   UNL A   1      35.591  31.406  29.617  1.00  0.00     0.010 A 
ATOM     36  C   UNL A   1      37.012  32.962  28.407  1.00  0.00     0.010 A 
ATOM     37  C   UNL A   1      36.854  31.764  29.128  1.00  0.00    -0.014 A 
BRANCH  37  38
ATOM     38  C   UNL A   1      38.030  31.096  29.745  1.00  0.00     0.031 A 
ATOM     39  C   UNL A   1      38.306  31.424  31.193  1.00  0.00     0.074 A 
ATOM     40  C   UNL A   1      38.754  30.160  29.106  1.00  0.00     0.049 A 
ATOM     41  N   UNL A   1      39.219  30.955  32.001  1.00  0.00    -0.248 NA
ATOM     42  C   UNL A   1      37.415  32.421  31.814  1.00  0.00     0.031 C 
ATOM     43  C   UNL A   1      38.536  29.705  27.735  1.00  0.00     0.029 A 
ATOM     44  N   UNL A   1      39.818  29.412  29.545  1.00  0.00    -0.354 N 
ATOM     45  C   UNL A   1      39.012  31.600  33.217  1.00  0.00     0.074 A 
ATOM     46  C   UNL A   1      37.919  32.525  33.029  1.00  0.00     0.031 C 
ATOM     47  C   UNL A   1      39.441  28.752  27.445  1.00  0.00     0.029 A 
ATOM     48  C   UNL A   1      40.318  28.549  28.598  1.00  0.00     0.049 A 
ATOM     49  H   UNL A   1      40.190  29.487  30.454  1.00  0.00     0.167 HD
ATOM     50  C   UNL A   1      39.664  31.431  34.392  1.00  0.00     0.034 A 
ATOM     51  C   UNL A   1      41.370  27.705  28.660  1.00  0.00     0.034 A 
ATOM     52  C   UNL A   1      40.762  30.518  34.562  1.00  0.00     0.049 A 
ATOM     53  C   UNL A   1      42.150  27.605  29.954  1.00  0.00     0.074 A 
ATOM     54  C   UNL A   1      41.506  30.267  35.701  1.00  0.00     0.029 A 
ATOM     55  N   UNL A   1      41.286  29.713  33.558  1.00  0.00    -0.354 N 
ATOM     56  N   UNL A   1      41.945  28.219  31.098  1.00  0.00    -0.248 NA
ATOM     57  C   UNL A   1      43.294  26.683  29.966  1.00  0.00     0.031 C 
ATOM     58  C   UNL A   1      42.529  29.374  35.364  1.00  0.00     0.029 A 
ATOM     59  C   UNL A   1      42.365  28.991  34.042  1.00  0.00     0.049 A 
ATOM     60  H   UNL A   1      40.941  29.663  32.637  1.00  0.00     0.167 HD
ATOM     61  C   UNL A   1      42.907  27.721  31.976  1.00  0.00     0.074 A 
ATOM     62  C   UNL A   1      43.682  26.750  31.231  1.00  0.00     0.031 C 
ATOM     63  C   UNL A   1      43.127  28.028  33.282  1.00  0.00     0.034 A 
BRANCH  50  64
ATOM     64  C   UNL A   1      39.245  32.312  35.546  1.00  0.00     0.023 A 
ATOM     65  C   UNL A   1      39.756  33.611  35.720  1.00  0.00     0.031 A 
ATOM     66  C   UNL A   1      38.363  31.817  36.523  1.00  0.00     0.131 A 
ATOM     67  C   UNL A   1      39.444  34.336  36.880  1.00  0.00     0.055 A 
ATOM     68  C   UNL A   1      37.987  32.577  37.630  1.00  0.00     0.041 A 
ATOM     69  F   UNL A   1      37.869  30.571  36.429  1.00  0.00    -0.206 F 
ATOM     70  C   UNL A   1      38.541  33.839  37.823  1.00  0.00     0.022 A 
BRANCH  67  71
ATOM     71  S   UNL A   1      40.357  35.867  37.222  1.00  0.00     0.124 S 
ATOM     72  O   UNL A   1      41.737  35.444  36.992  1.00  0.00    -0.237 OA
ATOM     73  O   UNL A   1      39.799  36.792  36.243  1.00  0.00    -0.237 OA
ATOM     74  O   UNL A   1      40.027  36.158  38.616  1.00  0.00    -0.744 OA
ENDBRANCH  67  71
ENDBRANCH  50  64
BRANCH  51  75
ATOM     75  C   UNL A   1      41.780  26.904  27.468  1.00  0.00     0.023 A 
ATOM     76  C   UNL A   1      41.532  25.522  27.394  1.00  0.00     0.031 A 
ATOM     77  C   UNL A   1      42.501  27.497  26.416  1.00  0.00     0.131 A 
ATOM     78  C   UNL A   1      42.046  24.774  26.323  1.00  0.00     0.055 A 
ATOM     79  C   UNL A   1      42.962  26.757  25.324  1.00  0.00     0.041 A 
ATOM     80  F   UNL A   1      42.775  28.811  26.436  1.00  0.00    -0.206 F 
ATOM     81  C   UNL A   1      42.747  25.383  25.281  1.00  0.00     0.022 A 
BRANCH  78  82
ATOM     82  S   UNL A   1      41.872  22.967  26.359  1.00  0.00     0.124 S 
ATOM     83  O   UNL A   1      42.467  22.587  25.084  1.00  0.00    -0.237 OA
ATOM     84  O   UNL A   1      42.632  22.614  27.554  1.00  0.00    -0.237 OA
ATOM     85  O   UNL A   1      40.428  22.766  26.460  1.00  0.00    -0.744 OA
ENDBRANCH  78  82
ENDBRANCH  51  75
BRANCH  63  86
ATOM     86  C   UNL A   1      44.207  27.254  34.003  1.00  0.00     0.023 A 
ATOM     87  C   UNL A   1      45.526  27.730  34.108  1.00  0.00     0.031 A 
ATOM     88  C   UNL A   1      43.910  26.006  34.581  1.00  0.00     0.131 A 
ATOM     89  C   UNL A   1      46.511  26.932  34.708  1.00  0.00     0.055 A 
ATOM     90  C   UNL A   1      44.879  25.251  35.244  1.00  0.00     0.041 A 
ATOM     91  F   UNL A   1      42.669  25.498  34.513  1.00  0.00    -0.206 F 
ATOM     92  C   UNL A   1      46.193  25.704  35.294  1.00  0.00     0.022 A 
BRANCH  89  93
ATOM     93  S   UNL A   1      48.243  27.462  34.600  1.00  0.00     0.124 S 
ATOM     94  O   UNL A   1      48.622  27.547  36.007  1.00  0.00    -0.237 OA
ATOM     95  O   UNL A   1      48.853  26.378  33.838  1.00  0.00    -0.237 OA
ATOM     96  O   UNL A   1      48.167  28.744  33.901  1.00  0.00    -0.744 OA
ENDBRANCH  89  93
ENDBRANCH  63  86
ENDBRANCH  37  38
ENDBRANCH  30  32
ENDBRANCH  29  30
ENDBRANCH  28  29
ENDBRANCH  27  28
ENDBRANCH  26  27
ENDBRANCH  25  26
ENDBRANCH   1  25
TORSDOF 25
ENDMDL
