MODEL 1
REMARK VINA RESULT:     -10.6      0.000      0.000
REMARK SMILES O=C(OCCOCCOCCOCCOC(=O)c1nccnc1C(=O)Nc1n[nH]c2ncccc12)c1ccc(-c2c3nc(c(-c4cc(S(=O)(=O)[O-])ccc4F)c4ccc([nH]4)c(-c4cc(S(=O)(=O)[O-])ccc4F)c4nc(c(-c5cc(S(=O)(=O)[O-])ccc5F)c5ccc2[nH]5)C=C4)C=C3)cc1
REMARK SMILES IDX 8 1 7 2 6 3 5 4 4 5 3 6 2 7 1 8 36 9 37 10 98 11 38 12 97 13
REMARK SMILES IDX 39 14 40 15 41 16 91 17 42 18 96 19 90 20 92 21 43 22 95 23
REMARK SMILES IDX 89 24 88 25 44 27 76 28 56 29 75 30 57 31 60 32 74 33 93 34
REMARK SMILES IDX 58 35 59 36 73 38 94 39 61 40 45 41 46 42 54 43 47 44 53 45
REMARK SMILES IDX 55 46 52 47 48 48 49 49 50 50 51 51 77 52 78 53 86 54 79 55
REMARK SMILES IDX 85 56 87 57 84 58 80 59 81 60 82 61 83 62 62 63 63 64 71 65
REMARK SMILES IDX 64 66 70 67 72 68 69 69 65 70 66 71 67 72 68 73 9 74 10 75
REMARK SMILES IDX 11 76 12 77 13 78 14 79 15 80 16 81 17 82 18 83 19 84 23 85
REMARK SMILES IDX 20 86 22 87 21 88 24 89 25 90 26 91 27 93 28 94 35 95 29 96
REMARK SMILES IDX 30 97 34 98 31 100 33 101 32 102
REMARK H PARENT 92 26 60 37 26 92 29 99
REMARK Flexibility Score: inf
ROOT
ATOM      1  C   UNL A   1      36.200  21.484  25.811  1.00  0.00     0.188 C 
ENDROOT
BRANCH   1   2
ATOM      2  C   UNL A   1      36.353  20.446  24.713  1.00  0.00     0.188 C 
BRANCH   2   3
ATOM      3  O   UNL A   1      37.490  19.635  24.948  1.00  0.00    -0.376 OA
BRANCH   3   4
ATOM      4  C   UNL A   1      38.656  20.314  25.392  1.00  0.00     0.202 C 
BRANCH   4   5
ATOM      5  C   UNL A   1      39.720  19.268  25.720  1.00  0.00     0.261 C 
BRANCH   5   6
ATOM      6  O   UNL A   1      40.298  19.526  27.013  1.00  0.00    -0.460 OA
BRANCH   6   7
ATOM      7  C   UNL A   1      41.446  20.200  27.281  1.00  0.00     0.338 C 
ATOM      8  O   UNL A   1      42.482  19.545  27.407  1.00  0.00    -0.246 OA
BRANCH   7   9
ATOM      9  C   UNL A   1      41.564  21.697  27.361  1.00  0.00     0.060 A 
ATOM     10  C   UNL A   1      41.067  22.624  26.438  1.00  0.00     0.016 A 
ATOM     11  C   UNL A   1      42.143  22.203  28.538  1.00  0.00     0.016 A 
ATOM     12  C   UNL A   1      41.088  23.995  26.684  1.00  0.00     0.010 A 
ATOM     13  C   UNL A   1      42.217  23.580  28.774  1.00  0.00     0.010 A 
ATOM     14  C   UNL A   1      41.684  24.476  27.842  1.00  0.00    -0.014 A 
BRANCH  14  15
ATOM     15  C   UNL A   1      41.955  25.920  27.936  1.00  0.00     0.031 A 
ATOM     16  C   UNL A   1      43.269  26.392  27.394  1.00  0.00     0.074 A 
ATOM     17  C   UNL A   1      41.031  26.771  28.416  1.00  0.00     0.049 A 
ATOM     18  N   UNL A   1      43.843  27.556  27.503  1.00  0.00    -0.248 NA
ATOM     19  C   UNL A   1      44.039  25.408  26.611  1.00  0.00     0.031 C 
ATOM     20  C   UNL A   1      39.669  26.406  28.807  1.00  0.00     0.029 A 
ATOM     21  N   UNL A   1      41.101  28.117  28.660  1.00  0.00    -0.354 N 
ATOM     22  C   UNL A   1      45.064  27.428  26.851  1.00  0.00     0.074 A 
ATOM     23  C   UNL A   1      45.137  26.087  26.323  1.00  0.00     0.031 C 
ATOM     24  C   UNL A   1      39.041  27.500  29.273  1.00  0.00     0.029 A 
ATOM     25  C   UNL A   1      39.982  28.618  29.287  1.00  0.00     0.049 A 
ATOM     26  H   UNL A   1      41.875  28.672  28.412  1.00  0.00     0.167 HD
ATOM     27  C   UNL A   1      46.043  28.354  26.741  1.00  0.00     0.034 A 
ATOM     28  C   UNL A   1      39.789  29.820  29.869  1.00  0.00     0.034 A 
ATOM     29  C   UNL A   1      45.921  29.673  27.300  1.00  0.00     0.049 A 
ATOM     30  C   UNL A   1      40.946  30.798  29.840  1.00  0.00     0.074 A 
ATOM     31  C   UNL A   1      46.841  30.702  27.296  1.00  0.00     0.029 A 
ATOM     32  N   UNL A   1      44.799  30.134  27.981  1.00  0.00    -0.354 N 
ATOM     33  N   UNL A   1      42.124  30.667  29.267  1.00  0.00    -0.248 NA
ATOM     34  C   UNL A   1      40.765  32.070  30.550  1.00  0.00     0.031 C 
ATOM     35  C   UNL A   1      46.306  31.756  28.044  1.00  0.00     0.029 A 
ATOM     36  C   UNL A   1      45.021  31.416  28.444  1.00  0.00     0.049 A 
ATOM     37  H   UNL A   1      43.970  29.621  28.114  1.00  0.00     0.167 HD
ATOM     38  C   UNL A   1      42.814  31.845  29.536  1.00  0.00     0.074 A 
ATOM     39  C   UNL A   1      41.912  32.684  30.298  1.00  0.00     0.031 C 
ATOM     40  C   UNL A   1      44.080  32.208  29.201  1.00  0.00     0.034 A 
BRANCH  27  41
ATOM     41  C   UNL A   1      47.343  27.917  26.120  1.00  0.00     0.023 A 
ATOM     42  C   UNL A   1      47.591  28.014  24.740  1.00  0.00     0.031 A 
ATOM     43  C   UNL A   1      48.330  27.326  26.929  1.00  0.00     0.131 A 
ATOM     44  C   UNL A   1      48.772  27.474  24.204  1.00  0.00     0.055 A 
ATOM     45  C   UNL A   1      49.534  26.857  26.400  1.00  0.00     0.041 A 
ATOM     46  F   UNL A   1      48.129  27.169  28.247  1.00  0.00    -0.206 F 
ATOM     47  C   UNL A   1      49.755  26.920  25.029  1.00  0.00     0.022 A 
BRANCH  44  48
ATOM     48  S   UNL A   1      48.952  27.387  22.401  1.00  0.00     0.124 S 
ATOM     49  O   UNL A   1      48.525  26.017  22.127  1.00  0.00    -0.237 OA
ATOM     50  O   UNL A   1      48.051  28.439  21.942  1.00  0.00    -0.237 OA
ATOM     51  O   UNL A   1      50.374  27.646  22.185  1.00  0.00    -0.744 OA
ENDBRANCH  44  48
ENDBRANCH  27  41
BRANCH  28  52
ATOM     52  C   UNL A   1      38.536  30.131  30.628  1.00  0.00     0.023 A 
ATOM     53  C   UNL A   1      37.506  30.897  30.059  1.00  0.00     0.031 A 
ATOM     54  C   UNL A   1      38.390  29.746  31.976  1.00  0.00     0.131 A 
ATOM     55  C   UNL A   1      36.414  31.305  30.846  1.00  0.00     0.055 A 
ATOM     56  C   UNL A   1      37.270  30.095  32.733  1.00  0.00     0.041 A 
ATOM     57  F   UNL A   1      39.346  29.029  32.587  1.00  0.00    -0.206 F 
ATOM     58  C   UNL A   1      36.282  30.896  32.174  1.00  0.00     0.022 A 
BRANCH  55  59
ATOM     59  S   UNL A   1      35.231  32.492  30.146  1.00  0.00     0.124 S 
ATOM     60  O   UNL A   1      34.650  31.721  29.053  1.00  0.00    -0.237 OA
ATOM     61  O   UNL A   1      34.358  32.750  31.286  1.00  0.00    -0.237 OA
ATOM     62  O   UNL A   1      36.075  33.613  29.741  1.00  0.00    -0.744 OA
ENDBRANCH  55  59
ENDBRANCH  28  52
BRANCH  40  63
ATOM     63  C   UNL A   1      44.532  33.577  29.633  1.00  0.00     0.023 A 
ATOM     64  C   UNL A   1      45.220  33.772  30.840  1.00  0.00     0.031 A 
ATOM     65  C   UNL A   1      44.304  34.689  28.803  1.00  0.00     0.131 A 
ATOM     66  C   UNL A   1      45.626  35.062  31.206  1.00  0.00     0.055 A 
ATOM     67  C   UNL A   1      44.766  35.959  29.143  1.00  0.00     0.041 A 
ATOM     68  F   UNL A   1      43.652  34.550  27.638  1.00  0.00    -0.206 F 
ATOM     69  C   UNL A   1      45.424  36.153  30.355  1.00  0.00     0.022 A 
BRANCH  66  70
ATOM     70  S   UNL A   1      46.367  35.307  32.841  1.00  0.00     0.124 S 
ATOM     71  O   UNL A   1      47.734  35.688  32.499  1.00  0.00    -0.237 OA
ATOM     72  O   UNL A   1      45.533  36.362  33.409  1.00  0.00    -0.237 OA
ATOM     73  O   UNL A   1      46.229  33.999  33.478  1.00  0.00    -0.744 OA
ENDBRANCH  66  70
ENDBRANCH  40  63
ENDBRANCH  14  15
ENDBRANCH   7   9
ENDBRANCH   6   7
ENDBRANCH   5   6
ENDBRANCH   4   5
ENDBRANCH   3   4
ENDBRANCH   2   3
ENDBRANCH   1   2
BRANCH   1  74
ATOM     74  O   UNL A   1      34.992  21.398  26.564  1.00  0.00    -0.377 OA
BRANCH  74  75
ATOM     75  C   UNL A   1      33.912  22.310  26.305  1.00  0.00     0.188 C 
BRANCH  75  76
ATOM     76  C   UNL A   1      32.733  21.948  25.372  1.00  0.00     0.188 C 
BRANCH  76  77
ATOM     77  O   UNL A   1      33.059  22.011  23.989  1.00  0.00    -0.376 OA
BRANCH  77  78
ATOM     78  C   UNL A   1      31.982  22.073  23.057  1.00  0.00     0.202 C 
BRANCH  78  79
ATOM     79  C   UNL A   1      31.007  23.407  23.323  1.00  0.00     0.261 C 
BRANCH  79  80
ATOM     80  O   UNL A   1      30.975  24.700  24.897  1.00  0.00    -0.458 OA
BRANCH  80  81
ATOM     81  C   UNL A   1      31.249  25.352  26.153  1.00  0.00     0.359 C 
ATOM     82  O   UNL A   1      31.169  24.729  27.211  1.00  0.00    -0.244 OA
BRANCH  81  83
ATOM     83  C   UNL A   1      31.554  26.837  26.248  1.00  0.00     0.179 A 
ATOM     84  N   UNL A   1      31.350  27.259  27.553  1.00  0.00    -0.245 NA
ATOM     85  C   UNL A   1      31.945  27.750  25.249  1.00  0.00     0.161 A 
ATOM     86  C   UNL A   1      31.533  28.566  27.827  1.00  0.00     0.132 A 
ATOM     87  N   UNL A   1      32.080  29.086  25.584  1.00  0.00    -0.247 NA
ATOM     88  C   UNL A   1      31.882  29.469  26.856  1.00  0.00     0.132 A 
BRANCH  85  89
ATOM     89  C   UNL A   1      32.325  27.608  23.784  1.00  0.00     0.278 C 
ATOM     90  O   UNL A   1      33.532  27.554  23.505  1.00  0.00    -0.267 OA
ATOM     91  N   UNL A   1      31.495  27.510  22.704  1.00  0.00    -0.303 N 
ATOM     92  H   UNL A   1      31.940  27.267  21.860  1.00  0.00     0.172 HD
BRANCH  91  93
ATOM     93  C   UNL A   1      30.159  27.694  22.607  1.00  0.00     0.164 A 
ATOM     94  N   UNL A   1      29.351  26.736  23.079  1.00  0.00    -0.155 NA
ATOM     95  C   UNL A   1      29.501  28.852  22.183  1.00  0.00     0.063 A 
ATOM     96  N   UNL A   1      28.190  27.316  23.504  1.00  0.00    -0.259 N 
ATOM     97  C   UNL A   1      28.064  28.628  23.165  1.00  0.00     0.157 A 
ATOM     98  C   UNL A   1      29.851  30.531  21.558  1.00  0.00     0.017 A 
ATOM     99  H   UNL A   1      27.503  26.827  24.011  1.00  0.00     0.192 HD
ATOM    100  N   UNL A   1      27.034  29.889  23.675  1.00  0.00    -0.237 NA
ATOM    101  C   UNL A   1      28.831  31.897  22.104  1.00  0.00     0.021 A 
ATOM    102  C   UNL A   1      27.462  31.504  23.117  1.00  0.00     0.113 A 
ENDBRANCH  91  93
ENDBRANCH  85  89
ENDBRANCH  81  83
ENDBRANCH  80  81
ENDBRANCH  79  80
ENDBRANCH  78  79
ENDBRANCH  77  78
ENDBRANCH  76  77
ENDBRANCH  75  76
ENDBRANCH  74  75
ENDBRANCH   1  74
TORSDOF 25
ENDMDL
MODEL 2
REMARK VINA RESULT:     -10.5      1.881      2.150
REMARK SMILES O=C(OCCOCCOCCOCCOC(=O)c1nccnc1C(=O)Nc1n[nH]c2ncccc12)c1ccc(-c2c3nc(c(-c4cc(S(=O)(=O)[O-])ccc4F)c4ccc([nH]4)c(-c4cc(S(=O)(=O)[O-])ccc4F)c4nc(c(-c5cc(S(=O)(=O)[O-])ccc5F)c5ccc2[nH]5)C=C4)C=C3)cc1
REMARK SMILES IDX 8 1 7 2 6 3 5 4 4 5 3 6 2 7 1 8 36 9 37 10 98 11 38 12 97 13
REMARK SMILES IDX 39 14 40 15 41 16 91 17 42 18 96 19 90 20 92 21 43 22 95 23
REMARK SMILES IDX 89 24 88 25 44 27 76 28 56 29 75 30 57 31 60 32 74 33 93 34
REMARK SMILES IDX 58 35 59 36 73 38 94 39 61 40 45 41 46 42 54 43 47 44 53 45
REMARK SMILES IDX 55 46 52 47 48 48 49 49 50 50 51 51 77 52 78 53 86 54 79 55
REMARK SMILES IDX 85 56 87 57 84 58 80 59 81 60 82 61 83 62 62 63 63 64 71 65
REMARK SMILES IDX 64 66 70 67 72 68 69 69 65 70 66 71 67 72 68 73 9 74 10 75
REMARK SMILES IDX 11 76 12 77 13 78 14 79 15 80 16 81 17 82 18 83 19 84 23 85
REMARK SMILES IDX 20 86 22 87 21 88 24 89 25 90 26 91 27 93 28 94 35 95 29 96
REMARK SMILES IDX 30 97 34 98 31 100 33 101 32 102
REMARK H PARENT 92 26 60 37 26 92 29 99
REMARK Flexibility Score: inf
ROOT
ATOM      1  C   UNL A   1      37.113  22.764  26.105  1.00  0.00     0.188 C 
ENDROOT
BRANCH   1   2
ATOM      2  C   UNL A   1      37.628  22.153  24.813  1.00  0.00     0.188 C 
BRANCH   2   3
ATOM      3  O   UNL A   1      37.837  20.761  24.968  1.00  0.00    -0.376 OA
BRANCH   3   4
ATOM      4  C   UNL A   1      38.755  20.380  25.982  1.00  0.00     0.202 C 
BRANCH   4   5
ATOM      5  C   UNL A   1      39.459  19.101  25.531  1.00  0.00     0.261 C 
BRANCH   5   6
ATOM      6  O   UNL A   1      40.865  19.166  25.834  1.00  0.00    -0.460 OA
BRANCH   6   7
ATOM      7  C   UNL A   1      41.456  19.828  26.862  1.00  0.00     0.338 C 
ATOM      8  O   UNL A   1      41.958  19.158  27.766  1.00  0.00    -0.246 OA
BRANCH   7   9
ATOM      9  C   UNL A   1      41.612  21.322  26.944  1.00  0.00     0.060 A 
ATOM     10  C   UNL A   1      41.402  22.241  25.910  1.00  0.00     0.016 A 
ATOM     11  C   UNL A   1      41.898  21.838  28.220  1.00  0.00     0.016 A 
ATOM     12  C   UNL A   1      41.418  23.616  26.130  1.00  0.00     0.010 A 
ATOM     13  C   UNL A   1      41.968  23.217  28.444  1.00  0.00     0.010 A 
ATOM     14  C   UNL A   1      41.724  24.106  27.393  1.00  0.00    -0.014 A 
BRANCH  14  15
ATOM     15  C   UNL A   1      42.023  25.542  27.529  1.00  0.00     0.031 A 
ATOM     16  C   UNL A   1      43.344  26.004  26.995  1.00  0.00     0.074 A 
ATOM     17  C   UNL A   1      41.118  26.395  28.037  1.00  0.00     0.049 A 
ATOM     18  N   UNL A   1      43.940  27.153  27.136  1.00  0.00    -0.248 NA
ATOM     19  C   UNL A   1      44.092  25.029  26.180  1.00  0.00     0.031 C 
ATOM     20  C   UNL A   1      39.750  26.044  28.424  1.00  0.00     0.029 A 
ATOM     21  N   UNL A   1      41.213  27.732  28.320  1.00  0.00    -0.354 N 
ATOM     22  C   UNL A   1      45.156  27.022  26.474  1.00  0.00     0.074 A 
ATOM     23  C   UNL A   1      45.202  25.695  25.908  1.00  0.00     0.031 C 
ATOM     24  C   UNL A   1      39.145  27.136  28.924  1.00  0.00     0.029 A 
ATOM     25  C   UNL A   1      40.107  28.235  28.967  1.00  0.00     0.049 A 
ATOM     26  H   UNL A   1      41.997  28.279  28.085  1.00  0.00     0.167 HD
ATOM     27  C   UNL A   1      46.152  27.932  26.388  1.00  0.00     0.034 A 
ATOM     28  C   UNL A   1      39.939  29.423  29.585  1.00  0.00     0.034 A 
ATOM     29  C   UNL A   1      46.057  29.236  26.985  1.00  0.00     0.049 A 
ATOM     30  C   UNL A   1      41.114  30.380  29.580  1.00  0.00     0.074 A 
ATOM     31  C   UNL A   1      46.996  30.247  27.008  1.00  0.00     0.029 A 
ATOM     32  N   UNL A   1      44.947  29.698  27.685  1.00  0.00    -0.354 N 
ATOM     33  N   UNL A   1      42.287  30.243  28.997  1.00  0.00    -0.248 NA
ATOM     34  C   UNL A   1      40.960  31.633  30.327  1.00  0.00     0.031 C 
ATOM     35  C   UNL A   1      46.485  31.288  27.789  1.00  0.00     0.029 A 
ATOM     36  C   UNL A   1      45.195  30.961  28.185  1.00  0.00     0.049 A 
ATOM     37  H   UNL A   1      44.109  29.197  27.807  1.00  0.00     0.167 HD
ATOM     38  C   UNL A   1      43.001  31.399  29.299  1.00  0.00     0.074 A 
ATOM     39  C   UNL A   1      42.117  32.232  30.088  1.00  0.00     0.031 C 
ATOM     40  C   UNL A   1      44.272  31.748  28.968  1.00  0.00     0.034 A 
BRANCH  27  41
ATOM     41  C   UNL A   1      47.441  27.489  25.748  1.00  0.00     0.023 A 
ATOM     42  C   UNL A   1      48.511  26.962  26.492  1.00  0.00     0.031 A 
ATOM     43  C   UNL A   1      47.620  27.665  24.364  1.00  0.00     0.131 A 
ATOM     44  C   UNL A   1      49.732  26.685  25.855  1.00  0.00     0.055 A 
ATOM     45  C   UNL A   1      48.812  27.318  23.725  1.00  0.00     0.041 A 
ATOM     46  F   UNL A   1      46.647  28.202  23.612  1.00  0.00    -0.206 F 
ATOM     47  C   UNL A   1      49.880  26.835  24.474  1.00  0.00     0.022 A 
BRANCH  44  48
ATOM     48  S   UNL A   1      51.168  26.246  26.874  1.00  0.00     0.124 S 
ATOM     49  O   UNL A   1      51.019  27.162  28.003  1.00  0.00    -0.237 OA
ATOM     50  O   UNL A   1      50.933  24.836  27.163  1.00  0.00    -0.237 OA
ATOM     51  O   UNL A   1      52.306  26.523  26.001  1.00  0.00    -0.744 OA
ENDBRANCH  44  48
ENDBRANCH  27  41
BRANCH  28  52
ATOM     52  C   UNL A   1      38.695  29.735  30.358  1.00  0.00     0.023 A 
ATOM     53  C   UNL A   1      37.672  30.527  29.811  1.00  0.00     0.031 A 
ATOM     54  C   UNL A   1      38.552  29.324  31.698  1.00  0.00     0.131 A 
ATOM     55  C   UNL A   1      36.591  30.933  30.614  1.00  0.00     0.055 A 
ATOM     56  C   UNL A   1      37.442  29.673  32.470  1.00  0.00     0.041 A 
ATOM     57  F   UNL A   1      39.501  28.581  32.289  1.00  0.00    -0.206 F 
ATOM     58  C   UNL A   1      36.461  30.498  31.934  1.00  0.00     0.022 A 
BRANCH  55  59
ATOM     59  S   UNL A   1      35.420  32.151  29.947  1.00  0.00     0.124 S 
ATOM     60  O   UNL A   1      36.311  33.243  29.573  1.00  0.00    -0.237 OA
ATOM     61  O   UNL A   1      34.814  31.409  28.846  1.00  0.00    -0.237 OA
ATOM     62  O   UNL A   1      34.535  32.424  31.076  1.00  0.00    -0.744 OA
ENDBRANCH  55  59
ENDBRANCH  28  52
BRANCH  40  63
ATOM     63  C   UNL A   1      44.751  33.095  29.438  1.00  0.00     0.023 A 
ATOM     64  C   UNL A   1      44.689  34.224  28.607  1.00  0.00     0.031 A 
ATOM     65  C   UNL A   1      45.239  33.252  30.748  1.00  0.00     0.131 A 
ATOM     66  C   UNL A   1      45.143  35.461  29.083  1.00  0.00     0.055 A 
ATOM     67  C   UNL A   1      45.630  34.497  31.236  1.00  0.00     0.041 A 
ATOM     68  F   UNL A   1      45.315  32.201  31.579  1.00  0.00    -0.206 F 
ATOM     69  C   UNL A   1      45.592  35.610  30.399  1.00  0.00     0.022 A 
BRANCH  66  70
ATOM     70  S   UNL A   1      45.199  36.863  27.937  1.00  0.00     0.124 S 
ATOM     71  O   UNL A   1      44.299  36.423  26.876  1.00  0.00    -0.237 OA
ATOM     72  O   UNL A   1      44.719  37.965  28.765  1.00  0.00    -0.237 OA
ATOM     73  O   UNL A   1      46.610  36.941  27.561  1.00  0.00    -0.744 OA
ENDBRANCH  66  70
ENDBRANCH  40  63
ENDBRANCH  14  15
ENDBRANCH   7   9
ENDBRANCH   6   7
ENDBRANCH   5   6
ENDBRANCH   4   5
ENDBRANCH   3   4
ENDBRANCH   2   3
ENDBRANCH   1   2
BRANCH   1  74
ATOM     74  O   UNL A   1      35.721  23.071  26.120  1.00  0.00    -0.377 OA
BRANCH  74  75
ATOM     75  C   UNL A   1      35.177  24.002  25.170  1.00  0.00     0.188 C 
BRANCH  75  76
ATOM     76  C   UNL A   1      34.312  23.547  23.972  1.00  0.00     0.188 C 
BRANCH  76  77
ATOM     77  O   UNL A   1      34.274  24.488  22.906  1.00  0.00    -0.376 OA
BRANCH  77  78
ATOM     78  C   UNL A   1      33.172  24.421  22.002  1.00  0.00     0.202 C 
BRANCH  78  79
ATOM     79  C   UNL A   1      31.731  24.127  22.801  1.00  0.00     0.261 C 
BRANCH  79  80
ATOM     80  O   UNL A   1      31.145  24.688  24.670  1.00  0.00    -0.458 OA
BRANCH  80  81
ATOM     81  C   UNL A   1      31.042  25.362  25.941  1.00  0.00     0.359 C 
ATOM     82  O   UNL A   1      30.532  24.797  26.908  1.00  0.00    -0.244 OA
BRANCH  81  83
ATOM     83  C   UNL A   1      31.464  26.808  26.130  1.00  0.00     0.179 A 
ATOM     84  N   UNL A   1      31.288  27.162  27.459  1.00  0.00    -0.245 NA
ATOM     85  C   UNL A   1      31.931  27.749  25.190  1.00  0.00     0.161 A 
ATOM     86  C   UNL A   1      31.573  28.430  27.815  1.00  0.00     0.132 A 
ATOM     87  N   UNL A   1      32.170  29.046  25.610  1.00  0.00    -0.247 NA
ATOM     88  C   UNL A   1      31.997  29.362  26.904  1.00  0.00     0.132 A 
BRANCH  85  89
ATOM     89  C   UNL A   1      32.304  27.671  23.719  1.00  0.00     0.278 C 
ATOM     90  O   UNL A   1      33.510  27.624  23.433  1.00  0.00    -0.267 OA
ATOM     91  N   UNL A   1      31.469  27.623  22.639  1.00  0.00    -0.303 N 
ATOM     92  H   UNL A   1      31.910  27.416  21.784  1.00  0.00     0.172 HD
BRANCH  91  93
ATOM     93  C   UNL A   1      30.133  27.816  22.556  1.00  0.00     0.164 A 
ATOM     94  N   UNL A   1      29.324  26.845  23.000  1.00  0.00    -0.155 NA
ATOM     95  C   UNL A   1      29.479  28.990  22.174  1.00  0.00     0.063 A 
ATOM     96  N   UNL A   1      28.168  27.416  23.450  1.00  0.00    -0.259 N 
ATOM     97  C   UNL A   1      28.046  28.738  23.156  1.00  0.00     0.157 A 
ATOM     98  C   UNL A   1      29.832  30.687  21.606  1.00  0.00     0.017 A 
ATOM     99  H   UNL A   1      27.482  26.912  23.944  1.00  0.00     0.192 HD
ATOM    100  N   UNL A   1      27.024  29.986  23.715  1.00  0.00    -0.237 NA
ATOM    101  C   UNL A   1      28.821  32.039  22.203  1.00  0.00     0.021 A 
ATOM    102  C   UNL A   1      27.456  31.617  23.209  1.00  0.00     0.113 A 
ENDBRANCH  91  93
ENDBRANCH  85  89
ENDBRANCH  81  83
ENDBRANCH  80  81
ENDBRANCH  79  80
ENDBRANCH  78  79
ENDBRANCH  77  78
ENDBRANCH  76  77
ENDBRANCH  75  76
ENDBRANCH  74  75
ENDBRANCH   1  74
TORSDOF 25
ENDMDL
MODEL 3
REMARK VINA RESULT:     -10.2      4.405     10.150
REMARK SMILES O=C(OCCOCCOCCOCCOC(=O)c1nccnc1C(=O)Nc1n[nH]c2ncccc12)c1ccc(-c2c3nc(c(-c4cc(S(=O)(=O)[O-])ccc4F)c4ccc([nH]4)c(-c4cc(S(=O)(=O)[O-])ccc4F)c4nc(c(-c5cc(S(=O)(=O)[O-])ccc5F)c5ccc2[nH]5)C=C4)C=C3)cc1
REMARK SMILES IDX 8 1 7 2 6 3 5 4 4 5 3 6 2 7 1 8 36 9 37 10 98 11 38 12 97 13
REMARK SMILES IDX 39 14 40 15 41 16 91 17 42 18 96 19 90 20 92 21 43 22 95 23
REMARK SMILES IDX 89 24 88 25 44 27 76 28 56 29 75 30 57 31 60 32 74 33 93 34
REMARK SMILES IDX 58 35 59 36 73 38 94 39 61 40 45 41 46 42 54 43 47 44 53 45
REMARK SMILES IDX 55 46 52 47 48 48 49 49 50 50 51 51 77 52 78 53 86 54 79 55
REMARK SMILES IDX 85 56 87 57 84 58 80 59 81 60 82 61 83 62 62 63 63 64 71 65
REMARK SMILES IDX 64 66 70 67 72 68 69 69 65 70 66 71 67 72 68 73 9 74 10 75
REMARK SMILES IDX 11 76 12 77 13 78 14 79 15 80 16 81 17 82 18 83 19 84 23 85
REMARK SMILES IDX 20 86 22 87 21 88 24 89 25 90 26 91 27 93 28 94 35 95 29 96
REMARK SMILES IDX 30 97 34 98 31 100 33 101 32 102
REMARK H PARENT 92 26 60 37 26 92 29 99
REMARK Flexibility Score: inf
ROOT
ATOM      1  C   UNL A   1      34.073  28.913  27.216  1.00  0.00     0.188 C 
ENDROOT
BRANCH   1   2
ATOM      2  C   UNL A   1      34.402  30.395  27.219  1.00  0.00     0.188 C 
BRANCH   2   3
ATOM      3  O   UNL A   1      33.271  31.156  27.601  1.00  0.00    -0.376 OA
BRANCH   3   4
ATOM      4  C   UNL A   1      33.142  32.430  26.987  1.00  0.00     0.202 C 
BRANCH   4   5
ATOM      5  C   UNL A   1      32.183  33.270  27.828  1.00  0.00     0.261 C 
BRANCH   5   6
ATOM      6  O   UNL A   1      32.907  34.010  28.828  1.00  0.00    -0.460 OA
BRANCH   6   7
ATOM      7  C   UNL A   1      34.235  34.293  28.843  1.00  0.00     0.338 C 
ATOM      8  O   UNL A   1      34.589  35.412  28.466  1.00  0.00    -0.246 OA
BRANCH   7   9
ATOM      9  C   UNL A   1      35.304  33.370  29.358  1.00  0.00     0.060 A 
ATOM     10  C   UNL A   1      35.131  32.317  30.264  1.00  0.00     0.016 A 
ATOM     11  C   UNL A   1      36.577  33.527  28.784  1.00  0.00     0.016 A 
ATOM     12  C   UNL A   1      36.155  31.419  30.555  1.00  0.00     0.010 A 
ATOM     13  C   UNL A   1      37.629  32.663  29.107  1.00  0.00     0.010 A 
ATOM     14  C   UNL A   1      37.412  31.605  29.995  1.00  0.00    -0.014 A 
BRANCH  14  15
ATOM     15  C   UNL A   1      38.539  30.830  30.542  1.00  0.00     0.031 A 
ATOM     16  C   UNL A   1      39.055  31.253  31.882  1.00  0.00     0.074 A 
ATOM     17  C   UNL A   1      39.019  29.753  29.896  1.00  0.00     0.049 A 
ATOM     18  N   UNL A   1      40.131  30.879  32.513  1.00  0.00    -0.248 NA
ATOM     19  C   UNL A   1      38.233  32.234  32.614  1.00  0.00     0.031 C 
ATOM     20  C   UNL A   1      38.459  29.183  28.670  1.00  0.00     0.029 A 
ATOM     21  N   UNL A   1      40.091  28.948  30.180  1.00  0.00    -0.354 N 
ATOM     22  C   UNL A   1      40.144  31.618  33.691  1.00  0.00     0.074 A 
ATOM     23  C   UNL A   1      38.957  32.439  33.702  1.00  0.00     0.031 C 
ATOM     24  C   UNL A   1      39.214  28.137  28.291  1.00  0.00     0.029 A 
ATOM     25  C   UNL A   1      40.352  28.018  29.199  1.00  0.00     0.049 A 
ATOM     26  H   UNL A   1      40.623  29.029  31.004  1.00  0.00     0.167 HD
ATOM     27  C   UNL A   1      41.093  31.622  34.653  1.00  0.00     0.034 A 
ATOM     28  C   UNL A   1      41.431  27.225  29.032  1.00  0.00     0.034 A 
ATOM     29  C   UNL A   1      42.265  30.792  34.583  1.00  0.00     0.049 A 
ATOM     30  C   UNL A   1      42.539  27.336  30.060  1.00  0.00     0.074 A 
ATOM     31  C   UNL A   1      43.323  30.714  35.465  1.00  0.00     0.029 A 
ATOM     32  N   UNL A   1      42.532  29.901  33.549  1.00  0.00    -0.354 N 
ATOM     33  N   UNL A   1      42.581  28.070  31.153  1.00  0.00    -0.248 NA
ATOM     34  C   UNL A   1      43.749  26.539  29.829  1.00  0.00     0.031 C 
ATOM     35  C   UNL A   1      44.267  29.836  34.922  1.00  0.00     0.029 A 
ATOM     36  C   UNL A   1      43.761  29.304  33.745  1.00  0.00     0.049 A 
ATOM     37  H   UNL A   1      41.932  29.724  32.788  1.00  0.00     0.167 HD
ATOM     38  C   UNL A   1      43.814  27.809  31.742  1.00  0.00     0.074 A 
ATOM     39  C   UNL A   1      44.473  26.831  30.900  1.00  0.00     0.031 C 
ATOM     40  C   UNL A   1      44.368  28.330  32.868  1.00  0.00     0.034 A 
BRANCH  27  41
ATOM     41  C   UNL A   1      40.953  32.634  35.759  1.00  0.00     0.023 A 
ATOM     42  C   UNL A   1      40.313  32.341  36.976  1.00  0.00     0.031 A 
ATOM     43  C   UNL A   1      41.416  33.947  35.556  1.00  0.00     0.131 A 
ATOM     44  C   UNL A   1      40.103  33.362  37.917  1.00  0.00     0.055 A 
ATOM     45  C   UNL A   1      41.270  34.939  36.527  1.00  0.00     0.041 A 
ATOM     46  F   UNL A   1      41.998  34.294  34.397  1.00  0.00    -0.206 F 
ATOM     47  C   UNL A   1      40.599  34.652  37.711  1.00  0.00     0.022 A 
BRANCH  44  48
ATOM     48  S   UNL A   1      39.058  33.017  39.360  1.00  0.00     0.124 S 
ATOM     49  O   UNL A   1      40.036  32.504  40.316  1.00  0.00    -0.237 OA
ATOM     50  O   UNL A   1      38.495  34.328  39.664  1.00  0.00    -0.237 OA
ATOM     51  O   UNL A   1      38.103  32.028  38.864  1.00  0.00    -0.744 OA
ENDBRANCH  44  48
ENDBRANCH  27  41
BRANCH  28  52
ATOM     52  C   UNL A   1      41.593  26.369  27.815  1.00  0.00     0.023 A 
ATOM     53  C   UNL A   1      41.343  24.987  27.853  1.00  0.00     0.031 A 
ATOM     54  C   UNL A   1      42.096  26.904  26.613  1.00  0.00     0.131 A 
ATOM     55  C   UNL A   1      41.654  24.184  26.741  1.00  0.00     0.055 A 
ATOM     56  C   UNL A   1      42.338  26.113  25.488  1.00  0.00     0.041 A 
ATOM     57  F   UNL A   1      42.374  28.214  26.513  1.00  0.00    -0.206 F 
ATOM     58  C   UNL A   1      42.134  24.740  25.554  1.00  0.00     0.022 A 
BRANCH  55  59
ATOM     59  S   UNL A   1      41.547  22.379  26.912  1.00  0.00     0.124 S 
ATOM     60  O   UNL A   1      40.151  22.201  27.293  1.00  0.00    -0.237 OA
ATOM     61  O   UNL A   1      41.911  21.931  25.572  1.00  0.00    -0.237 OA
ATOM     62  O   UNL A   1      42.524  22.079  27.956  1.00  0.00    -0.744 OA
ENDBRANCH  55  59
ENDBRANCH  28  52
BRANCH  40  63
ATOM     63  C   UNL A   1      45.731  27.821  33.254  1.00  0.00     0.023 A 
ATOM     64  C   UNL A   1      46.901  28.470  32.828  1.00  0.00     0.031 A 
ATOM     65  C   UNL A   1      45.854  26.697  34.089  1.00  0.00     0.131 A 
ATOM     66  C   UNL A   1      48.151  27.966  33.211  1.00  0.00     0.055 A 
ATOM     67  C   UNL A   1      47.098  26.239  34.518  1.00  0.00     0.041 A 
ATOM     68  F   UNL A   1      44.763  26.046  34.522  1.00  0.00    -0.206 F 
ATOM     69  C   UNL A   1      48.257  26.869  34.071  1.00  0.00     0.022 A 
BRANCH  66  70
ATOM     70  S   UNL A   1      49.642  28.727  32.517  1.00  0.00     0.124 S 
ATOM     71  O   UNL A   1      49.928  27.853  31.384  1.00  0.00    -0.237 OA
ATOM     72  O   UNL A   1      49.183  30.072  32.185  1.00  0.00    -0.237 OA
ATOM     73  O   UNL A   1      50.605  28.655  33.614  1.00  0.00    -0.744 OA
ENDBRANCH  66  70
ENDBRANCH  40  63
ENDBRANCH  14  15
ENDBRANCH   7   9
ENDBRANCH   6   7
ENDBRANCH   5   6
ENDBRANCH   4   5
ENDBRANCH   3   4
ENDBRANCH   2   3
ENDBRANCH   1   2
BRANCH   1  74
ATOM     74  O   UNL A   1      33.698  28.375  25.950  1.00  0.00    -0.377 OA
BRANCH  74  75
ATOM     75  C   UNL A   1      32.939  29.171  25.024  1.00  0.00     0.188 C 
BRANCH  75  76
ATOM     76  C   UNL A   1      31.394  29.228  25.060  1.00  0.00     0.188 C 
BRANCH  76  77
ATOM     77  O   UNL A   1      30.837  30.167  24.149  1.00  0.00    -0.376 OA
BRANCH  77  78
ATOM     78  C   UNL A   1      29.620  29.813  23.494  1.00  0.00     0.202 C 
BRANCH  78  79
ATOM     79  C   UNL A   1      29.814  28.480  22.502  1.00  0.00     0.261 C 
BRANCH  79  80
ATOM     80  O   UNL A   1      31.498  27.417  22.070  1.00  0.00    -0.458 OA
BRANCH  80  81
ATOM     81  C   UNL A   1      32.623  26.519  22.153  1.00  0.00     0.359 C 
ATOM     82  O   UNL A   1      33.750  26.900  21.841  1.00  0.00    -0.244 OA
BRANCH  81  83
ATOM     83  C   UNL A   1      32.469  25.056  22.531  1.00  0.00     0.179 A 
ATOM     84  N   UNL A   1      33.247  24.284  21.683  1.00  0.00    -0.245 NA
ATOM     85  C   UNL A   1      31.672  24.455  23.526  1.00  0.00     0.161 A 
ATOM     86  C   UNL A   1      33.210  22.945  21.840  1.00  0.00     0.132 A 
ATOM     87  N   UNL A   1      31.647  23.073  23.612  1.00  0.00    -0.247 NA
ATOM     88  C   UNL A   1      32.414  22.348  22.782  1.00  0.00     0.132 A 
BRANCH  85  89
ATOM     89  C   UNL A   1      30.794  24.996  24.642  1.00  0.00     0.278 C 
ATOM     90  O   UNL A   1      29.879  25.773  24.329  1.00  0.00    -0.267 OA
ATOM     91  N   UNL A   1      30.864  24.721  25.978  1.00  0.00    -0.303 N 
ATOM     92  H   UNL A   1      30.104  25.052  26.508  1.00  0.00     0.172 HD
BRANCH  91  93
ATOM     93  C   UNL A   1      31.810  24.068  26.689  1.00  0.00     0.164 A 
ATOM     94  N   UNL A   1      31.412  23.152  27.582  1.00  0.00    -0.155 NA
ATOM     95  C   UNL A   1      33.194  24.140  26.506  1.00  0.00     0.063 A 
ATOM     96  N   UNL A   1      32.383  22.197  27.686  1.00  0.00    -0.259 N 
ATOM     97  C   UNL A   1      33.544  22.508  27.049  1.00  0.00     0.157 A 
ATOM     98  C   UNL A   1      34.444  24.981  25.478  1.00  0.00     0.017 A 
ATOM     99  H   UNL A   1      32.254  21.357  28.180  1.00  0.00     0.192 HD
ATOM    100  N   UNL A   1      34.919  21.608  26.586  1.00  0.00    -0.237 NA
ATOM    101  C   UNL A   1      35.879  24.066  24.922  1.00  0.00     0.021 A 
ATOM    102  C   UNL A   1      36.055  22.434  25.522  1.00  0.00     0.113 A 
ENDBRANCH  91  93
ENDBRANCH  85  89
ENDBRANCH  81  83
ENDBRANCH  80  81
ENDBRANCH  79  80
ENDBRANCH  78  79
ENDBRANCH  77  78
ENDBRANCH  76  77
ENDBRANCH  75  76
ENDBRANCH  74  75
ENDBRANCH   1  74
TORSDOF 25
ENDMDL
