MODEL 1
REMARK VINA RESULT:      -9.6      0.000      0.000
REMARK SMILES COc1ccc(C(=O)c2ccccc2)cc1[C@@H](C)C(=O)OCCOCCOCCOCCOC(=O)c1ccc(-c2c3nc(c(-c4cc(S(=O)(=O)[O-])ccc4F)c4ccc([nH]4)c(-c4cc(S(=O)(=O)[O-])ccc4F)c4nc(c(-c5cc(S(=O)(=O)[O-])ccc5F)c5ccc2[nH]5)C=C4)C=C3)cc1
REMARK SMILES IDX 27 1 26 2 25 3 24 4 23 5 22 6 21 7 19 8 20 9 17 10 18 11
REMARK SMILES IDX 16 12 3 13 4 14 5 15 15 16 6 17 2 18 1 19 7 20 8 21 9 22
REMARK SMILES IDX 10 23 14 24 11 25 13 26 12 27 28 28 29 29 30 30 31 31 32 32
REMARK SMILES IDX 33 33 34 34 35 35 36 36 37 37 98 38 38 39 97 40 39 41 40 42
REMARK SMILES IDX 41 43 91 44 42 45 96 46 90 47 92 48 43 49 95 50 89 51 88 52
REMARK SMILES IDX 44 54 76 55 56 56 75 57 57 58 60 59 74 60 93 61 58 62 59 63
REMARK SMILES IDX 73 65 94 66 61 67 45 68 46 69 54 70 47 71 53 72 55 73 52 74
REMARK SMILES IDX 48 75 49 76 50 77 51 78 77 79 78 80 86 81 79 82 85 83 87 84
REMARK SMILES IDX 84 85 80 86 81 87 82 88 83 89 62 90 63 91 71 92 64 93 70 94
REMARK SMILES IDX 72 95 69 96 65 97 66 98 67 99 68 100
REMARK H PARENT 92 53 60 64
REMARK Flexibility Score: inf
ROOT
ATOM      1  O   UNL A   1      33.978  19.899  25.017  1.00  0.00    -0.377 OA
ENDROOT
BRANCH   1   2
ATOM      2  C   UNL A   1      32.570  19.963  24.953  1.00  0.00     0.188 C 
BRANCH   2   3
ATOM      3  C   UNL A   1      31.964  21.373  25.028  1.00  0.00     0.188 C 
BRANCH   3   4
ATOM      4  O   UNL A   1      30.789  21.640  25.780  1.00  0.00    -0.376 OA
BRANCH   4   5
ATOM      5  C   UNL A   1      30.737  22.748  26.665  1.00  0.00     0.202 C 
BRANCH   5   6
ATOM      6  C   UNL A   1      30.804  24.190  26.127  1.00  0.00     0.261 C 
BRANCH   6   7
ATOM      7  O   UNL A   1      31.829  25.042  26.676  1.00  0.00    -0.463 OA
BRANCH   7   8
ATOM      8  C   UNL A   1      33.109  24.749  26.353  1.00  0.00     0.313 C 
ATOM      9  O   UNL A   1      33.725  23.792  26.820  1.00  0.00    -0.252 OA
BRANCH   8  10
ATOM     10  C   UNL A   1      33.782  25.712  25.373  1.00  0.00     0.130 C 
ATOM     11  C   UNL A   1      34.142  26.998  26.107  1.00  0.00     0.025 C 
BRANCH  10  12
ATOM     12  C   UNL A   1      33.134  26.032  24.028  1.00  0.00     0.009 A 
ATOM     13  C   UNL A   1      33.394  25.256  22.880  1.00  0.00     0.122 A 
ATOM     14  C   UNL A   1      32.806  25.560  21.646  1.00  0.00     0.047 A 
ATOM     15  C   UNL A   1      31.940  26.647  21.531  1.00  0.00     0.016 A 
ATOM     16  C   UNL A   1      32.259  27.128  23.880  1.00  0.00     0.020 A 
ATOM     17  C   UNL A   1      31.668  27.450  22.644  1.00  0.00     0.023 A 
BRANCH  13  18
ATOM     18  O   UNL A   1      34.296  24.225  22.897  1.00  0.00    -0.496 OA
ATOM     19  C   UNL A   1      33.786  23.046  22.274  1.00  0.00     0.278 C 
ENDBRANCH  13  18
BRANCH  17  20
ATOM     20  C   UNL A   1      30.721  28.594  22.468  1.00  0.00     0.193 C 
ATOM     21  O   UNL A   1      31.125  29.653  21.992  1.00  0.00    -0.289 OA
BRANCH  20  22
ATOM     22  C   UNL A   1      29.287  28.477  22.820  1.00  0.00     0.022 A 
ATOM     23  C   UNL A   1      28.844  27.291  23.409  1.00  0.00     0.012 A 
ATOM     24  C   UNL A   1      28.381  29.517  22.576  1.00  0.00     0.012 A 
ATOM     25  C   UNL A   1      27.516  27.181  23.812  1.00  0.00     0.001 A 
ATOM     26  C   UNL A   1      27.063  29.414  23.021  1.00  0.00     0.001 A 
ATOM     27  C   UNL A   1      26.635  28.248  23.650  1.00  0.00     0.000 A 
ENDBRANCH  20  22
ENDBRANCH  17  20
ENDBRANCH  10  12
ENDBRANCH   8  10
ENDBRANCH   7   8
ENDBRANCH   6   7
ENDBRANCH   5   6
ENDBRANCH   4   5
ENDBRANCH   3   4
ENDBRANCH   2   3
ENDBRANCH   1   2
BRANCH   1  28
ATOM     28  C   UNL A   1      34.666  21.142  25.021  1.00  0.00     0.188 C 
BRANCH  28  29
ATOM     29  C   UNL A   1      36.144  21.121  25.455  1.00  0.00     0.188 C 
BRANCH  29  30
ATOM     30  O   UNL A   1      36.849  19.944  25.066  1.00  0.00    -0.376 OA
BRANCH  30  31
ATOM     31  C   UNL A   1      38.240  20.048  24.788  1.00  0.00     0.202 C 
BRANCH  31  32
ATOM     32  C   UNL A   1      39.216  19.197  25.625  1.00  0.00     0.261 C 
BRANCH  32  33
ATOM     33  O   UNL A   1      40.093  19.908  26.512  1.00  0.00    -0.460 OA
BRANCH  33  34
ATOM     34  C   UNL A   1      41.415  19.859  26.254  1.00  0.00     0.338 C 
ATOM     35  O   UNL A   1      42.012  18.942  25.709  1.00  0.00    -0.246 OA
BRANCH  34  36
ATOM     36  C   UNL A   1      41.999  21.191  26.520  1.00  0.00     0.060 A 
ATOM     37  C   UNL A   1      42.277  21.536  27.849  1.00  0.00     0.016 A 
ATOM     38  C   UNL A   1      42.263  22.099  25.490  1.00  0.00     0.016 A 
ATOM     39  C   UNL A   1      42.763  22.804  28.160  1.00  0.00     0.010 A 
ATOM     40  C   UNL A   1      42.731  23.382  25.807  1.00  0.00     0.010 A 
ATOM     41  C   UNL A   1      42.944  23.754  27.148  1.00  0.00    -0.014 A 
BRANCH  41  42
ATOM     42  C   UNL A   1      43.174  25.173  27.529  1.00  0.00     0.031 A 
ATOM     43  C   UNL A   1      44.552  25.754  27.357  1.00  0.00     0.074 A 
ATOM     44  C   UNL A   1      42.163  25.960  27.940  1.00  0.00     0.049 A 
ATOM     45  N   UNL A   1      44.974  26.973  27.575  1.00  0.00    -0.248 NA
ATOM     46  C   UNL A   1      45.587  24.842  26.848  1.00  0.00     0.031 C 
ATOM     47  C   UNL A   1      40.768  25.546  28.055  1.00  0.00     0.029 A 
ATOM     48  N   UNL A   1      42.154  27.272  28.345  1.00  0.00    -0.354 N 
ATOM     49  C   UNL A   1      46.315  26.982  27.207  1.00  0.00     0.074 A 
ATOM     50  C   UNL A   1      46.650  25.630  26.814  1.00  0.00     0.031 C 
ATOM     51  C   UNL A   1      40.047  26.564  28.560  1.00  0.00     0.029 A 
ATOM     52  C   UNL A   1      40.928  27.702  28.797  1.00  0.00     0.049 A 
ATOM     53  H   UNL A   1      42.950  27.851  28.314  1.00  0.00     0.167 HD
ATOM     54  C   UNL A   1      47.179  28.027  27.174  1.00  0.00     0.034 A 
ATOM     55  C   UNL A   1      40.561  28.875  29.350  1.00  0.00     0.034 A 
ATOM     56  C   UNL A   1      46.835  29.364  27.592  1.00  0.00     0.049 A 
ATOM     57  C   UNL A   1      41.575  29.989  29.432  1.00  0.00     0.074 A 
ATOM     58  C   UNL A   1      47.627  30.499  27.585  1.00  0.00     0.029 A 
ATOM     59  N   UNL A   1      45.606  29.746  28.116  1.00  0.00    -0.354 N 
ATOM     60  N   UNL A   1      42.831  29.995  29.045  1.00  0.00    -0.248 NA
ATOM     61  C   UNL A   1      41.108  31.266  29.984  1.00  0.00     0.031 C 
ATOM     62  C   UNL A   1      46.910  31.540  28.185  1.00  0.00     0.029 A 
ATOM     63  C   UNL A   1      45.634  31.086  28.479  1.00  0.00     0.049 A 
ATOM     64  H   UNL A   1      44.826  29.152  28.215  1.00  0.00     0.167 HD
ATOM     65  C   UNL A   1      43.289  31.292  29.267  1.00  0.00     0.074 A 
ATOM     66  C   UNL A   1      42.169  32.038  29.802  1.00  0.00     0.031 C 
ATOM     67  C   UNL A   1      44.522  31.819  29.039  1.00  0.00     0.034 A 
BRANCH  54  68
ATOM     68  C   UNL A   1      48.590  27.744  26.715  1.00  0.00     0.023 A 
ATOM     69  C   UNL A   1      49.644  27.549  27.627  1.00  0.00     0.031 A 
ATOM     70  C   UNL A   1      48.894  27.696  25.343  1.00  0.00     0.131 A 
ATOM     71  C   UNL A   1      50.957  27.389  27.158  1.00  0.00     0.055 A 
ATOM     72  C   UNL A   1      50.189  27.452  24.883  1.00  0.00     0.041 A 
ATOM     73  F   UNL A   1      47.936  27.901  24.424  1.00  0.00    -0.206 F 
ATOM     74  C   UNL A   1      51.233  27.312  25.791  1.00  0.00     0.022 A 
BRANCH  71  75
ATOM     75  S   UNL A   1      52.319  27.434  28.356  1.00  0.00     0.124 S 
ATOM     76  O   UNL A   1      52.960  26.141  28.122  1.00  0.00    -0.237 OA
ATOM     77  O   UNL A   1      53.074  28.607  27.932  1.00  0.00    -0.237 OA
ATOM     78  O   UNL A   1      51.640  27.559  29.643  1.00  0.00    -0.744 OA
ENDBRANCH  71  75
ENDBRANCH  54  68
BRANCH  55  79
ATOM     79  C   UNL A   1      39.180  29.059  29.885  1.00  0.00     0.023 A 
ATOM     80  C   UNL A   1      38.176  29.677  29.124  1.00  0.00     0.031 A 
ATOM     81  C   UNL A   1      38.864  28.670  31.200  1.00  0.00     0.131 A 
ATOM     82  C   UNL A   1      36.922  29.937  29.699  1.00  0.00     0.055 A 
ATOM     83  C   UNL A   1      37.601  28.884  31.751  1.00  0.00     0.041 A 
ATOM     84  F   UNL A   1      39.786  28.068  31.970  1.00  0.00    -0.206 F 
ATOM     85  C   UNL A   1      36.624  29.534  31.003  1.00  0.00     0.022 A 
BRANCH  82  86
ATOM     86  S   UNL A   1      35.708  30.886  28.744  1.00  0.00     0.124 S 
ATOM     87  O   UNL A   1      34.919  29.826  28.127  1.00  0.00    -0.237 OA
ATOM     88  O   UNL A   1      35.041  31.659  29.787  1.00  0.00    -0.237 OA
ATOM     89  O   UNL A   1      36.534  31.667  27.826  1.00  0.00    -0.744 OA
ENDBRANCH  82  86
ENDBRANCH  55  79
BRANCH  67  90
ATOM     90  C   UNL A   1      44.700  33.291  29.337  1.00  0.00     0.023 A 
ATOM     91  C   UNL A   1      44.360  34.281  28.397  1.00  0.00     0.031 A 
ATOM     92  C   UNL A   1      45.268  33.710  30.553  1.00  0.00     0.131 A 
ATOM     93  C   UNL A   1      44.678  35.625  28.649  1.00  0.00     0.055 A 
ATOM     94  C   UNL A   1      45.501  35.058  30.834  1.00  0.00     0.041 A 
ATOM     95  F   UNL A   1      45.619  32.814  31.490  1.00  0.00    -0.206 F 
ATOM     96  C   UNL A   1      45.227  36.022  29.870  1.00  0.00     0.022 A 
BRANCH  93  97
ATOM     97  S   UNL A   1      44.511  36.821  27.295  1.00  0.00     0.124 S 
ATOM     98  O   UNL A   1      45.788  36.671  26.603  1.00  0.00    -0.237 OA
ATOM     99  O   UNL A   1      43.339  36.323  26.582  1.00  0.00    -0.237 OA
ATOM    100  O   UNL A   1      44.324  38.095  27.984  1.00  0.00    -0.744 OA
ENDBRANCH  93  97
ENDBRANCH  67  90
ENDBRANCH  41  42
ENDBRANCH  34  36
ENDBRANCH  33  34
ENDBRANCH  32  33
ENDBRANCH  31  32
ENDBRANCH  30  31
ENDBRANCH  29  30
ENDBRANCH  28  29
ENDBRANCH   1  28
TORSDOF 27
ENDMDL
MODEL 2
REMARK VINA RESULT:      -9.1      1.887      8.117
REMARK SMILES COc1ccc(C(=O)c2ccccc2)cc1[C@@H](C)C(=O)OCCOCCOCCOCCOC(=O)c1ccc(-c2c3nc(c(-c4cc(S(=O)(=O)[O-])ccc4F)c4ccc([nH]4)c(-c4cc(S(=O)(=O)[O-])ccc4F)c4nc(c(-c5cc(S(=O)(=O)[O-])ccc5F)c5ccc2[nH]5)C=C4)C=C3)cc1
REMARK SMILES IDX 27 1 26 2 25 3 24 4 23 5 22 6 21 7 19 8 20 9 17 10 18 11
REMARK SMILES IDX 16 12 3 13 4 14 5 15 15 16 6 17 2 18 1 19 7 20 8 21 9 22
REMARK SMILES IDX 10 23 14 24 11 25 13 26 12 27 28 28 29 29 30 30 31 31 32 32
REMARK SMILES IDX 33 33 34 34 35 35 36 36 37 37 98 38 38 39 97 40 39 41 40 42
REMARK SMILES IDX 41 43 91 44 42 45 96 46 90 47 92 48 43 49 95 50 89 51 88 52
REMARK SMILES IDX 44 54 76 55 56 56 75 57 57 58 60 59 74 60 93 61 58 62 59 63
REMARK SMILES IDX 73 65 94 66 61 67 45 68 46 69 54 70 47 71 53 72 55 73 52 74
REMARK SMILES IDX 48 75 49 76 50 77 51 78 77 79 78 80 86 81 79 82 85 83 87 84
REMARK SMILES IDX 84 85 80 86 81 87 82 88 83 89 62 90 63 91 71 92 64 93 70 94
REMARK SMILES IDX 72 95 69 96 65 97 66 98 67 99 68 100
REMARK H PARENT 92 53 60 64
REMARK Flexibility Score: inf
ROOT
ATOM      1  O   UNL A   1      33.342  20.555  24.334  1.00  0.00    -0.377 OA
ENDROOT
BRANCH   1   2
ATOM      2  C   UNL A   1      32.164  20.577  25.111  1.00  0.00     0.188 C 
BRANCH   2   3
ATOM      3  C   UNL A   1      31.559  21.967  25.364  1.00  0.00     0.188 C 
BRANCH   3   4
ATOM      4  O   UNL A   1      30.354  22.133  26.098  1.00  0.00    -0.376 OA
BRANCH   4   5
ATOM      5  C   UNL A   1      30.089  23.347  26.782  1.00  0.00     0.202 C 
BRANCH   5   6
ATOM      6  C   UNL A   1      30.473  24.702  26.159  1.00  0.00     0.261 C 
BRANCH   6   7
ATOM      7  O   UNL A   1      31.520  25.447  26.813  1.00  0.00    -0.463 OA
BRANCH   7   8
ATOM      8  C   UNL A   1      32.701  25.547  26.161  1.00  0.00     0.313 C 
ATOM      9  O   UNL A   1      33.649  24.786  26.353  1.00  0.00    -0.252 OA
BRANCH   8  10
ATOM     10  C   UNL A   1      32.813  26.705  25.168  1.00  0.00     0.130 C 
ATOM     11  C   UNL A   1      34.114  26.566  24.386  1.00  0.00     0.025 C 
BRANCH  10  12
ATOM     12  C   UNL A   1      32.623  28.148  25.631  1.00  0.00     0.009 A 
ATOM     13  C   UNL A   1      31.535  28.928  25.189  1.00  0.00     0.122 A 
ATOM     14  C   UNL A   1      31.371  30.254  25.607  1.00  0.00     0.047 A 
ATOM     15  C   UNL A   1      32.291  30.832  26.481  1.00  0.00     0.016 A 
ATOM     16  C   UNL A   1      33.541  28.761  26.509  1.00  0.00     0.020 A 
ATOM     17  C   UNL A   1      33.393  30.096  26.930  1.00  0.00     0.023 A 
BRANCH  13  18
ATOM     18  O   UNL A   1      30.638  28.455  24.267  1.00  0.00    -0.496 OA
ATOM     19  C   UNL A   1      30.473  29.347  23.164  1.00  0.00     0.278 C 
ENDBRANCH  13  18
BRANCH  17  20
ATOM     20  C   UNL A   1      34.340  30.760  27.877  1.00  0.00     0.193 C 
ATOM     21  O   UNL A   1      34.014  31.806  28.434  1.00  0.00    -0.289 OA
BRANCH  20  22
ATOM     22  C   UNL A   1      35.661  30.169  28.197  1.00  0.00     0.022 A 
ATOM     23  C   UNL A   1      35.866  29.665  29.483  1.00  0.00     0.012 A 
ATOM     24  C   UNL A   1      36.690  30.109  27.250  1.00  0.00     0.012 A 
ATOM     25  C   UNL A   1      37.074  29.043  29.790  1.00  0.00     0.001 A 
ATOM     26  C   UNL A   1      37.880  29.447  27.553  1.00  0.00     0.001 A 
ATOM     27  C   UNL A   1      38.066  28.904  28.821  1.00  0.00     0.000 A 
ENDBRANCH  20  22
ENDBRANCH  17  20
ENDBRANCH  10  12
ENDBRANCH   8  10
ENDBRANCH   7   8
ENDBRANCH   6   7
ENDBRANCH   5   6
ENDBRANCH   4   5
ENDBRANCH   3   4
ENDBRANCH   2   3
ENDBRANCH   1   2
BRANCH   1  28
ATOM     28  C   UNL A   1      34.235  21.644  24.515  1.00  0.00     0.188 C 
BRANCH  28  29
ATOM     29  C   UNL A   1      35.391  21.441  25.513  1.00  0.00     0.188 C 
BRANCH  29  30
ATOM     30  O   UNL A   1      36.565  20.871  24.938  1.00  0.00    -0.376 OA
BRANCH  30  31
ATOM     31  C   UNL A   1      37.830  21.393  25.323  1.00  0.00     0.202 C 
BRANCH  31  32
ATOM     32  C   UNL A   1      38.943  20.397  25.708  1.00  0.00     0.261 C 
BRANCH  32  33
ATOM     33  O   UNL A   1      39.703  20.705  26.887  1.00  0.00    -0.460 OA
BRANCH  33  34
ATOM     34  C   UNL A   1      41.044  20.761  26.767  1.00  0.00     0.338 C 
ATOM     35  O   UNL A   1      41.760  19.912  26.256  1.00  0.00    -0.246 OA
BRANCH  34  36
ATOM     36  C   UNL A   1      41.497  22.119  27.139  1.00  0.00     0.060 A 
ATOM     37  C   UNL A   1      41.227  23.170  26.254  1.00  0.00     0.016 A 
ATOM     38  C   UNL A   1      42.187  22.365  28.330  1.00  0.00     0.016 A 
ATOM     39  C   UNL A   1      41.692  24.454  26.524  1.00  0.00     0.010 A 
ATOM     40  C   UNL A   1      42.673  23.654  28.590  1.00  0.00     0.010 A 
ATOM     41  C   UNL A   1      42.463  24.696  27.667  1.00  0.00    -0.014 A 
BRANCH  41  42
ATOM     42  C   UNL A   1      43.192  25.988  27.781  1.00  0.00     0.031 A 
ATOM     43  C   UNL A   1      42.511  27.143  28.466  1.00  0.00     0.074 A 
ATOM     44  C   UNL A   1      44.464  26.114  27.364  1.00  0.00     0.049 A 
ATOM     45  N   UNL A   1      42.967  28.342  28.723  1.00  0.00    -0.248 NA
ATOM     46  C   UNL A   1      41.141  26.904  28.945  1.00  0.00     0.031 C 
ATOM     47  C   UNL A   1      45.266  25.045  26.774  1.00  0.00     0.029 A 
ATOM     48  N   UNL A   1      45.306  27.199  27.362  1.00  0.00    -0.354 N 
ATOM     49  C   UNL A   1      41.951  28.992  29.416  1.00  0.00     0.074 A 
ATOM     50  C   UNL A   1      40.833  28.076  29.480  1.00  0.00     0.031 C 
ATOM     51  C   UNL A   1      46.462  25.541  26.411  1.00  0.00     0.029 A 
ATOM     52  C   UNL A   1      46.513  26.960  26.748  1.00  0.00     0.049 A 
ATOM     53  H   UNL A   1      45.067  28.065  27.764  1.00  0.00     0.167 HD
ATOM     54  C   UNL A   1      41.960  30.230  29.971  1.00  0.00     0.034 A 
ATOM     55  C   UNL A   1      47.538  27.793  26.478  1.00  0.00     0.034 A 
ATOM     56  C   UNL A   1      43.075  31.142  29.878  1.00  0.00     0.049 A 
ATOM     57  C   UNL A   1      47.474  29.212  26.986  1.00  0.00     0.074 A 
ATOM     58  C   UNL A   1      43.196  32.411  30.416  1.00  0.00     0.029 A 
ATOM     59  N   UNL A   1      44.253  30.895  29.183  1.00  0.00    -0.354 N 
ATOM     60  N   UNL A   1      46.523  29.803  27.672  1.00  0.00    -0.248 NA
ATOM     61  C   UNL A   1      48.642  30.060  26.719  1.00  0.00     0.031 C 
ATOM     62  C   UNL A   1      44.403  32.963  29.973  1.00  0.00     0.029 A 
ATOM     63  C   UNL A   1      45.084  32.005  29.239  1.00  0.00     0.049 A 
ATOM     64  H   UNL A   1      44.467  30.054  28.718  1.00  0.00     0.167 HD
ATOM     65  C   UNL A   1      46.999  31.081  27.959  1.00  0.00     0.074 A 
ATOM     66  C   UNL A   1      48.328  31.161  27.386  1.00  0.00     0.031 C 
ATOM     67  C   UNL A   1      46.398  32.091  28.641  1.00  0.00     0.034 A 
BRANCH  54  68
ATOM     68  C   UNL A   1      40.705  30.679  30.683  1.00  0.00     0.023 A 
ATOM     69  C   UNL A   1      39.804  31.588  30.097  1.00  0.00     0.031 A 
ATOM     70  C   UNL A   1      40.419  30.214  31.978  1.00  0.00     0.131 A 
ATOM     71  C   UNL A   1      38.703  32.056  30.832  1.00  0.00     0.055 A 
ATOM     72  C   UNL A   1      39.277  30.619  32.671  1.00  0.00     0.041 A 
ATOM     73  F   UNL A   1      41.255  29.368  32.600  1.00  0.00    -0.206 F 
ATOM     74  C   UNL A   1      38.419  31.556  32.105  1.00  0.00     0.022 A 
BRANCH  71  75
ATOM     75  S   UNL A   1      37.734  33.435  30.162  1.00  0.00     0.124 S 
ATOM     76  O   UNL A   1      38.248  34.561  30.939  1.00  0.00    -0.237 OA
ATOM     77  O   UNL A   1      38.093  33.417  28.749  1.00  0.00    -0.237 OA
ATOM     78  O   UNL A   1      36.354  33.061  30.462  1.00  0.00    -0.744 OA
ENDBRANCH  71  75
ENDBRANCH  54  68
BRANCH  55  79
ATOM     79  C   UNL A   1      48.705  27.321  25.676  1.00  0.00     0.023 A 
ATOM     80  C   UNL A   1      49.851  26.795  26.292  1.00  0.00     0.031 A 
ATOM     81  C   UNL A   1      48.709  27.449  24.275  1.00  0.00     0.131 A 
ATOM     82  C   UNL A   1      50.974  26.467  25.514  1.00  0.00     0.055 A 
ATOM     83  C   UNL A   1      49.808  27.075  23.502  1.00  0.00     0.041 A 
ATOM     84  F   UNL A   1      47.635  27.940  23.635  1.00  0.00    -0.206 F 
ATOM     85  C   UNL A   1      50.956  26.592  24.123  1.00  0.00     0.022 A 
BRANCH  82  86
ATOM     86  S   UNL A   1      52.493  25.951  26.359  1.00  0.00     0.124 S 
ATOM     87  O   UNL A   1      51.978  25.491  27.644  1.00  0.00    -0.237 OA
ATOM     88  O   UNL A   1      52.999  24.916  25.463  1.00  0.00    -0.237 OA
ATOM     89  O   UNL A   1      53.289  27.175  26.405  1.00  0.00    -0.744 OA
ENDBRANCH  82  86
ENDBRANCH  55  79
BRANCH  67  90
ATOM     90  C   UNL A   1      47.201  33.358  28.834  1.00  0.00     0.023 A 
ATOM     91  C   UNL A   1      47.157  34.409  27.901  1.00  0.00     0.031 A 
ATOM     92  C   UNL A   1      48.065  33.495  29.935  1.00  0.00     0.131 A 
ATOM     93  C   UNL A   1      48.026  35.502  28.035  1.00  0.00     0.055 A 
ATOM     94  C   UNL A   1      48.865  34.626  30.110  1.00  0.00     0.041 A 
ATOM     95  F   UNL A   1      48.157  32.525  30.859  1.00  0.00    -0.206 F 
ATOM     96  C   UNL A   1      48.866  35.628  29.144  1.00  0.00     0.022 A 
BRANCH  93  97
ATOM     97  S   UNL A   1      48.160  36.675  26.657  1.00  0.00     0.124 S 
ATOM     98  O   UNL A   1      48.978  35.928  25.705  1.00  0.00    -0.237 OA
ATOM     99  O   UNL A   1      46.764  36.872  26.279  1.00  0.00    -0.237 OA
ATOM    100  O   UNL A   1      48.811  37.836  27.257  1.00  0.00    -0.744 OA
ENDBRANCH  93  97
ENDBRANCH  67  90
ENDBRANCH  41  42
ENDBRANCH  34  36
ENDBRANCH  33  34
ENDBRANCH  32  33
ENDBRANCH  31  32
ENDBRANCH  30  31
ENDBRANCH  29  30
ENDBRANCH  28  29
ENDBRANCH   1  28
TORSDOF 27
ENDMDL
MODEL 3
REMARK VINA RESULT:      -9.0      2.464      8.143
REMARK SMILES COc1ccc(C(=O)c2ccccc2)cc1[C@@H](C)C(=O)OCCOCCOCCOCCOC(=O)c1ccc(-c2c3nc(c(-c4cc(S(=O)(=O)[O-])ccc4F)c4ccc([nH]4)c(-c4cc(S(=O)(=O)[O-])ccc4F)c4nc(c(-c5cc(S(=O)(=O)[O-])ccc5F)c5ccc2[nH]5)C=C4)C=C3)cc1
REMARK SMILES IDX 27 1 26 2 25 3 24 4 23 5 22 6 21 7 19 8 20 9 17 10 18 11
REMARK SMILES IDX 16 12 3 13 4 14 5 15 15 16 6 17 2 18 1 19 7 20 8 21 9 22
REMARK SMILES IDX 10 23 14 24 11 25 13 26 12 27 28 28 29 29 30 30 31 31 32 32
REMARK SMILES IDX 33 33 34 34 35 35 36 36 37 37 98 38 38 39 97 40 39 41 40 42
REMARK SMILES IDX 41 43 91 44 42 45 96 46 90 47 92 48 43 49 95 50 89 51 88 52
REMARK SMILES IDX 44 54 76 55 56 56 75 57 57 58 60 59 74 60 93 61 58 62 59 63
REMARK SMILES IDX 73 65 94 66 61 67 45 68 46 69 54 70 47 71 53 72 55 73 52 74
REMARK SMILES IDX 48 75 49 76 50 77 51 78 77 79 78 80 86 81 79 82 85 83 87 84
REMARK SMILES IDX 84 85 80 86 81 87 82 88 83 89 62 90 63 91 71 92 64 93 70 94
REMARK SMILES IDX 72 95 69 96 65 97 66 98 67 99 68 100
REMARK H PARENT 92 53 60 64
REMARK Flexibility Score: inf
ROOT
ATOM      1  O   UNL A   1      40.306  18.884  25.754  1.00  0.00    -0.377 OA
ENDROOT
BRANCH   1   2
ATOM      2  C   UNL A   1      39.185  19.631  25.333  1.00  0.00     0.188 C 
BRANCH   2   3
ATOM      3  C   UNL A   1      39.177  21.110  25.748  1.00  0.00     0.188 C 
BRANCH   3   4
ATOM      4  O   UNL A   1      37.965  21.834  25.902  1.00  0.00    -0.376 OA
BRANCH   4   5
ATOM      5  C   UNL A   1      36.948  21.755  24.914  1.00  0.00     0.202 C 
BRANCH   5   6
ATOM      6  C   UNL A   1      35.497  22.150  25.246  1.00  0.00     0.261 C 
BRANCH   6   7
ATOM      7  O   UNL A   1      34.550  22.120  24.159  1.00  0.00    -0.463 OA
BRANCH   7   8
ATOM      8  C   UNL A   1      34.311  23.289  23.521  1.00  0.00     0.313 C 
ATOM      9  O   UNL A   1      35.201  24.027  23.101  1.00  0.00    -0.252 OA
BRANCH   8  10
ATOM     10  C   UNL A   1      32.838  23.672  23.371  1.00  0.00     0.130 C 
ATOM     11  C   UNL A   1      32.514  23.838  21.892  1.00  0.00     0.025 C 
BRANCH  10  12
ATOM     12  C   UNL A   1      32.250  24.830  24.176  1.00  0.00     0.009 A 
ATOM     13  C   UNL A   1      31.859  24.670  25.521  1.00  0.00     0.122 A 
ATOM     14  C   UNL A   1      31.310  25.731  26.252  1.00  0.00     0.047 A 
ATOM     15  C   UNL A   1      31.140  26.979  25.654  1.00  0.00     0.016 A 
ATOM     16  C   UNL A   1      32.061  26.102  23.596  1.00  0.00     0.020 A 
ATOM     17  C   UNL A   1      31.502  27.174  24.317  1.00  0.00     0.023 A 
BRANCH  13  18
ATOM     18  O   UNL A   1      31.918  23.454  26.149  1.00  0.00    -0.496 OA
ATOM     19  C   UNL A   1      30.654  23.055  26.681  1.00  0.00     0.278 C 
ENDBRANCH  13  18
BRANCH  17  20
ATOM     20  C   UNL A   1      31.312  28.537  23.730  1.00  0.00     0.193 C 
ATOM     21  O   UNL A   1      32.293  29.203  23.405  1.00  0.00    -0.289 OA
BRANCH  20  22
ATOM     22  C   UNL A   1      29.963  29.100  23.493  1.00  0.00     0.022 A 
ATOM     23  C   UNL A   1      28.940  28.231  23.111  1.00  0.00     0.012 A 
ATOM     24  C   UNL A   1      29.699  30.468  23.642  1.00  0.00     0.012 A 
ATOM     25  C   UNL A   1      27.647  28.722  22.948  1.00  0.00     0.001 A 
ATOM     26  C   UNL A   1      28.393  30.944  23.518  1.00  0.00     0.001 A 
ATOM     27  C   UNL A   1      27.366  30.067  23.182  1.00  0.00     0.000 A 
ENDBRANCH  20  22
ENDBRANCH  17  20
ENDBRANCH  10  12
ENDBRANCH   8  10
ENDBRANCH   7   8
ENDBRANCH   6   7
ENDBRANCH   5   6
ENDBRANCH   4   5
ENDBRANCH   3   4
ENDBRANCH   2   3
ENDBRANCH   1   2
BRANCH   1  28
ATOM     28  C   UNL A   1      41.232  19.559  26.594  1.00  0.00     0.188 C 
BRANCH  28  29
ATOM     29  C   UNL A   1      42.677  19.022  26.613  1.00  0.00     0.188 C 
BRANCH  29  30
ATOM     30  O   UNL A   1      43.258  18.864  25.320  1.00  0.00    -0.376 OA
BRANCH  30  31
ATOM     31  C   UNL A   1      44.343  19.708  24.958  1.00  0.00     0.202 C 
BRANCH  31  32
ATOM     32  C   UNL A   1      44.085  21.225  24.860  1.00  0.00     0.261 C 
BRANCH  32  33
ATOM     33  O   UNL A   1      44.543  22.029  25.959  1.00  0.00    -0.460 OA
BRANCH  33  34
ATOM     34  C   UNL A   1      45.475  22.967  25.699  1.00  0.00     0.338 C 
ATOM     35  O   UNL A   1      46.423  22.853  24.935  1.00  0.00    -0.246 OA
BRANCH  34  36
ATOM     36  C   UNL A   1      45.043  24.245  26.305  1.00  0.00     0.060 A 
ATOM     37  C   UNL A   1      44.805  25.331  25.453  1.00  0.00     0.016 A 
ATOM     38  C   UNL A   1      44.882  24.389  27.686  1.00  0.00     0.016 A 
ATOM     39  C   UNL A   1      44.463  26.575  25.978  1.00  0.00     0.010 A 
ATOM     40  C   UNL A   1      44.559  25.646  28.214  1.00  0.00     0.010 A 
ATOM     41  C   UNL A   1      44.388  26.756  27.364  1.00  0.00    -0.014 A 
BRANCH  41  42
ATOM     42  C   UNL A   1      44.318  28.140  27.905  1.00  0.00     0.031 A 
ATOM     43  C   UNL A   1      42.983  28.675  28.349  1.00  0.00     0.074 A 
ATOM     44  C   UNL A   1      45.427  28.880  28.080  1.00  0.00     0.049 A 
ATOM     45  N   UNL A   1      42.689  29.827  28.894  1.00  0.00    -0.248 NA
ATOM     46  C   UNL A   1      41.829  27.779  28.177  1.00  0.00     0.031 C 
ATOM     47  C   UNL A   1      46.788  28.442  27.781  1.00  0.00     0.029 A 
ATOM     48  N   UNL A   1      45.587  30.163  28.543  1.00  0.00    -0.354 N 
ATOM     49  C   UNL A   1      41.323  29.787  29.153  1.00  0.00     0.074 A 
ATOM     50  C   UNL A   1      40.838  28.522  28.645  1.00  0.00     0.031 C 
ATOM     51  C   UNL A   1      47.638  29.458  28.010  1.00  0.00     0.029 A 
ATOM     52  C   UNL A   1      46.883  30.617  28.477  1.00  0.00     0.049 A 
ATOM     53  H   UNL A   1      44.843  30.706  28.891  1.00  0.00     0.167 HD
ATOM     54  C   UNL A   1      40.551  30.708  29.781  1.00  0.00     0.034 A 
ATOM     55  C   UNL A   1      47.401  31.831  28.751  1.00  0.00     0.034 A 
ATOM     56  C   UNL A   1      41.046  31.976  30.259  1.00  0.00     0.049 A 
ATOM     57  C   UNL A   1      46.498  32.894  29.323  1.00  0.00     0.074 A 
ATOM     58  C   UNL A   1      40.355  32.975  30.923  1.00  0.00     0.029 A 
ATOM     59  N   UNL A   1      42.349  32.434  30.107  1.00  0.00    -0.354 N 
ATOM     60  N   UNL A   1      45.215  32.829  29.598  1.00  0.00    -0.248 NA
ATOM     61  C   UNL A   1      47.123  34.178  29.663  1.00  0.00     0.031 C 
ATOM     62  C   UNL A   1      41.213  34.068  31.089  1.00  0.00     0.029 A 
ATOM     63  C   UNL A   1      42.469  33.718  30.621  1.00  0.00     0.049 A 
ATOM     64  H   UNL A   1      43.082  31.921  29.695  1.00  0.00     0.167 HD
ATOM     65  C   UNL A   1      44.891  34.051  30.186  1.00  0.00     0.074 A 
ATOM     66  C   UNL A   1      46.118  34.819  30.240  1.00  0.00     0.031 C 
ATOM     67  C   UNL A   1      43.690  34.492  30.647  1.00  0.00     0.034 A 
BRANCH  54  68
ATOM     68  C   UNL A   1      39.082  30.391  29.935  1.00  0.00     0.023 A 
ATOM     69  C   UNL A   1      38.101  31.000  29.130  1.00  0.00     0.031 A 
ATOM     70  C   UNL A   1      38.652  29.487  30.922  1.00  0.00     0.131 A 
ATOM     71  C   UNL A   1      36.741  30.753  29.374  1.00  0.00     0.055 A 
ATOM     72  C   UNL A   1      37.302  29.181  31.103  1.00  0.00     0.041 A 
ATOM     73  F   UNL A   1      39.538  28.894  31.738  1.00  0.00    -0.206 F 
ATOM     74  C   UNL A   1      36.336  29.826  30.337  1.00  0.00     0.022 A 
BRANCH  71  75
ATOM     75  S   UNL A   1      35.506  31.769  28.519  1.00  0.00     0.124 S 
ATOM     76  O   UNL A   1      34.979  30.827  27.533  1.00  0.00    -0.237 OA
ATOM     77  O   UNL A   1      34.598  32.138  29.598  1.00  0.00    -0.237 OA
ATOM     78  O   UNL A   1      36.292  32.867  27.960  1.00  0.00    -0.744 OA
ENDBRANCH  71  75
ENDBRANCH  54  68
BRANCH  55  79
ATOM     79  C   UNL A   1      48.840  32.118  28.475  1.00  0.00     0.023 A 
ATOM     80  C   UNL A   1      49.250  32.720  27.276  1.00  0.00     0.031 A 
ATOM     81  C   UNL A   1      49.834  31.734  29.393  1.00  0.00     0.131 A 
ATOM     82  C   UNL A   1      50.619  32.871  27.002  1.00  0.00     0.055 A 
ATOM     83  C   UNL A   1      51.192  31.932  29.139  1.00  0.00     0.041 A 
ATOM     84  F   UNL A   1      49.497  31.160  30.560  1.00  0.00    -0.206 F 
ATOM     85  C   UNL A   1      51.591  32.492  27.930  1.00  0.00     0.022 A 
BRANCH  82  86
ATOM     86  S   UNL A   1      51.114  33.496  25.373  1.00  0.00     0.124 S 
ATOM     87  O   UNL A   1      51.313  32.259  24.627  1.00  0.00    -0.237 OA
ATOM     88  O   UNL A   1      49.955  34.296  24.992  1.00  0.00    -0.237 OA
ATOM     89  O   UNL A   1      52.328  34.259  25.656  1.00  0.00    -0.744 OA
ENDBRANCH  82  86
ENDBRANCH  55  79
BRANCH  67  90
ATOM     90  C   UNL A   1      43.667  35.862  31.287  1.00  0.00     0.023 A 
ATOM     91  C   UNL A   1      43.649  37.037  30.515  1.00  0.00     0.031 A 
ATOM     92  C   UNL A   1      43.720  35.997  32.686  1.00  0.00     0.131 A 
ATOM     93  C   UNL A   1      43.779  38.288  31.139  1.00  0.00     0.055 A 
ATOM     94  C   UNL A   1      43.761  37.248  33.306  1.00  0.00     0.041 A 
ATOM     95  F   UNL A   1      43.745  34.914  33.479  1.00  0.00    -0.206 F 
ATOM     96  C   UNL A   1      43.814  38.402  32.530  1.00  0.00     0.022 A 
BRANCH  93  97
ATOM     97  S   UNL A   1      44.064  39.747  30.100  1.00  0.00     0.124 S 
ATOM     98  O   UNL A   1      42.746  39.958  29.509  1.00  0.00    -0.237 OA
ATOM     99  O   UNL A   1      44.492  40.745  31.075  1.00  0.00    -0.237 OA
ATOM    100  O   UNL A   1      45.099  39.307  29.167  1.00  0.00    -0.744 OA
ENDBRANCH  93  97
ENDBRANCH  67  90
ENDBRANCH  41  42
ENDBRANCH  34  36
ENDBRANCH  33  34
ENDBRANCH  32  33
ENDBRANCH  31  32
ENDBRANCH  30  31
ENDBRANCH  29  30
ENDBRANCH  28  29
ENDBRANCH   1  28
TORSDOF 27
ENDMDL
