MODEL 1
REMARK VINA RESULT:      -9.1      0.000      0.000
REMARK SMILES O=C(OCCOCCOCCOCCOC(=O)C1CN(C(=O)CC2CC[NH2+]CC2)C1)c1ccc(-c2c3nc(c(-c4cc(S(=O)(=O)[O-])ccc4F)c4ccc([nH]4)c(-c4cc(S(=O)(=O)[O-])ccc4F)c4nc(c(-c5cc(S(=O)(=O)[O-])ccc5F)c5ccc2[nH]5)C=C4)C=C3)cc1
REMARK SMILES IDX 8 1 7 2 6 3 5 4 4 5 3 6 2 7 1 8 31 9 32 10 93 11 33 12 92 13
REMARK SMILES IDX 34 14 35 15 36 16 86 17 37 18 91 19 85 20 87 21 38 22 90 23
REMARK SMILES IDX 84 24 83 25 39 27 71 28 51 29 70 30 52 31 55 32 69 33 88 34
REMARK SMILES IDX 53 35 54 36 68 38 89 39 56 40 40 41 41 42 49 43 42 44 48 45
REMARK SMILES IDX 50 46 47 47 43 48 44 49 45 50 46 51 72 52 73 53 81 54 74 55
REMARK SMILES IDX 80 56 82 57 79 58 75 59 76 60 77 61 78 62 57 63 58 64 66 65
REMARK SMILES IDX 59 66 65 67 67 68 64 69 60 70 61 71 62 72 63 73 9 74 10 75
REMARK SMILES IDX 11 76 12 77 13 78 14 79 15 80 16 81 17 82 18 83 19 84 30 85
REMARK SMILES IDX 20 86 21 87 22 88 23 89 24 90 25 91 29 92 26 93 28 94 27 95
REMARK H PARENT 87 26 55 37 27 96 27 97
REMARK Flexibility Score: inf
ROOT
ATOM      1  C   UNL A   1      32.731  29.488  25.430  1.00  0.00     0.188 C 
ENDROOT
BRANCH   1   2
ATOM      2  C   UNL A   1      32.745  29.869  26.908  1.00  0.00     0.188 C 
BRANCH   2   3
ATOM      3  O   UNL A   1      32.557  31.276  27.067  1.00  0.00    -0.376 OA
BRANCH   3   4
ATOM      4  C   UNL A   1      33.628  31.964  27.719  1.00  0.00     0.202 C 
BRANCH   4   5
ATOM      5  C   UNL A   1      33.608  33.479  27.520  1.00  0.00     0.261 C 
BRANCH   5   6
ATOM      6  O   UNL A   1      32.802  34.138  28.509  1.00  0.00    -0.460 OA
BRANCH   6   7
ATOM      7  C   UNL A   1      33.210  34.696  29.677  1.00  0.00     0.338 C 
ATOM      8  O   UNL A   1      32.535  35.622  30.131  1.00  0.00    -0.246 OA
BRANCH   7   9
ATOM      9  C   UNL A   1      34.429  34.279  30.451  1.00  0.00     0.060 A 
ATOM     10  C   UNL A   1      35.730  34.751  30.259  1.00  0.00     0.016 A 
ATOM     11  C   UNL A   1      34.225  33.349  31.488  1.00  0.00     0.016 A 
ATOM     12  C   UNL A   1      36.802  34.268  30.995  1.00  0.00     0.010 A 
ATOM     13  C   UNL A   1      35.295  32.857  32.242  1.00  0.00     0.010 A 
ATOM     14  C   UNL A   1      36.594  33.285  31.954  1.00  0.00    -0.014 A 
BRANCH  14  15
ATOM     15  C   UNL A   1      37.781  32.540  32.406  1.00  0.00     0.031 A 
ATOM     16  C   UNL A   1      38.276  32.831  33.792  1.00  0.00     0.074 A 
ATOM     17  C   UNL A   1      38.258  31.516  31.681  1.00  0.00     0.049 A 
ATOM     18  N   UNL A   1      39.293  32.336  34.440  1.00  0.00    -0.248 NA
ATOM     19  C   UNL A   1      37.490  33.813  34.563  1.00  0.00     0.031 C 
ATOM     20  C   UNL A   1      37.704  31.060  30.404  1.00  0.00     0.029 A 
ATOM     21  N   UNL A   1      39.284  30.648  31.930  1.00  0.00    -0.354 N 
ATOM     22  C   UNL A   1      39.287  32.965  35.681  1.00  0.00     0.074 A 
ATOM     23  C   UNL A   1      38.174  33.886  35.690  1.00  0.00     0.031 C 
ATOM     24  C   UNL A   1      38.389  29.980  29.993  1.00  0.00     0.029 A 
ATOM     25  C   UNL A   1      39.468  29.714  30.938  1.00  0.00     0.049 A 
ATOM     26  H   UNL A   1      39.838  30.687  32.744  1.00  0.00     0.167 HD
ATOM     27  C   UNL A   1      40.148  32.791  36.712  1.00  0.00     0.034 A 
ATOM     28  C   UNL A   1      40.429  28.779  30.810  1.00  0.00     0.034 A 
ATOM     29  C   UNL A   1      41.258  31.875  36.638  1.00  0.00     0.049 A 
ATOM     30  C   UNL A   1      41.464  28.695  31.906  1.00  0.00     0.074 A 
ATOM     31  C   UNL A   1      42.278  31.663  37.546  1.00  0.00     0.029 A 
ATOM     32  N   UNL A   1      41.492  31.016  35.565  1.00  0.00    -0.354 N 
ATOM     33  N   UNL A   1      41.531  29.372  33.032  1.00  0.00    -0.248 NA
ATOM     34  C   UNL A   1      42.554  27.736  31.711  1.00  0.00     0.031 C 
ATOM     35  C   UNL A   1      43.161  30.727  36.993  1.00  0.00     0.029 A 
ATOM     36  C   UNL A   1      42.651  30.291  35.776  1.00  0.00     0.049 A 
ATOM     37  H   UNL A   1      40.914  30.935  34.773  1.00  0.00     0.167 HD
ATOM     38  C   UNL A   1      42.661  28.903  33.694  1.00  0.00     0.074 A 
ATOM     39  C   UNL A   1      43.232  27.874  32.843  1.00  0.00     0.031 C 
ATOM     40  C   UNL A   1      43.184  29.279  34.891  1.00  0.00     0.034 A 
BRANCH  27  41
ATOM     41  C   UNL A   1      39.971  33.706  37.901  1.00  0.00     0.023 A 
ATOM     42  C   UNL A   1      40.756  34.863  38.077  1.00  0.00     0.031 A 
ATOM     43  C   UNL A   1      39.115  33.330  38.951  1.00  0.00     0.131 A 
ATOM     44  C   UNL A   1      40.753  35.528  39.315  1.00  0.00     0.055 A 
ATOM     45  C   UNL A   1      39.047  34.053  40.143  1.00  0.00     0.041 A 
ATOM     46  F   UNL A   1      38.367  32.220  38.858  1.00  0.00    -0.206 F 
ATOM     47  C   UNL A   1      39.887  35.145  40.341  1.00  0.00     0.022 A 
BRANCH  44  48
ATOM     48  S   UNL A   1      42.046  36.764  39.636  1.00  0.00     0.124 S 
ATOM     49  O   UNL A   1      41.303  38.015  39.474  1.00  0.00    -0.237 OA
ATOM     50  O   UNL A   1      42.469  36.441  40.984  1.00  0.00    -0.237 OA
ATOM     51  O   UNL A   1      43.037  36.503  38.586  1.00  0.00    -0.744 OA
ENDBRANCH  44  48
ENDBRANCH  27  41
BRANCH  28  52
ATOM     52  C   UNL A   1      40.499  27.915  29.593  1.00  0.00     0.023 A 
ATOM     53  C   UNL A   1      41.438  28.151  28.576  1.00  0.00     0.031 A 
ATOM     54  C   UNL A   1      39.596  26.848  29.415  1.00  0.00     0.131 A 
ATOM     55  C   UNL A   1      41.434  27.352  27.419  1.00  0.00     0.055 A 
ATOM     56  C   UNL A   1      39.629  26.027  28.287  1.00  0.00     0.041 A 
ATOM     57  F   UNL A   1      38.668  26.580  30.348  1.00  0.00    -0.206 F 
ATOM     58  C   UNL A   1      40.546  26.283  27.275  1.00  0.00     0.022 A 
BRANCH  55  59
ATOM     59  S   UNL A   1      42.565  27.771  26.063  1.00  0.00     0.124 S 
ATOM     60  O   UNL A   1      41.955  27.070  24.938  1.00  0.00    -0.237 OA
ATOM     61  O   UNL A   1      42.480  29.227  26.035  1.00  0.00    -0.237 OA
ATOM     62  O   UNL A   1      43.848  27.233  26.510  1.00  0.00    -0.744 OA
ENDBRANCH  55  59
ENDBRANCH  28  52
BRANCH  40  63
ATOM     63  C   UNL A   1      44.405  28.527  35.356  1.00  0.00     0.023 A 
ATOM     64  C   UNL A   1      44.304  27.375  36.151  1.00  0.00     0.031 A 
ATOM     65  C   UNL A   1      45.686  28.981  34.995  1.00  0.00     0.131 A 
ATOM     66  C   UNL A   1      45.468  26.746  36.611  1.00  0.00     0.055 A 
ATOM     67  C   UNL A   1      46.839  28.313  35.401  1.00  0.00     0.041 A 
ATOM     68  F   UNL A   1      45.834  30.079  34.236  1.00  0.00    -0.206 F 
ATOM     69  C   UNL A   1      46.734  27.196  36.226  1.00  0.00     0.022 A 
BRANCH  66  70
ATOM     70  S   UNL A   1      45.308  25.390  37.803  1.00  0.00     0.124 S 
ATOM     71  O   UNL A   1      44.522  24.416  37.050  1.00  0.00    -0.237 OA
ATOM     72  O   UNL A   1      46.699  25.028  38.053  1.00  0.00    -0.237 OA
ATOM     73  O   UNL A   1      44.614  26.006  38.932  1.00  0.00    -0.744 OA
ENDBRANCH  66  70
ENDBRANCH  40  63
ENDBRANCH  14  15
ENDBRANCH   7   9
ENDBRANCH   6   7
ENDBRANCH   5   6
ENDBRANCH   4   5
ENDBRANCH   3   4
ENDBRANCH   2   3
ENDBRANCH   1   2
BRANCH   1  74
ATOM     74  O   UNL A   1      31.610  28.700  25.036  1.00  0.00    -0.377 OA
BRANCH  74  75
ATOM     75  C   UNL A   1      30.679  29.322  24.156  1.00  0.00     0.188 C 
BRANCH  75  76
ATOM     76  C   UNL A   1      30.189  28.557  22.911  1.00  0.00     0.188 C 
BRANCH  76  77
ATOM     77  O   UNL A   1      30.021  27.161  23.109  1.00  0.00    -0.376 OA
BRANCH  77  78
ATOM     78  C   UNL A   1      31.079  26.344  22.620  1.00  0.00     0.202 C 
BRANCH  78  79
ATOM     79  C   UNL A   1      31.677  25.398  23.669  1.00  0.00     0.261 C 
BRANCH  79  80
ATOM     80  O   UNL A   1      30.734  24.859  24.626  1.00  0.00    -0.463 OA
BRANCH  80  81
ATOM     81  C   UNL A   1      30.963  25.076  25.953  1.00  0.00     0.312 C 
ATOM     82  O   UNL A   1      30.508  26.051  26.548  1.00  0.00    -0.252 OA
BRANCH  81  83
ATOM     83  C   UNL A   1      31.835  23.982  26.619  1.00  0.00     0.138 C 
ATOM     84  C   UNL A   1      31.684  22.546  26.083  1.00  0.00     0.136 C 
ATOM     85  C   UNL A   1      33.350  23.870  26.358  1.00  0.00     0.136 C 
ATOM     86  N   UNL A   1      33.131  22.478  26.027  1.00  0.00    -0.341 N 
ATOM     87  C   UNL A   1      33.925  21.426  25.664  1.00  0.00     0.222 C 
ATOM     88  O   UNL A   1      33.460  20.393  25.184  1.00  0.00    -0.275 OA
BRANCH  87  89
ATOM     89  C   UNL A   1      35.410  21.551  25.946  1.00  0.00     0.104 C 
BRANCH  89  90
ATOM     90  C   UNL A   1      36.266  21.936  24.725  1.00  0.00     0.009 C 
ATOM     91  C   UNL A   1      37.586  21.142  24.713  1.00  0.00     0.065 C 
ATOM     92  C   UNL A   1      36.617  23.430  24.685  1.00  0.00     0.065 C 
ATOM     93  C   UNL A   1      38.533  21.581  25.832  1.00  0.00     0.260 C 
ATOM     94  C   UNL A   1      37.589  23.824  25.799  1.00  0.00     0.260 C 
ATOM     95  N   UNL A   1      38.808  23.015  25.778  1.00  0.00    -0.346 N 
ATOM     96  H   UNL A   1      39.319  23.217  24.918  1.00  0.00     0.346 HD
ATOM     97  H   UNL A   1      39.352  23.257  26.606  1.00  0.00     0.346 HD
ENDBRANCH  89  90
ENDBRANCH  87  89
ENDBRANCH  81  83
ENDBRANCH  80  81
ENDBRANCH  79  80
ENDBRANCH  78  79
ENDBRANCH  77  78
ENDBRANCH  76  77
ENDBRANCH  75  76
ENDBRANCH  74  75
ENDBRANCH   1  74
TORSDOF 25
ENDMDL
MODEL 2
REMARK VINA RESULT:      -9.1      1.964      2.854
REMARK SMILES O=C(OCCOCCOCCOCCOC(=O)C1CN(C(=O)CC2CC[NH2+]CC2)C1)c1ccc(-c2c3nc(c(-c4cc(S(=O)(=O)[O-])ccc4F)c4ccc([nH]4)c(-c4cc(S(=O)(=O)[O-])ccc4F)c4nc(c(-c5cc(S(=O)(=O)[O-])ccc5F)c5ccc2[nH]5)C=C4)C=C3)cc1
REMARK SMILES IDX 8 1 7 2 6 3 5 4 4 5 3 6 2 7 1 8 31 9 32 10 93 11 33 12 92 13
REMARK SMILES IDX 34 14 35 15 36 16 86 17 37 18 91 19 85 20 87 21 38 22 90 23
REMARK SMILES IDX 84 24 83 25 39 27 71 28 51 29 70 30 52 31 55 32 69 33 88 34
REMARK SMILES IDX 53 35 54 36 68 38 89 39 56 40 40 41 41 42 49 43 42 44 48 45
REMARK SMILES IDX 50 46 47 47 43 48 44 49 45 50 46 51 72 52 73 53 81 54 74 55
REMARK SMILES IDX 80 56 82 57 79 58 75 59 76 60 77 61 78 62 57 63 58 64 66 65
REMARK SMILES IDX 59 66 65 67 67 68 64 69 60 70 61 71 62 72 63 73 9 74 10 75
REMARK SMILES IDX 11 76 12 77 13 78 14 79 15 80 16 81 17 82 18 83 19 84 30 85
REMARK SMILES IDX 20 86 21 87 22 88 23 89 24 90 25 91 29 92 26 93 28 94 27 95
REMARK H PARENT 87 26 55 37 27 96 27 97
REMARK Flexibility Score: inf
ROOT
ATOM      1  C   UNL A   1      35.555  31.190  28.392  1.00  0.00     0.188 C 
ENDROOT
BRANCH   1   2
ATOM      2  C   UNL A   1      36.158  32.542  28.021  1.00  0.00     0.188 C 
BRANCH   2   3
ATOM      3  O   UNL A   1      35.129  33.488  27.726  1.00  0.00    -0.376 OA
BRANCH   3   4
ATOM      4  C   UNL A   1      34.019  33.480  28.627  1.00  0.00     0.202 C 
BRANCH   4   5
ATOM      5  C   UNL A   1      33.161  34.744  28.569  1.00  0.00     0.261 C 
BRANCH   5   6
ATOM      6  O   UNL A   1      33.281  35.528  29.766  1.00  0.00    -0.460 OA
BRANCH   6   7
ATOM      7  C   UNL A   1      33.317  35.086  31.049  1.00  0.00     0.338 C 
ATOM      8  O   UNL A   1      32.265  35.111  31.690  1.00  0.00    -0.246 OA
BRANCH   7   9
ATOM      9  C   UNL A   1      34.547  34.582  31.751  1.00  0.00     0.060 A 
ATOM     10  C   UNL A   1      35.827  35.138  31.679  1.00  0.00     0.016 A 
ATOM     11  C   UNL A   1      34.376  33.460  32.585  1.00  0.00     0.016 A 
ATOM     12  C   UNL A   1      36.912  34.569  32.328  1.00  0.00     0.010 A 
ATOM     13  C   UNL A   1      35.460  32.879  33.251  1.00  0.00     0.010 A 
ATOM     14  C   UNL A   1      36.740  33.411  33.076  1.00  0.00    -0.014 A 
BRANCH  14  15
ATOM     15  C   UNL A   1      37.956  32.645  33.399  1.00  0.00     0.031 A 
ATOM     16  C   UNL A   1      38.574  32.892  34.743  1.00  0.00     0.074 A 
ATOM     17  C   UNL A   1      38.357  31.639  32.604  1.00  0.00     0.049 A 
ATOM     18  N   UNL A   1      39.641  32.371  35.283  1.00  0.00    -0.248 NA
ATOM     19  C   UNL A   1      37.870  33.855  35.608  1.00  0.00     0.031 C 
ATOM     20  C   UNL A   1      37.687  31.226  31.369  1.00  0.00     0.029 A 
ATOM     21  N   UNL A   1      39.393  30.758  32.736  1.00  0.00    -0.354 N 
ATOM     22  C   UNL A   1      39.751  32.963  36.537  1.00  0.00     0.074 A 
ATOM     23  C   UNL A   1      38.652  33.891  36.671  1.00  0.00     0.031 C 
ATOM     24  C   UNL A   1      38.323  30.154  30.868  1.00  0.00     0.029 A 
ATOM     25  C   UNL A   1      39.479  29.852  31.705  1.00  0.00     0.049 A 
ATOM     26  H   UNL A   1      40.018  30.770  33.498  1.00  0.00     0.167 HD
ATOM     27  C   UNL A   1      40.699  32.753  37.482  1.00  0.00     0.034 A 
ATOM     28  C   UNL A   1      40.416  28.915  31.465  1.00  0.00     0.034 A 
ATOM     29  C   UNL A   1      41.790  31.833  37.282  1.00  0.00     0.049 A 
ATOM     30  C   UNL A   1      41.544  28.792  32.461  1.00  0.00     0.074 A 
ATOM     31  C   UNL A   1      42.884  31.587  38.089  1.00  0.00     0.029 A 
ATOM     32  N   UNL A   1      41.919  31.003  36.169  1.00  0.00    -0.354 N 
ATOM     33  N   UNL A   1      41.717  29.436  33.596  1.00  0.00    -0.248 NA
ATOM     34  C   UNL A   1      42.604  27.832  32.142  1.00  0.00     0.031 C 
ATOM     35  C   UNL A   1      43.706  30.662  37.432  1.00  0.00     0.029 A 
ATOM     36  C   UNL A   1      43.086  30.266  36.254  1.00  0.00     0.049 A 
ATOM     37  H   UNL A   1      41.273  30.950  35.429  1.00  0.00     0.167 HD
ATOM     38  C   UNL A   1      42.897  28.940  34.140  1.00  0.00     0.074 A 
ATOM     39  C   UNL A   1      43.381  27.932  33.213  1.00  0.00     0.031 C 
ATOM     40  C   UNL A   1      43.529  29.276  35.296  1.00  0.00     0.034 A 
BRANCH  27  41
ATOM     41  C   UNL A   1      40.637  33.634  38.707  1.00  0.00     0.023 A 
ATOM     42  C   UNL A   1      39.774  33.355  39.786  1.00  0.00     0.031 A 
ATOM     43  C   UNL A   1      41.334  34.855  38.726  1.00  0.00     0.131 A 
ATOM     44  C   UNL A   1      39.546  34.332  40.770  1.00  0.00     0.055 A 
ATOM     45  C   UNL A   1      41.174  35.781  39.759  1.00  0.00     0.041 A 
ATOM     46  F   UNL A   1      42.145  35.194  37.712  1.00  0.00    -0.206 F 
ATOM     47  C   UNL A   1      40.258  35.534  40.776  1.00  0.00     0.022 A 
BRANCH  44  48
ATOM     48  S   UNL A   1      38.156  34.097  41.916  1.00  0.00     0.124 S 
ATOM     49  O   UNL A   1      38.755  33.230  42.932  1.00  0.00    -0.237 OA
ATOM     50  O   UNL A   1      37.850  35.452  42.330  1.00  0.00    -0.237 OA
ATOM     51  O   UNL A   1      37.135  33.447  41.087  1.00  0.00    -0.744 OA
ENDBRANCH  44  48
ENDBRANCH  27  41
BRANCH  28  52
ATOM     52  C   UNL A   1      40.369  28.087  30.222  1.00  0.00     0.023 A 
ATOM     53  C   UNL A   1      41.253  28.312  29.154  1.00  0.00     0.031 A 
ATOM     54  C   UNL A   1      39.408  27.068  30.072  1.00  0.00     0.131 A 
ATOM     55  C   UNL A   1      41.140  27.551  27.977  1.00  0.00     0.055 A 
ATOM     56  C   UNL A   1      39.333  26.281  28.922  1.00  0.00     0.041 A 
ATOM     57  F   UNL A   1      38.530  26.812  31.055  1.00  0.00    -0.206 F 
ATOM     58  C   UNL A   1      40.196  26.527  27.861  1.00  0.00     0.022 A 
BRANCH  55  59
ATOM     59  S   UNL A   1      42.201  27.961  26.564  1.00  0.00     0.124 S 
ATOM     60  O   UNL A   1      42.091  29.415  26.520  1.00  0.00    -0.237 OA
ATOM     61  O   UNL A   1      43.491  27.426  26.987  1.00  0.00    -0.237 OA
ATOM     62  O   UNL A   1      41.572  27.255  25.449  1.00  0.00    -0.744 OA
ENDBRANCH  55  59
ENDBRANCH  28  52
BRANCH  40  63
ATOM     63  C   UNL A   1      44.778  28.504  35.628  1.00  0.00     0.023 A 
ATOM     64  C   UNL A   1      44.730  27.280  36.315  1.00  0.00     0.031 A 
ATOM     65  C   UNL A   1      46.035  29.009  35.250  1.00  0.00     0.131 A 
ATOM     66  C   UNL A   1      45.922  26.628  36.656  1.00  0.00     0.055 A 
ATOM     67  C   UNL A   1      47.215  28.323  35.535  1.00  0.00     0.041 A 
ATOM     68  F   UNL A   1      46.133  30.175  34.593  1.00  0.00    -0.206 F 
ATOM     69  C   UNL A   1      47.163  27.132  36.255  1.00  0.00     0.022 A 
BRANCH  66  70
ATOM     70  S   UNL A   1      45.836  25.164  37.721  1.00  0.00     0.124 S 
ATOM     71  O   UNL A   1      46.588  24.182  36.946  1.00  0.00    -0.237 OA
ATOM     72  O   UNL A   1      46.474  25.631  38.947  1.00  0.00    -0.237 OA
ATOM     73  O   UNL A   1      44.402  24.902  37.827  1.00  0.00    -0.744 OA
ENDBRANCH  66  70
ENDBRANCH  40  63
ENDBRANCH  14  15
ENDBRANCH   7   9
ENDBRANCH   6   7
ENDBRANCH   5   6
ENDBRANCH   4   5
ENDBRANCH   3   4
ENDBRANCH   2   3
ENDBRANCH   1   2
BRANCH   1  74
ATOM     74  O   UNL A   1      35.579  30.226  27.342  1.00  0.00    -0.377 OA
BRANCH  74  75
ATOM     75  C   UNL A   1      34.399  29.446  27.175  1.00  0.00     0.188 C 
BRANCH  75  76
ATOM     76  C   UNL A   1      33.022  30.111  27.359  1.00  0.00     0.188 C 
BRANCH  76  77
ATOM     77  O   UNL A   1      31.967  29.483  26.645  1.00  0.00    -0.376 OA
BRANCH  77  78
ATOM     78  C   UNL A   1      31.573  30.135  25.442  1.00  0.00     0.202 C 
BRANCH  78  79
ATOM     79  C   UNL A   1      30.841  29.224  24.447  1.00  0.00     0.261 C 
BRANCH  79  80
ATOM     80  O   UNL A   1      31.693  28.502  23.526  1.00  0.00    -0.463 OA
BRANCH  80  81
ATOM     81  C   UNL A   1      31.121  27.572  22.710  1.00  0.00     0.312 C 
ATOM     82  O   UNL A   1      30.459  27.882  21.721  1.00  0.00    -0.252 OA
BRANCH  81  83
ATOM     83  C   UNL A   1      31.394  26.111  23.147  1.00  0.00     0.138 C 
ATOM     84  C   UNL A   1      32.218  25.236  22.183  1.00  0.00     0.136 C 
ATOM     85  C   UNL A   1      32.408  25.763  24.255  1.00  0.00     0.136 C 
ATOM     86  N   UNL A   1      33.020  24.838  23.324  1.00  0.00    -0.341 N 
ATOM     87  C   UNL A   1      34.059  23.952  23.372  1.00  0.00     0.222 C 
ATOM     88  O   UNL A   1      34.546  23.461  22.354  1.00  0.00    -0.275 OA
BRANCH  87  89
ATOM     89  C   UNL A   1      34.547  23.533  24.747  1.00  0.00     0.104 C 
BRANCH  89  90
ATOM     90  C   UNL A   1      34.195  22.086  25.140  1.00  0.00     0.009 C 
ATOM     91  C   UNL A   1      32.668  21.885  25.167  1.00  0.00     0.065 C 
ATOM     92  C   UNL A   1      34.746  21.687  26.515  1.00  0.00     0.065 C 
ATOM     93  C   UNL A   1      32.010  22.629  26.331  1.00  0.00     0.260 C 
ATOM     94  C   UNL A   1      34.043  22.427  27.655  1.00  0.00     0.260 C 
ATOM     95  N   UNL A   1      32.592  22.246  27.617  1.00  0.00    -0.346 N 
ATOM     96  H   UNL A   1      32.381  21.264  27.791  1.00  0.00     0.346 HD
ATOM     97  H   UNL A   1      32.187  22.852  28.331  1.00  0.00     0.346 HD
ENDBRANCH  89  90
ENDBRANCH  87  89
ENDBRANCH  81  83
ENDBRANCH  80  81
ENDBRANCH  79  80
ENDBRANCH  78  79
ENDBRANCH  77  78
ENDBRANCH  76  77
ENDBRANCH  75  76
ENDBRANCH  74  75
ENDBRANCH   1  74
TORSDOF 25
ENDMDL
MODEL 3
REMARK VINA RESULT:      -8.6      5.984     10.702
REMARK SMILES O=C(OCCOCCOCCOCCOC(=O)C1CN(C(=O)CC2CC[NH2+]CC2)C1)c1ccc(-c2c3nc(c(-c4cc(S(=O)(=O)[O-])ccc4F)c4ccc([nH]4)c(-c4cc(S(=O)(=O)[O-])ccc4F)c4nc(c(-c5cc(S(=O)(=O)[O-])ccc5F)c5ccc2[nH]5)C=C4)C=C3)cc1
REMARK SMILES IDX 8 1 7 2 6 3 5 4 4 5 3 6 2 7 1 8 31 9 32 10 93 11 33 12 92 13
REMARK SMILES IDX 34 14 35 15 36 16 86 17 37 18 91 19 85 20 87 21 38 22 90 23
REMARK SMILES IDX 84 24 83 25 39 27 71 28 51 29 70 30 52 31 55 32 69 33 88 34
REMARK SMILES IDX 53 35 54 36 68 38 89 39 56 40 40 41 41 42 49 43 42 44 48 45
REMARK SMILES IDX 50 46 47 47 43 48 44 49 45 50 46 51 72 52 73 53 81 54 74 55
REMARK SMILES IDX 80 56 82 57 79 58 75 59 76 60 77 61 78 62 57 63 58 64 66 65
REMARK SMILES IDX 59 66 65 67 67 68 64 69 60 70 61 71 62 72 63 73 9 74 10 75
REMARK SMILES IDX 11 76 12 77 13 78 14 79 15 80 16 81 17 82 18 83 19 84 30 85
REMARK SMILES IDX 20 86 21 87 22 88 23 89 24 90 25 91 29 92 26 93 28 94 27 95
REMARK H PARENT 87 26 55 37 27 96 27 97
REMARK Flexibility Score: inf
ROOT
ATOM      1  C   UNL A   1      40.678  23.067  27.196  1.00  0.00     0.188 C 
ENDROOT
BRANCH   1   2
ATOM      2  C   UNL A   1      41.490  21.863  26.723  1.00  0.00     0.188 C 
BRANCH   2   3
ATOM      3  O   UNL A   1      42.837  22.244  26.442  1.00  0.00    -0.376 OA
BRANCH   3   4
ATOM      4  C   UNL A   1      43.112  22.543  25.071  1.00  0.00     0.202 C 
BRANCH   4   5
ATOM      5  C   UNL A   1      43.604  23.970  24.831  1.00  0.00     0.261 C 
BRANCH   5   6
ATOM      6  O   UNL A   1      43.190  24.862  25.877  1.00  0.00    -0.460 OA
BRANCH   6   7
ATOM      7  C   UNL A   1      42.531  26.041  25.752  1.00  0.00     0.338 C 
ATOM      8  O   UNL A   1      41.510  26.053  25.061  1.00  0.00    -0.246 OA
BRANCH   7   9
ATOM      9  C   UNL A   1      42.959  27.338  26.382  1.00  0.00     0.060 A 
ATOM     10  C   UNL A   1      43.982  27.502  27.318  1.00  0.00     0.016 A 
ATOM     11  C   UNL A   1      42.279  28.495  25.956  1.00  0.00     0.016 A 
ATOM     12  C   UNL A   1      44.272  28.737  27.879  1.00  0.00     0.010 A 
ATOM     13  C   UNL A   1      42.564  29.748  26.508  1.00  0.00     0.010 A 
ATOM     14  C   UNL A   1      43.531  29.854  27.512  1.00  0.00    -0.014 A 
BRANCH  14  15
ATOM     15  C   UNL A   1      43.604  31.021  28.406  1.00  0.00     0.031 A 
ATOM     16  C   UNL A   1      44.597  32.087  28.048  1.00  0.00     0.074 A 
ATOM     17  C   UNL A   1      42.685  31.199  29.369  1.00  0.00     0.049 A 
ATOM     18  N   UNL A   1      44.879  33.207  28.654  1.00  0.00    -0.248 NA
ATOM     19  C   UNL A   1      45.368  31.859  26.813  1.00  0.00     0.031 C 
ATOM     20  C   UNL A   1      41.577  30.285  29.652  1.00  0.00     0.029 A 
ATOM     21  N   UNL A   1      42.511  32.223  30.257  1.00  0.00    -0.354 N 
ATOM     22  C   UNL A   1      45.879  33.802  27.890  1.00  0.00     0.074 A 
ATOM     23  C   UNL A   1      46.161  32.914  26.786  1.00  0.00     0.031 C 
ATOM     24  C   UNL A   1      40.824  30.805  30.635  1.00  0.00     0.029 A 
ATOM     25  C   UNL A   1      41.436  32.046  31.097  1.00  0.00     0.049 A 
ATOM     26  H   UNL A   1      43.098  33.013  30.292  1.00  0.00     0.167 HD
ATOM     27  C   UNL A   1      46.508  34.982  28.108  1.00  0.00     0.034 A 
ATOM     28  C   UNL A   1      41.031  32.798  32.138  1.00  0.00     0.034 A 
ATOM     29  C   UNL A   1      46.202  35.816  29.242  1.00  0.00     0.049 A 
ATOM     30  C   UNL A   1      41.833  34.038  32.451  1.00  0.00     0.074 A 
ATOM     31  C   UNL A   1      46.819  36.978  29.664  1.00  0.00     0.029 A 
ATOM     32  N   UNL A   1      45.178  35.554  30.152  1.00  0.00    -0.354 N 
ATOM     33  N   UNL A   1      42.857  34.545  31.799  1.00  0.00    -0.248 NA
ATOM     34  C   UNL A   1      41.436  34.798  33.639  1.00  0.00     0.031 C 
ATOM     35  C   UNL A   1      46.213  37.380  30.861  1.00  0.00     0.029 A 
ATOM     36  C   UNL A   1      45.162  36.517  31.145  1.00  0.00     0.049 A 
ATOM     37  H   UNL A   1      44.555  34.795  30.094  1.00  0.00     0.167 HD
ATOM     38  C   UNL A   1      43.214  35.700  32.487  1.00  0.00     0.074 A 
ATOM     39  C   UNL A   1      42.282  35.818  33.594  1.00  0.00     0.031 C 
ATOM     40  C   UNL A   1      44.214  36.587  32.235  1.00  0.00     0.034 A 
BRANCH  27  41
ATOM     41  C   UNL A   1      47.647  35.321  27.176  1.00  0.00     0.023 A 
ATOM     42  C   UNL A   1      48.964  34.877  27.412  1.00  0.00     0.031 A 
ATOM     43  C   UNL A   1      47.443  36.232  26.125  1.00  0.00     0.131 A 
ATOM     44  C   UNL A   1      50.030  35.433  26.686  1.00  0.00     0.055 A 
ATOM     45  C   UNL A   1      48.498  36.707  25.344  1.00  0.00     0.041 A 
ATOM     46  F   UNL A   1      46.218  36.718  25.871  1.00  0.00    -0.206 F 
ATOM     47  C   UNL A   1      49.804  36.329  25.638  1.00  0.00     0.022 A 
BRANCH  44  48
ATOM     48  S   UNL A   1      51.724  35.134  27.271  1.00  0.00     0.124 S 
ATOM     49  O   UNL A   1      51.486  34.664  28.637  1.00  0.00    -0.237 OA
ATOM     50  O   UNL A   1      52.217  34.146  26.331  1.00  0.00    -0.237 OA
ATOM     51  O   UNL A   1      52.355  36.456  27.183  1.00  0.00    -0.744 OA
ENDBRANCH  44  48
ENDBRANCH  27  41
BRANCH  28  52
ATOM     52  C   UNL A   1      39.876  32.372  32.986  1.00  0.00     0.023 A 
ATOM     53  C   UNL A   1      38.637  33.028  32.925  1.00  0.00     0.031 A 
ATOM     54  C   UNL A   1      40.010  31.309  33.901  1.00  0.00     0.131 A 
ATOM     55  C   UNL A   1      37.592  32.636  33.780  1.00  0.00     0.055 A 
ATOM     56  C   UNL A   1      38.954  30.891  34.712  1.00  0.00     0.041 A 
ATOM     57  F   UNL A   1      41.174  30.649  34.013  1.00  0.00    -0.206 F 
ATOM     58  C   UNL A   1      37.738  31.562  34.662  1.00  0.00     0.022 A 
BRANCH  55  59
ATOM     59  S   UNL A   1      36.051  33.594  33.777  1.00  0.00     0.124 S 
ATOM     60  O   UNL A   1      35.217  32.814  32.869  1.00  0.00    -0.237 OA
ATOM     61  O   UNL A   1      35.671  33.564  35.185  1.00  0.00    -0.237 OA
ATOM     62  O   UNL A   1      36.464  34.902  33.273  1.00  0.00    -0.744 OA
ENDBRANCH  55  59
ENDBRANCH  28  52
BRANCH  40  63
ATOM     63  C   UNL A   1      44.301  37.778  33.152  1.00  0.00     0.023 A 
ATOM     64  C   UNL A   1      43.697  39.005  32.830  1.00  0.00     0.031 A 
ATOM     65  C   UNL A   1      45.005  37.678  34.365  1.00  0.00     0.131 A 
ATOM     66  C   UNL A   1      43.859  40.103  33.685  1.00  0.00     0.055 A 
ATOM     67  C   UNL A   1      45.106  38.756  35.243  1.00  0.00     0.041 A 
ATOM     68  F   UNL A   1      45.599  36.527  34.717  1.00  0.00    -0.206 F 
ATOM     69  C   UNL A   1      44.543  39.982  34.898  1.00  0.00     0.022 A 
BRANCH  66  70
ATOM     70  S   UNL A   1      43.248  41.721  33.143  1.00  0.00     0.124 S 
ATOM     71  O   UNL A   1      41.908  41.394  32.663  1.00  0.00    -0.237 OA
ATOM     72  O   UNL A   1      43.311  42.506  34.370  1.00  0.00    -0.237 OA
ATOM     73  O   UNL A   1      44.198  42.115  32.104  1.00  0.00    -0.744 OA
ENDBRANCH  66  70
ENDBRANCH  40  63
ENDBRANCH  14  15
ENDBRANCH   7   9
ENDBRANCH   6   7
ENDBRANCH   5   6
ENDBRANCH   4   5
ENDBRANCH   3   4
ENDBRANCH   2   3
ENDBRANCH   1   2
BRANCH   1  74
ATOM     74  O   UNL A   1      39.282  22.981  26.918  1.00  0.00    -0.377 OA
BRANCH  74  75
ATOM     75  C   UNL A   1      38.874  21.920  26.060  1.00  0.00     0.188 C 
BRANCH  75  76
ATOM     76  C   UNL A   1      37.774  22.177  25.012  1.00  0.00     0.188 C 
BRANCH  76  77
ATOM     77  O   UNL A   1      36.496  22.464  25.560  1.00  0.00    -0.376 OA
BRANCH  77  78
ATOM     78  C   UNL A   1      35.782  21.338  26.061  1.00  0.00     0.202 C 
BRANCH  78  79
ATOM     79  C   UNL A   1      34.955  20.599  25.001  1.00  0.00     0.261 C 
BRANCH  79  80
ATOM     80  O   UNL A   1      34.056  21.428  24.227  1.00  0.00    -0.463 OA
BRANCH  80  81
ATOM     81  C   UNL A   1      32.760  21.535  24.634  1.00  0.00     0.312 C 
ATOM     82  O   UNL A   1      32.043  20.551  24.810  1.00  0.00    -0.252 OA
BRANCH  81  83
ATOM     83  C   UNL A   1      32.296  22.996  24.856  1.00  0.00     0.138 C 
ATOM     84  C   UNL A   1      33.338  24.104  24.610  1.00  0.00     0.136 C 
ATOM     85  C   UNL A   1      31.363  23.719  23.864  1.00  0.00     0.136 C 
ATOM     86  N   UNL A   1      32.333  24.793  23.824  1.00  0.00    -0.341 N 
ATOM     87  C   UNL A   1      32.416  26.008  23.204  1.00  0.00     0.222 C 
ATOM     88  O   UNL A   1      33.474  26.632  23.130  1.00  0.00    -0.275 OA
BRANCH  87  89
ATOM     89  C   UNL A   1      31.126  26.601  22.669  1.00  0.00     0.104 C 
BRANCH  89  90
ATOM     90  C   UNL A   1      30.156  27.111  23.751  1.00  0.00     0.009 C 
ATOM     91  C   UNL A   1      29.040  27.965  23.122  1.00  0.00     0.065 C 
ATOM     92  C   UNL A   1      30.849  27.960  24.825  1.00  0.00     0.065 C 
ATOM     93  C   UNL A   1      29.563  29.306  22.602  1.00  0.00     0.260 C 
ATOM     94  C   UNL A   1      31.331  29.305  24.276  1.00  0.00     0.260 C 
ATOM     95  N   UNL A   1      30.249  30.063  23.649  1.00  0.00    -0.346 N 
ATOM     96  H   UNL A   1      29.569  30.316  24.366  1.00  0.00     0.346 HD
ATOM     97  H   UNL A   1      30.663  30.886  23.213  1.00  0.00     0.346 HD
ENDBRANCH  89  90
ENDBRANCH  87  89
ENDBRANCH  81  83
ENDBRANCH  80  81
ENDBRANCH  79  80
ENDBRANCH  78  79
ENDBRANCH  77  78
ENDBRANCH  76  77
ENDBRANCH  75  76
ENDBRANCH  74  75
ENDBRANCH   1  74
TORSDOF 25
ENDMDL
