MODEL 1
REMARK VINA RESULT:      -9.9      0.000      0.000
REMARK SMILES Cc1cccc(N2C(=O)/C(=C/c3ccc(C(=O)OCCOCCOCCOCCOC(=O)c4ccc(-c5c6nc(c(-c7cc(S(=O)(=O)[O-])ccc7F)c7ccc([nH]7)c(-c7cc(S(=O)(=O)[O-])ccc7F)c7nc(c(-c8cc(S(=O)(=O)[O-])ccc8F)c8ccc5[nH]8)C=C7)C=C6)cc4)cc3)c3ccccc3C2=O)c1
REMARK SMILES IDX 25 1 24 2 23 3 22 4 21 5 20 6 19 7 18 8 16 9 17 10 15 11
REMARK SMILES IDX 12 12 13 13 97 14 14 15 96 16 11 17 7 18 8 19 104 20 9 21
REMARK SMILES IDX 10 22 103 23 105 24 98 25 102 26 99 27 101 28 100 29 6 30
REMARK SMILES IDX 1 31 2 32 3 33 106 34 4 35 5 36 26 37 27 38 28 39 29 40
REMARK SMILES IDX 30 41 31 42 32 43 33 44 34 45 95 46 35 47 94 48 36 49 37 50
REMARK SMILES IDX 38 51 88 52 39 53 93 54 87 55 89 56 40 57 92 58 86 59 85 60
REMARK SMILES IDX 41 62 73 63 53 64 72 65 54 66 57 67 71 68 90 69 55 70 56 71
REMARK SMILES IDX 70 73 91 74 58 75 42 76 43 77 51 78 44 79 50 80 52 81 49 82
REMARK SMILES IDX 45 83 46 84 47 85 48 86 74 87 75 88 83 89 76 90 82 91 84 92
REMARK SMILES IDX 81 93 77 94 78 95 79 96 80 97 59 98 60 99 68 100 61 101
REMARK SMILES IDX 67 102 69 103 66 104 62 105 63 106 64 107 65 108
REMARK H PARENT 89 61 57 72
REMARK Flexibility Score: inf
ROOT
ATOM      1  C   UNL A   1      43.671  24.463  27.312  1.00  0.00     0.188 C 
ENDROOT
BRANCH   1   2
ATOM      2  O   UNL A   1      44.918  23.862  27.668  1.00  0.00    -0.377 OA
BRANCH   2   3
ATOM      3  C   UNL A   1      45.798  23.747  26.559  1.00  0.00     0.188 C 
BRANCH   3   4
ATOM      4  C   UNL A   1      45.393  22.623  25.614  1.00  0.00     0.188 C 
BRANCH   4   5
ATOM      5  O   UNL A   1      44.576  21.593  26.167  1.00  0.00    -0.376 OA
BRANCH   5   6
ATOM      6  C   UNL A   1      43.260  21.526  25.607  1.00  0.00     0.202 C 
BRANCH   6   7
ATOM      7  C   UNL A   1      42.224  20.866  26.519  1.00  0.00     0.261 C 
BRANCH   7   8
ATOM      8  O   UNL A   1      40.915  21.384  26.260  1.00  0.00    -0.460 OA
BRANCH   8   9
ATOM      9  C   UNL A   1      40.022  20.481  25.798  1.00  0.00     0.338 C 
ATOM     10  O   UNL A   1      40.082  19.270  25.868  1.00  0.00    -0.246 OA
BRANCH   9  11
ATOM     11  C   UNL A   1      38.764  21.222  25.592  1.00  0.00     0.060 A 
ATOM     12  C   UNL A   1      36.748  23.033  24.905  1.00  0.00    -0.025 A 
ATOM     13  C   UNL A   1      37.738  23.381  25.838  1.00  0.00     0.009 A 
ATOM     14  C   UNL A   1      36.754  21.744  24.353  1.00  0.00     0.009 A 
ATOM     15  C   UNL A   1      38.726  22.478  26.197  1.00  0.00     0.016 A 
ATOM     16  C   UNL A   1      37.780  20.844  24.673  1.00  0.00     0.016 A 
BRANCH  12  17
ATOM     17  C   UNL A   1      35.730  24.061  24.669  1.00  0.00     0.022 C 
ATOM     18  N   UNL A   1      32.835  25.697  25.420  1.00  0.00    -0.242 N 
ATOM     19  C   UNL A   1      33.791  25.389  24.441  1.00  0.00     0.265 C 
ATOM     20  C   UNL A   1      32.127  24.644  26.056  1.00  0.00     0.265 C 
ATOM     21  O   UNL A   1      34.175  26.075  23.496  1.00  0.00    -0.268 OA
ATOM     22  C   UNL A   1      34.388  24.031  24.603  1.00  0.00     0.049 C 
ATOM     23  C   UNL A   1      32.305  23.259  25.515  1.00  0.00     0.048 A 
ATOM     24  O   UNL A   1      31.334  24.743  26.991  1.00  0.00    -0.268 OA
ATOM     25  C   UNL A   1      33.441  22.946  24.768  1.00  0.00    -0.000 A 
ATOM     26  C   UNL A   1      31.321  22.286  25.734  1.00  0.00     0.014 A 
ATOM     27  C   UNL A   1      33.554  21.690  24.162  1.00  0.00     0.010 A 
ATOM     28  C   UNL A   1      31.450  21.023  25.154  1.00  0.00     0.001 A 
ATOM     29  C   UNL A   1      32.557  20.731  24.357  1.00  0.00     0.001 A 
BRANCH  18  30
ATOM     30  C   UNL A   1      32.544  27.104  25.726  1.00  0.00     0.053 A 
ATOM     31  C   UNL A   1      30.446  30.001  24.309  1.00  0.00     0.044 C 
ATOM     32  C   UNL A   1      31.392  29.241  25.193  1.00  0.00    -0.049 A 
ATOM     33  C   UNL A   1      31.946  29.844  26.315  1.00  0.00     0.003 A 
ATOM     34  C   UNL A   1      31.700  27.894  24.915  1.00  0.00     0.030 A 
ATOM     35  C   UNL A   1      32.807  29.114  27.123  1.00  0.00     0.002 A 
ATOM     36  C   UNL A   1      33.102  27.773  26.829  1.00  0.00     0.027 A 
ENDBRANCH  18  30
ENDBRANCH  12  17
ENDBRANCH   9  11
ENDBRANCH   8   9
ENDBRANCH   7   8
ENDBRANCH   6   7
ENDBRANCH   5   6
ENDBRANCH   4   5
ENDBRANCH   3   4
ENDBRANCH   2   3
ENDBRANCH   1   2
BRANCH   1  37
ATOM     37  C   UNL A   1      42.545  23.935  28.195  1.00  0.00     0.188 C 
BRANCH  37  38
ATOM     38  O   UNL A   1      41.219  24.305  27.820  1.00  0.00    -0.376 OA
BRANCH  38  39
ATOM     39  C   UNL A   1      40.831  25.656  28.012  1.00  0.00     0.202 C 
BRANCH  39  40
ATOM     40  C   UNL A   1      40.815  26.515  26.738  1.00  0.00     0.261 C 
BRANCH  40  41
ATOM     41  O   UNL A   1      41.234  27.858  27.043  1.00  0.00    -0.460 OA
BRANCH  41  42
ATOM     42  C   UNL A   1      40.354  28.570  27.802  1.00  0.00     0.338 C 
ATOM     43  O   UNL A   1      39.244  28.918  27.445  1.00  0.00    -0.246 OA
BRANCH  42  44
ATOM     44  C   UNL A   1      41.027  29.005  29.059  1.00  0.00     0.060 A 
ATOM     45  C   UNL A   1      40.690  28.392  30.278  1.00  0.00     0.016 A 
ATOM     46  C   UNL A   1      41.753  30.192  29.061  1.00  0.00     0.016 A 
ATOM     47  C   UNL A   1      40.927  29.063  31.491  1.00  0.00     0.010 A 
ATOM     48  C   UNL A   1      41.917  30.876  30.253  1.00  0.00     0.010 A 
ATOM     49  C   UNL A   1      41.453  30.359  31.475  1.00  0.00    -0.014 A 
BRANCH  49  50
ATOM     50  C   UNL A   1      41.296  31.350  32.568  1.00  0.00     0.031 A 
ATOM     51  C   UNL A   1      42.407  31.600  33.551  1.00  0.00     0.074 A 
ATOM     52  C   UNL A   1      40.313  32.281  32.438  1.00  0.00     0.049 A 
ATOM     53  N   UNL A   1      42.382  32.488  34.489  1.00  0.00    -0.248 NA
ATOM     54  C   UNL A   1      43.662  30.845  33.577  1.00  0.00     0.031 C 
ATOM     55  C   UNL A   1      40.342  33.661  32.921  1.00  0.00     0.029 A 
ATOM     56  N   UNL A   1      39.074  32.209  31.803  1.00  0.00    -0.354 N 
ATOM     57  C   UNL A   1      43.678  32.705  34.921  1.00  0.00     0.074 A 
ATOM     58  C   UNL A   1      44.402  31.560  34.434  1.00  0.00     0.031 C 
ATOM     59  C   UNL A   1      39.200  34.294  32.620  1.00  0.00     0.029 A 
ATOM     60  C   UNL A   1      38.263  33.269  32.245  1.00  0.00     0.049 A 
ATOM     61  H   UNL A   1      38.809  31.524  31.148  1.00  0.00     0.167 HD
ATOM     62  C   UNL A   1      44.010  33.911  35.484  1.00  0.00     0.034 A 
ATOM     63  C   UNL A   1      37.143  33.007  32.988  1.00  0.00     0.034 A 
ATOM     64  C   UNL A   1      42.817  34.725  35.792  1.00  0.00     0.049 A 
ATOM     65  C   UNL A   1      37.303  33.405  34.452  1.00  0.00     0.074 A 
ATOM     66  C   UNL A   1      42.454  36.047  35.592  1.00  0.00     0.029 A 
ATOM     67  N   UNL A   1      41.682  34.109  36.321  1.00  0.00    -0.354 N 
ATOM     68  N   UNL A   1      38.463  33.708  34.985  1.00  0.00    -0.248 NA
ATOM     69  C   UNL A   1      36.220  33.584  35.415  1.00  0.00     0.031 C 
ATOM     70  C   UNL A   1      41.056  36.170  35.850  1.00  0.00     0.029 A 
ATOM     71  C   UNL A   1      40.598  34.956  36.335  1.00  0.00     0.049 A 
ATOM     72  H   UNL A   1      41.660  33.180  36.647  1.00  0.00     0.167 HD
ATOM     73  C   UNL A   1      38.318  34.142  36.271  1.00  0.00     0.074 A 
ATOM     74  C   UNL A   1      36.888  34.029  36.501  1.00  0.00     0.031 C 
ATOM     75  C   UNL A   1      39.380  34.559  37.030  1.00  0.00     0.034 A 
BRANCH  62  76
ATOM     76  C   UNL A   1      45.431  34.494  35.572  1.00  0.00     0.023 A 
ATOM     77  C   UNL A   1      46.316  34.046  36.587  1.00  0.00     0.031 A 
ATOM     78  C   UNL A   1      45.927  35.572  34.802  1.00  0.00     0.131 A 
ATOM     79  C   UNL A   1      47.571  34.660  36.813  1.00  0.00     0.055 A 
ATOM     80  C   UNL A   1      47.206  36.128  34.975  1.00  0.00     0.041 A 
ATOM     81  F   UNL A   1      45.184  36.198  33.880  1.00  0.00    -0.206 F 
ATOM     82  C   UNL A   1      48.032  35.683  35.992  1.00  0.00     0.022 A 
BRANCH  79  83
ATOM     83  S   UNL A   1      48.607  34.137  38.217  1.00  0.00     0.124 S 
ATOM     84  O   UNL A   1      47.704  34.294  39.351  1.00  0.00    -0.237 OA
ATOM     85  O   UNL A   1      48.962  32.769  37.859  1.00  0.00    -0.237 OA
ATOM     86  O   UNL A   1      49.723  35.084  38.186  1.00  0.00    -0.744 OA
ENDBRANCH  79  83
ENDBRANCH  62  76
BRANCH  63  87
ATOM     87  C   UNL A   1      36.307  31.968  32.302  1.00  0.00     0.023 A 
ATOM     88  C   UNL A   1      35.612  32.478  31.175  1.00  0.00     0.031 A 
ATOM     89  C   UNL A   1      36.735  30.631  32.249  1.00  0.00     0.131 A 
ATOM     90  C   UNL A   1      35.652  31.785  29.956  1.00  0.00     0.055 A 
ATOM     91  C   UNL A   1      36.684  29.904  31.047  1.00  0.00     0.041 A 
ATOM     92  F   UNL A   1      37.385  30.081  33.285  1.00  0.00    -0.206 F 
ATOM     93  C   UNL A   1      36.212  30.507  29.879  1.00  0.00     0.022 A 
BRANCH  90  94
ATOM     94  S   UNL A   1      35.318  32.692  28.405  1.00  0.00     0.124 S 
ATOM     95  O   UNL A   1      36.647  33.150  28.024  1.00  0.00    -0.237 OA
ATOM     96  O   UNL A   1      34.726  31.677  27.536  1.00  0.00    -0.237 OA
ATOM     97  O   UNL A   1      34.381  33.727  28.841  1.00  0.00    -0.744 OA
ENDBRANCH  90  94
ENDBRANCH  63  87
BRANCH  75  98
ATOM     98  C   UNL A   1      39.404  34.662  38.542  1.00  0.00     0.023 A 
ATOM     99  C   UNL A   1      39.791  35.826  39.209  1.00  0.00     0.031 A 
ATOM    100  C   UNL A   1      38.865  33.635  39.366  1.00  0.00     0.131 A 
ATOM    101  C   UNL A   1      39.699  35.924  40.608  1.00  0.00     0.055 A 
ATOM    102  C   UNL A   1      38.695  33.767  40.745  1.00  0.00     0.041 A 
ATOM    103  F   UNL A   1      38.448  32.460  38.872  1.00  0.00    -0.206 F 
ATOM    104  C   UNL A   1      39.125  34.917  41.379  1.00  0.00     0.022 A 
BRANCH 101 105
ATOM    105  S   UNL A   1      40.402  37.390  41.393  1.00  0.00     0.124 S 
ATOM    106  O   UNL A   1      41.651  36.865  41.937  1.00  0.00    -0.237 OA
ATOM    107  O   UNL A   1      40.540  38.312  40.270  1.00  0.00    -0.237 OA
ATOM    108  O   UNL A   1      39.399  37.764  42.387  1.00  0.00    -0.744 OA
ENDBRANCH 101 105
ENDBRANCH  75  98
ENDBRANCH  49  50
ENDBRANCH  42  44
ENDBRANCH  41  42
ENDBRANCH  40  41
ENDBRANCH  39  40
ENDBRANCH  38  39
ENDBRANCH  37  38
ENDBRANCH   1  37
TORSDOF 25
ENDMDL
MODEL 2
REMARK VINA RESULT:      -9.9      6.906     12.315
REMARK SMILES Cc1cccc(N2C(=O)/C(=C/c3ccc(C(=O)OCCOCCOCCOCCOC(=O)c4ccc(-c5c6nc(c(-c7cc(S(=O)(=O)[O-])ccc7F)c7ccc([nH]7)c(-c7cc(S(=O)(=O)[O-])ccc7F)c7nc(c(-c8cc(S(=O)(=O)[O-])ccc8F)c8ccc5[nH]8)C=C7)C=C6)cc4)cc3)c3ccccc3C2=O)c1
REMARK SMILES IDX 25 1 24 2 23 3 22 4 21 5 20 6 19 7 18 8 16 9 17 10 15 11
REMARK SMILES IDX 12 12 13 13 97 14 14 15 96 16 11 17 7 18 8 19 104 20 9 21
REMARK SMILES IDX 10 22 103 23 105 24 98 25 102 26 99 27 101 28 100 29 6 30
REMARK SMILES IDX 1 31 2 32 3 33 106 34 4 35 5 36 26 37 27 38 28 39 29 40
REMARK SMILES IDX 30 41 31 42 32 43 33 44 34 45 95 46 35 47 94 48 36 49 37 50
REMARK SMILES IDX 38 51 88 52 39 53 93 54 87 55 89 56 40 57 92 58 86 59 85 60
REMARK SMILES IDX 41 62 73 63 53 64 72 65 54 66 57 67 71 68 90 69 55 70 56 71
REMARK SMILES IDX 70 73 91 74 58 75 42 76 43 77 51 78 44 79 50 80 52 81 49 82
REMARK SMILES IDX 45 83 46 84 47 85 48 86 74 87 75 88 83 89 76 90 82 91 84 92
REMARK SMILES IDX 81 93 77 94 78 95 79 96 80 97 59 98 60 99 68 100 61 101
REMARK SMILES IDX 67 102 69 103 66 104 62 105 63 106 64 107 65 108
REMARK H PARENT 89 61 57 72
REMARK Flexibility Score: inf
ROOT
ATOM      1  C   UNL A   1      35.683  23.463  24.912  1.00  0.00     0.188 C 
ENDROOT
BRANCH   1   2
ATOM      2  O   UNL A   1      35.040  23.951  26.092  1.00  0.00    -0.377 OA
BRANCH   2   3
ATOM      3  C   UNL A   1      33.807  24.596  25.807  1.00  0.00     0.188 C 
BRANCH   3   4
ATOM      4  C   UNL A   1      32.735  23.617  25.346  1.00  0.00     0.188 C 
BRANCH   4   5
ATOM      5  O   UNL A   1      31.603  24.180  24.686  1.00  0.00    -0.376 OA
BRANCH   5   6
ATOM      6  C   UNL A   1      30.814  25.041  25.513  1.00  0.00     0.202 C 
BRANCH   6   7
ATOM      7  C   UNL A   1      30.337  26.318  24.814  1.00  0.00     0.261 C 
BRANCH   7   8
ATOM      8  O   UNL A   1      31.450  27.113  24.394  1.00  0.00    -0.460 OA
BRANCH   8   9
ATOM      9  C   UNL A   1      31.267  28.448  24.483  1.00  0.00     0.338 C 
ATOM     10  O   UNL A   1      30.346  29.106  24.043  1.00  0.00    -0.246 OA
BRANCH   9  11
ATOM     11  C   UNL A   1      32.141  28.907  25.579  1.00  0.00     0.060 A 
ATOM     12  C   UNL A   1      34.165  29.970  27.187  1.00  0.00    -0.025 A 
ATOM     13  C   UNL A   1      34.396  28.829  26.404  1.00  0.00     0.009 A 
ATOM     14  C   UNL A   1      32.887  30.548  27.190  1.00  0.00     0.009 A 
ATOM     15  C   UNL A   1      33.389  28.286  25.623  1.00  0.00     0.016 A 
ATOM     16  C   UNL A   1      31.879  30.035  26.362  1.00  0.00     0.016 A 
BRANCH  12  17
ATOM     17  C   UNL A   1      35.299  30.397  28.014  1.00  0.00     0.022 C 
ATOM     18  N   UNL A   1      36.676  31.614  30.885  1.00  0.00    -0.242 N 
ATOM     19  C   UNL A   1      36.825  31.406  29.507  1.00  0.00     0.265 C 
ATOM     20  C   UNL A   1      35.587  32.393  31.357  1.00  0.00     0.265 C 
ATOM     21  O   UNL A   1      37.850  31.177  28.868  1.00  0.00    -0.268 OA
ATOM     22  C   UNL A   1      35.541  31.494  28.751  1.00  0.00     0.049 C 
ATOM     23  C   UNL A   1      34.755  33.113  30.342  1.00  0.00     0.048 A 
ATOM     24  O   UNL A   1      35.268  32.587  32.529  1.00  0.00    -0.268 OA
ATOM     25  C   UNL A   1      34.737  32.670  29.018  1.00  0.00    -0.000 A 
ATOM     26  C   UNL A   1      34.016  34.244  30.711  1.00  0.00     0.014 A 
ATOM     27  C   UNL A   1      34.055  33.408  28.044  1.00  0.00     0.010 A 
ATOM     28  C   UNL A   1      33.311  34.962  29.743  1.00  0.00     0.001 A 
ATOM     29  C   UNL A   1      33.344  34.553  28.410  1.00  0.00     0.001 A 
BRANCH  18  30
ATOM     30  C   UNL A   1      37.680  31.069  31.809  1.00  0.00     0.053 A 
ATOM     31  C   UNL A   1      41.095  32.056  33.280  1.00  0.00     0.044 C 
ATOM     32  C   UNL A   1      39.860  31.255  32.989  1.00  0.00    -0.049 A 
ATOM     33  C   UNL A   1      39.643  30.037  33.624  1.00  0.00     0.003 A 
ATOM     34  C   UNL A   1      38.886  31.745  32.096  1.00  0.00     0.030 A 
ATOM     35  C   UNL A   1      38.486  29.323  33.347  1.00  0.00     0.002 A 
ATOM     36  C   UNL A   1      37.528  29.829  32.453  1.00  0.00     0.027 A 
ENDBRANCH  18  30
ENDBRANCH  12  17
ENDBRANCH   9  11
ENDBRANCH   8   9
ENDBRANCH   7   8
ENDBRANCH   6   7
ENDBRANCH   5   6
ENDBRANCH   4   5
ENDBRANCH   3   4
ENDBRANCH   2   3
ENDBRANCH   1   2
BRANCH   1  37
ATOM     37  C   UNL A   1      37.199  23.566  25.041  1.00  0.00     0.188 C 
BRANCH  37  38
ATOM     38  O   UNL A   1      37.690  24.409  26.083  1.00  0.00    -0.376 OA
BRANCH  38  39
ATOM     39  C   UNL A   1      38.695  23.887  26.938  1.00  0.00     0.202 C 
BRANCH  39  40
ATOM     40  C   UNL A   1      40.131  24.294  26.577  1.00  0.00     0.261 C 
BRANCH  40  41
ATOM     41  O   UNL A   1      40.852  24.667  27.766  1.00  0.00    -0.460 OA
BRANCH  41  42
ATOM     42  C   UNL A   1      42.196  24.818  27.593  1.00  0.00     0.338 C 
ATOM     43  O   UNL A   1      42.795  24.616  26.553  1.00  0.00    -0.246 OA
BRANCH  42  44
ATOM     44  C   UNL A   1      42.835  25.091  28.912  1.00  0.00     0.060 A 
ATOM     45  C   UNL A   1      43.281  26.388  29.215  1.00  0.00     0.016 A 
ATOM     46  C   UNL A   1      43.243  24.019  29.700  1.00  0.00     0.016 A 
ATOM     47  C   UNL A   1      44.273  26.580  30.193  1.00  0.00     0.010 A 
ATOM     48  C   UNL A   1      44.270  24.208  30.608  1.00  0.00     0.010 A 
ATOM     49  C   UNL A   1      44.846  25.472  30.826  1.00  0.00    -0.014 A 
BRANCH  49  50
ATOM     50  C   UNL A   1      46.183  25.461  31.469  1.00  0.00     0.031 A 
ATOM     51  C   UNL A   1      47.439  25.497  30.643  1.00  0.00     0.074 A 
ATOM     52  C   UNL A   1      46.252  25.803  32.784  1.00  0.00     0.049 A 
ATOM     53  N   UNL A   1      48.639  25.558  31.118  1.00  0.00    -0.248 NA
ATOM     54  C   UNL A   1      47.457  25.449  29.178  1.00  0.00     0.031 C 
ATOM     55  C   UNL A   1      47.351  26.500  33.452  1.00  0.00     0.029 A 
ATOM     56  N   UNL A   1      45.329  25.636  33.814  1.00  0.00    -0.354 N 
ATOM     57  C   UNL A   1      49.489  25.970  30.108  1.00  0.00     0.074 A 
ATOM     58  C   UNL A   1      48.735  25.739  28.904  1.00  0.00     0.031 C 
ATOM     59  C   UNL A   1      47.083  26.671  34.754  1.00  0.00     0.029 A 
ATOM     60  C   UNL A   1      45.977  25.800  35.051  1.00  0.00     0.049 A 
ATOM     61  H   UNL A   1      44.372  25.436  33.695  1.00  0.00     0.167 HD
ATOM     62  C   UNL A   1      50.655  26.618  30.428  1.00  0.00     0.034 A 
ATOM     63  C   UNL A   1      46.105  24.734  35.900  1.00  0.00     0.034 A 
ATOM     64  C   UNL A   1      50.956  26.536  31.872  1.00  0.00     0.049 A 
ATOM     65  C   UNL A   1      47.537  24.212  35.977  1.00  0.00     0.074 A 
ATOM     66  C   UNL A   1      51.354  27.439  32.843  1.00  0.00     0.029 A 
ATOM     67  N   UNL A   1      50.728  25.340  32.555  1.00  0.00    -0.354 N 
ATOM     68  N   UNL A   1      48.473  24.571  35.129  1.00  0.00    -0.248 NA
ATOM     69  C   UNL A   1      48.078  23.342  37.017  1.00  0.00     0.031 C 
ATOM     70  C   UNL A   1      51.203  26.820  34.119  1.00  0.00     0.029 A 
ATOM     71  C   UNL A   1      50.840  25.498  33.917  1.00  0.00     0.049 A 
ATOM     72  H   UNL A   1      50.513  24.486  32.115  1.00  0.00     0.167 HD
ATOM     73  C   UNL A   1      49.686  24.060  35.486  1.00  0.00     0.074 A 
ATOM     74  C   UNL A   1      49.381  23.278  36.673  1.00  0.00     0.031 C 
ATOM     75  C   UNL A   1      50.832  24.327  34.783  1.00  0.00     0.034 A 
BRANCH  62  76
ATOM     76  C   UNL A   1      51.452  27.539  29.488  1.00  0.00     0.023 A 
ATOM     77  C   UNL A   1      52.420  26.985  28.610  1.00  0.00     0.031 A 
ATOM     78  C   UNL A   1      51.420  28.953  29.500  1.00  0.00     0.131 A 
ATOM     79  C   UNL A   1      53.290  27.797  27.843  1.00  0.00     0.055 A 
ATOM     80  C   UNL A   1      52.229  29.757  28.679  1.00  0.00     0.041 A 
ATOM     81  F   UNL A   1      50.653  29.646  30.351  1.00  0.00    -0.206 F 
ATOM     82  C   UNL A   1      53.179  29.182  27.854  1.00  0.00     0.022 A 
BRANCH  79  83
ATOM     83  S   UNL A   1      54.605  27.036  26.839  1.00  0.00     0.124 S 
ATOM     84  O   UNL A   1      55.784  27.800  27.232  1.00  0.00    -0.237 OA
ATOM     85  O   UNL A   1      54.566  25.642  27.267  1.00  0.00    -0.237 OA
ATOM     86  O   UNL A   1      54.157  27.263  25.464  1.00  0.00    -0.744 OA
ENDBRANCH  79  83
ENDBRANCH  62  76
BRANCH  63  87
ATOM     87  C   UNL A   1      44.772  24.076  36.098  1.00  0.00     0.023 A 
ATOM     88  C   UNL A   1      43.826  24.929  36.723  1.00  0.00     0.031 A 
ATOM     89  C   UNL A   1      44.288  23.149  35.160  1.00  0.00     0.131 A 
ATOM     90  C   UNL A   1      42.539  25.062  36.182  1.00  0.00     0.055 A 
ATOM     91  C   UNL A   1      42.966  23.222  34.690  1.00  0.00     0.041 A 
ATOM     92  F   UNL A   1      45.126  22.303  34.543  1.00  0.00    -0.206 F 
ATOM     93  C   UNL A   1      42.110  24.228  35.146  1.00  0.00     0.022 A 
BRANCH  90  94
ATOM     94  S   UNL A   1      41.559  26.555  36.570  1.00  0.00     0.124 S 
ATOM     95  O   UNL A   1      41.079  26.956  35.254  1.00  0.00    -0.237 OA
ATOM     96  O   UNL A   1      40.537  26.064  37.492  1.00  0.00    -0.237 OA
ATOM     97  O   UNL A   1      42.553  27.432  37.188  1.00  0.00    -0.744 OA
ENDBRANCH  90  94
ENDBRANCH  63  87
BRANCH  75  98
ATOM     98  C   UNL A   1      52.112  23.516  34.832  1.00  0.00     0.023 A 
ATOM     99  C   UNL A   1      52.172  22.183  34.419  1.00  0.00     0.031 A 
ATOM    100  C   UNL A   1      53.363  24.121  35.136  1.00  0.00     0.131 A 
ATOM    101  C   UNL A   1      53.396  21.494  34.376  1.00  0.00     0.055 A 
ATOM    102  C   UNL A   1      54.586  23.459  35.009  1.00  0.00     0.041 A 
ATOM    103  F   UNL A   1      53.468  25.393  35.543  1.00  0.00    -0.206 F 
ATOM    104  C   UNL A   1      54.607  22.129  34.636  1.00  0.00     0.022 A 
BRANCH 101 105
ATOM    105  S   UNL A   1      53.348  19.725  34.016  1.00  0.00     0.124 S 
ATOM    106  O   UNL A   1      53.662  19.704  32.590  1.00  0.00    -0.237 OA
ATOM    107  O   UNL A   1      54.384  19.197  34.898  1.00  0.00    -0.237 OA
ATOM    108  O   UNL A   1      51.981  19.339  34.358  1.00  0.00    -0.744 OA
ENDBRANCH 101 105
ENDBRANCH  75  98
ENDBRANCH  49  50
ENDBRANCH  42  44
ENDBRANCH  41  42
ENDBRANCH  40  41
ENDBRANCH  39  40
ENDBRANCH  38  39
ENDBRANCH  37  38
ENDBRANCH   1  37
TORSDOF 25
ENDMDL
MODEL 3
REMARK VINA RESULT:      -9.9      6.123     12.640
REMARK SMILES Cc1cccc(N2C(=O)/C(=C/c3ccc(C(=O)OCCOCCOCCOCCOC(=O)c4ccc(-c5c6nc(c(-c7cc(S(=O)(=O)[O-])ccc7F)c7ccc([nH]7)c(-c7cc(S(=O)(=O)[O-])ccc7F)c7nc(c(-c8cc(S(=O)(=O)[O-])ccc8F)c8ccc5[nH]8)C=C7)C=C6)cc4)cc3)c3ccccc3C2=O)c1
REMARK SMILES IDX 25 1 24 2 23 3 22 4 21 5 20 6 19 7 18 8 16 9 17 10 15 11
REMARK SMILES IDX 12 12 13 13 97 14 14 15 96 16 11 17 7 18 8 19 104 20 9 21
REMARK SMILES IDX 10 22 103 23 105 24 98 25 102 26 99 27 101 28 100 29 6 30
REMARK SMILES IDX 1 31 2 32 3 33 106 34 4 35 5 36 26 37 27 38 28 39 29 40
REMARK SMILES IDX 30 41 31 42 32 43 33 44 34 45 95 46 35 47 94 48 36 49 37 50
REMARK SMILES IDX 38 51 88 52 39 53 93 54 87 55 89 56 40 57 92 58 86 59 85 60
REMARK SMILES IDX 41 62 73 63 53 64 72 65 54 66 57 67 71 68 90 69 55 70 56 71
REMARK SMILES IDX 70 73 91 74 58 75 42 76 43 77 51 78 44 79 50 80 52 81 49 82
REMARK SMILES IDX 45 83 46 84 47 85 48 86 74 87 75 88 83 89 76 90 82 91 84 92
REMARK SMILES IDX 81 93 77 94 78 95 79 96 80 97 59 98 60 99 68 100 61 101
REMARK SMILES IDX 67 102 69 103 66 104 62 105 63 106 64 107 65 108
REMARK H PARENT 89 61 57 72
REMARK Flexibility Score: inf
ROOT
ATOM      1  C   UNL A   1      35.737  21.371  24.726  1.00  0.00     0.188 C 
ENDROOT
BRANCH   1   2
ATOM      2  O   UNL A   1      34.973  22.550  24.461  1.00  0.00    -0.377 OA
BRANCH   2   3
ATOM      3  C   UNL A   1      33.844  22.665  25.316  1.00  0.00     0.188 C 
BRANCH   3   4
ATOM      4  C   UNL A   1      33.723  24.054  25.930  1.00  0.00     0.188 C 
BRANCH   4   5
ATOM      5  O   UNL A   1      32.675  24.880  25.427  1.00  0.00    -0.376 OA
BRANCH   5   6
ATOM      6  C   UNL A   1      33.000  25.559  24.209  1.00  0.00     0.202 C 
BRANCH   6   7
ATOM      7  C   UNL A   1      32.761  27.071  24.252  1.00  0.00     0.261 C 
BRANCH   7   8
ATOM      8  O   UNL A   1      33.267  27.631  25.467  1.00  0.00    -0.460 OA
BRANCH   8   9
ATOM      9  C   UNL A   1      32.669  28.776  25.864  1.00  0.00     0.338 C 
ATOM     10  O   UNL A   1      31.479  28.999  25.966  1.00  0.00    -0.246 OA
BRANCH   9  11
ATOM     11  C   UNL A   1      33.705  29.553  26.569  1.00  0.00     0.060 A 
ATOM     12  C   UNL A   1      35.357  30.844  28.418  1.00  0.00    -0.025 A 
ATOM     13  C   UNL A   1      34.034  31.269  28.218  1.00  0.00     0.009 A 
ATOM     14  C   UNL A   1      35.858  29.788  27.643  1.00  0.00     0.009 A 
ATOM     15  C   UNL A   1      33.219  30.646  27.287  1.00  0.00     0.016 A 
ATOM     16  C   UNL A   1      35.023  29.120  26.737  1.00  0.00     0.016 A 
BRANCH  12  17
ATOM     17  C   UNL A   1      36.124  31.634  29.386  1.00  0.00     0.022 C 
ATOM     18  N   UNL A   1      36.414  33.551  32.190  1.00  0.00    -0.242 N 
ATOM     19  C   UNL A   1      36.974  33.176  30.960  1.00  0.00     0.265 C 
ATOM     20  C   UNL A   1      35.117  34.126  32.218  1.00  0.00     0.265 C 
ATOM     21  O   UNL A   1      38.158  33.090  30.646  1.00  0.00    -0.268 OA
ATOM     22  C   UNL A   1      35.953  32.856  29.918  1.00  0.00     0.049 C 
ATOM     23  C   UNL A   1      34.484  34.478  30.908  1.00  0.00     0.048 A 
ATOM     24  O   UNL A   1      34.457  34.418  33.214  1.00  0.00    -0.268 OA
ATOM     25  C   UNL A   1      34.911  33.848  29.739  1.00  0.00    -0.000 A 
ATOM     26  C   UNL A   1      33.482  35.456  30.850  1.00  0.00     0.014 A 
ATOM     27  C   UNL A   1      34.405  34.257  28.500  1.00  0.00     0.010 A 
ATOM     28  C   UNL A   1      32.957  35.842  29.615  1.00  0.00     0.001 A 
ATOM     29  C   UNL A   1      33.429  35.254  28.441  1.00  0.00     0.001 A 
BRANCH  18  30
ATOM     30  C   UNL A   1      37.204  33.393  33.419  1.00  0.00     0.053 A 
ATOM     31  C   UNL A   1      39.586  35.468  35.615  1.00  0.00     0.044 C 
ATOM     32  C   UNL A   1      38.778  34.307  35.112  1.00  0.00    -0.049 A 
ATOM     33  C   UNL A   1      38.737  33.115  35.825  1.00  0.00     0.003 A 
ATOM     34  C   UNL A   1      38.022  34.425  33.928  1.00  0.00     0.030 A 
ATOM     35  C   UNL A   1      37.971  32.062  35.344  1.00  0.00     0.002 A 
ATOM     36  C   UNL A   1      37.225  32.200  34.162  1.00  0.00     0.027 A 
ENDBRANCH  18  30
ENDBRANCH  12  17
ENDBRANCH   9  11
ENDBRANCH   8   9
ENDBRANCH   7   8
ENDBRANCH   6   7
ENDBRANCH   5   6
ENDBRANCH   4   5
ENDBRANCH   3   4
ENDBRANCH   2   3
ENDBRANCH   1   2
BRANCH   1  37
ATOM     37  C   UNL A   1      37.222  21.700  24.825  1.00  0.00     0.188 C 
BRANCH  37  38
ATOM     38  O   UNL A   1      37.662  22.278  26.054  1.00  0.00    -0.376 OA
BRANCH  38  39
ATOM     39  C   UNL A   1      38.051  23.642  26.042  1.00  0.00     0.202 C 
BRANCH  39  40
ATOM     40  C   UNL A   1      38.846  24.102  27.274  1.00  0.00     0.261 C 
BRANCH  40  41
ATOM     41  O   UNL A   1      40.197  24.427  26.895  1.00  0.00    -0.460 OA
BRANCH  41  42
ATOM     42  C   UNL A   1      41.136  23.532  27.315  1.00  0.00     0.338 C 
ATOM     43  O   UNL A   1      41.204  22.370  26.959  1.00  0.00    -0.246 OA
BRANCH  42  44
ATOM     44  C   UNL A   1      41.948  24.145  28.405  1.00  0.00     0.060 A 
ATOM     45  C   UNL A   1      42.277  25.509  28.346  1.00  0.00     0.016 A 
ATOM     46  C   UNL A   1      42.609  23.313  29.304  1.00  0.00     0.016 A 
ATOM     47  C   UNL A   1      43.388  25.996  29.058  1.00  0.00     0.010 A 
ATOM     48  C   UNL A   1      43.741  23.784  29.944  1.00  0.00     0.010 A 
ATOM     49  C   UNL A   1      44.188  25.107  29.785  1.00  0.00    -0.014 A 
BRANCH  49  50
ATOM     50  C   UNL A   1      45.605  25.351  30.152  1.00  0.00     0.031 A 
ATOM     51  C   UNL A   1      46.717  25.056  29.184  1.00  0.00     0.074 A 
ATOM     52  C   UNL A   1      45.850  26.185  31.199  1.00  0.00     0.049 A 
ATOM     53  N   UNL A   1      47.968  25.299  29.394  1.00  0.00    -0.248 NA
ATOM     54  C   UNL A   1      46.517  24.433  27.873  1.00  0.00     0.031 C 
ATOM     55  C   UNL A   1      46.990  27.089  31.352  1.00  0.00     0.029 A 
ATOM     56  N   UNL A   1      45.105  26.440  32.349  1.00  0.00    -0.354 N 
ATOM     57  C   UNL A   1      48.628  25.277  28.178  1.00  0.00     0.074 A 
ATOM     58  C   UNL A   1      47.717  24.589  27.301  1.00  0.00     0.031 C 
ATOM     59  C   UNL A   1      46.911  27.760  32.509  1.00  0.00     0.029 A 
ATOM     60  C   UNL A   1      45.922  27.079  33.299  1.00  0.00     0.049 A 
ATOM     61  H   UNL A   1      44.157  26.210  32.476  1.00  0.00     0.167 HD
ATOM     62  C   UNL A   1      49.785  25.998  28.024  1.00  0.00     0.034 A 
ATOM     63  C   UNL A   1      46.244  26.435  34.464  1.00  0.00     0.034 A 
ATOM     64  C   UNL A   1      50.305  26.493  29.315  1.00  0.00     0.049 A 
ATOM     65  C   UNL A   1      47.702  25.986  34.501  1.00  0.00     0.074 A 
ATOM     66  C   UNL A   1      50.787  27.707  29.776  1.00  0.00     0.029 A 
ATOM     67  N   UNL A   1      50.260  25.665  30.437  1.00  0.00    -0.354 N 
ATOM     68  N   UNL A   1      48.473  25.979  33.440  1.00  0.00    -0.248 NA
ATOM     69  C   UNL A   1      48.448  25.597  35.694  1.00  0.00     0.031 C 
ATOM     70  C   UNL A   1      50.870  27.643  31.199  1.00  0.00     0.029 A 
ATOM     71  C   UNL A   1      50.566  26.349  31.591  1.00  0.00     0.049 A 
ATOM     72  H   UNL A   1      50.036  24.707  30.407  1.00  0.00     0.167 HD
ATOM     73  C   UNL A   1      49.758  25.650  33.764  1.00  0.00     0.074 A 
ATOM     74  C   UNL A   1      49.686  25.401  35.194  1.00  0.00     0.031 C 
ATOM     75  C   UNL A   1      50.764  25.616  32.834  1.00  0.00     0.034 A 
BRANCH  62  76
ATOM     76  C   UNL A   1      50.370  26.471  26.682  1.00  0.00     0.023 A 
ATOM     77  C   UNL A   1      49.516  26.642  25.561  1.00  0.00     0.031 A 
ATOM     78  C   UNL A   1      51.745  26.632  26.394  1.00  0.00     0.131 A 
ATOM     79  C   UNL A   1      50.020  26.919  24.268  1.00  0.00     0.055 A 
ATOM     80  C   UNL A   1      52.239  26.986  25.127  1.00  0.00     0.041 A 
ATOM     81  F   UNL A   1      52.701  26.393  27.301  1.00  0.00    -0.206 F 
ATOM     82  C   UNL A   1      51.379  27.119  24.052  1.00  0.00     0.022 A 
BRANCH  79  83
ATOM     83  S   UNL A   1      48.892  26.991  22.840  1.00  0.00     0.124 S 
ATOM     84  O   UNL A   1      48.211  25.703  22.911  1.00  0.00    -0.237 OA
ATOM     85  O   UNL A   1      48.081  28.168  23.134  1.00  0.00    -0.237 OA
ATOM     86  O   UNL A   1      49.797  27.145  21.700  1.00  0.00    -0.744 OA
ENDBRANCH  79  83
ENDBRANCH  62  76
BRANCH  63  87
ATOM     87  C   UNL A   1      45.002  25.911  35.119  1.00  0.00     0.023 A 
ATOM     88  C   UNL A   1      44.268  26.921  35.793  1.00  0.00     0.031 A 
ATOM     89  C   UNL A   1      44.272  24.865  34.529  1.00  0.00     0.131 A 
ATOM     90  C   UNL A   1      42.885  27.038  35.587  1.00  0.00     0.055 A 
ATOM     91  C   UNL A   1      42.874  24.938  34.410  1.00  0.00     0.041 A 
ATOM     92  F   UNL A   1      44.903  23.870  33.888  1.00  0.00    -0.206 F 
ATOM     93  C   UNL A   1      42.185  26.062  34.872  1.00  0.00     0.022 A 
BRANCH  90  94
ATOM     94  S   UNL A   1      42.066  28.636  35.924  1.00  0.00     0.124 S 
ATOM     95  O   UNL A   1      40.839  28.217  36.590  1.00  0.00    -0.237 OA
ATOM     96  O   UNL A   1      43.030  29.344  36.764  1.00  0.00    -0.237 OA
ATOM     97  O   UNL A   1      41.911  29.199  34.584  1.00  0.00    -0.744 OA
ENDBRANCH  90  94
ENDBRANCH  63  87
BRANCH  75  98
ATOM     98  C   UNL A   1      52.086  24.889  32.985  1.00  0.00     0.023 A 
ATOM     99  C   UNL A   1      52.181  23.496  32.983  1.00  0.00     0.031 A 
ATOM    100  C   UNL A   1      53.325  25.588  32.960  1.00  0.00     0.131 A 
ATOM    101  C   UNL A   1      53.431  22.856  33.016  1.00  0.00     0.055 A 
ATOM    102  C   UNL A   1      54.565  24.949  32.906  1.00  0.00     0.041 A 
ATOM    103  F   UNL A   1      53.397  26.926  32.958  1.00  0.00    -0.206 F 
ATOM    104  C   UNL A   1      54.625  23.569  32.945  1.00  0.00     0.022 A 
BRANCH 101 105
ATOM    105  S   UNL A   1      53.449  21.060  33.205  1.00  0.00     0.124 S 
ATOM    106  O   UNL A   1      53.878  20.627  31.878  1.00  0.00    -0.237 OA
ATOM    107  O   UNL A   1      54.419  20.866  34.277  1.00  0.00    -0.237 OA
ATOM    108  O   UNL A   1      52.067  20.735  33.548  1.00  0.00    -0.744 OA
ENDBRANCH 101 105
ENDBRANCH  75  98
ENDBRANCH  49  50
ENDBRANCH  42  44
ENDBRANCH  41  42
ENDBRANCH  40  41
ENDBRANCH  39  40
ENDBRANCH  38  39
ENDBRANCH  37  38
ENDBRANCH   1  37
TORSDOF 25
ENDMDL
