MODEL 1
REMARK VINA RESULT:      -8.1      0.000      0.000
REMARK SMILES O=C(OCCOCCOCCOCCOC(=O)c1ccc(-c2c3nc(c(-c4cc(S(=O)(=O)[O-])ccc4F)c4ccc([nH]4)c(-c4cc(S(=O)(=O)[O-])ccc4F)c4nc(c(-c5cc(S(=O)(=O)[O-])ccc5F)c5ccc2[nH]5)C=C4)C=C3)cc1)C1=Cc2cc(S(F)(F)(F)(F)F)ccc2O[C@@H]1C(F)(F)F
REMARK SMILES IDX 10 1 9 2 8 3 7 4 6 5 5 6 4 7 3 8 2 9 1 10 81 11 82 12 96 13
REMARK SMILES IDX 83 14 95 15 84 16 94 17 85 18 93 19 92 20 97 21 98 22 99 23
REMARK SMILES IDX 100 24 86 25 87 26 88 27 89 28 90 29 91 30 11 31 12 32 13 33
REMARK SMILES IDX 14 34 15 35 16 36 17 37 18 38 19 39 80 40 20 41 79 42 21 43
REMARK SMILES IDX 22 44 23 45 73 46 24 47 78 48 72 49 74 50 25 51 77 52 71 53
REMARK SMILES IDX 70 54 26 56 58 57 38 58 57 59 39 60 42 61 56 62 75 63 40 64
REMARK SMILES IDX 41 65 55 67 76 68 43 69 27 70 28 71 36 72 29 73 35 74 37 75
REMARK SMILES IDX 34 76 30 77 31 78 32 79 33 80 59 81 60 82 68 83 61 84 67 85
REMARK SMILES IDX 69 86 66 87 62 88 63 89 64 90 65 91 44 92 45 93 53 94 46 95
REMARK SMILES IDX 52 96 54 97 51 98 47 99 48 100 49 101 50 102
REMARK H PARENT 74 55 42 66
REMARK Flexibility Score: inf
ROOT
ATOM      1  C   UNL A   1      36.879  32.444  30.556  1.00  0.00     0.188 C 
ENDROOT
BRANCH   1   2
ATOM      2  O   UNL A   1      35.822  31.529  30.305  1.00  0.00    -0.377 OA
BRANCH   2   3
ATOM      3  C   UNL A   1      35.073  31.968  29.182  1.00  0.00     0.188 C 
BRANCH   3   4
ATOM      4  C   UNL A   1      35.323  31.034  28.010  1.00  0.00     0.188 C 
BRANCH   4   5
ATOM      5  O   UNL A   1      36.021  29.883  28.463  1.00  0.00    -0.376 OA
BRANCH   5   6
ATOM      6  C   UNL A   1      37.246  29.763  27.754  1.00  0.00     0.202 C 
BRANCH   6   7
ATOM      7  C   UNL A   1      38.294  29.133  28.656  1.00  0.00     0.261 C 
BRANCH   7   8
ATOM      8  O   UNL A   1      38.623  27.840  28.169  1.00  0.00    -0.460 OA
BRANCH   8   9
ATOM      9  C   UNL A   1      39.498  27.003  28.910  1.00  0.00     0.338 C 
ATOM     10  O   UNL A   1      39.034  26.246  29.820  1.00  0.00    -0.246 OA
BRANCH   9  11
ATOM     11  C   UNL A   1      40.989  27.013  28.617  1.00  0.00     0.087 C 
ATOM     12  C   UNL A   1      41.579  25.924  28.055  1.00  0.00     0.027 C 
ATOM     13  C   UNL A   1      41.821  28.240  28.953  1.00  0.00     0.316 C 
ATOM     14  C   UNL A   1      40.746  24.698  27.719  1.00  0.00     0.019 A 
ATOM     15  O   UNL A   1      39.040  26.225  27.083  1.00  0.00    -0.475 OA
ATOM     16  C   UNL A   1      41.231  23.414  27.905  1.00  0.00     0.036 A 
ATOM     17  C   UNL A   1      39.582  24.913  27.117  1.00  0.00     0.128 A 
ATOM     18  C   UNL A   1      40.545  22.427  27.159  1.00  0.00     0.107 A 
ATOM     19  C   UNL A   1      38.899  23.878  26.525  1.00  0.00     0.048 A 
ATOM     20  C   UNL A   1      39.351  22.592  26.619  1.00  0.00     0.028 A 
BRANCH  13  21
ATOM     21  C   UNL A   1      42.460  28.783  27.684  1.00  0.00     0.430 C 
ATOM     22  F   UNL A   1      41.689  28.489  26.641  1.00  0.00    -0.167 F 
ATOM     23  F   UNL A   1      42.591  30.102  27.783  1.00  0.00    -0.167 F 
ATOM     24  F   UNL A   1      43.658  28.229  27.519  1.00  0.00    -0.167 F 
ENDBRANCH  13  21
BRANCH  18  25
ATOM     25  S   UNL A   1      41.361  20.828  26.927  1.00  0.00     0.310 S 
ATOM     26  F   UNL A   1      42.664  21.309  27.693  1.00  0.00    -0.094 F 
ATOM     27  F   UNL A   1      42.014  21.389  25.607  1.00  0.00    -0.094 F 
ATOM     28  F   UNL A   1      42.061  19.455  26.723  1.00  0.00    -0.094 F 
ATOM     29  F   UNL A   1      40.812  20.332  28.322  1.00  0.00    -0.094 F 
ATOM     30  F   UNL A   1      40.736  22.253  27.204  1.00  0.00    -0.094 F 
ENDBRANCH  18  25
ENDBRANCH   9  11
ENDBRANCH   8   9
ENDBRANCH   7   8
ENDBRANCH   6   7
ENDBRANCH   5   6
ENDBRANCH   4   5
ENDBRANCH   3   4
ENDBRANCH   2   3
ENDBRANCH   1   2
BRANCH   1  31
ATOM     31  C   UNL A   1      36.674  33.094  31.916  1.00  0.00     0.188 C 
BRANCH  31  32
ATOM     32  O   UNL A   1      37.905  33.640  32.368  1.00  0.00    -0.376 OA
BRANCH  32  33
ATOM     33  C   UNL A   1      37.989  33.514  33.779  1.00  0.00     0.202 C 
BRANCH  33  34
ATOM     34  C   UNL A   1      37.277  32.245  34.218  1.00  0.00     0.261 C 
BRANCH  34  35
ATOM     35  O   UNL A   1      38.235  31.284  34.632  1.00  0.00    -0.460 OA
BRANCH  35  36
ATOM     36  C   UNL A   1      38.756  30.352  33.697  1.00  0.00     0.338 C 
ATOM     37  O   UNL A   1      38.186  29.227  33.536  1.00  0.00    -0.246 OA
BRANCH  36  38
ATOM     38  C   UNL A   1      39.995  30.699  32.886  1.00  0.00     0.060 A 
ATOM     39  C   UNL A   1      41.093  31.288  33.489  1.00  0.00     0.016 A 
ATOM     40  C   UNL A   1      39.916  30.575  31.565  1.00  0.00     0.016 A 
ATOM     41  C   UNL A   1      41.937  31.982  32.590  1.00  0.00     0.010 A 
ATOM     42  C   UNL A   1      40.852  31.166  30.752  1.00  0.00     0.010 A 
ATOM     43  C   UNL A   1      41.934  31.816  31.279  1.00  0.00    -0.014 A 
BRANCH  43  44
ATOM     44  C   UNL A   1      43.070  32.320  30.405  1.00  0.00     0.031 A 
ATOM     45  C   UNL A   1      42.957  33.646  29.983  1.00  0.00     0.074 A 
ATOM     46  C   UNL A   1      44.191  31.534  30.197  1.00  0.00     0.049 A 
ATOM     47  N   UNL A   1      43.878  34.382  29.359  1.00  0.00    -0.248 NA
ATOM     48  C   UNL A   1      41.755  34.471  30.172  1.00  0.00     0.031 C 
ATOM     49  C   UNL A   1      44.316  30.199  30.627  1.00  0.00     0.029 A 
ATOM     50  N   UNL A   1      45.359  31.881  29.556  1.00  0.00    -0.354 N 
ATOM     51  C   UNL A   1      43.410  35.612  29.135  1.00  0.00     0.074 A 
ATOM     52  C   UNL A   1      42.035  35.685  29.649  1.00  0.00     0.031 C 
ATOM     53  C   UNL A   1      45.536  29.744  30.241  1.00  0.00     0.029 A 
ATOM     54  C   UNL A   1      46.196  30.787  29.564  1.00  0.00     0.049 A 
ATOM     55  H   UNL A   1      45.561  32.760  29.161  1.00  0.00     0.167 HD
ATOM     56  C   UNL A   1      44.076  36.675  28.523  1.00  0.00     0.034 A 
ATOM     57  C   UNL A   1      47.464  30.685  29.014  1.00  0.00     0.034 A 
ATOM     58  C   UNL A   1      45.361  36.585  28.013  1.00  0.00     0.049 A 
ATOM     59  C   UNL A   1      48.109  31.731  28.351  1.00  0.00     0.074 A 
ATOM     60  C   UNL A   1      46.050  37.650  27.400  1.00  0.00     0.029 A 
ATOM     61  N   UNL A   1      46.188  35.484  27.998  1.00  0.00    -0.354 N 
ATOM     62  N   UNL A   1      47.656  32.971  28.161  1.00  0.00    -0.248 NA
ATOM     63  C   UNL A   1      49.439  31.624  27.737  1.00  0.00     0.031 C 
ATOM     64  C   UNL A   1      47.272  37.195  27.014  1.00  0.00     0.029 A 
ATOM     65  C   UNL A   1      47.365  35.838  27.378  1.00  0.00     0.049 A 
ATOM     66  H   UNL A   1      45.975  34.597  28.368  1.00  0.00     0.167 HD
ATOM     67  C   UNL A   1      48.562  33.696  27.501  1.00  0.00     0.074 A 
ATOM     68  C   UNL A   1      49.718  32.838  27.212  1.00  0.00     0.031 C 
ATOM     69  C   UNL A   1      48.471  35.038  27.131  1.00  0.00     0.034 A 
BRANCH  56  70
ATOM     70  C   UNL A   1      43.351  38.006  28.411  1.00  0.00     0.023 A 
ATOM     71  C   UNL A   1      43.474  38.970  29.398  1.00  0.00     0.031 A 
ATOM     72  C   UNL A   1      42.584  38.205  27.345  1.00  0.00     0.131 A 
ATOM     73  C   UNL A   1      42.512  40.006  29.311  1.00  0.00     0.055 A 
ATOM     74  C   UNL A   1      41.769  39.309  27.267  1.00  0.00     0.041 A 
ATOM     75  F   UNL A   1      42.605  37.328  26.346  1.00  0.00    -0.206 F 
ATOM     76  C   UNL A   1      41.796  40.273  28.235  1.00  0.00     0.022 A 
BRANCH  73  77
ATOM     77  S   UNL A   1      42.247  41.032  30.777  1.00  0.00     0.124 S 
ATOM     78  O   UNL A   1      40.754  41.328  30.930  1.00  0.00    -0.237 OA
ATOM     79  O   UNL A   1      42.750  40.290  32.018  1.00  0.00    -0.237 OA
ATOM     80  O   UNL A   1      43.104  42.502  30.607  1.00  0.00    -0.744 OA
ENDBRANCH  73  77
ENDBRANCH  56  70
BRANCH  57  81
ATOM     81  C   UNL A   1      48.196  29.358  29.142  1.00  0.00     0.023 A 
ATOM     82  C   UNL A   1      48.099  28.457  28.095  1.00  0.00     0.031 A 
ATOM     83  C   UNL A   1      48.911  29.081  30.227  1.00  0.00     0.131 A 
ATOM     84  C   UNL A   1      48.562  27.158  28.413  1.00  0.00     0.055 A 
ATOM     85  C   UNL A   1      49.450  27.830  30.407  1.00  0.00     0.041 A 
ATOM     86  F   UNL A   1      49.107  30.023  31.145  1.00  0.00    -0.206 F 
ATOM     87  C   UNL A   1      49.341  26.871  29.438  1.00  0.00     0.022 A 
BRANCH  84  88
ATOM     88  S   UNL A   1      48.052  25.796  27.335  1.00  0.00     0.124 S 
ATOM     89  O   UNL A   1      46.615  25.391  27.671  1.00  0.00    -0.237 OA
ATOM     90  O   UNL A   1      48.127  26.246  25.874  1.00  0.00    -0.237 OA
ATOM     91  O   UNL A   1      49.092  24.460  27.574  1.00  0.00    -0.744 OA
ENDBRANCH  84  88
ENDBRANCH  57  81
BRANCH  69  92
ATOM     92  C   UNL A   1      49.657  35.663  26.413  1.00  0.00     0.023 A 
ATOM     93  C   UNL A   1      50.659  36.308  27.118  1.00  0.00     0.031 A 
ATOM     94  C   UNL A   1      49.637  35.665  25.085  1.00  0.00     0.131 A 
ATOM     95  C   UNL A   1      51.445  37.181  26.328  1.00  0.00     0.055 A 
ATOM     96  C   UNL A   1      50.523  36.437  24.374  1.00  0.00     0.041 A 
ATOM     97  F   UNL A   1      48.751  34.913  24.438  1.00  0.00    -0.206 F 
ATOM     98  C   UNL A   1      51.503  37.148  25.009  1.00  0.00     0.022 A 
BRANCH  95  99
ATOM     99  S   UNL A   1      52.439  38.427  27.185  1.00  0.00     0.124 S 
ATOM    100  O   UNL A   1      53.351  37.740  28.205  1.00  0.00    -0.237 OA
ATOM    101  O   UNL A   1      53.294  39.186  26.167  1.00  0.00    -0.237 OA
ATOM    102  O   UNL A   1      51.405  39.524  27.992  1.00  0.00    -0.744 OA
ENDBRANCH  95  99
ENDBRANCH  69  92
ENDBRANCH  43  44
ENDBRANCH  36  38
ENDBRANCH  35  36
ENDBRANCH  34  35
ENDBRANCH  33  34
ENDBRANCH  32  33
ENDBRANCH  31  32
ENDBRANCH   1  31
TORSDOF 25
ENDMDL
MODEL 2
REMARK VINA RESULT:      -7.9      4.561      9.723
REMARK SMILES O=C(OCCOCCOCCOCCOC(=O)c1ccc(-c2c3nc(c(-c4cc(S(=O)(=O)[O-])ccc4F)c4ccc([nH]4)c(-c4cc(S(=O)(=O)[O-])ccc4F)c4nc(c(-c5cc(S(=O)(=O)[O-])ccc5F)c5ccc2[nH]5)C=C4)C=C3)cc1)C1=Cc2cc(S(F)(F)(F)(F)F)ccc2O[C@@H]1C(F)(F)F
REMARK SMILES IDX 10 1 9 2 8 3 7 4 6 5 5 6 4 7 3 8 2 9 1 10 81 11 82 12 96 13
REMARK SMILES IDX 83 14 95 15 84 16 94 17 85 18 93 19 92 20 97 21 98 22 99 23
REMARK SMILES IDX 100 24 86 25 87 26 88 27 89 28 90 29 91 30 11 31 12 32 13 33
REMARK SMILES IDX 14 34 15 35 16 36 17 37 18 38 19 39 80 40 20 41 79 42 21 43
REMARK SMILES IDX 22 44 23 45 73 46 24 47 78 48 72 49 74 50 25 51 77 52 71 53
REMARK SMILES IDX 70 54 26 56 58 57 38 58 57 59 39 60 42 61 56 62 75 63 40 64
REMARK SMILES IDX 41 65 55 67 76 68 43 69 27 70 28 71 36 72 29 73 35 74 37 75
REMARK SMILES IDX 34 76 30 77 31 78 32 79 33 80 59 81 60 82 68 83 61 84 67 85
REMARK SMILES IDX 69 86 66 87 62 88 63 89 64 90 65 91 44 92 45 93 53 94 46 95
REMARK SMILES IDX 52 96 54 97 51 98 47 99 48 100 49 101 50 102
REMARK H PARENT 74 55 42 66
REMARK Flexibility Score: inf
ROOT
ATOM      1  C   UNL A   1      37.855  33.448  36.874  1.00  0.00     0.188 C 
ENDROOT
BRANCH   1   2
ATOM      2  O   UNL A   1      36.620  33.515  36.176  1.00  0.00    -0.377 OA
BRANCH   2   3
ATOM      3  C   UNL A   1      36.828  33.175  34.814  1.00  0.00     0.188 C 
BRANCH   3   4
ATOM      4  C   UNL A   1      37.881  34.094  34.217  1.00  0.00     0.188 C 
BRANCH   4   5
ATOM      5  O   UNL A   1      38.747  33.340  33.382  1.00  0.00    -0.376 OA
BRANCH   5   6
ATOM      6  C   UNL A   1      38.056  32.962  32.200  1.00  0.00     0.202 C 
BRANCH   6   7
ATOM      7  C   UNL A   1      38.765  31.783  31.554  1.00  0.00     0.261 C 
BRANCH   7   8
ATOM      8  O   UNL A   1      38.155  31.490  30.306  1.00  0.00    -0.460 OA
BRANCH   8   9
ATOM      9  C   UNL A   1      37.403  30.296  30.146  1.00  0.00     0.338 C 
ATOM     10  O   UNL A   1      36.414  30.061  30.908  1.00  0.00    -0.246 OA
BRANCH   9  11
ATOM     11  C   UNL A   1      37.782  29.299  29.062  1.00  0.00     0.087 C 
ATOM     12  C   UNL A   1      36.931  29.063  28.028  1.00  0.00     0.027 C 
ATOM     13  C   UNL A   1      39.112  28.568  29.134  1.00  0.00     0.316 C 
ATOM     14  C   UNL A   1      35.600  29.796  27.956  1.00  0.00     0.019 A 
ATOM     15  O   UNL A   1      36.776  31.685  28.792  1.00  0.00    -0.475 OA
ATOM     16  C   UNL A   1      34.444  29.167  27.524  1.00  0.00     0.036 A 
ATOM     17  C   UNL A   1      35.624  31.101  28.201  1.00  0.00     0.128 A 
ATOM     18  C   UNL A   1      33.430  30.058  27.102  1.00  0.00     0.107 A 
ATOM     19  C   UNL A   1      34.545  31.891  27.887  1.00  0.00     0.048 A 
ATOM     20  C   UNL A   1      33.389  31.344  27.402  1.00  0.00     0.028 A 
BRANCH  13  21
ATOM     21  C   UNL A   1      39.936  28.890  27.899  1.00  0.00     0.430 C 
ATOM     22  F   UNL A   1      41.166  29.240  28.267  1.00  0.00    -0.167 F 
ATOM     23  F   UNL A   1      39.996  27.819  27.113  1.00  0.00    -0.167 F 
ATOM     24  F   UNL A   1      39.369  29.895  27.237  1.00  0.00    -0.167 F 
ENDBRANCH  13  21
BRANCH  18  25
ATOM     25  S   UNL A   1      32.094  29.389  26.079  1.00  0.00     0.310 S 
ATOM     26  F   UNL A   1      31.338  30.783  26.042  1.00  0.00    -0.094 F 
ATOM     27  F   UNL A   1      31.291  29.067  27.396  1.00  0.00    -0.094 F 
ATOM     28  F   UNL A   1      30.947  28.812  25.204  1.00  0.00    -0.094 F 
ATOM     29  F   UNL A   1      32.851  29.847  24.771  1.00  0.00    -0.094 F 
ATOM     30  F   UNL A   1      33.216  30.082  26.952  1.00  0.00    -0.094 F 
ENDBRANCH  18  25
ENDBRANCH   9  11
ENDBRANCH   8   9
ENDBRANCH   7   8
ENDBRANCH   6   7
ENDBRANCH   5   6
ENDBRANCH   4   5
ENDBRANCH   3   4
ENDBRANCH   2   3
ENDBRANCH   1   2
BRANCH   1  31
ATOM     31  C   UNL A   1      37.709  32.527  38.075  1.00  0.00     0.188 C 
BRANCH  31  32
ATOM     32  O   UNL A   1      38.927  32.507  38.805  1.00  0.00    -0.376 OA
BRANCH  32  33
ATOM     33  C   UNL A   1      39.114  33.758  39.450  1.00  0.00     0.202 C 
BRANCH  33  34
ATOM     34  C   UNL A   1      40.563  34.192  39.304  1.00  0.00     0.261 C 
BRANCH  34  35
ATOM     35  O   UNL A   1      40.613  35.567  38.955  1.00  0.00    -0.460 OA
BRANCH  35  36
ATOM     36  C   UNL A   1      41.692  36.064  38.178  1.00  0.00     0.338 C 
ATOM     37  O   UNL A   1      42.279  37.138  38.522  1.00  0.00    -0.246 OA
BRANCH  36  38
ATOM     38  C   UNL A   1      42.147  35.313  36.938  1.00  0.00     0.060 A 
ATOM     39  C   UNL A   1      41.235  34.921  35.974  1.00  0.00     0.016 A 
ATOM     40  C   UNL A   1      43.410  34.902  36.900  1.00  0.00     0.016 A 
ATOM     41  C   UNL A   1      41.682  33.852  35.161  1.00  0.00     0.010 A 
ATOM     42  C   UNL A   1      43.809  33.954  35.990  1.00  0.00     0.010 A 
ATOM     43  C   UNL A   1      42.944  33.478  35.044  1.00  0.00    -0.014 A 
BRANCH  43  44
ATOM     44  C   UNL A   1      43.408  32.567  33.920  1.00  0.00     0.031 A 
ATOM     45  C   UNL A   1      43.373  31.200  34.204  1.00  0.00     0.074 A 
ATOM     46  C   UNL A   1      43.689  33.090  32.669  1.00  0.00     0.049 A 
ATOM     47  N   UNL A   1      43.561  30.187  33.356  1.00  0.00    -0.248 NA
ATOM     48  C   UNL A   1      43.110  30.643  35.540  1.00  0.00     0.031 C 
ATOM     49  C   UNL A   1      43.717  34.466  32.373  1.00  0.00     0.029 A 
ATOM     50  N   UNL A   1      43.984  32.404  31.512  1.00  0.00    -0.354 N 
ATOM     51  C   UNL A   1      43.431  29.023  33.994  1.00  0.00     0.074 A 
ATOM     52  C   UNL A   1      43.145  29.298  35.409  1.00  0.00     0.031 C 
ATOM     53  C   UNL A   1      44.037  34.608  31.060  1.00  0.00     0.029 A 
ATOM     54  C   UNL A   1      44.212  33.323  30.512  1.00  0.00     0.049 A 
ATOM     55  H   UNL A   1      44.025  31.424  31.418  1.00  0.00     0.167 HD
ATOM     56  C   UNL A   1      43.538  27.741  33.451  1.00  0.00     0.034 A 
ATOM     57  C   UNL A   1      44.558  33.074  29.194  1.00  0.00     0.034 A 
ATOM     58  C   UNL A   1      43.840  27.492  32.122  1.00  0.00     0.049 A 
ATOM     59  C   UNL A   1      44.721  31.792  28.663  1.00  0.00     0.074 A 
ATOM     60  C   UNL A   1      43.943  26.207  31.557  1.00  0.00     0.029 A 
ATOM     61  N   UNL A   1      44.092  28.412  31.128  1.00  0.00    -0.354 N 
ATOM     62  N   UNL A   1      44.553  30.628  29.292  1.00  0.00    -0.248 NA
ATOM     63  C   UNL A   1      45.118  31.517  27.276  1.00  0.00     0.031 C 
ATOM     64  C   UNL A   1      44.263  26.348  30.243  1.00  0.00     0.029 A 
ATOM     65  C   UNL A   1      44.365  27.725  29.966  1.00  0.00     0.049 A 
ATOM     66  H   UNL A   1      44.080  29.391  31.230  1.00  0.00     0.167 HD
ATOM     67  C   UNL A   1      44.781  29.615  28.452  1.00  0.00     0.074 A 
ATOM     68  C   UNL A   1      45.155  30.172  27.146  1.00  0.00     0.031 C 
ATOM     69  C   UNL A   1      44.689  28.249  28.724  1.00  0.00     0.034 A 
BRANCH  56  70
ATOM     70  C   UNL A   1      43.310  26.551  34.370  1.00  0.00     0.023 A 
ATOM     71  C   UNL A   1      44.378  25.831  34.880  1.00  0.00     0.031 A 
ATOM     72  C   UNL A   1      42.056  26.218  34.651  1.00  0.00     0.131 A 
ATOM     73  C   UNL A   1      44.010  24.588  35.450  1.00  0.00     0.055 A 
ATOM     74  C   UNL A   1      41.777  25.056  35.330  1.00  0.00     0.041 A 
ATOM     75  F   UNL A   1      41.061  27.016  34.272  1.00  0.00    -0.206 F 
ATOM     76  C   UNL A   1      42.782  24.265  35.812  1.00  0.00     0.022 A 
BRANCH  73  77
ATOM     77  S   UNL A   1      45.313  23.358  35.698  1.00  0.00     0.124 S 
ATOM     78  O   UNL A   1      44.960  22.079  34.936  1.00  0.00    -0.237 OA
ATOM     79  O   UNL A   1      46.642  23.911  35.178  1.00  0.00    -0.237 OA
ATOM     80  O   UNL A   1      45.456  23.007  37.366  1.00  0.00    -0.744 OA
ENDBRANCH  73  77
ENDBRANCH  56  70
BRANCH  57  81
ATOM     81  C   UNL A   1      44.768  34.263  28.271  1.00  0.00     0.023 A 
ATOM     82  C   UNL A   1      46.068  34.651  27.994  1.00  0.00     0.031 A 
ATOM     83  C   UNL A   1      43.731  34.905  27.744  1.00  0.00     0.131 A 
ATOM     84  C   UNL A   1      46.169  35.918  27.372  1.00  0.00     0.055 A 
ATOM     85  C   UNL A   1      43.915  36.064  27.031  1.00  0.00     0.041 A 
ATOM     86  F   UNL A   1      42.504  34.418  27.907  1.00  0.00    -0.206 F 
ATOM     87  C   UNL A   1      45.171  36.538  26.771  1.00  0.00     0.022 A 
BRANCH  84  88
ATOM     88  S   UNL A   1      47.779  36.745  27.403  1.00  0.00     0.124 S 
ATOM     89  O   UNL A   1      48.689  36.051  28.418  1.00  0.00    -0.237 OA
ATOM     90  O   UNL A   1      48.416  36.674  26.013  1.00  0.00    -0.237 OA
ATOM     91  O   UNL A   1      47.569  38.383  27.850  1.00  0.00    -0.744 OA
ENDBRANCH  84  88
ENDBRANCH  57  81
BRANCH  69  92
ATOM     92  C   UNL A   1      44.959  27.276  27.587  1.00  0.00     0.023 A 
ATOM     93  C   UNL A   1      46.254  26.944  27.223  1.00  0.00     0.031 A 
ATOM     94  C   UNL A   1      43.916  26.849  26.886  1.00  0.00     0.131 A 
ATOM     95  C   UNL A   1      46.360  26.389  25.926  1.00  0.00     0.055 A 
ATOM     96  C   UNL A   1      44.096  26.194  25.692  1.00  0.00     0.041 A 
ATOM     97  F   UNL A   1      42.684  27.058  27.343  1.00  0.00    -0.206 F 
ATOM     98  C   UNL A   1      45.350  25.885  25.242  1.00  0.00     0.022 A 
BRANCH  95  99
ATOM     99  S   UNL A   1      47.996  26.370  25.150  1.00  0.00     0.124 S 
ATOM    100  O   UNL A   1      49.004  25.720  26.102  1.00  0.00    -0.237 OA
ATOM    101  O   UNL A   1      47.933  25.568  23.848  1.00  0.00    -0.237 OA
ATOM    102  O   UNL A   1      48.484  27.973  24.810  1.00  0.00    -0.744 OA
ENDBRANCH  95  99
ENDBRANCH  69  92
ENDBRANCH  43  44
ENDBRANCH  36  38
ENDBRANCH  35  36
ENDBRANCH  34  35
ENDBRANCH  33  34
ENDBRANCH  32  33
ENDBRANCH  31  32
ENDBRANCH   1  31
TORSDOF 25
ENDMDL
MODEL 3
REMARK VINA RESULT:      -7.9      3.471     11.211
REMARK SMILES O=C(OCCOCCOCCOCCOC(=O)c1ccc(-c2c3nc(c(-c4cc(S(=O)(=O)[O-])ccc4F)c4ccc([nH]4)c(-c4cc(S(=O)(=O)[O-])ccc4F)c4nc(c(-c5cc(S(=O)(=O)[O-])ccc5F)c5ccc2[nH]5)C=C4)C=C3)cc1)C1=Cc2cc(S(F)(F)(F)(F)F)ccc2O[C@@H]1C(F)(F)F
REMARK SMILES IDX 10 1 9 2 8 3 7 4 6 5 5 6 4 7 3 8 2 9 1 10 81 11 82 12 96 13
REMARK SMILES IDX 83 14 95 15 84 16 94 17 85 18 93 19 92 20 97 21 98 22 99 23
REMARK SMILES IDX 100 24 86 25 87 26 88 27 89 28 90 29 91 30 11 31 12 32 13 33
REMARK SMILES IDX 14 34 15 35 16 36 17 37 18 38 19 39 80 40 20 41 79 42 21 43
REMARK SMILES IDX 22 44 23 45 73 46 24 47 78 48 72 49 74 50 25 51 77 52 71 53
REMARK SMILES IDX 70 54 26 56 58 57 38 58 57 59 39 60 42 61 56 62 75 63 40 64
REMARK SMILES IDX 41 65 55 67 76 68 43 69 27 70 28 71 36 72 29 73 35 74 37 75
REMARK SMILES IDX 34 76 30 77 31 78 32 79 33 80 59 81 60 82 68 83 61 84 67 85
REMARK SMILES IDX 69 86 66 87 62 88 63 89 64 90 65 91 44 92 45 93 53 94 46 95
REMARK SMILES IDX 52 96 54 97 51 98 47 99 48 100 49 101 50 102
REMARK H PARENT 74 55 42 66
REMARK Flexibility Score: inf
ROOT
ATOM      1  C   UNL A   1      46.199  42.958  29.033  1.00  0.00     0.188 C 
ENDROOT
BRANCH   1   2
ATOM      2  O   UNL A   1      47.157  42.990  30.081  1.00  0.00    -0.377 OA
BRANCH   2   3
ATOM      3  C   UNL A   1      47.934  41.802  30.047  1.00  0.00     0.188 C 
BRANCH   3   4
ATOM      4  C   UNL A   1      47.814  41.157  28.676  1.00  0.00     0.188 C 
BRANCH   4   5
ATOM      5  O   UNL A   1      48.203  39.794  28.760  1.00  0.00    -0.376 OA
BRANCH   5   6
ATOM      6  C   UNL A   1      47.377  39.121  29.699  1.00  0.00     0.202 C 
BRANCH   6   7
ATOM      7  C   UNL A   1      47.595  37.622  29.583  1.00  0.00     0.261 C 
BRANCH   7   8
ATOM      8  O   UNL A   1      46.435  37.016  29.031  1.00  0.00    -0.460 OA
BRANCH   8   9
ATOM      9  C   UNL A   1      46.554  36.134  27.925  1.00  0.00     0.338 C 
ATOM     10  O   UNL A   1      47.680  35.973  27.358  1.00  0.00    -0.246 OA
BRANCH   9  11
ATOM     11  C   UNL A   1      45.333  35.383  27.417  1.00  0.00     0.087 C 
ATOM     12  C   UNL A   1      44.261  36.071  26.941  1.00  0.00     0.027 C 
ATOM     13  C   UNL A   1      45.311  33.864  27.442  1.00  0.00     0.316 C 
ATOM     14  C   UNL A   1      44.284  37.591  26.915  1.00  0.00     0.019 A 
ATOM     15  O   UNL A   1      46.576  37.389  26.320  1.00  0.00    -0.475 OA
ATOM     16  C   UNL A   1      43.160  38.342  27.215  1.00  0.00     0.036 A 
ATOM     17  C   UNL A   1      45.395  38.164  26.466  1.00  0.00     0.128 A 
ATOM     18  C   UNL A   1      43.211  39.671  26.731  1.00  0.00     0.107 A 
ATOM     19  C   UNL A   1      45.411  39.499  26.140  1.00  0.00     0.048 A 
ATOM     20  C   UNL A   1      44.316  40.289  26.355  1.00  0.00     0.028 A 
BRANCH  13  21
ATOM     21  C   UNL A   1      45.135  33.335  26.028  1.00  0.00     0.430 C 
ATOM     22  F   UNL A   1      43.848  33.080  25.808  1.00  0.00    -0.167 F 
ATOM     23  F   UNL A   1      45.562  34.245  25.158  1.00  0.00    -0.167 F 
ATOM     24  F   UNL A   1      45.839  32.216  25.883  1.00  0.00    -0.167 F 
ENDBRANCH  13  21
BRANCH  18  25
ATOM     25  S   UNL A   1      41.654  40.587  26.620  1.00  0.00     0.310 S 
ATOM     26  F   UNL A   1      40.848  39.292  26.187  1.00  0.00    -0.094 F 
ATOM     27  F   UNL A   1      41.945  40.833  25.091  1.00  0.00    -0.094 F 
ATOM     28  F   UNL A   1      40.319  41.377  26.521  1.00  0.00    -0.094 F 
ATOM     29  F   UNL A   1      41.313  40.212  28.116  1.00  0.00    -0.094 F 
ATOM     30  F   UNL A   1      42.951  39.687  26.706  1.00  0.00    -0.094 F 
ENDBRANCH  18  25
ENDBRANCH   9  11
ENDBRANCH   8   9
ENDBRANCH   7   8
ENDBRANCH   6   7
ENDBRANCH   5   6
ENDBRANCH   4   5
ENDBRANCH   3   4
ENDBRANCH   2   3
ENDBRANCH   1   2
BRANCH   1  31
ATOM     31  C   UNL A   1      44.880  43.525  29.534  1.00  0.00     0.188 C 
BRANCH  31  32
ATOM     32  O   UNL A   1      43.961  42.463  29.746  1.00  0.00    -0.376 OA
BRANCH  32  33
ATOM     33  C   UNL A   1      43.177  42.738  30.898  1.00  0.00     0.202 C 
BRANCH  33  34
ATOM     34  C   UNL A   1      43.964  42.369  32.145  1.00  0.00     0.261 C 
BRANCH  34  35
ATOM     35  O   UNL A   1      44.382  41.016  32.058  1.00  0.00    -0.460 OA
BRANCH  35  36
ATOM     36  C   UNL A   1      43.582  39.988  32.624  1.00  0.00     0.338 C 
ATOM     37  O   UNL A   1      42.638  40.285  33.422  1.00  0.00    -0.246 OA
BRANCH  36  38
ATOM     38  C   UNL A   1      43.854  38.534  32.275  1.00  0.00     0.060 A 
ATOM     39  C   UNL A   1      43.858  38.111  30.957  1.00  0.00     0.016 A 
ATOM     40  C   UNL A   1      43.915  37.665  33.279  1.00  0.00     0.016 A 
ATOM     41  C   UNL A   1      43.637  36.722  30.800  1.00  0.00     0.010 A 
ATOM     42  C   UNL A   1      43.828  36.315  33.040  1.00  0.00     0.010 A 
ATOM     43  C   UNL A   1      43.771  35.828  31.764  1.00  0.00    -0.014 A 
BRANCH  43  44
ATOM     44  C   UNL A   1      43.855  34.340  31.469  1.00  0.00     0.031 A 
ATOM     45  C   UNL A   1      42.631  33.669  31.419  1.00  0.00     0.074 A 
ATOM     46  C   UNL A   1      45.068  33.764  31.129  1.00  0.00     0.049 A 
ATOM     47  N   UNL A   1      42.406  32.416  31.019  1.00  0.00    -0.248 NA
ATOM     48  C   UNL A   1      41.348  34.268  31.813  1.00  0.00     0.031 C 
ATOM     49  C   UNL A   1      46.305  34.436  31.168  1.00  0.00     0.029 A 
ATOM     50  N   UNL A   1      45.302  32.476  30.702  1.00  0.00    -0.354 N 
ATOM     51  C   UNL A   1      41.104  32.137  31.095  1.00  0.00     0.074 A 
ATOM     52  C   UNL A   1      40.404  33.321  31.612  1.00  0.00     0.031 C 
ATOM     53  C   UNL A   1      47.272  33.563  30.783  1.00  0.00     0.029 A 
ATOM     54  C   UNL A   1      46.656  32.330  30.494  1.00  0.00     0.049 A 
ATOM     55  H   UNL A   1      44.618  31.779  30.568  1.00  0.00     0.167 HD
ATOM     56  C   UNL A   1      40.471  30.941  30.750  1.00  0.00     0.034 A 
ATOM     57  C   UNL A   1      47.333  31.194  30.079  1.00  0.00     0.034 A 
ATOM     58  C   UNL A   1      41.144  29.819  30.294  1.00  0.00     0.049 A 
ATOM     59  C   UNL A   1      46.707  29.980  29.790  1.00  0.00     0.074 A 
ATOM     60  C   UNL A   1      40.520  28.609  29.935  1.00  0.00     0.029 A 
ATOM     61  N   UNL A   1      42.500  29.666  30.109  1.00  0.00    -0.354 N 
ATOM     62  N   UNL A   1      45.401  29.713  29.828  1.00  0.00    -0.248 NA
ATOM     63  C   UNL A   1      47.418  28.762  29.380  1.00  0.00     0.031 C 
ATOM     64  C   UNL A   1      41.487  27.735  29.548  1.00  0.00     0.029 A 
ATOM     65  C   UNL A   1      42.731  28.385  29.661  1.00  0.00     0.049 A 
ATOM     66  H   UNL A   1      43.186  30.354  30.271  1.00  0.00     0.167 HD
ATOM     67  C   UNL A   1      45.179  28.446  29.467  1.00  0.00     0.074 A 
ATOM     68  C   UNL A   1      46.474  27.815  29.181  1.00  0.00     0.031 C 
ATOM     69  C   UNL A   1      43.950  27.795  29.361  1.00  0.00     0.034 A 
BRANCH  56  70
ATOM     70  C   UNL A   1      38.958  30.866  30.884  1.00  0.00     0.023 A 
ATOM     71  C   UNL A   1      38.131  31.272  29.849  1.00  0.00     0.031 A 
ATOM     72  C   UNL A   1      38.460  30.415  32.029  1.00  0.00     0.131 A 
ATOM     73  C   UNL A   1      36.777  31.437  30.230  1.00  0.00     0.055 A 
ATOM     74  C   UNL A   1      37.111  30.484  32.279  1.00  0.00     0.041 A 
ATOM     75  F   UNL A   1      39.274  29.893  32.942  1.00  0.00    -0.206 F 
ATOM     76  C   UNL A   1      36.240  30.930  31.324  1.00  0.00     0.022 A 
BRANCH  73  77
ATOM     77  S   UNL A   1      35.710  32.412  29.141  1.00  0.00     0.124 S 
ATOM     78  O   UNL A   1      35.604  31.723  27.779  1.00  0.00    -0.237 OA
ATOM     79  O   UNL A   1      34.317  32.528  29.764  1.00  0.00    -0.237 OA
ATOM     80  O   UNL A   1      36.377  33.974  28.940  1.00  0.00    -0.744 OA
ENDBRANCH  73  77
ENDBRANCH  56  70
BRANCH  57  81
ATOM     81  C   UNL A   1      48.843  31.276  29.929  1.00  0.00     0.023 A 
ATOM     82  C   UNL A   1      49.356  31.655  28.701  1.00  0.00     0.031 A 
ATOM     83  C   UNL A   1      49.642  30.996  30.953  1.00  0.00     0.131 A 
ATOM     84  C   UNL A   1      50.747  31.430  28.566  1.00  0.00     0.055 A 
ATOM     85  C   UNL A   1      51.003  30.927  30.779  1.00  0.00     0.041 A 
ATOM     86  F   UNL A   1      49.119  30.782  32.157  1.00  0.00    -0.206 F 
ATOM     87  C   UNL A   1      51.574  31.231  29.575  1.00  0.00     0.022 A 
BRANCH  84  88
ATOM     88  S   UNL A   1      51.440  31.415  26.893  1.00  0.00     0.124 S 
ATOM     89  O   UNL A   1      51.756  29.974  26.485  1.00  0.00    -0.237 OA
ATOM     90  O   UNL A   1      50.424  32.011  25.915  1.00  0.00    -0.237 OA
ATOM     91  O   UNL A   1      52.874  32.345  26.862  1.00  0.00    -0.744 OA
ENDBRANCH  84  88
ENDBRANCH  57  81
BRANCH  69  92
ATOM     92  C   UNL A   1      43.946  26.350  28.888  1.00  0.00     0.023 A 
ATOM     93  C   UNL A   1      43.905  26.040  27.539  1.00  0.00     0.031 A 
ATOM     94  C   UNL A   1      43.869  25.403  29.816  1.00  0.00     0.131 A 
ATOM     95  C   UNL A   1      43.487  24.716  27.268  1.00  0.00     0.055 A 
ATOM     96  C   UNL A   1      43.590  24.104  29.467  1.00  0.00     0.041 A 
ATOM     97  F   UNL A   1      44.061  25.715  31.095  1.00  0.00    -0.206 F 
ATOM     98  C   UNL A   1      43.478  23.737  28.155  1.00  0.00     0.022 A 
BRANCH  95  99
ATOM     99  S   UNL A   1      42.925  24.337  25.589  1.00  0.00     0.124 S 
ATOM    100  O   UNL A   1      42.005  25.456  25.095  1.00  0.00    -0.237 OA
ATOM    101  O   UNL A   1      44.136  24.225  24.660  1.00  0.00    -0.237 OA
ATOM    102  O   UNL A   1      42.072  22.856  25.595  1.00  0.00    -0.744 OA
ENDBRANCH  95  99
ENDBRANCH  69  92
ENDBRANCH  43  44
ENDBRANCH  36  38
ENDBRANCH  35  36
ENDBRANCH  34  35
ENDBRANCH  33  34
ENDBRANCH  32  33
ENDBRANCH  31  32
ENDBRANCH   1  31
TORSDOF 25
ENDMDL
