MODEL 1
REMARK VINA RESULT:     -10.2      0.000      0.000
REMARK SMILES O=C(NCc1ccc(C(=O)OCCOCCOCCOCCOC(=O)c2ccc(-c3c4nc(c(-c5cc(S(=O)(=O)[O-])ccc5F)c5ccc([nH]5)c(-c5cc(S(=O)(=O)[O-])ccc5F)c5nc(c(-c6cc(S(=O)(=O)[O-])ccc6F)c6ccc3[nH]6)C=C5)C=C4)cc2)o1)Nc1ccc(F)c(Cl)c1
REMARK SMILES IDX 17 1 16 2 15 3 14 4 13 5 12 6 11 7 9 8 10 9 8 10 5 11 6 12
REMARK SMILES IDX 89 13 7 14 4 15 3 16 1 17 2 18 90 19 91 22 92 23 98 24 93 25
REMARK SMILES IDX 96 26 94 27 97 28 95 29 18 30 19 31 20 32 21 33 22 34 23 35
REMARK SMILES IDX 24 36 25 37 26 38 27 39 88 40 28 41 87 42 29 43 30 44 31 45
REMARK SMILES IDX 81 46 32 47 86 48 80 49 82 50 33 51 85 52 79 53 78 54 34 56
REMARK SMILES IDX 66 57 46 58 65 59 47 60 50 61 64 62 83 63 48 64 49 65 63 67
REMARK SMILES IDX 84 68 51 69 35 70 36 71 44 72 37 73 43 74 45 75 42 76 38 77
REMARK SMILES IDX 39 78 40 79 41 80 67 81 68 82 76 83 69 84 75 85 77 86 74 87
REMARK SMILES IDX 70 88 71 89 72 90 73 91 52 92 53 93 61 94 54 95 60 96 62 97
REMARK SMILES IDX 59 98 55 99 56 100 57 101 58 102
REMARK H PARENT 3 20 90 21 82 55 50 66
REMARK Flexibility Score: inf
ROOT
ATOM      1  O   UNL A   1      33.920  26.468  25.309  1.00  0.00    -0.377 OA
ENDROOT
BRANCH   1   2
ATOM      2  C   UNL A   1      33.808  25.385  24.400  1.00  0.00     0.188 C 
BRANCH   2   3
ATOM      3  C   UNL A   1      35.059  24.491  24.405  1.00  0.00     0.188 C 
BRANCH   3   4
ATOM      4  O   UNL A   1      35.503  24.148  25.717  1.00  0.00    -0.376 OA
BRANCH   4   5
ATOM      5  C   UNL A   1      36.694  23.368  25.799  1.00  0.00     0.202 C 
BRANCH   5   6
ATOM      6  C   UNL A   1      36.531  21.852  25.595  1.00  0.00     0.261 C 
BRANCH   6   7
ATOM      7  O   UNL A   1      35.271  21.300  26.010  1.00  0.00    -0.457 OA
BRANCH   7   8
ATOM      8  C   UNL A   1      34.582  20.537  25.125  1.00  0.00     0.374 C 
ATOM      9  O   UNL A   1      34.893  19.401  24.788  1.00  0.00    -0.242 OA
BRANCH   8  10
ATOM     10  C   UNL A   1      33.358  21.226  24.791  1.00  0.00     0.211 A 
ATOM     11  C   UNL A   1      31.467  22.254  25.279  1.00  0.00     0.124 A 
ATOM     12  C   UNL A   1      31.712  22.510  23.947  1.00  0.00     0.048 A 
ATOM     13  O   UNL A   1      32.447  21.452  25.788  1.00  0.00    -0.452 OA
ATOM     14  C   UNL A   1      32.930  21.859  23.635  1.00  0.00     0.058 A 
BRANCH  11  15
ATOM     15  C   UNL A   1      30.407  22.679  26.227  1.00  0.00     0.193 C 
BRANCH  15  16
ATOM     16  N   UNL A   1      30.764  23.976  26.754  1.00  0.00    -0.331 N 
ATOM     17  O   UNL A   1      31.167  26.158  26.710  1.00  0.00    -0.248 OA
ATOM     18  C   UNL A   1      30.552  25.210  26.231  1.00  0.00     0.319 C 
ATOM     19  N   UNL A   1      29.628  25.295  25.227  1.00  0.00    -0.308 N 
ATOM     20  H   UNL A   1      31.229  23.963  27.623  1.00  0.00     0.165 HD
ATOM     21  H   UNL A   1      29.039  24.516  25.091  1.00  0.00     0.171 HD
BRANCH  19  22
ATOM     22  C   UNL A   1      29.444  26.397  24.367  1.00  0.00     0.044 A 
ATOM     23  C   UNL A   1      28.131  26.787  24.072  1.00  0.00     0.029 A 
ATOM     24  C   UNL A   1      30.513  27.086  23.782  1.00  0.00     0.049 A 
ATOM     25  C   UNL A   1      27.891  27.879  23.233  1.00  0.00     0.043 A 
ATOM     26  C   UNL A   1      30.270  28.167  22.932  1.00  0.00     0.078 A 
ATOM     27  C   UNL A   1      28.962  28.564  22.669  1.00  0.00     0.141 A 
ATOM     28  Cl  UNL A   1      31.596  28.994  22.206  1.00  0.00    -0.081 Cl
ATOM     29  F   UNL A   1      28.707  29.608  21.867  1.00  0.00    -0.205 F 
ENDBRANCH  19  22
ENDBRANCH  15  16
ENDBRANCH  11  15
ENDBRANCH   8  10
ENDBRANCH   7   8
ENDBRANCH   6   7
ENDBRANCH   5   6
ENDBRANCH   4   5
ENDBRANCH   3   4
ENDBRANCH   2   3
ENDBRANCH   1   2
BRANCH   1  30
ATOM     30  C   UNL A   1      33.749  27.774  24.763  1.00  0.00     0.188 C 
BRANCH  30  31
ATOM     31  C   UNL A   1      33.667  28.983  25.716  1.00  0.00     0.188 C 
BRANCH  31  32
ATOM     32  O   UNL A   1      32.336  29.239  26.182  1.00  0.00    -0.376 OA
BRANCH  32  33
ATOM     33  C   UNL A   1      31.689  30.375  25.612  1.00  0.00     0.202 C 
BRANCH  33  34
ATOM     34  C   UNL A   1      31.700  31.603  26.532  1.00  0.00     0.261 C 
BRANCH  34  35
ATOM     35  O   UNL A   1      32.628  31.533  27.623  1.00  0.00    -0.460 OA
BRANCH  35  36
ATOM     36  C   UNL A   1      33.605  32.468  27.660  1.00  0.00     0.338 C 
ATOM     37  O   UNL A   1      33.476  33.668  27.506  1.00  0.00    -0.246 OA
BRANCH  36  38
ATOM     38  C   UNL A   1      34.847  31.802  28.099  1.00  0.00     0.060 A 
ATOM     39  C   UNL A   1      34.857  30.409  28.241  1.00  0.00     0.016 A 
ATOM     40  C   UNL A   1      35.988  32.557  28.376  1.00  0.00     0.016 A 
ATOM     41  C   UNL A   1      36.010  29.767  28.701  1.00  0.00     0.010 A 
ATOM     42  C   UNL A   1      37.130  31.917  28.852  1.00  0.00     0.010 A 
ATOM     43  C   UNL A   1      37.135  30.525  29.048  1.00  0.00    -0.014 A 
BRANCH  43  44
ATOM     44  C   UNL A   1      38.252  29.929  29.818  1.00  0.00     0.031 A 
ATOM     45  C   UNL A   1      38.480  30.426  31.217  1.00  0.00     0.074 A 
ATOM     46  C   UNL A   1      39.084  29.030  29.264  1.00  0.00     0.049 A 
ATOM     47  N   UNL A   1      39.489  30.220  32.020  1.00  0.00    -0.248 NA
ATOM     48  C   UNL A   1      37.427  31.290  31.776  1.00  0.00     0.031 C 
ATOM     49  C   UNL A   1      38.932  28.444  27.934  1.00  0.00     0.029 A 
ATOM     50  N   UNL A   1      40.242  28.477  29.747  1.00  0.00    -0.354 N 
ATOM     51  C   UNL A   1      39.202  30.937  33.176  1.00  0.00     0.074 A 
ATOM     52  C   UNL A   1      37.934  31.601  32.958  1.00  0.00     0.031 C 
ATOM     53  C   UNL A   1      39.980  27.635  27.695  1.00  0.00     0.029 A 
ATOM     54  C   UNL A   1      40.897  27.686  28.833  1.00  0.00     0.049 A 
ATOM     55  H   UNL A   1      40.574  28.633  30.661  1.00  0.00     0.167 HD
ATOM     56  C   UNL A   1      39.931  31.037  34.313  1.00  0.00     0.034 A 
ATOM     57  C   UNL A   1      42.116  27.110  28.895  1.00  0.00     0.034 A 
ATOM     58  C   UNL A   1      41.205  30.393  34.501  1.00  0.00     0.049 A 
ATOM     59  C   UNL A   1      42.957  27.306  30.135  1.00  0.00     0.074 A 
ATOM     60  C   UNL A   1      42.039  30.429  35.604  1.00  0.00     0.029 A 
ATOM     61  N   UNL A   1      41.838  29.604  33.549  1.00  0.00    -0.354 N 
ATOM     62  N   UNL A   1      42.683  27.996  31.219  1.00  0.00    -0.248 NA
ATOM     63  C   UNL A   1      44.273  26.651  30.160  1.00  0.00     0.031 C 
ATOM     64  C   UNL A   1      43.201  29.711  35.298  1.00  0.00     0.029 A 
ATOM     65  C   UNL A   1      43.061  29.169  34.029  1.00  0.00     0.049 A 
ATOM     66  H   UNL A   1      41.471  29.385  32.662  1.00  0.00     0.167 HD
ATOM     67  C   UNL A   1      43.774  27.823  32.067  1.00  0.00     0.074 A 
ATOM     68  C   UNL A   1      44.714  26.972  31.368  1.00  0.00     0.031 C 
ATOM     69  C   UNL A   1      43.978  28.312  33.316  1.00  0.00     0.034 A 
BRANCH  56  70
ATOM     70  C   UNL A   1      39.386  31.925  35.402  1.00  0.00     0.023 A 
ATOM     71  C   UNL A   1      38.787  31.392  36.557  1.00  0.00     0.031 A 
ATOM     72  C   UNL A   1      39.416  33.323  35.257  1.00  0.00     0.131 A 
ATOM     73  C   UNL A   1      38.177  32.248  37.484  1.00  0.00     0.055 A 
ATOM     74  C   UNL A   1      38.875  34.173  36.223  1.00  0.00     0.041 A 
ATOM     75  F   UNL A   1      39.951  33.885  34.162  1.00  0.00    -0.206 F 
ATOM     76  C   UNL A   1      38.237  33.636  37.338  1.00  0.00     0.022 A 
BRANCH  73  77
ATOM     77  S   UNL A   1      37.176  31.517  38.809  1.00  0.00     0.124 S 
ATOM     78  O   UNL A   1      36.929  30.175  38.286  1.00  0.00    -0.237 OA
ATOM     79  O   UNL A   1      38.067  31.601  39.960  1.00  0.00    -0.237 OA
ATOM     80  O   UNL A   1      35.999  32.382  38.866  1.00  0.00    -0.744 OA
ENDBRANCH  73  77
ENDBRANCH  56  70
BRANCH  57  81
ATOM     81  C   UNL A   1      42.648  26.342  27.734  1.00  0.00     0.023 A 
ATOM     82  C   UNL A   1      42.484  24.950  27.649  1.00  0.00     0.031 A 
ATOM     83  C   UNL A   1      43.379  26.984  26.717  1.00  0.00     0.131 A 
ATOM     84  C   UNL A   1      43.077  24.240  26.593  1.00  0.00     0.055 A 
ATOM     85  C   UNL A   1      43.926  26.279  25.645  1.00  0.00     0.041 A 
ATOM     86  F   UNL A   1      43.566  28.313  26.752  1.00  0.00    -0.206 F 
ATOM     87  C   UNL A   1      43.787  24.896  25.585  1.00  0.00     0.022 A 
BRANCH  84  88
ATOM     88  S   UNL A   1      42.977  22.428  26.601  1.00  0.00     0.124 S 
ATOM     89  O   UNL A   1      41.990  22.181  25.556  1.00  0.00    -0.237 OA
ATOM     90  O   UNL A   1      44.352  22.048  26.290  1.00  0.00    -0.237 OA
ATOM     91  O   UNL A   1      42.539  22.118  27.960  1.00  0.00    -0.744 OA
ENDBRANCH  84  88
ENDBRANCH  57  81
BRANCH  69  92
ATOM     92  C   UNL A   1      45.226  27.876  34.038  1.00  0.00     0.023 A 
ATOM     93  C   UNL A   1      45.265  26.716  34.827  1.00  0.00     0.031 A 
ATOM     94  C   UNL A   1      46.409  28.625  33.893  1.00  0.00     0.131 A 
ATOM     95  C   UNL A   1      46.460  26.350  35.465  1.00  0.00     0.055 A 
ATOM     96  C   UNL A   1      47.604  28.233  34.494  1.00  0.00     0.041 A 
ATOM     97  F   UNL A   1      46.422  29.740  33.144  1.00  0.00    -0.206 F 
ATOM     98  C   UNL A   1      47.632  27.093  35.291  1.00  0.00     0.022 A 
BRANCH  95  99
ATOM     99  S   UNL A   1      46.461  24.902  36.558  1.00  0.00     0.124 S 
ATOM    100  O   UNL A   1      47.182  23.917  35.757  1.00  0.00    -0.237 OA
ATOM    101  O   UNL A   1      47.161  25.399  37.739  1.00  0.00    -0.237 OA
ATOM    102  O   UNL A   1      45.040  24.620  36.757  1.00  0.00    -0.744 OA
ENDBRANCH  95  99
ENDBRANCH  69  92
ENDBRANCH  43  44
ENDBRANCH  36  38
ENDBRANCH  35  36
ENDBRANCH  34  35
ENDBRANCH  33  34
ENDBRANCH  32  33
ENDBRANCH  31  32
ENDBRANCH  30  31
ENDBRANCH   1  30
TORSDOF 26
ENDMDL
MODEL 2
REMARK VINA RESULT:      -9.8      2.589      3.002
REMARK SMILES O=C(NCc1ccc(C(=O)OCCOCCOCCOCCOC(=O)c2ccc(-c3c4nc(c(-c5cc(S(=O)(=O)[O-])ccc5F)c5ccc([nH]5)c(-c5cc(S(=O)(=O)[O-])ccc5F)c5nc(c(-c6cc(S(=O)(=O)[O-])ccc6F)c6ccc3[nH]6)C=C5)C=C4)cc2)o1)Nc1ccc(F)c(Cl)c1
REMARK SMILES IDX 17 1 16 2 15 3 14 4 13 5 12 6 11 7 9 8 10 9 8 10 5 11 6 12
REMARK SMILES IDX 89 13 7 14 4 15 3 16 1 17 2 18 90 19 91 22 92 23 98 24 93 25
REMARK SMILES IDX 96 26 94 27 97 28 95 29 18 30 19 31 20 32 21 33 22 34 23 35
REMARK SMILES IDX 24 36 25 37 26 38 27 39 88 40 28 41 87 42 29 43 30 44 31 45
REMARK SMILES IDX 81 46 32 47 86 48 80 49 82 50 33 51 85 52 79 53 78 54 34 56
REMARK SMILES IDX 66 57 46 58 65 59 47 60 50 61 64 62 83 63 48 64 49 65 63 67
REMARK SMILES IDX 84 68 51 69 35 70 36 71 44 72 37 73 43 74 45 75 42 76 38 77
REMARK SMILES IDX 39 78 40 79 41 80 67 81 68 82 76 83 69 84 75 85 77 86 74 87
REMARK SMILES IDX 70 88 71 89 72 90 73 91 52 92 53 93 61 94 54 95 60 96 62 97
REMARK SMILES IDX 59 98 55 99 56 100 57 101 58 102
REMARK H PARENT 3 20 90 21 82 55 50 66
REMARK Flexibility Score: inf
ROOT
ATOM      1  O   UNL A   1      33.893  26.253  24.492  1.00  0.00    -0.377 OA
ENDROOT
BRANCH   1   2
ATOM      2  C   UNL A   1      34.075  25.197  23.562  1.00  0.00     0.188 C 
BRANCH   2   3
ATOM      3  C   UNL A   1      35.203  24.242  23.984  1.00  0.00     0.188 C 
BRANCH   3   4
ATOM      4  O   UNL A   1      35.312  24.085  25.399  1.00  0.00    -0.376 OA
BRANCH   4   5
ATOM      5  C   UNL A   1      36.515  23.490  25.880  1.00  0.00     0.202 C 
BRANCH   5   6
ATOM      6  C   UNL A   1      36.572  21.952  25.857  1.00  0.00     0.261 C 
BRANCH   6   7
ATOM      7  O   UNL A   1      35.332  21.280  26.133  1.00  0.00    -0.457 OA
BRANCH   7   8
ATOM      8  C   UNL A   1      34.765  20.547  25.142  1.00  0.00     0.374 C 
ATOM      9  O   UNL A   1      35.200  19.481  24.723  1.00  0.00    -0.242 OA
BRANCH   8  10
ATOM     10  C   UNL A   1      33.500  21.152  24.798  1.00  0.00     0.211 A 
ATOM     11  C   UNL A   1      31.575  22.120  25.271  1.00  0.00     0.124 A 
ATOM     12  C   UNL A   1      31.771  22.295  23.918  1.00  0.00     0.048 A 
ATOM     13  O   UNL A   1      32.606  21.404  25.804  1.00  0.00    -0.452 OA
ATOM     14  C   UNL A   1      33.011  21.682  23.615  1.00  0.00     0.058 A 
BRANCH  11  15
ATOM     15  C   UNL A   1      30.521  22.559  26.219  1.00  0.00     0.193 C 
BRANCH  15  16
ATOM     16  N   UNL A   1      30.879  23.866  26.723  1.00  0.00    -0.331 N 
ATOM     17  O   UNL A   1      31.278  26.048  26.640  1.00  0.00    -0.248 OA
ATOM     18  C   UNL A   1      30.660  25.091  26.182  1.00  0.00     0.319 C 
ATOM     19  N   UNL A   1      29.728  25.157  25.183  1.00  0.00    -0.308 N 
ATOM     20  H   UNL A   1      31.351  23.867  27.587  1.00  0.00     0.165 HD
ATOM     21  H   UNL A   1      29.140  24.376  25.065  1.00  0.00     0.171 HD
BRANCH  19  22
ATOM     22  C   UNL A   1      29.536  26.245  24.307  1.00  0.00     0.044 A 
ATOM     23  C   UNL A   1      30.638  26.696  23.569  1.00  0.00     0.029 A 
ATOM     24  C   UNL A   1      28.307  26.903  24.176  1.00  0.00     0.049 A 
ATOM     25  C   UNL A   1      30.502  27.765  22.679  1.00  0.00     0.043 A 
ATOM     26  C   UNL A   1      28.177  27.981  23.299  1.00  0.00     0.078 A 
ATOM     27  C   UNL A   1      29.272  28.401  22.548  1.00  0.00     0.141 A 
ATOM     28  Cl  UNL A   1      26.662  28.790  23.160  1.00  0.00    -0.081 Cl
ATOM     29  F   UNL A   1      29.166  29.425  21.688  1.00  0.00    -0.205 F 
ENDBRANCH  19  22
ENDBRANCH  15  16
ENDBRANCH  11  15
ENDBRANCH   8  10
ENDBRANCH   7   8
ENDBRANCH   6   7
ENDBRANCH   5   6
ENDBRANCH   4   5
ENDBRANCH   3   4
ENDBRANCH   2   3
ENDBRANCH   1   2
BRANCH   1  30
ATOM     30  C   UNL A   1      33.874  27.574  23.954  1.00  0.00     0.188 C 
BRANCH  30  31
ATOM     31  C   UNL A   1      34.048  28.775  24.904  1.00  0.00     0.188 C 
BRANCH  31  32
ATOM     32  O   UNL A   1      32.941  28.947  25.797  1.00  0.00    -0.376 OA
BRANCH  32  33
ATOM     33  C   UNL A   1      32.257  30.195  25.701  1.00  0.00     0.202 C 
BRANCH  33  34
ATOM     34  C   UNL A   1      32.305  31.014  26.997  1.00  0.00     0.261 C 
BRANCH  34  35
ATOM     35  O   UNL A   1      33.449  30.766  27.826  1.00  0.00    -0.460 OA
BRANCH  35  36
ATOM     36  C   UNL A   1      34.463  31.657  27.758  1.00  0.00     0.338 C 
ATOM     37  O   UNL A   1      34.372  32.862  27.616  1.00  0.00    -0.246 OA
BRANCH  36  38
ATOM     38  C   UNL A   1      35.715  30.936  28.063  1.00  0.00     0.060 A 
ATOM     39  C   UNL A   1      35.707  29.536  28.076  1.00  0.00     0.016 A 
ATOM     40  C   UNL A   1      36.884  31.647  28.341  1.00  0.00     0.016 A 
ATOM     41  C   UNL A   1      36.871  28.838  28.409  1.00  0.00     0.010 A 
ATOM     42  C   UNL A   1      38.039  30.950  28.692  1.00  0.00     0.010 A 
ATOM     43  C   UNL A   1      38.028  29.546  28.759  1.00  0.00    -0.014 A 
BRANCH  43  44
ATOM     44  C   UNL A   1      39.175  28.866  29.406  1.00  0.00     0.031 A 
ATOM     45  C   UNL A   1      39.729  29.474  30.663  1.00  0.00     0.074 A 
ATOM     46  C   UNL A   1      39.752  27.786  28.852  1.00  0.00     0.049 A 
ATOM     47  N   UNL A   1      40.832  29.197  31.306  1.00  0.00    -0.248 NA
ATOM     48  C   UNL A   1      38.932  30.556  31.263  1.00  0.00     0.031 C 
ATOM     49  C   UNL A   1      39.272  27.085  27.663  1.00  0.00     0.029 A 
ATOM     50  N   UNL A   1      40.892  27.109  29.207  1.00  0.00    -0.354 N 
ATOM     51  C   UNL A   1      40.871  30.079  32.380  1.00  0.00     0.074 A 
ATOM     52  C   UNL A   1      39.691  30.912  32.287  1.00  0.00     0.031 C 
ATOM     53  C   UNL A   1      40.132  26.094  27.367  1.00  0.00     0.029 A 
ATOM     54  C   UNL A   1      41.245  26.123  28.316  1.00  0.00     0.049 A 
ATOM     55  H   UNL A   1      41.408  27.310  30.020  1.00  0.00     0.167 HD
ATOM     56  C   UNL A   1      41.808  30.185  33.353  1.00  0.00     0.034 A 
ATOM     57  C   UNL A   1      42.360  25.366  28.253  1.00  0.00     0.034 A 
ATOM     58  C   UNL A   1      42.991  29.366  33.412  1.00  0.00     0.049 A 
ATOM     59  C   UNL A   1      43.439  25.561  29.293  1.00  0.00     0.074 A 
ATOM     60  C   UNL A   1      44.014  29.390  34.343  1.00  0.00     0.029 A 
ATOM     61  N   UNL A   1      43.316  28.382  32.488  1.00  0.00    -0.354 N 
ATOM     62  N   UNL A   1      43.473  26.404  30.300  1.00  0.00    -0.248 NA
ATOM     63  C   UNL A   1      44.630  24.706  29.188  1.00  0.00     0.031 C 
ATOM     64  C   UNL A   1      44.985  28.462  33.950  1.00  0.00     0.029 A 
ATOM     65  C   UNL A   1      44.534  27.810  32.812  1.00  0.00     0.049 A 
ATOM     66  H   UNL A   1      42.761  28.127  31.715  1.00  0.00     0.167 HD
ATOM     67  C   UNL A   1      44.669  26.152  30.968  1.00  0.00     0.074 A 
ATOM     68  C   UNL A   1      45.331  25.085  30.247  1.00  0.00     0.031 C 
ATOM     69  C   UNL A   1      45.170  26.739  32.083  1.00  0.00     0.034 A 
BRANCH  56  70
ATOM     70  C   UNL A   1      41.607  31.269  34.382  1.00  0.00     0.023 A 
ATOM     71  C   UNL A   1      42.101  32.570  34.186  1.00  0.00     0.031 A 
ATOM     72  C   UNL A   1      40.962  30.981  35.597  1.00  0.00     0.131 A 
ATOM     73  C   UNL A   1      42.008  33.514  35.219  1.00  0.00     0.055 A 
ATOM     74  C   UNL A   1      40.804  31.948  36.591  1.00  0.00     0.041 A 
ATOM     75  F   UNL A   1      40.496  29.748  35.847  1.00  0.00    -0.206 F 
ATOM     76  C   UNL A   1      41.343  33.220  36.411  1.00  0.00     0.022 A 
BRANCH  73  77
ATOM     77  S   UNL A   1      42.898  35.084  35.039  1.00  0.00     0.124 S 
ATOM     78  O   UNL A   1      43.412  35.289  36.391  1.00  0.00    -0.237 OA
ATOM     79  O   UNL A   1      43.891  34.768  34.019  1.00  0.00    -0.237 OA
ATOM     80  O   UNL A   1      41.856  36.023  34.627  1.00  0.00    -0.744 OA
ENDBRANCH  73  77
ENDBRANCH  56  70
BRANCH  57  81
ATOM     81  C   UNL A   1      42.551  24.394  27.139  1.00  0.00     0.023 A 
ATOM     82  C   UNL A   1      42.011  23.100  27.204  1.00  0.00     0.031 A 
ATOM     83  C   UNL A   1      43.326  24.730  26.013  1.00  0.00     0.131 A 
ATOM     84  C   UNL A   1      42.286  22.175  26.185  1.00  0.00     0.055 A 
ATOM     85  C   UNL A   1      43.557  23.821  24.979  1.00  0.00     0.041 A 
ATOM     86  F   UNL A   1      43.866  25.954  25.901  1.00  0.00    -0.206 F 
ATOM     87  C   UNL A   1      43.045  22.530  25.067  1.00  0.00     0.022 A 
BRANCH  84  88
ATOM     88  S   UNL A   1      41.703  20.468  26.380  1.00  0.00     0.124 S 
ATOM     89  O   UNL A   1      42.464  19.775  25.347  1.00  0.00    -0.237 OA
ATOM     90  O   UNL A   1      42.079  20.177  27.760  1.00  0.00    -0.237 OA
ATOM     91  O   UNL A   1      40.266  20.570  26.135  1.00  0.00    -0.744 OA
ENDBRANCH  84  88
ENDBRANCH  57  81
BRANCH  69  92
ATOM     92  C   UNL A   1      46.458  26.189  32.638  1.00  0.00     0.023 A 
ATOM     93  C   UNL A   1      47.712  26.671  32.229  1.00  0.00     0.031 A 
ATOM     94  C   UNL A   1      46.417  25.189  33.627  1.00  0.00     0.131 A 
ATOM     95  C   UNL A   1      48.880  26.131  32.790  1.00  0.00     0.055 A 
ATOM     96  C   UNL A   1      47.579  24.687  34.211  1.00  0.00     0.041 A 
ATOM     97  F   UNL A   1      45.241  24.700  34.053  1.00  0.00    -0.206 F 
ATOM     98  C   UNL A   1      48.820  25.153  33.789  1.00  0.00     0.022 A 
BRANCH  95  99
ATOM     99  S   UNL A   1      50.490  26.699  32.176  1.00  0.00     0.124 S 
ATOM    100  O   UNL A   1      50.110  27.464  30.993  1.00  0.00    -0.237 OA
ATOM    101  O   UNL A   1      51.001  27.475  33.301  1.00  0.00    -0.237 OA
ATOM    102  O   UNL A   1      51.212  25.456  31.906  1.00  0.00    -0.744 OA
ENDBRANCH  95  99
ENDBRANCH  69  92
ENDBRANCH  43  44
ENDBRANCH  36  38
ENDBRANCH  35  36
ENDBRANCH  34  35
ENDBRANCH  33  34
ENDBRANCH  32  33
ENDBRANCH  31  32
ENDBRANCH  30  31
ENDBRANCH   1  30
TORSDOF 26
ENDMDL
MODEL 3
REMARK VINA RESULT:      -9.5      2.244      2.984
REMARK SMILES O=C(NCc1ccc(C(=O)OCCOCCOCCOCCOC(=O)c2ccc(-c3c4nc(c(-c5cc(S(=O)(=O)[O-])ccc5F)c5ccc([nH]5)c(-c5cc(S(=O)(=O)[O-])ccc5F)c5nc(c(-c6cc(S(=O)(=O)[O-])ccc6F)c6ccc3[nH]6)C=C5)C=C4)cc2)o1)Nc1ccc(F)c(Cl)c1
REMARK SMILES IDX 17 1 16 2 15 3 14 4 13 5 12 6 11 7 9 8 10 9 8 10 5 11 6 12
REMARK SMILES IDX 89 13 7 14 4 15 3 16 1 17 2 18 90 19 91 22 92 23 98 24 93 25
REMARK SMILES IDX 96 26 94 27 97 28 95 29 18 30 19 31 20 32 21 33 22 34 23 35
REMARK SMILES IDX 24 36 25 37 26 38 27 39 88 40 28 41 87 42 29 43 30 44 31 45
REMARK SMILES IDX 81 46 32 47 86 48 80 49 82 50 33 51 85 52 79 53 78 54 34 56
REMARK SMILES IDX 66 57 46 58 65 59 47 60 50 61 64 62 83 63 48 64 49 65 63 67
REMARK SMILES IDX 84 68 51 69 35 70 36 71 44 72 37 73 43 74 45 75 42 76 38 77
REMARK SMILES IDX 39 78 40 79 41 80 67 81 68 82 76 83 69 84 75 85 77 86 74 87
REMARK SMILES IDX 70 88 71 89 72 90 73 91 52 92 53 93 61 94 54 95 60 96 62 97
REMARK SMILES IDX 59 98 55 99 56 100 57 101 58 102
REMARK H PARENT 3 20 90 21 82 55 50 66
REMARK Flexibility Score: inf
ROOT
ATOM      1  O   UNL A   1      33.722  25.011  23.486  1.00  0.00    -0.377 OA
ENDROOT
BRANCH   1   2
ATOM      2  C   UNL A   1      34.424  24.053  22.709  1.00  0.00     0.188 C 
BRANCH   2   3
ATOM      3  C   UNL A   1      35.675  23.526  23.429  1.00  0.00     0.188 C 
BRANCH   3   4
ATOM      4  O   UNL A   1      35.538  23.493  24.850  1.00  0.00    -0.376 OA
BRANCH   4   5
ATOM      5  C   UNL A   1      36.531  22.762  25.566  1.00  0.00     0.202 C 
BRANCH   5   6
ATOM      6  C   UNL A   1      36.244  21.268  25.795  1.00  0.00     0.261 C 
BRANCH   6   7
ATOM      7  O   UNL A   1      34.867  20.926  26.021  1.00  0.00    -0.457 OA
BRANCH   7   8
ATOM      8  C   UNL A   1      34.195  20.283  25.034  1.00  0.00     0.374 C 
ATOM      9  O   UNL A   1      34.491  19.182  24.587  1.00  0.00    -0.242 OA
BRANCH   8  10
ATOM     10  C   UNL A   1      33.002  21.039  24.732  1.00  0.00     0.211 A 
ATOM     11  C   UNL A   1      31.272  22.302  25.260  1.00  0.00     0.124 A 
ATOM     12  C   UNL A   1      31.382  22.354  23.888  1.00  0.00     0.048 A 
ATOM     13  O   UNL A   1      32.234  21.484  25.775  1.00  0.00    -0.452 OA
ATOM     14  C   UNL A   1      32.497  21.552  23.548  1.00  0.00     0.058 A 
BRANCH  11  15
ATOM     15  C   UNL A   1      30.368  22.952  26.242  1.00  0.00     0.193 C 
BRANCH  15  16
ATOM     16  N   UNL A   1      30.895  24.263  26.546  1.00  0.00    -0.331 N 
ATOM     17  O   UNL A   1      31.337  26.413  26.216  1.00  0.00    -0.248 OA
ATOM     18  C   UNL A   1      30.585  25.467  26.000  1.00  0.00     0.319 C 
ATOM     19  N   UNL A   1      29.425  25.527  25.278  1.00  0.00    -0.308 N 
ATOM     20  H   UNL A   1      31.578  24.287  27.255  1.00  0.00     0.165 HD
ATOM     21  H   UNL A   1      28.799  24.773  25.371  1.00  0.00     0.171 HD
BRANCH  19  22
ATOM     22  C   UNL A   1      29.049  26.574  24.413  1.00  0.00     0.044 A 
ATOM     23  C   UNL A   1      27.680  26.781  24.191  1.00  0.00     0.029 A 
ATOM     24  C   UNL A   1      29.981  27.382  23.751  1.00  0.00     0.049 A 
ATOM     25  C   UNL A   1      27.250  27.812  23.350  1.00  0.00     0.043 A 
ATOM     26  C   UNL A   1      29.549  28.400  22.899  1.00  0.00     0.078 A 
ATOM     27  C   UNL A   1      28.187  28.616  22.709  1.00  0.00     0.141 A 
ATOM     28  Cl  UNL A   1      30.710  29.375  22.080  1.00  0.00    -0.081 Cl
ATOM     29  F   UNL A   1      27.750  29.598  21.906  1.00  0.00    -0.205 F 
ENDBRANCH  19  22
ENDBRANCH  15  16
ENDBRANCH  11  15
ENDBRANCH   8  10
ENDBRANCH   7   8
ENDBRANCH   6   7
ENDBRANCH   5   6
ENDBRANCH   4   5
ENDBRANCH   3   4
ENDBRANCH   2   3
ENDBRANCH   1   2
BRANCH   1  30
ATOM     30  C   UNL A   1      33.173  26.121  22.779  1.00  0.00     0.188 C 
BRANCH  30  31
ATOM     31  C   UNL A   1      33.617  27.547  23.158  1.00  0.00     0.188 C 
BRANCH  31  32
ATOM     32  O   UNL A   1      34.022  27.662  24.527  1.00  0.00    -0.376 OA
BRANCH  32  33
ATOM     33  C   UNL A   1      33.896  28.961  25.103  1.00  0.00     0.202 C 
BRANCH  33  34
ATOM     34  C   UNL A   1      33.158  28.959  26.448  1.00  0.00     0.261 C 
BRANCH  34  35
ATOM     35  O   UNL A   1      34.000  29.107  27.600  1.00  0.00    -0.460 OA
BRANCH  35  36
ATOM     36  C   UNL A   1      34.647  30.286  27.741  1.00  0.00     0.338 C 
ATOM     37  O   UNL A   1      34.184  31.400  27.583  1.00  0.00    -0.246 OA
BRANCH  36  38
ATOM     38  C   UNL A   1      35.984  30.000  28.297  1.00  0.00     0.060 A 
ATOM     39  C   UNL A   1      37.112  30.190  27.489  1.00  0.00     0.016 A 
ATOM     40  C   UNL A   1      36.114  29.538  29.609  1.00  0.00     0.016 A 
ATOM     41  C   UNL A   1      38.381  29.879  27.984  1.00  0.00     0.010 A 
ATOM     42  C   UNL A   1      37.379  29.210  30.094  1.00  0.00     0.010 A 
ATOM     43  C   UNL A   1      38.512  29.348  29.274  1.00  0.00    -0.014 A 
BRANCH  43  44
ATOM     44  C   UNL A   1      39.781  28.726  29.720  1.00  0.00     0.031 A 
ATOM     45  C   UNL A   1      40.571  29.435  30.784  1.00  0.00     0.074 A 
ATOM     46  C   UNL A   1      40.254  27.608  29.143  1.00  0.00     0.049 A 
ATOM     47  N   UNL A   1      41.788  29.215  31.203  1.00  0.00    -0.248 NA
ATOM     48  C   UNL A   1      39.893  30.558  31.451  1.00  0.00     0.031 C 
ATOM     49  C   UNL A   1      39.552  26.813  28.137  1.00  0.00     0.029 A 
ATOM     50  N   UNL A   1      41.455  26.966  29.305  1.00  0.00    -0.354 N 
ATOM     51  C   UNL A   1      42.030  30.179  32.175  1.00  0.00     0.074 A 
ATOM     52  C   UNL A   1      40.840  30.998  32.264  1.00  0.00     0.031 C 
ATOM     53  C   UNL A   1      40.353  25.805  27.746  1.00  0.00     0.029 A 
ATOM     54  C   UNL A   1      41.636  25.913  28.439  1.00  0.00     0.049 A 
ATOM     55  H   UNL A   1      42.124  27.234  29.976  1.00  0.00     0.167 HD
ATOM     56  C   UNL A   1      43.145  30.366  32.921  1.00  0.00     0.034 A 
ATOM     57  C   UNL A   1      42.730  25.158  28.204  1.00  0.00     0.034 A 
ATOM     58  C   UNL A   1      44.331  29.560  32.797  1.00  0.00     0.049 A 
ATOM     59  C   UNL A   1      43.996  25.440  28.980  1.00  0.00     0.074 A 
ATOM     60  C   UNL A   1      45.523  29.662  33.491  1.00  0.00     0.029 A 
ATOM     61  N   UNL A   1      44.478  28.506  31.904  1.00  0.00    -0.354 N 
ATOM     62  N   UNL A   1      44.220  26.361  29.889  1.00  0.00    -0.248 NA
ATOM     63  C   UNL A   1      45.157  24.584  28.696  1.00  0.00     0.031 C 
ATOM     64  C   UNL A   1      46.411  28.709  32.977  1.00  0.00     0.029 A 
ATOM     65  C   UNL A   1      45.748  27.966  32.012  1.00  0.00     0.049 A 
ATOM     66  H   UNL A   1      43.781  28.188  31.285  1.00  0.00     0.167 HD
ATOM     67  C   UNL A   1      45.533  26.167  30.312  1.00  0.00     0.074 A 
ATOM     68  C   UNL A   1      46.054  25.049  29.554  1.00  0.00     0.031 C 
ATOM     69  C   UNL A   1      46.242  26.843  31.251  1.00  0.00     0.034 A 
BRANCH  56  70
ATOM     70  C   UNL A   1      43.139  31.528  33.882  1.00  0.00     0.023 A 
ATOM     71  C   UNL A   1      42.711  31.380  35.213  1.00  0.00     0.031 A 
ATOM     72  C   UNL A   1      43.515  32.810  33.446  1.00  0.00     0.131 A 
ATOM     73  C   UNL A   1      42.598  32.507  36.038  1.00  0.00     0.055 A 
ATOM     74  C   UNL A   1      43.474  33.915  34.297  1.00  0.00     0.041 A 
ATOM     75  F   UNL A   1      43.907  33.013  32.179  1.00  0.00    -0.206 F 
ATOM     76  C   UNL A   1      42.998  33.771  35.598  1.00  0.00     0.022 A 
BRANCH  73  77
ATOM     77  S   UNL A   1      41.781  32.323  37.647  1.00  0.00     0.124 S 
ATOM     78  O   UNL A   1      40.408  32.024  37.249  1.00  0.00    -0.237 OA
ATOM     79  O   UNL A   1      42.524  31.226  38.254  1.00  0.00    -0.237 OA
ATOM     80  O   UNL A   1      41.968  33.629  38.278  1.00  0.00    -0.744 OA
ENDBRANCH  73  77
ENDBRANCH  56  70
BRANCH  57  81
ATOM     81  C   UNL A   1      42.707  24.101  27.153  1.00  0.00     0.023 A 
ATOM     82  C   UNL A   1      42.132  22.845  27.401  1.00  0.00     0.031 A 
ATOM     83  C   UNL A   1      43.310  24.316  25.900  1.00  0.00     0.131 A 
ATOM     84  C   UNL A   1      42.209  21.837  26.426  1.00  0.00     0.055 A 
ATOM     85  C   UNL A   1      43.341  23.326  24.917  1.00  0.00     0.041 A 
ATOM     86  F   UNL A   1      43.874  25.500  25.613  1.00  0.00    -0.206 F 
ATOM     87  C   UNL A   1      42.798  22.073  25.182  1.00  0.00     0.022 A 
BRANCH  84  88
ATOM     88  S   UNL A   1      41.595  20.181  26.840  1.00  0.00     0.124 S 
ATOM     89  O   UNL A   1      42.736  19.610  27.547  1.00  0.00    -0.237 OA
ATOM     90  O   UNL A   1      40.422  20.487  27.653  1.00  0.00    -0.237 OA
ATOM     91  O   UNL A   1      41.309  19.589  25.535  1.00  0.00    -0.744 OA
ENDBRANCH  84  88
ENDBRANCH  57  81
BRANCH  69  92
ATOM     92  C   UNL A   1      47.628  26.344  31.567  1.00  0.00     0.023 A 
ATOM     93  C   UNL A   1      47.874  25.442  32.614  1.00  0.00     0.031 A 
ATOM     94  C   UNL A   1      48.713  26.758  30.773  1.00  0.00     0.131 A 
ATOM     95  C   UNL A   1      49.184  24.999  32.855  1.00  0.00     0.055 A 
ATOM     96  C   UNL A   1      50.005  26.281  30.990  1.00  0.00     0.041 A 
ATOM     97  F   UNL A   1      48.525  27.618  29.757  1.00  0.00    -0.206 F 
ATOM     98  C   UNL A   1      50.248  25.402  32.040  1.00  0.00     0.022 A 
BRANCH  95  99
ATOM     99  S   UNL A   1      49.494  23.910  34.272  1.00  0.00     0.124 S 
ATOM    100  O   UNL A   1      48.139  23.569  34.694  1.00  0.00    -0.237 OA
ATOM    101  O   UNL A   1      50.267  22.826  33.674  1.00  0.00    -0.237 OA
ATOM    102  O   UNL A   1      50.239  24.759  35.201  1.00  0.00    -0.744 OA
ENDBRANCH  95  99
ENDBRANCH  69  92
ENDBRANCH  43  44
ENDBRANCH  36  38
ENDBRANCH  35  36
ENDBRANCH  34  35
ENDBRANCH  33  34
ENDBRANCH  32  33
ENDBRANCH  31  32
ENDBRANCH  30  31
ENDBRANCH   1  30
TORSDOF 26
ENDMDL
