MODEL 1
REMARK VINA RESULT:      -9.8      0.000      0.000
REMARK SMILES CC1=Nc2c(c(C)nn2-c2ccc(F)cc2)[C@H](c2ccc(C(=O)OCCOCCOCCOCCOC(=O)c3ccc(-c4c5nc(c(-c6cc(S(=O)(=O)[O-])ccc6F)c6ccc([nH]6)c(-c6cc(S(=O)(=O)[O-])ccc6F)c6nc(c(-c7cc(S(=O)(=O)[O-])ccc7F)c7ccc4[nH]7)C=C6)C=C5)cc3)cc2)S1
REMARK SMILES IDX 31 1 30 2 29 3 28 4 27 5 26 6 25 7 24 8 22 9 23 10 21 11
REMARK SMILES IDX 18 12 19 13 103 14 20 15 102 16 17 17 1 18 2 19 3 20 104 21
REMARK SMILES IDX 4 22 5 23 9 24 6 25 8 26 7 27 10 28 11 29 16 30 12 31 15 32
REMARK SMILES IDX 13 33 14 34 32 35 33 36 34 37 35 38 36 39 37 40 38 41 39 42
REMARK SMILES IDX 40 43 101 44 41 45 100 46 42 47 43 48 44 49 94 50 45 51
REMARK SMILES IDX 99 52 93 53 95 54 46 55 98 56 92 57 91 58 47 60 79 61 59 62
REMARK SMILES IDX 78 63 60 64 63 65 77 66 96 67 61 68 62 69 76 71 97 72 64 73
REMARK SMILES IDX 48 74 49 75 57 76 50 77 56 78 58 79 55 80 51 81 52 82 53 83
REMARK SMILES IDX 54 84 80 85 81 86 89 87 82 88 88 89 90 90 87 91 83 92 84 93
REMARK SMILES IDX 85 94 86 95 65 96 66 97 74 98 67 99 73 100 75 101 72 102
REMARK SMILES IDX 68 103 69 104 70 105 71 106
REMARK H PARENT 95 59 63 70
REMARK Flexibility Score: inf
ROOT
ATOM      1  C   UNL A   1      33.511  35.237  29.565  1.00  0.00     0.188 C 
ENDROOT
BRANCH   1   2
ATOM      2  O   UNL A   1      33.393  33.880  29.148  1.00  0.00    -0.377 OA
BRANCH   2   3
ATOM      3  C   UNL A   1      33.126  33.699  27.767  1.00  0.00     0.188 C 
BRANCH   3   4
ATOM      4  C   UNL A   1      32.990  32.219  27.352  1.00  0.00     0.188 C 
BRANCH   4   5
ATOM      5  O   UNL A   1      31.737  31.649  26.996  1.00  0.00    -0.376 OA
BRANCH   5   6
ATOM      6  C   UNL A   1      31.615  30.355  26.430  1.00  0.00     0.202 C 
BRANCH   6   7
ATOM      7  C   UNL A   1      31.716  30.072  24.918  1.00  0.00     0.261 C 
BRANCH   7   8
ATOM      8  O   UNL A   1      30.514  29.684  24.252  1.00  0.00    -0.460 OA
BRANCH   8   9
ATOM      9  C   UNL A   1      30.665  28.801  23.250  1.00  0.00     0.338 C 
ATOM     10  O   UNL A   1      30.420  28.989  22.061  1.00  0.00    -0.246 OA
BRANCH   9  11
ATOM     11  C   UNL A   1      31.354  27.591  23.759  1.00  0.00     0.060 A 
ATOM     12  C   UNL A   1      32.618  25.332  24.894  1.00  0.00    -0.030 A 
ATOM     13  C   UNL A   1      31.471  25.899  25.482  1.00  0.00     0.006 A 
ATOM     14  C   UNL A   1      33.053  25.863  23.663  1.00  0.00     0.006 A 
ATOM     15  C   UNL A   1      30.848  27.014  24.924  1.00  0.00     0.016 A 
ATOM     16  C   UNL A   1      32.435  26.993  23.103  1.00  0.00     0.016 A 
BRANCH  12  17
ATOM     17  C   UNL A   1      33.372  24.263  25.676  1.00  0.00     0.119 C 
ATOM     18  C   UNL A   1      36.767  23.258  23.528  1.00  0.00     0.075 C 
ATOM     19  C   UNL A   1      35.492  23.099  24.312  1.00  0.00     0.074 C 
ATOM     20  N   UNL A   1      34.747  22.074  24.049  1.00  0.00    -0.227 NA
ATOM     21  S   UNL A   1      35.184  24.360  25.495  1.00  0.00    -0.098 SA
ATOM     22  C   UNL A   1      33.548  21.970  24.668  1.00  0.00     0.161 A 
ATOM     23  C   UNL A   1      32.831  22.926  25.352  1.00  0.00     0.038 A 
ATOM     24  N   UNL A   1      32.766  20.825  24.650  1.00  0.00    -0.215 N 
ATOM     25  C   UNL A   1      31.617  22.279  25.707  1.00  0.00     0.067 A 
ATOM     26  N   UNL A   1      31.539  21.048  25.187  1.00  0.00    -0.171 NA
ATOM     27  C   UNL A   1      30.499  22.784  26.543  1.00  0.00     0.069 C 
BRANCH  24  28
ATOM     28  C   UNL A   1      33.140  19.534  24.200  1.00  0.00     0.067 A 
ATOM     29  C   UNL A   1      34.276  18.905  24.735  1.00  0.00     0.031 A 
ATOM     30  C   UNL A   1      32.376  18.900  23.213  1.00  0.00     0.031 A 
ATOM     31  C   UNL A   1      34.657  17.651  24.264  1.00  0.00     0.041 A 
ATOM     32  C   UNL A   1      32.797  17.667  22.709  1.00  0.00     0.041 A 
ATOM     33  C   UNL A   1      33.928  17.053  23.241  1.00  0.00     0.123 A 
ATOM     34  F   UNL A   1      34.324  15.866  22.763  1.00  0.00    -0.207 F 
ENDBRANCH  24  28
ENDBRANCH  12  17
ENDBRANCH   9  11
ENDBRANCH   8   9
ENDBRANCH   7   8
ENDBRANCH   6   7
ENDBRANCH   5   6
ENDBRANCH   4   5
ENDBRANCH   3   4
ENDBRANCH   2   3
ENDBRANCH   1   2
BRANCH   1  35
ATOM     35  C   UNL A   1      33.856  35.510  31.051  1.00  0.00     0.188 C 
BRANCH  35  36
ATOM     36  O   UNL A   1      34.896  34.683  31.573  1.00  0.00    -0.376 OA
BRANCH  36  37
ATOM     37  C   UNL A   1      34.606  33.763  32.617  1.00  0.00     0.202 C 
BRANCH  37  38
ATOM     38  C   UNL A   1      34.926  32.312  32.271  1.00  0.00     0.261 C 
BRANCH  38  39
ATOM     39  O   UNL A   1      36.291  31.991  32.469  1.00  0.00    -0.460 OA
BRANCH  39  40
ATOM     40  C   UNL A   1      37.076  32.102  31.388  1.00  0.00     0.338 C 
ATOM     41  O   UNL A   1      36.803  31.758  30.234  1.00  0.00    -0.246 OA
BRANCH  40  42
ATOM     42  C   UNL A   1      38.365  32.641  31.800  1.00  0.00     0.060 A 
ATOM     43  C   UNL A   1      39.393  31.709  31.935  1.00  0.00     0.016 A 
ATOM     44  C   UNL A   1      38.388  33.902  32.416  1.00  0.00     0.016 A 
ATOM     45  C   UNL A   1      40.268  31.894  32.971  1.00  0.00     0.010 A 
ATOM     46  C   UNL A   1      39.238  34.070  33.470  1.00  0.00     0.010 A 
ATOM     47  C   UNL A   1      40.075  33.006  33.793  1.00  0.00    -0.014 A 
BRANCH  47  48
ATOM     48  C   UNL A   1      40.734  33.007  35.070  1.00  0.00     0.031 A 
ATOM     49  C   UNL A   1      39.804  33.020  36.207  1.00  0.00     0.074 A 
ATOM     50  C   UNL A   1      42.072  32.907  35.160  1.00  0.00     0.049 A 
ATOM     51  N   UNL A   1      39.615  33.966  37.059  1.00  0.00    -0.248 NA
ATOM     52  C   UNL A   1      38.840  31.912  36.296  1.00  0.00     0.031 C 
ATOM     53  C   UNL A   1      43.040  32.592  34.105  1.00  0.00     0.029 A 
ATOM     54  N   UNL A   1      42.835  32.950  36.277  1.00  0.00    -0.354 N 
ATOM     55  C   UNL A   1      38.642  33.487  37.922  1.00  0.00     0.074 A 
ATOM     56  C   UNL A   1      38.060  32.333  37.289  1.00  0.00     0.031 C 
ATOM     57  C   UNL A   1      44.214  32.240  34.682  1.00  0.00     0.029 A 
ATOM     58  C   UNL A   1      44.107  32.418  36.121  1.00  0.00     0.049 A 
ATOM     59  H   UNL A   1      42.515  33.326  37.129  1.00  0.00     0.167 HD
ATOM     60  C   UNL A   1      38.540  33.930  39.199  1.00  0.00     0.034 A 
ATOM     61  C   UNL A   1      44.936  32.055  37.133  1.00  0.00     0.034 A 
ATOM     62  C   UNL A   1      39.244  35.173  39.392  1.00  0.00     0.049 A 
ATOM     63  C   UNL A   1      44.479  32.800  38.341  1.00  0.00     0.074 A 
ATOM     64  C   UNL A   1      39.121  36.435  38.841  1.00  0.00     0.029 A 
ATOM     65  N   UNL A   1      40.508  35.127  39.935  1.00  0.00    -0.354 N 
ATOM     66  N   UNL A   1      44.508  34.102  38.445  1.00  0.00    -0.248 NA
ATOM     67  C   UNL A   1      43.546  32.134  39.242  1.00  0.00     0.031 C 
ATOM     68  C   UNL A   1      40.458  36.894  38.657  1.00  0.00     0.029 A 
ATOM     69  C   UNL A   1      41.323  35.918  39.157  1.00  0.00     0.049 A 
ATOM     70  H   UNL A   1      40.779  34.621  40.734  1.00  0.00     0.167 HD
ATOM     71  C   UNL A   1      43.333  34.444  39.100  1.00  0.00     0.074 A 
ATOM     72  C   UNL A   1      42.829  33.186  39.648  1.00  0.00     0.031 C 
ATOM     73  C   UNL A   1      42.730  35.653  38.900  1.00  0.00     0.034 A 
BRANCH  60  74
ATOM     74  C   UNL A   1      38.032  33.073  40.322  1.00  0.00     0.023 A 
ATOM     75  C   UNL A   1      36.679  33.162  40.676  1.00  0.00     0.031 A 
ATOM     76  C   UNL A   1      38.861  32.336  41.203  1.00  0.00     0.131 A 
ATOM     77  C   UNL A   1      36.208  32.551  41.851  1.00  0.00     0.055 A 
ATOM     78  C   UNL A   1      38.375  31.665  42.324  1.00  0.00     0.041 A 
ATOM     79  F   UNL A   1      40.196  32.307  41.077  1.00  0.00    -0.206 F 
ATOM     80  C   UNL A   1      37.042  31.785  42.666  1.00  0.00     0.022 A 
BRANCH  77  81
ATOM     81  S   UNL A   1      34.510  32.886  42.377  1.00  0.00     0.124 S 
ATOM     82  O   UNL A   1      33.851  33.161  41.105  1.00  0.00    -0.237 OA
ATOM     83  O   UNL A   1      34.145  31.637  43.036  1.00  0.00    -0.237 OA
ATOM     84  O   UNL A   1      34.652  34.039  43.265  1.00  0.00    -0.744 OA
ENDBRANCH  77  81
ENDBRANCH  60  74
BRANCH  61  85
ATOM     85  C   UNL A   1      45.802  30.841  37.195  1.00  0.00     0.023 A 
ATOM     86  C   UNL A   1      47.136  30.917  37.645  1.00  0.00     0.031 A 
ATOM     87  C   UNL A   1      45.259  29.543  37.053  1.00  0.00     0.131 A 
ATOM     88  C   UNL A   1      47.859  29.740  37.943  1.00  0.00     0.055 A 
ATOM     89  C   UNL A   1      45.984  28.382  37.334  1.00  0.00     0.041 A 
ATOM     90  F   UNL A   1      43.973  29.349  36.727  1.00  0.00    -0.206 F 
ATOM     91  C   UNL A   1      47.286  28.476  37.795  1.00  0.00     0.022 A 
BRANCH  88  92
ATOM     92  S   UNL A   1      49.524  29.840  38.671  1.00  0.00     0.124 S 
ATOM     93  O   UNL A   1      49.637  31.263  38.976  1.00  0.00    -0.237 OA
ATOM     94  O   UNL A   1      49.429  28.939  39.815  1.00  0.00    -0.237 OA
ATOM     95  O   UNL A   1      50.391  29.368  37.592  1.00  0.00    -0.744 OA
ENDBRANCH  88  92
ENDBRANCH  61  85
BRANCH  73  96
ATOM     96  C   UNL A   1      43.501  36.731  38.161  1.00  0.00     0.023 A 
ATOM     97  C   UNL A   1      43.666  36.788  36.757  1.00  0.00     0.031 A 
ATOM     98  C   UNL A   1      43.965  37.824  38.914  1.00  0.00     0.131 A 
ATOM     99  C   UNL A   1      44.281  37.911  36.162  1.00  0.00     0.055 A 
ATOM    100  C   UNL A   1      44.554  38.940  38.322  1.00  0.00     0.041 A 
ATOM    101  F   UNL A   1      43.810  37.843  40.249  1.00  0.00    -0.206 F 
ATOM    102  C   UNL A   1      44.717  38.988  36.942  1.00  0.00     0.022 A 
BRANCH  99 103
ATOM    103  S   UNL A   1      44.506  37.999  34.355  1.00  0.00     0.124 S 
ATOM    104  O   UNL A   1      43.140  38.007  33.846  1.00  0.00    -0.237 OA
ATOM    105  O   UNL A   1      45.261  39.238  34.189  1.00  0.00    -0.237 OA
ATOM    106  O   UNL A   1      45.263  36.784  34.045  1.00  0.00    -0.744 OA
ENDBRANCH  99 103
ENDBRANCH  73  96
ENDBRANCH  47  48
ENDBRANCH  40  42
ENDBRANCH  39  40
ENDBRANCH  38  39
ENDBRANCH  37  38
ENDBRANCH  36  37
ENDBRANCH  35  36
ENDBRANCH   1  35
TORSDOF 25
ENDMDL
MODEL 2
REMARK VINA RESULT:      -9.6      4.663      8.218
REMARK SMILES CC1=Nc2c(c(C)nn2-c2ccc(F)cc2)[C@H](c2ccc(C(=O)OCCOCCOCCOCCOC(=O)c3ccc(-c4c5nc(c(-c6cc(S(=O)(=O)[O-])ccc6F)c6ccc([nH]6)c(-c6cc(S(=O)(=O)[O-])ccc6F)c6nc(c(-c7cc(S(=O)(=O)[O-])ccc7F)c7ccc4[nH]7)C=C6)C=C5)cc3)cc2)S1
REMARK SMILES IDX 31 1 30 2 29 3 28 4 27 5 26 6 25 7 24 8 22 9 23 10 21 11
REMARK SMILES IDX 18 12 19 13 103 14 20 15 102 16 17 17 1 18 2 19 3 20 104 21
REMARK SMILES IDX 4 22 5 23 9 24 6 25 8 26 7 27 10 28 11 29 16 30 12 31 15 32
REMARK SMILES IDX 13 33 14 34 32 35 33 36 34 37 35 38 36 39 37 40 38 41 39 42
REMARK SMILES IDX 40 43 101 44 41 45 100 46 42 47 43 48 44 49 94 50 45 51
REMARK SMILES IDX 99 52 93 53 95 54 46 55 98 56 92 57 91 58 47 60 79 61 59 62
REMARK SMILES IDX 78 63 60 64 63 65 77 66 96 67 61 68 62 69 76 71 97 72 64 73
REMARK SMILES IDX 48 74 49 75 57 76 50 77 56 78 58 79 55 80 51 81 52 82 53 83
REMARK SMILES IDX 54 84 80 85 81 86 89 87 82 88 88 89 90 90 87 91 83 92 84 93
REMARK SMILES IDX 85 94 86 95 65 96 66 97 74 98 67 99 73 100 75 101 72 102
REMARK SMILES IDX 68 103 69 104 70 105 71 106
REMARK H PARENT 95 59 63 70
REMARK Flexibility Score: inf
ROOT
ATOM      1  C   UNL A   1      33.700  35.072  28.245  1.00  0.00     0.188 C 
ENDROOT
BRANCH   1   2
ATOM      2  O   UNL A   1      34.901  34.511  27.722  1.00  0.00    -0.377 OA
BRANCH   2   3
ATOM      3  C   UNL A   1      35.866  34.150  28.696  1.00  0.00     0.188 C 
BRANCH   3   4
ATOM      4  C   UNL A   1      36.569  32.807  28.403  1.00  0.00     0.188 C 
BRANCH   4   5
ATOM      5  O   UNL A   1      36.989  31.934  29.444  1.00  0.00    -0.376 OA
BRANCH   5   6
ATOM      6  C   UNL A   1      37.172  30.542  29.252  1.00  0.00     0.202 C 
BRANCH   6   7
ATOM      7  C   UNL A   1      36.410  29.719  28.195  1.00  0.00     0.261 C 
BRANCH   7   8
ATOM      8  O   UNL A   1      35.010  29.533  28.408  1.00  0.00    -0.460 OA
BRANCH   8   9
ATOM      9  C   UNL A   1      34.210  29.962  27.417  1.00  0.00     0.338 C 
ATOM     10  O   UNL A   1      34.145  31.103  26.967  1.00  0.00    -0.246 OA
BRANCH   9  11
ATOM     11  C   UNL A   1      33.522  28.803  26.800  1.00  0.00     0.060 A 
ATOM     12  C   UNL A   1      32.212  26.682  25.468  1.00  0.00    -0.030 A 
ATOM     13  C   UNL A   1      33.114  27.523  24.790  1.00  0.00     0.006 A 
ATOM     14  C   UNL A   1      32.063  26.866  26.858  1.00  0.00     0.006 A 
ATOM     15  C   UNL A   1      33.760  28.570  25.445  1.00  0.00     0.016 A 
ATOM     16  C   UNL A   1      32.703  27.927  27.519  1.00  0.00     0.016 A 
BRANCH  12  17
ATOM     17  C   UNL A   1      31.379  25.708  24.644  1.00  0.00     0.119 C 
ATOM     18  C   UNL A   1      29.576  23.039  27.247  1.00  0.00     0.075 C 
ATOM     19  C   UNL A   1      30.355  23.555  26.067  1.00  0.00     0.074 C 
ATOM     20  N   UNL A   1      31.301  22.807  25.596  1.00  0.00    -0.227 NA
ATOM     21  S   UNL A   1      29.865  25.139  25.486  1.00  0.00    -0.098 SA
ATOM     22  C   UNL A   1      32.080  23.297  24.604  1.00  0.00     0.161 A 
ATOM     23  C   UNL A   1      32.228  24.595  24.169  1.00  0.00     0.038 A 
ATOM     24  N   UNL A   1      32.966  22.527  23.866  1.00  0.00    -0.215 N 
ATOM     25  C   UNL A   1      33.234  24.526  23.169  1.00  0.00     0.067 A 
ATOM     26  N   UNL A   1      33.752  23.295  23.067  1.00  0.00    -0.171 NA
ATOM     27  C   UNL A   1      33.739  25.599  22.276  1.00  0.00     0.069 C 
BRANCH  24  28
ATOM     28  C   UNL A   1      33.067  21.114  23.844  1.00  0.00     0.067 A 
ATOM     29  C   UNL A   1      32.223  20.362  23.011  1.00  0.00     0.031 A 
ATOM     30  C   UNL A   1      34.003  20.477  24.667  1.00  0.00     0.031 A 
ATOM     31  C   UNL A   1      32.304  18.971  23.019  1.00  0.00     0.041 A 
ATOM     32  C   UNL A   1      34.040  19.081  24.708  1.00  0.00     0.041 A 
ATOM     33  C   UNL A   1      33.196  18.343  23.883  1.00  0.00     0.123 A 
ATOM     34  F   UNL A   1      33.239  17.005  23.918  1.00  0.00    -0.207 F 
ENDBRANCH  24  28
ENDBRANCH  12  17
ENDBRANCH   9  11
ENDBRANCH   8   9
ENDBRANCH   7   8
ENDBRANCH   6   7
ENDBRANCH   5   6
ENDBRANCH   4   5
ENDBRANCH   3   4
ENDBRANCH   2   3
ENDBRANCH   1   2
BRANCH   1  35
ATOM     35  C   UNL A   1      33.269  34.654  29.673  1.00  0.00     0.188 C 
BRANCH  35  36
ATOM     36  O   UNL A   1      34.228  34.951  30.688  1.00  0.00    -0.376 OA
BRANCH  36  37
ATOM     37  C   UNL A   1      33.912  35.896  31.700  1.00  0.00     0.202 C 
BRANCH  37  38
ATOM     38  C   UNL A   1      33.640  35.274  33.066  1.00  0.00     0.261 C 
BRANCH  38  39
ATOM     39  O   UNL A   1      34.818  35.114  33.837  1.00  0.00    -0.460 OA
BRANCH  39  40
ATOM     40  C   UNL A   1      35.533  34.009  33.581  1.00  0.00     0.338 C 
ATOM     41  O   UNL A   1      35.105  32.855  33.477  1.00  0.00    -0.246 OA
BRANCH  40  42
ATOM     42  C   UNL A   1      36.942  34.370  33.512  1.00  0.00     0.060 A 
ATOM     43  C   UNL A   1      37.477  34.473  32.229  1.00  0.00     0.016 A 
ATOM     44  C   UNL A   1      37.731  34.177  34.658  1.00  0.00     0.016 A 
ATOM     45  C   UNL A   1      38.757  34.023  32.051  1.00  0.00     0.010 A 
ATOM     46  C   UNL A   1      38.995  33.696  34.476  1.00  0.00     0.010 A 
ATOM     47  C   UNL A   1      39.429  33.519  33.166  1.00  0.00    -0.014 A 
BRANCH  47  48
ATOM     48  C   UNL A   1      40.599  32.718  32.928  1.00  0.00     0.031 A 
ATOM     49  C   UNL A   1      41.821  33.511  32.741  1.00  0.00     0.074 A 
ATOM     50  C   UNL A   1      40.542  31.376  32.977  1.00  0.00     0.049 A 
ATOM     51  N   UNL A   1      42.517  33.644  31.666  1.00  0.00    -0.248 NA
ATOM     52  C   UNL A   1      42.212  34.408  33.840  1.00  0.00     0.031 C 
ATOM     53  C   UNL A   1      39.447  30.522  33.447  1.00  0.00     0.029 A 
ATOM     54  N   UNL A   1      41.535  30.493  32.722  1.00  0.00    -0.354 N 
ATOM     55  C   UNL A   1      43.560  34.489  32.011  1.00  0.00     0.074 A 
ATOM     56  C   UNL A   1      43.206  35.087  33.272  1.00  0.00     0.031 C 
ATOM     57  C   UNL A   1      39.929  29.275  33.664  1.00  0.00     0.029 A 
ATOM     58  C   UNL A   1      41.319  29.224  33.241  1.00  0.00     0.049 A 
ATOM     59  H   UNL A   1      42.343  30.729  32.212  1.00  0.00     0.167 HD
ATOM     60  C   UNL A   1      44.746  34.464  31.356  1.00  0.00     0.034 A 
ATOM     61  C   UNL A   1      42.271  28.269  33.403  1.00  0.00     0.034 A 
ATOM     62  C   UNL A   1      44.639  33.799  30.082  1.00  0.00     0.049 A 
ATOM     63  C   UNL A   1      43.381  28.617  32.471  1.00  0.00     0.074 A 
ATOM     64  C   UNL A   1      43.901  34.041  28.938  1.00  0.00     0.029 A 
ATOM     65  N   UNL A   1      45.025  32.481  30.001  1.00  0.00    -0.354 N 
ATOM     66  N   UNL A   1      43.258  28.635  31.170  1.00  0.00    -0.248 NA
ATOM     67  C   UNL A   1      44.487  29.410  32.993  1.00  0.00     0.031 C 
ATOM     68  C   UNL A   1      43.482  32.756  28.485  1.00  0.00     0.029 A 
ATOM     69  C   UNL A   1      44.032  31.796  29.338  1.00  0.00     0.049 A 
ATOM     70  H   UNL A   1      45.860  32.097  30.354  1.00  0.00     0.167 HD
ATOM     71  C   UNL A   1      43.983  29.742  30.749  1.00  0.00     0.074 A 
ATOM     72  C   UNL A   1      44.793  30.122  31.904  1.00  0.00     0.031 C 
ATOM     73  C   UNL A   1      43.655  30.418  29.608  1.00  0.00     0.034 A 
BRANCH  60  74
ATOM     74  C   UNL A   1      46.051  34.800  32.017  1.00  0.00     0.023 A 
ATOM     75  C   UNL A   1      46.638  33.853  32.866  1.00  0.00     0.031 A 
ATOM     76  C   UNL A   1      46.633  36.092  32.024  1.00  0.00     0.131 A 
ATOM     77  C   UNL A   1      47.735  34.202  33.673  1.00  0.00     0.055 A 
ATOM     78  C   UNL A   1      47.770  36.411  32.766  1.00  0.00     0.041 A 
ATOM     79  F   UNL A   1      46.077  37.134  31.390  1.00  0.00    -0.206 F 
ATOM     80  C   UNL A   1      48.318  35.467  33.613  1.00  0.00     0.022 A 
BRANCH  77  81
ATOM     81  S   UNL A   1      48.307  33.014  34.912  1.00  0.00     0.124 S 
ATOM     82  O   UNL A   1      47.086  32.755  35.666  1.00  0.00    -0.237 OA
ATOM     83  O   UNL A   1      48.795  31.920  34.078  1.00  0.00    -0.237 OA
ATOM     84  O   UNL A   1      49.341  33.751  35.636  1.00  0.00    -0.744 OA
ENDBRANCH  77  81
ENDBRANCH  60  74
BRANCH  61  85
ATOM     85  C   UNL A   1      42.432  27.348  34.565  1.00  0.00     0.023 A 
ATOM     86  C   UNL A   1      43.063  26.094  34.424  1.00  0.00     0.031 A 
ATOM     87  C   UNL A   1      42.196  27.786  35.889  1.00  0.00     0.131 A 
ATOM     88  C   UNL A   1      43.439  25.349  35.564  1.00  0.00     0.055 A 
ATOM     89  C   UNL A   1      42.556  27.038  37.013  1.00  0.00     0.041 A 
ATOM     90  F   UNL A   1      41.692  29.002  36.149  1.00  0.00    -0.206 F 
ATOM     91  C   UNL A   1      43.194  25.820  36.855  1.00  0.00     0.022 A 
BRANCH  88  92
ATOM     92  S   UNL A   1      44.392  23.809  35.385  1.00  0.00     0.124 S 
ATOM     93  O   UNL A   1      45.422  24.198  34.427  1.00  0.00    -0.237 OA
ATOM     94  O   UNL A   1      44.841  23.550  36.748  1.00  0.00    -0.237 OA
ATOM     95  O   UNL A   1      43.402  22.860  34.877  1.00  0.00    -0.744 OA
ENDBRANCH  88  92
ENDBRANCH  61  85
BRANCH  73  96
ATOM     96  C   UNL A   1      42.656  29.786  28.656  1.00  0.00     0.023 A 
ATOM     97  C   UNL A   1      42.989  28.882  27.620  1.00  0.00     0.031 A 
ATOM     98  C   UNL A   1      41.291  30.007  28.912  1.00  0.00     0.131 A 
ATOM     99  C   UNL A   1      41.968  28.243  26.884  1.00  0.00     0.055 A 
ATOM    100  C   UNL A   1      40.286  29.359  28.196  1.00  0.00     0.041 A 
ATOM    101  F   UNL A   1      40.911  30.831  29.903  1.00  0.00    -0.206 F 
ATOM    102  C   UNL A   1      40.620  28.475  27.176  1.00  0.00     0.022 A 
BRANCH  99 103
ATOM    103  S   UNL A   1      42.379  27.078  25.542  1.00  0.00     0.124 S 
ATOM    104  O   UNL A   1      43.551  26.377  26.053  1.00  0.00    -0.237 OA
ATOM    105  O   UNL A   1      41.157  26.287  25.423  1.00  0.00    -0.237 OA
ATOM    106  O   UNL A   1      42.646  27.954  24.399  1.00  0.00    -0.744 OA
ENDBRANCH  99 103
ENDBRANCH  73  96
ENDBRANCH  47  48
ENDBRANCH  40  42
ENDBRANCH  39  40
ENDBRANCH  38  39
ENDBRANCH  37  38
ENDBRANCH  36  37
ENDBRANCH  35  36
ENDBRANCH   1  35
TORSDOF 25
ENDMDL
MODEL 3
REMARK VINA RESULT:      -9.3      6.606     13.044
REMARK SMILES CC1=Nc2c(c(C)nn2-c2ccc(F)cc2)[C@H](c2ccc(C(=O)OCCOCCOCCOCCOC(=O)c3ccc(-c4c5nc(c(-c6cc(S(=O)(=O)[O-])ccc6F)c6ccc([nH]6)c(-c6cc(S(=O)(=O)[O-])ccc6F)c6nc(c(-c7cc(S(=O)(=O)[O-])ccc7F)c7ccc4[nH]7)C=C6)C=C5)cc3)cc2)S1
REMARK SMILES IDX 31 1 30 2 29 3 28 4 27 5 26 6 25 7 24 8 22 9 23 10 21 11
REMARK SMILES IDX 18 12 19 13 103 14 20 15 102 16 17 17 1 18 2 19 3 20 104 21
REMARK SMILES IDX 4 22 5 23 9 24 6 25 8 26 7 27 10 28 11 29 16 30 12 31 15 32
REMARK SMILES IDX 13 33 14 34 32 35 33 36 34 37 35 38 36 39 37 40 38 41 39 42
REMARK SMILES IDX 40 43 101 44 41 45 100 46 42 47 43 48 44 49 94 50 45 51
REMARK SMILES IDX 99 52 93 53 95 54 46 55 98 56 92 57 91 58 47 60 79 61 59 62
REMARK SMILES IDX 78 63 60 64 63 65 77 66 96 67 61 68 62 69 76 71 97 72 64 73
REMARK SMILES IDX 48 74 49 75 57 76 50 77 56 78 58 79 55 80 51 81 52 82 53 83
REMARK SMILES IDX 54 84 80 85 81 86 89 87 82 88 88 89 90 90 87 91 83 92 84 93
REMARK SMILES IDX 85 94 86 95 65 96 66 97 74 98 67 99 73 100 75 101 72 102
REMARK SMILES IDX 68 103 69 104 70 105 71 106
REMARK H PARENT 95 59 63 70
REMARK Flexibility Score: inf
ROOT
ATOM      1  C   UNL A   1      33.726  32.938  28.009  1.00  0.00     0.188 C 
ENDROOT
BRANCH   1   2
ATOM      2  O   UNL A   1      33.169  34.232  28.222  1.00  0.00    -0.377 OA
BRANCH   2   3
ATOM      3  C   UNL A   1      33.624  34.895  29.390  1.00  0.00     0.188 C 
BRANCH   3   4
ATOM      4  C   UNL A   1      32.979  36.281  29.606  1.00  0.00     0.188 C 
BRANCH   4   5
ATOM      5  O   UNL A   1      32.456  36.680  30.866  1.00  0.00    -0.376 OA
BRANCH   5   6
ATOM      6  C   UNL A   1      33.190  37.472  31.786  1.00  0.00     0.202 C 
BRANCH   6   7
ATOM      7  C   UNL A   1      34.316  36.918  32.680  1.00  0.00     0.261 C 
BRANCH   7   8
ATOM      8  O   UNL A   1      33.952  35.916  33.630  1.00  0.00    -0.460 OA
BRANCH   8   9
ATOM      9  C   UNL A   1      34.374  34.670  33.351  1.00  0.00     0.338 C 
ATOM     10  O   UNL A   1      33.876  33.888  32.546  1.00  0.00    -0.246 OA
BRANCH   9  11
ATOM     11  C   UNL A   1      35.666  34.423  34.034  1.00  0.00     0.060 A 
ATOM     12  C   UNL A   1      38.201  33.914  35.177  1.00  0.00    -0.030 A 
ATOM     13  C   UNL A   1      38.078  34.432  33.874  1.00  0.00     0.006 A 
ATOM     14  C   UNL A   1      37.021  33.756  35.933  1.00  0.00     0.006 A 
ATOM     15  C   UNL A   1      36.829  34.682  33.309  1.00  0.00     0.016 A 
ATOM     16  C   UNL A   1      35.760  33.996  35.363  1.00  0.00     0.016 A 
BRANCH  12  17
ATOM     17  C   UNL A   1      39.578  33.457  35.642  1.00  0.00     0.119 C 
ATOM     18  C   UNL A   1      41.296  36.548  37.798  1.00  0.00     0.075 C 
ATOM     19  C   UNL A   1      41.143  35.447  36.783  1.00  0.00     0.074 C 
ATOM     20  N   UNL A   1      41.795  35.559  35.670  1.00  0.00    -0.227 NA
ATOM     21  S   UNL A   1      40.072  34.139  37.260  1.00  0.00    -0.098 SA
ATOM     22  C   UNL A   1      41.589  34.633  34.705  1.00  0.00     0.161 A 
ATOM     23  C   UNL A   1      40.577  33.708  34.582  1.00  0.00     0.038 A 
ATOM     24  N   UNL A   1      42.381  34.509  33.573  1.00  0.00    -0.215 N 
ATOM     25  C   UNL A   1      40.824  33.069  33.337  1.00  0.00     0.067 A 
ATOM     26  N   UNL A   1      41.849  33.630  32.684  1.00  0.00    -0.171 NA
ATOM     27  C   UNL A   1      40.120  31.915  32.723  1.00  0.00     0.069 C 
BRANCH  24  28
ATOM     28  C   UNL A   1      43.625  35.136  33.320  1.00  0.00     0.067 A 
ATOM     29  C   UNL A   1      44.742  34.831  34.116  1.00  0.00     0.031 A 
ATOM     30  C   UNL A   1      43.729  36.069  32.281  1.00  0.00     0.031 A 
ATOM     31  C   UNL A   1      45.954  35.477  33.883  1.00  0.00     0.041 A 
ATOM     32  C   UNL A   1      44.933  36.751  32.091  1.00  0.00     0.041 A 
ATOM     33  C   UNL A   1      46.033  36.445  32.888  1.00  0.00     0.123 A 
ATOM     34  F   UNL A   1      47.190  37.094  32.697  1.00  0.00    -0.207 F 
ENDBRANCH  24  28
ENDBRANCH  12  17
ENDBRANCH   9  11
ENDBRANCH   8   9
ENDBRANCH   7   8
ENDBRANCH   6   7
ENDBRANCH   5   6
ENDBRANCH   4   5
ENDBRANCH   3   4
ENDBRANCH   2   3
ENDBRANCH   1   2
BRANCH   1  35
ATOM     35  C   UNL A   1      35.268  32.821  27.922  1.00  0.00     0.188 C 
BRANCH  35  36
ATOM     36  O   UNL A   1      35.863  32.087  28.992  1.00  0.00    -0.376 OA
BRANCH  36  37
ATOM     37  C   UNL A   1      35.090  31.765  30.139  1.00  0.00     0.202 C 
BRANCH  37  38
ATOM     38  C   UNL A   1      35.919  31.508  31.394  1.00  0.00     0.261 C 
BRANCH  38  39
ATOM     39  O   UNL A   1      37.246  31.112  31.100  1.00  0.00    -0.460 OA
BRANCH  39  40
ATOM     40  C   UNL A   1      37.442  29.792  30.972  1.00  0.00     0.338 C 
ATOM     41  O   UNL A   1      36.947  28.896  31.664  1.00  0.00    -0.246 OA
BRANCH  40  42
ATOM     42  C   UNL A   1      38.410  29.564  29.908  1.00  0.00     0.060 A 
ATOM     43  C   UNL A   1      38.770  28.235  29.693  1.00  0.00     0.016 A 
ATOM     44  C   UNL A   1      39.196  30.649  29.486  1.00  0.00     0.016 A 
ATOM     45  C   UNL A   1      40.081  27.988  29.383  1.00  0.00     0.010 A 
ATOM     46  C   UNL A   1      40.509  30.402  29.211  1.00  0.00     0.010 A 
ATOM     47  C   UNL A   1      40.942  29.082  29.286  1.00  0.00    -0.014 A 
BRANCH  47  48
ATOM     48  C   UNL A   1      42.354  28.818  29.334  1.00  0.00     0.031 A 
ATOM     49  C   UNL A   1      42.899  28.802  30.698  1.00  0.00     0.074 A 
ATOM     50  C   UNL A   1      43.043  28.526  28.217  1.00  0.00     0.049 A 
ATOM     51  N   UNL A   1      43.720  29.639  31.228  1.00  0.00    -0.248 NA
ATOM     52  C   UNL A   1      42.316  27.834  31.641  1.00  0.00     0.031 C 
ATOM     53  C   UNL A   1      42.531  28.229  26.876  1.00  0.00     0.029 A 
ATOM     54  N   UNL A   1      44.374  28.311  28.094  1.00  0.00    -0.354 N 
ATOM     55  C   UNL A   1      43.918  29.184  32.522  1.00  0.00     0.074 A 
ATOM     56  C   UNL A   1      42.883  28.218  32.781  1.00  0.00     0.031 C 
ATOM     57  C   UNL A   1      43.515  27.646  26.152  1.00  0.00     0.029 A 
ATOM     58  C   UNL A   1      44.740  27.638  26.937  1.00  0.00     0.049 A 
ATOM     59  H   UNL A   1      45.028  28.607  28.768  1.00  0.00     0.167 HD
ATOM     60  C   UNL A   1      45.054  29.458  33.210  1.00  0.00     0.034 A 
ATOM     61  C   UNL A   1      45.935  27.030  26.727  1.00  0.00     0.034 A 
ATOM     62  C   UNL A   1      45.781  30.555  32.624  1.00  0.00     0.049 A 
ATOM     63  C   UNL A   1      46.900  27.658  27.674  1.00  0.00     0.074 A 
ATOM     64  C   UNL A   1      45.483  31.886  32.396  1.00  0.00     0.029 A 
ATOM     65  N   UNL A   1      46.837  30.264  31.790  1.00  0.00    -0.354 N 
ATOM     66  N   UNL A   1      47.245  28.917  27.631  1.00  0.00    -0.248 NA
ATOM     67  C   UNL A   1      47.114  27.009  28.962  1.00  0.00     0.031 C 
ATOM     68  C   UNL A   1      46.039  32.179  31.117  1.00  0.00     0.029 A 
ATOM     69  C   UNL A   1      46.697  31.035  30.658  1.00  0.00     0.049 A 
ATOM     70  H   UNL A   1      47.560  29.621  31.970  1.00  0.00     0.167 HD
ATOM     71  C   UNL A   1      47.320  29.323  28.957  1.00  0.00     0.074 A 
ATOM     72  C   UNL A   1      47.322  28.083  29.729  1.00  0.00     0.031 C 
ATOM     73  C   UNL A   1      47.088  30.619  29.321  1.00  0.00     0.034 A 
BRANCH  60  74
ATOM     74  C   UNL A   1      45.624  28.533  34.245  1.00  0.00     0.023 A 
ATOM     75  C   UNL A   1      46.434  27.470  33.823  1.00  0.00     0.031 A 
ATOM     76  C   UNL A   1      45.230  28.516  35.606  1.00  0.00     0.131 A 
ATOM     77  C   UNL A   1      46.807  26.457  34.724  1.00  0.00     0.055 A 
ATOM     78  C   UNL A   1      45.667  27.553  36.514  1.00  0.00     0.041 A 
ATOM     79  F   UNL A   1      44.327  29.374  36.103  1.00  0.00    -0.206 F 
ATOM     80  C   UNL A   1      46.447  26.503  36.071  1.00  0.00     0.022 A 
BRANCH  77  81
ATOM     81  S   UNL A   1      47.659  24.998  34.077  1.00  0.00     0.124 S 
ATOM     82  O   UNL A   1      46.728  23.930  34.421  1.00  0.00    -0.237 OA
ATOM     83  O   UNL A   1      47.776  25.320  32.659  1.00  0.00    -0.237 OA
ATOM     84  O   UNL A   1      48.919  24.986  34.817  1.00  0.00    -0.744 OA
ENDBRANCH  77  81
ENDBRANCH  60  74
BRANCH  61  85
ATOM     85  C   UNL A   1      46.171  25.713  26.067  1.00  0.00     0.023 A 
ATOM     86  C   UNL A   1      45.294  24.627  26.267  1.00  0.00     0.031 A 
ATOM     87  C   UNL A   1      47.119  25.571  25.028  1.00  0.00     0.131 A 
ATOM     88  C   UNL A   1      45.376  23.480  25.447  1.00  0.00     0.055 A 
ATOM     89  C   UNL A   1      47.206  24.427  24.230  1.00  0.00     0.041 A 
ATOM     90  F   UNL A   1      47.939  26.574  24.680  1.00  0.00    -0.206 F 
ATOM     91  C   UNL A   1      46.323  23.380  24.427  1.00  0.00     0.022 A 
BRANCH  88  92
ATOM     92  S   UNL A   1      44.146  22.146  25.601  1.00  0.00     0.124 S 
ATOM     93  O   UNL A   1      44.971  20.953  25.440  1.00  0.00    -0.237 OA
ATOM     94  O   UNL A   1      43.592  22.374  26.931  1.00  0.00    -0.237 OA
ATOM     95  O   UNL A   1      43.222  22.414  24.500  1.00  0.00    -0.744 OA
ENDBRANCH  88  92
ENDBRANCH  61  85
BRANCH  73  96
ATOM     96  C   UNL A   1      47.014  31.674  28.231  1.00  0.00     0.023 A 
ATOM     97  C   UNL A   1      45.858  31.970  27.471  1.00  0.00     0.031 A 
ATOM     98  C   UNL A   1      48.133  32.507  28.063  1.00  0.00     0.131 A 
ATOM     99  C   UNL A   1      45.858  33.066  26.582  1.00  0.00     0.055 A 
ATOM    100  C   UNL A   1      48.124  33.601  27.198  1.00  0.00     0.041 A 
ATOM    101  F   UNL A   1      49.251  32.296  28.779  1.00  0.00    -0.206 F 
ATOM    102  C   UNL A   1      46.986  33.884  26.451  1.00  0.00     0.022 A 
BRANCH  99 103
ATOM    103  S   UNL A   1      44.379  33.460  25.591  1.00  0.00     0.124 S 
ATOM    104  O   UNL A   1      43.700  32.176  25.476  1.00  0.00    -0.237 OA
ATOM    105  O   UNL A   1      43.710  34.471  26.406  1.00  0.00    -0.237 OA
ATOM    106  O   UNL A   1      44.935  33.969  24.335  1.00  0.00    -0.744 OA
ENDBRANCH  99 103
ENDBRANCH  73  96
ENDBRANCH  47  48
ENDBRANCH  40  42
ENDBRANCH  39  40
ENDBRANCH  38  39
ENDBRANCH  37  38
ENDBRANCH  36  37
ENDBRANCH  35  36
ENDBRANCH   1  35
TORSDOF 25
ENDMDL
