MODEL 1
REMARK VINA RESULT:      -9.4      0.000      0.000
REMARK SMILES C[NH2+][C@](CSc1cccc(F)c1)(C(=O)OCCOCCOCCOCCOC(=O)c1ccc(-c2c3nc(c(-c4cc(S(=O)(=O)[O-])ccc4F)c4ccc([nH]4)c(-c4cc(S(=O)(=O)[O-])ccc4F)c4nc(c(-c5cc(S(=O)(=O)[O-])ccc5F)c5ccc2[nH]5)C=C4)C=C3)cc1)c1ccccc1
REMARK SMILES IDX 21 1 20 2 19 3 18 4 17 5 16 6 15 7 13 8 14 9 3 10 2 11 1 12
REMARK SMILES IDX 93 15 94 16 98 17 95 18 97 19 96 20 4 21 5 22 6 23 7 24
REMARK SMILES IDX 12 25 8 26 10 27 9 28 11 29 22 30 23 31 24 32 25 33 26 34
REMARK SMILES IDX 27 35 28 36 29 37 30 38 31 39 92 40 32 41 91 42 33 43 34 44
REMARK SMILES IDX 35 45 85 46 36 47 90 48 84 49 86 50 37 51 89 52 83 53 82 54
REMARK SMILES IDX 38 56 70 57 50 58 69 59 51 60 54 61 68 62 87 63 52 64 53 65
REMARK SMILES IDX 67 67 88 68 55 69 39 70 40 71 48 72 41 73 47 74 49 75 46 76
REMARK SMILES IDX 42 77 43 78 44 79 45 80 71 81 72 82 80 83 73 84 79 85 81 86
REMARK SMILES IDX 78 87 74 88 75 89 76 90 77 91 56 92 57 93 65 94 58 95 64 96
REMARK SMILES IDX 66 97 63 98 59 99 60 100 61 101 62 102
REMARK H PARENT 2 13 2 14 86 55 54 66
REMARK Flexibility Score: inf
ROOT
ATOM      1  O   UNL A   1      35.539  20.703  25.381  1.00  0.00    -0.377 OA
ENDROOT
BRANCH   1   2
ATOM      2  C   UNL A   1      34.342  20.582  24.643  1.00  0.00     0.188 C 
BRANCH   2   3
ATOM      3  C   UNL A   1      33.071  20.913  25.429  1.00  0.00     0.188 C 
BRANCH   3   4
ATOM      4  O   UNL A   1      33.020  22.031  26.291  1.00  0.00    -0.376 OA
BRANCH   4   5
ATOM      5  C   UNL A   1      32.990  23.360  25.791  1.00  0.00     0.202 C 
BRANCH   5   6
ATOM      6  C   UNL A   1      31.760  24.052  25.169  1.00  0.00     0.261 C 
BRANCH   6   7
ATOM      7  O   UNL A   1      31.947  24.827  23.975  1.00  0.00    -0.458 OA
BRANCH   7   8
ATOM      8  C   UNL A   1      30.936  25.669  23.637  1.00  0.00     0.374 C 
ATOM      9  O   UNL A   1      29.763  25.300  23.594  1.00  0.00    -0.244 OA
BRANCH   8  10
ATOM     10  C   UNL A   1      31.416  27.144  23.277  1.00  0.00     0.229 C 
BRANCH  10  11
ATOM     11  N   UNL A   1      32.166  27.139  21.966  1.00  0.00    -0.330 N 
ATOM     12  C   UNL A   1      33.449  27.835  21.983  1.00  0.00     0.332 C 
ATOM     13  H   UNL A   1      32.338  26.169  21.702  1.00  0.00     0.347 HD
ATOM     14  H   UNL A   1      31.579  27.643  21.301  1.00  0.00     0.347 HD
ENDBRANCH  10  11
BRANCH  10  15
ATOM     15  C   UNL A   1      30.159  28.073  23.075  1.00  0.00     0.025 A 
ATOM     16  C   UNL A   1      28.830  27.636  23.247  1.00  0.00     0.011 A 
ATOM     17  C   UNL A   1      30.327  29.422  22.700  1.00  0.00     0.011 A 
ATOM     18  C   UNL A   1      27.736  28.497  23.120  1.00  0.00     0.001 A 
ATOM     19  C   UNL A   1      29.231  30.282  22.546  1.00  0.00     0.001 A 
ATOM     20  C   UNL A   1      27.936  29.822  22.768  1.00  0.00     0.000 A 
ENDBRANCH  10  15
BRANCH  10  21
ATOM     21  C   UNL A   1      32.310  27.807  24.414  1.00  0.00     0.161 C 
BRANCH  21  22
ATOM     22  S   UNL A   1      31.501  28.359  25.991  1.00  0.00    -0.118 SA
BRANCH  22  23
ATOM     23  C   UNL A   1      32.779  29.433  26.621  1.00  0.00     0.010 A 
ATOM     24  C   UNL A   1      34.051  28.899  26.844  1.00  0.00     0.015 A 
ATOM     25  C   UNL A   1      32.531  30.772  26.939  1.00  0.00     0.054 A 
ATOM     26  C   UNL A   1      35.037  29.661  27.474  1.00  0.00     0.004 A 
ATOM     27  C   UNL A   1      33.523  31.526  27.557  1.00  0.00     0.124 A 
ATOM     28  C   UNL A   1      34.766  30.976  27.846  1.00  0.00     0.039 A 
ATOM     29  F   UNL A   1      33.263  32.791  27.910  1.00  0.00    -0.207 F 
ENDBRANCH  22  23
ENDBRANCH  21  22
ENDBRANCH  10  21
ENDBRANCH   8  10
ENDBRANCH   7   8
ENDBRANCH   6   7
ENDBRANCH   5   6
ENDBRANCH   4   5
ENDBRANCH   3   4
ENDBRANCH   2   3
ENDBRANCH   1   2
BRANCH   1  30
ATOM     30  C   UNL A   1      36.737  20.990  24.666  1.00  0.00     0.188 C 
BRANCH  30  31
ATOM     31  C   UNL A   1      38.014  21.385  25.439  1.00  0.00     0.188 C 
BRANCH  31  32
ATOM     32  O   UNL A   1      39.046  20.409  25.418  1.00  0.00    -0.376 OA
BRANCH  32  33
ATOM     33  C   UNL A   1      40.099  20.500  26.368  1.00  0.00     0.202 C 
BRANCH  33  34
ATOM     34  C   UNL A   1      41.261  19.494  26.271  1.00  0.00     0.261 C 
BRANCH  34  35
ATOM     35  O   UNL A   1      42.184  19.670  25.187  1.00  0.00    -0.460 OA
BRANCH  35  36
ATOM     36  C   UNL A   1      43.438  20.076  25.493  1.00  0.00     0.338 C 
ATOM     37  O   UNL A   1      44.470  19.479  25.269  1.00  0.00    -0.246 OA
BRANCH  36  38
ATOM     38  C   UNL A   1      43.364  21.477  25.962  1.00  0.00     0.060 A 
ATOM     39  C   UNL A   1      43.084  22.481  25.026  1.00  0.00     0.016 A 
ATOM     40  C   UNL A   1      43.606  21.800  27.299  1.00  0.00     0.016 A 
ATOM     41  C   UNL A   1      43.130  23.819  25.408  1.00  0.00     0.010 A 
ATOM     42  C   UNL A   1      43.674  23.145  27.676  1.00  0.00     0.010 A 
ATOM     43  C   UNL A   1      43.498  24.156  26.715  1.00  0.00    -0.014 A 
BRANCH  43  44
ATOM     44  C   UNL A   1      43.981  25.535  26.977  1.00  0.00     0.031 A 
ATOM     45  C   UNL A   1      43.019  26.501  27.621  1.00  0.00     0.074 A 
ATOM     46  C   UNL A   1      45.257  25.893  26.751  1.00  0.00     0.049 A 
ATOM     47  N   UNL A   1      43.202  27.746  27.973  1.00  0.00    -0.248 NA
ATOM     48  C   UNL A   1      41.668  25.990  27.910  1.00  0.00     0.031 C 
ATOM     49  C   UNL A   1      46.295  25.021  26.203  1.00  0.00     0.029 A 
ATOM     50  N   UNL A   1      45.899  27.084  26.976  1.00  0.00    -0.354 N 
ATOM     51  C   UNL A   1      41.995  28.163  28.524  1.00  0.00     0.074 A 
ATOM     52  C   UNL A   1      41.072  27.057  28.418  1.00  0.00     0.031 C 
ATOM     53  C   UNL A   1      47.451  25.706  26.149  1.00  0.00     0.029 A 
ATOM     54  C   UNL A   1      47.227  27.073  26.622  1.00  0.00     0.049 A 
ATOM     55  H   UNL A   1      45.450  27.875  27.355  1.00  0.00     0.167 HD
ATOM     56  C   UNL A   1      41.688  29.354  29.088  1.00  0.00     0.034 A 
ATOM     57  C   UNL A   1      48.150  28.056  26.663  1.00  0.00     0.034 A 
ATOM     58  C   UNL A   1      42.617  30.445  29.200  1.00  0.00     0.049 A 
ATOM     59  C   UNL A   1      47.755  29.416  27.185  1.00  0.00     0.074 A 
ATOM     60  C   UNL A   1      42.413  31.691  29.765  1.00  0.00     0.029 A 
ATOM     61  N   UNL A   1      43.923  30.425  28.731  1.00  0.00    -0.354 N 
ATOM     62  N   UNL A   1      46.606  29.803  27.688  1.00  0.00    -0.248 NA
ATOM     63  C   UNL A   1      48.775  30.476  27.138  1.00  0.00     0.031 C 
ATOM     64  C   UNL A   1      43.570  32.449  29.572  1.00  0.00     0.029 A 
ATOM     65  C   UNL A   1      44.521  31.653  28.953  1.00  0.00     0.049 A 
ATOM     66  H   UNL A   1      44.359  29.652  28.304  1.00  0.00     0.167 HD
ATOM     67  C   UNL A   1      46.767  31.143  28.028  1.00  0.00     0.074 A 
ATOM     68  C   UNL A   1      48.127  31.500  27.679  1.00  0.00     0.031 C 
ATOM     69  C   UNL A   1      45.873  31.997  28.584  1.00  0.00     0.034 A 
BRANCH  56  70
ATOM     70  C   UNL A   1      40.285  29.549  29.595  1.00  0.00     0.023 A 
ATOM     71  C   UNL A   1      39.987  29.523  30.968  1.00  0.00     0.031 A 
ATOM     72  C   UNL A   1      39.232  29.776  28.692  1.00  0.00     0.131 A 
ATOM     73  C   UNL A   1      38.661  29.679  31.396  1.00  0.00     0.055 A 
ATOM     74  C   UNL A   1      37.926  29.997  29.129  1.00  0.00     0.041 A 
ATOM     75  F   UNL A   1      39.460  29.789  27.369  1.00  0.00    -0.206 F 
ATOM     76  C   UNL A   1      37.632  29.941  30.487  1.00  0.00     0.022 A 
BRANCH  73  77
ATOM     77  S   UNL A   1      38.284  29.447  33.154  1.00  0.00     0.124 S 
ATOM     78  O   UNL A   1      39.579  29.024  33.680  1.00  0.00    -0.237 OA
ATOM     79  O   UNL A   1      37.832  30.773  33.559  1.00  0.00    -0.237 OA
ATOM     80  O   UNL A   1      37.252  28.411  33.150  1.00  0.00    -0.744 OA
ENDBRANCH  73  77
ENDBRANCH  56  70
BRANCH  57  81
ATOM     81  C   UNL A   1      49.531  27.797  26.166  1.00  0.00     0.023 A 
ATOM     82  C   UNL A   1      49.860  27.966  24.812  1.00  0.00     0.031 A 
ATOM     83  C   UNL A   1      50.547  27.386  27.049  1.00  0.00     0.131 A 
ATOM     84  C   UNL A   1      51.172  27.717  24.378  1.00  0.00     0.055 A 
ATOM     85  C   UNL A   1      51.857  27.175  26.618  1.00  0.00     0.041 A 
ATOM     86  F   UNL A   1      50.281  27.212  28.353  1.00  0.00    -0.206 F 
ATOM     87  C   UNL A   1      52.175  27.338  25.275  1.00  0.00     0.022 A 
BRANCH  84  88
ATOM     88  S   UNL A   1      51.555  27.884  22.613  1.00  0.00     0.124 S 
ATOM     89  O   UNL A   1      50.793  29.075  22.256  1.00  0.00    -0.237 OA
ATOM     90  O   UNL A   1      53.007  28.029  22.628  1.00  0.00    -0.237 OA
ATOM     91  O   UNL A   1      51.064  26.633  22.039  1.00  0.00    -0.744 OA
ENDBRANCH  84  88
ENDBRANCH  57  81
BRANCH  69  92
ATOM     92  C   UNL A   1      46.313  33.409  28.863  1.00  0.00     0.023 A 
ATOM     93  C   UNL A   1      45.932  34.467  28.023  1.00  0.00     0.031 A 
ATOM     94  C   UNL A   1      47.013  33.711  30.045  1.00  0.00     0.131 A 
ATOM     95  C   UNL A   1      46.252  35.785  28.378  1.00  0.00     0.055 A 
ATOM     96  C   UNL A   1      47.295  35.027  30.412  1.00  0.00     0.041 A 
ATOM     97  F   UNL A   1      47.389  32.732  30.884  1.00  0.00    -0.206 F 
ATOM     98  C   UNL A   1      46.912  36.073  29.577  1.00  0.00     0.022 A 
BRANCH  95  99
ATOM     99  S   UNL A   1      45.785  37.130  27.255  1.00  0.00     0.124 S 
ATOM    100  O   UNL A   1      44.341  36.945  27.147  1.00  0.00    -0.237 OA
ATOM    101  O   UNL A   1      46.223  38.318  27.981  1.00  0.00    -0.237 OA
ATOM    102  O   UNL A   1      46.540  36.838  26.037  1.00  0.00    -0.744 OA
ENDBRANCH  95  99
ENDBRANCH  69  92
ENDBRANCH  43  44
ENDBRANCH  36  38
ENDBRANCH  35  36
ENDBRANCH  34  35
ENDBRANCH  33  34
ENDBRANCH  32  33
ENDBRANCH  31  32
ENDBRANCH  30  31
ENDBRANCH   1  30
TORSDOF 28
ENDMDL
MODEL 2
REMARK VINA RESULT:      -9.0      3.724      5.382
REMARK SMILES C[NH2+][C@](CSc1cccc(F)c1)(C(=O)OCCOCCOCCOCCOC(=O)c1ccc(-c2c3nc(c(-c4cc(S(=O)(=O)[O-])ccc4F)c4ccc([nH]4)c(-c4cc(S(=O)(=O)[O-])ccc4F)c4nc(c(-c5cc(S(=O)(=O)[O-])ccc5F)c5ccc2[nH]5)C=C4)C=C3)cc1)c1ccccc1
REMARK SMILES IDX 21 1 20 2 19 3 18 4 17 5 16 6 15 7 13 8 14 9 3 10 2 11 1 12
REMARK SMILES IDX 93 15 94 16 98 17 95 18 97 19 96 20 4 21 5 22 6 23 7 24
REMARK SMILES IDX 12 25 8 26 10 27 9 28 11 29 22 30 23 31 24 32 25 33 26 34
REMARK SMILES IDX 27 35 28 36 29 37 30 38 31 39 92 40 32 41 91 42 33 43 34 44
REMARK SMILES IDX 35 45 85 46 36 47 90 48 84 49 86 50 37 51 89 52 83 53 82 54
REMARK SMILES IDX 38 56 70 57 50 58 69 59 51 60 54 61 68 62 87 63 52 64 53 65
REMARK SMILES IDX 67 67 88 68 55 69 39 70 40 71 48 72 41 73 47 74 49 75 46 76
REMARK SMILES IDX 42 77 43 78 44 79 45 80 71 81 72 82 80 83 73 84 79 85 81 86
REMARK SMILES IDX 78 87 74 88 75 89 76 90 77 91 56 92 57 93 65 94 58 95 64 96
REMARK SMILES IDX 66 97 63 98 59 99 60 100 61 101 62 102
REMARK H PARENT 2 13 2 14 86 55 54 66
REMARK Flexibility Score: inf
ROOT
ATOM      1  O   UNL A   1      35.754  21.482  26.270  1.00  0.00    -0.377 OA
ENDROOT
BRANCH   1   2
ATOM      2  C   UNL A   1      34.529  22.112  25.960  1.00  0.00     0.188 C 
BRANCH   2   3
ATOM      3  C   UNL A   1      33.620  21.314  25.022  1.00  0.00     0.188 C 
BRANCH   3   4
ATOM      4  O   UNL A   1      33.587  21.586  23.637  1.00  0.00    -0.376 OA
BRANCH   4   5
ATOM      5  C   UNL A   1      33.850  22.883  23.122  1.00  0.00     0.202 C 
BRANCH   5   6
ATOM      6  C   UNL A   1      32.902  24.096  23.233  1.00  0.00     0.261 C 
BRANCH   6   7
ATOM      7  O   UNL A   1      33.451  25.352  23.657  1.00  0.00    -0.458 OA
BRANCH   7   8
ATOM      8  C   UNL A   1      33.422  25.605  24.992  1.00  0.00     0.374 C 
ATOM      9  O   UNL A   1      34.300  25.203  25.754  1.00  0.00    -0.244 OA
BRANCH   8  10
ATOM     10  C   UNL A   1      32.144  26.429  25.465  1.00  0.00     0.229 C 
BRANCH  10  11
ATOM     11  N   UNL A   1      31.407  25.668  26.543  1.00  0.00    -0.330 N 
ATOM     12  C   UNL A   1      30.639  24.519  26.075  1.00  0.00     0.332 C 
ATOM     13  H   UNL A   1      32.093  25.335  27.220  1.00  0.00     0.347 HD
ATOM     14  H   UNL A   1      30.729  26.320  26.938  1.00  0.00     0.347 HD
ENDBRANCH  10  11
BRANCH  10  15
ATOM     15  C   UNL A   1      32.606  27.791  26.110  1.00  0.00     0.025 A 
ATOM     16  C   UNL A   1      33.956  28.143  26.307  1.00  0.00     0.011 A 
ATOM     17  C   UNL A   1      31.649  28.738  26.529  1.00  0.00     0.011 A 
ATOM     18  C   UNL A   1      34.339  29.384  26.826  1.00  0.00     0.001 A 
ATOM     19  C   UNL A   1      32.028  29.972  27.075  1.00  0.00     0.001 A 
ATOM     20  C   UNL A   1      33.373  30.300  27.211  1.00  0.00     0.000 A 
ENDBRANCH  10  15
BRANCH  10  21
ATOM     21  C   UNL A   1      31.153  26.787  24.275  1.00  0.00     0.161 C 
BRANCH  21  22
ATOM     22  S   UNL A   1      31.663  28.064  23.028  1.00  0.00    -0.118 SA
BRANCH  22  23
ATOM     23  C   UNL A   1      30.070  28.782  22.668  1.00  0.00     0.010 A 
ATOM     24  C   UNL A   1      30.019  29.935  21.878  1.00  0.00     0.015 A 
ATOM     25  C   UNL A   1      28.885  28.255  23.187  1.00  0.00     0.054 A 
ATOM     26  C   UNL A   1      28.813  30.615  21.696  1.00  0.00     0.004 A 
ATOM     27  C   UNL A   1      27.687  28.933  22.992  1.00  0.00     0.124 A 
ATOM     28  C   UNL A   1      27.644  30.118  22.268  1.00  0.00     0.039 A 
ATOM     29  F   UNL A   1      26.562  28.453  23.539  1.00  0.00    -0.207 F 
ENDBRANCH  22  23
ENDBRANCH  21  22
ENDBRANCH  10  21
ENDBRANCH   8  10
ENDBRANCH   7   8
ENDBRANCH   6   7
ENDBRANCH   5   6
ENDBRANCH   4   5
ENDBRANCH   3   4
ENDBRANCH   2   3
ENDBRANCH   1   2
BRANCH   1  30
ATOM     30  C   UNL A   1      36.630  21.163  25.193  1.00  0.00     0.188 C 
BRANCH  30  31
ATOM     31  C   UNL A   1      37.970  21.916  25.049  1.00  0.00     0.188 C 
BRANCH  31  32
ATOM     32  O   UNL A   1      38.726  22.017  26.250  1.00  0.00    -0.376 OA
BRANCH  32  33
ATOM     33  C   UNL A   1      40.144  22.000  26.174  1.00  0.00     0.202 C 
BRANCH  33  34
ATOM     34  C   UNL A   1      40.943  22.764  27.245  1.00  0.00     0.261 C 
BRANCH  34  35
ATOM     35  O   UNL A   1      42.374  22.708  27.153  1.00  0.00    -0.460 OA
BRANCH  35  36
ATOM     36  C   UNL A   1      42.940  23.074  25.981  1.00  0.00     0.338 C 
ATOM     37  O   UNL A   1      42.854  22.492  24.919  1.00  0.00    -0.246 OA
BRANCH  36  38
ATOM     38  C   UNL A   1      43.516  24.426  26.151  1.00  0.00     0.060 A 
ATOM     39  C   UNL A   1      43.625  25.253  25.026  1.00  0.00     0.016 A 
ATOM     40  C   UNL A   1      43.978  24.858  27.397  1.00  0.00     0.016 A 
ATOM     41  C   UNL A   1      44.273  26.481  25.125  1.00  0.00     0.010 A 
ATOM     42  C   UNL A   1      44.649  26.080  27.491  1.00  0.00     0.010 A 
ATOM     43  C   UNL A   1      44.853  26.864  26.341  1.00  0.00    -0.014 A 
BRANCH  43  44
ATOM     44  C   UNL A   1      45.902  27.912  26.321  1.00  0.00     0.031 A 
ATOM     45  C   UNL A   1      45.468  29.339  26.542  1.00  0.00     0.074 A 
ATOM     46  C   UNL A   1      47.207  27.606  26.216  1.00  0.00     0.049 A 
ATOM     47  N   UNL A   1      46.189  30.429  26.594  1.00  0.00    -0.248 NA
ATOM     48  C   UNL A   1      44.025  29.565  26.734  1.00  0.00     0.031 C 
ATOM     49  C   UNL A   1      47.750  26.255  26.075  1.00  0.00     0.029 A 
ATOM     50  N   UNL A   1      48.315  28.415  26.232  1.00  0.00    -0.354 N 
ATOM     51  C   UNL A   1      45.289  31.464  26.826  1.00  0.00     0.074 A 
ATOM     52  C   UNL A   1      43.967  30.882  26.857  1.00  0.00     0.031 C 
ATOM     53  C   UNL A   1      49.092  26.330  26.032  1.00  0.00     0.029 A 
ATOM     54  C   UNL A   1      49.501  27.733  26.105  1.00  0.00     0.049 A 
ATOM     55  H   UNL A   1      48.265  29.394  26.325  1.00  0.00     0.167 HD
ATOM     56  C   UNL A   1      45.542  32.779  27.018  1.00  0.00     0.034 A 
ATOM     57  C   UNL A   1      50.769  28.190  26.043  1.00  0.00     0.034 A 
ATOM     58  C   UNL A   1      46.862  33.347  26.996  1.00  0.00     0.049 A 
ATOM     59  C   UNL A   1      51.022  29.676  26.139  1.00  0.00     0.074 A 
ATOM     60  C   UNL A   1      47.232  34.665  27.191  1.00  0.00     0.029 A 
ATOM     61  N   UNL A   1      48.028  32.633  26.759  1.00  0.00    -0.354 N 
ATOM     62  N   UNL A   1      50.161  30.646  26.341  1.00  0.00    -0.248 NA
ATOM     63  C   UNL A   1      52.413  30.131  25.987  1.00  0.00     0.031 C 
ATOM     64  C   UNL A   1      48.612  34.762  26.998  1.00  0.00     0.029 A 
ATOM     65  C   UNL A   1      49.113  33.492  26.756  1.00  0.00     0.049 A 
ATOM     66  H   UNL A   1      48.076  31.660  26.613  1.00  0.00     0.167 HD
ATOM     67  C   UNL A   1      50.906  31.822  26.355  1.00  0.00     0.074 A 
ATOM     68  C   UNL A   1      52.288  31.443  26.146  1.00  0.00     0.031 C 
ATOM     69  C   UNL A   1      50.483  33.099  26.530  1.00  0.00     0.034 A 
BRANCH  56  70
ATOM     70  C   UNL A   1      44.368  33.695  27.232  1.00  0.00     0.023 A 
ATOM     71  C   UNL A   1      43.681  33.738  28.458  1.00  0.00     0.031 A 
ATOM     72  C   UNL A   1      43.937  34.547  26.200  1.00  0.00     0.131 A 
ATOM     73  C   UNL A   1      42.573  34.584  28.606  1.00  0.00     0.055 A 
ATOM     74  C   UNL A   1      42.876  35.434  26.376  1.00  0.00     0.041 A 
ATOM     75  F   UNL A   1      44.546  34.529  25.004  1.00  0.00    -0.206 F 
ATOM     76  C   UNL A   1      42.182  35.451  27.581  1.00  0.00     0.022 A 
BRANCH  73  77
ATOM     77  S   UNL A   1      41.595  34.475  30.128  1.00  0.00     0.124 S 
ATOM     78  O   UNL A   1      40.360  35.149  29.733  1.00  0.00    -0.237 OA
ATOM     79  O   UNL A   1      41.497  33.035  30.339  1.00  0.00    -0.237 OA
ATOM     80  O   UNL A   1      42.405  35.195  31.109  1.00  0.00    -0.744 OA
ENDBRANCH  73  77
ENDBRANCH  56  70
BRANCH  57  81
ATOM     81  C   UNL A   1      51.894  27.232  25.850  1.00  0.00     0.023 A 
ATOM     82  C   UNL A   1      52.831  26.996  26.867  1.00  0.00     0.031 A 
ATOM     83  C   UNL A   1      52.036  26.527  24.640  1.00  0.00     0.131 A 
ATOM     84  C   UNL A   1      53.876  26.083  26.652  1.00  0.00     0.055 A 
ATOM     85  C   UNL A   1      53.055  25.595  24.446  1.00  0.00     0.041 A 
ATOM     86  F   UNL A   1      51.164  26.719  23.638  1.00  0.00    -0.206 F 
ATOM     87  C   UNL A   1      53.985  25.371  25.454  1.00  0.00     0.022 A 
BRANCH  84  88
ATOM     88  S   UNL A   1      55.110  25.843  27.961  1.00  0.00     0.124 S 
ATOM     89  O   UNL A   1      55.570  24.486  27.688  1.00  0.00    -0.237 OA
ATOM     90  O   UNL A   1      56.061  26.913  27.683  1.00  0.00    -0.237 OA
ATOM     91  O   UNL A   1      54.337  26.006  29.191  1.00  0.00    -0.744 OA
ENDBRANCH  84  88
ENDBRANCH  57  81
BRANCH  69  92
ATOM     92  C   UNL A   1      51.509  34.198  26.511  1.00  0.00     0.023 A 
ATOM     93  C   UNL A   1      52.275  34.496  27.649  1.00  0.00     0.031 A 
ATOM     94  C   UNL A   1      51.809  34.865  25.309  1.00  0.00     0.131 A 
ATOM     95  C   UNL A   1      53.309  35.440  27.563  1.00  0.00     0.055 A 
ATOM     96  C   UNL A   1      52.864  35.774  25.220  1.00  0.00     0.041 A 
ATOM     97  F   UNL A   1      51.111  34.605  24.192  1.00  0.00    -0.206 F 
ATOM     98  C   UNL A   1      53.622  36.064  26.351  1.00  0.00     0.022 A 
BRANCH  95  99
ATOM     99  S   UNL A   1      54.255  35.838  29.058  1.00  0.00     0.124 S 
ATOM    100  O   UNL A   1      54.970  37.043  28.650  1.00  0.00    -0.237 OA
ATOM    101  O   UNL A   1      53.208  36.026  30.057  1.00  0.00    -0.237 OA
ATOM    102  O   UNL A   1      55.094  34.657  29.258  1.00  0.00    -0.744 OA
ENDBRANCH  95  99
ENDBRANCH  69  92
ENDBRANCH  43  44
ENDBRANCH  36  38
ENDBRANCH  35  36
ENDBRANCH  34  35
ENDBRANCH  33  34
ENDBRANCH  32  33
ENDBRANCH  31  32
ENDBRANCH  30  31
ENDBRANCH   1  30
TORSDOF 28
ENDMDL
MODEL 3
REMARK VINA RESULT:      -8.9      3.566      8.331
REMARK SMILES C[NH2+][C@](CSc1cccc(F)c1)(C(=O)OCCOCCOCCOCCOC(=O)c1ccc(-c2c3nc(c(-c4cc(S(=O)(=O)[O-])ccc4F)c4ccc([nH]4)c(-c4cc(S(=O)(=O)[O-])ccc4F)c4nc(c(-c5cc(S(=O)(=O)[O-])ccc5F)c5ccc2[nH]5)C=C4)C=C3)cc1)c1ccccc1
REMARK SMILES IDX 21 1 20 2 19 3 18 4 17 5 16 6 15 7 13 8 14 9 3 10 2 11 1 12
REMARK SMILES IDX 93 15 94 16 98 17 95 18 97 19 96 20 4 21 5 22 6 23 7 24
REMARK SMILES IDX 12 25 8 26 10 27 9 28 11 29 22 30 23 31 24 32 25 33 26 34
REMARK SMILES IDX 27 35 28 36 29 37 30 38 31 39 92 40 32 41 91 42 33 43 34 44
REMARK SMILES IDX 35 45 85 46 36 47 90 48 84 49 86 50 37 51 89 52 83 53 82 54
REMARK SMILES IDX 38 56 70 57 50 58 69 59 51 60 54 61 68 62 87 63 52 64 53 65
REMARK SMILES IDX 67 67 88 68 55 69 39 70 40 71 48 72 41 73 47 74 49 75 46 76
REMARK SMILES IDX 42 77 43 78 44 79 45 80 71 81 72 82 80 83 73 84 79 85 81 86
REMARK SMILES IDX 78 87 74 88 75 89 76 90 77 91 56 92 57 93 65 94 58 95 64 96
REMARK SMILES IDX 66 97 63 98 59 99 60 100 61 101 62 102
REMARK H PARENT 2 13 2 14 86 55 54 66
REMARK Flexibility Score: inf
ROOT
ATOM      1  O   UNL A   1      34.482  21.316  25.345  1.00  0.00    -0.377 OA
ENDROOT
BRANCH   1   2
ATOM      2  C   UNL A   1      33.568  22.391  25.378  1.00  0.00     0.188 C 
BRANCH   2   3
ATOM      3  C   UNL A   1      32.707  22.536  24.121  1.00  0.00     0.188 C 
BRANCH   3   4
ATOM      4  O   UNL A   1      33.184  23.235  22.991  1.00  0.00    -0.376 OA
BRANCH   4   5
ATOM      5  C   UNL A   1      34.030  24.369  23.115  1.00  0.00     0.202 C 
BRANCH   5   6
ATOM      6  C   UNL A   1      33.773  25.749  22.475  1.00  0.00     0.261 C 
BRANCH   6   7
ATOM      7  O   UNL A   1      32.443  26.285  22.526  1.00  0.00    -0.458 OA
BRANCH   7   8
ATOM      8  C   UNL A   1      32.315  27.538  23.036  1.00  0.00     0.374 C 
ATOM      9  O   UNL A   1      32.795  28.524  22.477  1.00  0.00    -0.244 OA
BRANCH   8  10
ATOM     10  C   UNL A   1      31.525  27.598  24.417  1.00  0.00     0.229 C 
BRANCH  10  11
ATOM     11  N   UNL A   1      31.336  26.203  24.966  1.00  0.00    -0.330 N 
ATOM     12  C   UNL A   1      30.161  25.495  24.469  1.00  0.00     0.332 C 
ATOM     13  H   UNL A   1      32.161  25.653  24.725  1.00  0.00     0.347 HD
ATOM     14  H   UNL A   1      31.199  26.309  25.971  1.00  0.00     0.347 HD
ENDBRANCH  10  11
BRANCH  10  15
ATOM     15  C   UNL A   1      32.380  28.389  25.480  1.00  0.00     0.025 A 
ATOM     16  C   UNL A   1      31.891  29.489  26.211  1.00  0.00     0.011 A 
ATOM     17  C   UNL A   1      33.712  28.009  25.743  1.00  0.00     0.011 A 
ATOM     18  C   UNL A   1      32.650  30.135  27.191  1.00  0.00     0.001 A 
ATOM     19  C   UNL A   1      34.486  28.671  26.706  1.00  0.00     0.001 A 
ATOM     20  C   UNL A   1      33.951  29.726  27.439  1.00  0.00     0.000 A 
ENDBRANCH  10  15
BRANCH  10  21
ATOM     21  C   UNL A   1      30.120  28.334  24.305  1.00  0.00     0.161 C 
BRANCH  21  22
ATOM     22  S   UNL A   1      29.244  28.362  22.669  1.00  0.00    -0.118 SA
BRANCH  22  23
ATOM     23  C   UNL A   1      28.997  30.120  22.492  1.00  0.00     0.010 A 
ATOM     24  C   UNL A   1      29.203  30.939  23.606  1.00  0.00     0.015 A 
ATOM     25  C   UNL A   1      28.563  30.690  21.293  1.00  0.00     0.054 A 
ATOM     26  C   UNL A   1      28.879  32.296  23.556  1.00  0.00     0.004 A 
ATOM     27  C   UNL A   1      28.252  32.045  21.249  1.00  0.00     0.124 A 
ATOM     28  C   UNL A   1      28.387  32.848  22.375  1.00  0.00     0.039 A 
ATOM     29  F   UNL A   1      27.783  32.576  20.112  1.00  0.00    -0.207 F 
ENDBRANCH  22  23
ENDBRANCH  21  22
ENDBRANCH  10  21
ENDBRANCH   8  10
ENDBRANCH   7   8
ENDBRANCH   6   7
ENDBRANCH   5   6
ENDBRANCH   4   5
ENDBRANCH   3   4
ENDBRANCH   2   3
ENDBRANCH   1   2
BRANCH   1  30
ATOM     30  C   UNL A   1      35.713  21.510  24.655  1.00  0.00     0.188 C 
BRANCH  30  31
ATOM     31  C   UNL A   1      36.989  21.860  25.451  1.00  0.00     0.188 C 
BRANCH  31  32
ATOM     32  O   UNL A   1      38.109  21.029  25.173  1.00  0.00    -0.376 OA
BRANCH  32  33
ATOM     33  C   UNL A   1      39.240  21.088  26.030  1.00  0.00     0.202 C 
BRANCH  33  34
ATOM     34  C   UNL A   1      39.680  22.462  26.567  1.00  0.00     0.261 C 
BRANCH  34  35
ATOM     35  O   UNL A   1      41.055  22.827  26.375  1.00  0.00    -0.460 OA
BRANCH  35  36
ATOM     36  C   UNL A   1      41.878  22.745  27.444  1.00  0.00     0.338 C 
ATOM     37  O   UNL A   1      42.242  21.733  28.006  1.00  0.00    -0.246 OA
BRANCH  36  38
ATOM     38  C   UNL A   1      42.439  24.091  27.695  1.00  0.00     0.060 A 
ATOM     39  C   UNL A   1      42.939  24.380  28.970  1.00  0.00     0.016 A 
ATOM     40  C   UNL A   1      42.436  25.068  26.695  1.00  0.00     0.016 A 
ATOM     41  C   UNL A   1      43.360  25.671  29.277  1.00  0.00     0.010 A 
ATOM     42  C   UNL A   1      42.836  26.370  27.010  1.00  0.00     0.010 A 
ATOM     43  C   UNL A   1      43.239  26.686  28.320  1.00  0.00    -0.014 A 
BRANCH  43  44
ATOM     44  C   UNL A   1      43.249  28.095  28.785  1.00  0.00     0.031 A 
ATOM     45  C   UNL A   1      44.560  28.838  28.735  1.00  0.00     0.074 A 
ATOM     46  C   UNL A   1      42.119  28.731  29.139  1.00  0.00     0.049 A 
ATOM     47  N   UNL A   1      44.828  30.075  29.059  1.00  0.00    -0.248 NA
ATOM     48  C   UNL A   1      45.727  28.080  28.250  1.00  0.00     0.031 C 
ATOM     49  C   UNL A   1      40.783  28.138  29.152  1.00  0.00     0.029 A 
ATOM     50  N   UNL A   1      41.916  30.029  29.538  1.00  0.00    -0.354 N 
ATOM     51  C   UNL A   1      46.187  30.242  28.816  1.00  0.00     0.074 A 
ATOM     52  C   UNL A   1      46.700  28.970  28.363  1.00  0.00     0.031 C 
ATOM     53  C   UNL A   1      39.896  29.077  29.527  1.00  0.00     0.029 A 
ATOM     54  C   UNL A   1      40.603  30.325  29.815  1.00  0.00     0.049 A 
ATOM     55  H   UNL A   1      42.645  30.687  29.619  1.00  0.00     0.167 HD
ATOM     56  C   UNL A   1      46.938  31.362  28.938  1.00  0.00     0.034 A 
ATOM     57  C   UNL A   1      40.041  31.467  30.262  1.00  0.00     0.034 A 
ATOM     58  C   UNL A   1      46.416  32.626  29.378  1.00  0.00     0.049 A 
ATOM     59  C   UNL A   1      40.916  32.672  30.507  1.00  0.00     0.074 A 
ATOM     60  C   UNL A   1      47.087  33.826  29.525  1.00  0.00     0.029 A 
ATOM     61  N   UNL A   1      45.098  32.854  29.750  1.00  0.00    -0.354 N 
ATOM     62  N   UNL A   1      42.203  32.813  30.289  1.00  0.00    -0.248 NA
ATOM     63  C   UNL A   1      40.270  33.869  31.067  1.00  0.00     0.031 C 
ATOM     64  C   UNL A   1      46.194  34.760  30.056  1.00  0.00     0.029 A 
ATOM     65  C   UNL A   1      44.948  34.163  30.171  1.00  0.00     0.049 A 
ATOM     66  H   UNL A   1      44.378  32.183  29.720  1.00  0.00     0.167 HD
ATOM     67  C   UNL A   1      42.517  34.114  30.671  1.00  0.00     0.074 A 
ATOM     68  C   UNL A   1      41.285  34.722  31.130  1.00  0.00     0.031 C 
ATOM     69  C   UNL A   1      43.716  34.748  30.640  1.00  0.00     0.034 A 
BRANCH  56  70
ATOM     70  C   UNL A   1      48.405  31.259  28.623  1.00  0.00     0.023 A 
ATOM     71  C   UNL A   1      49.329  30.775  29.564  1.00  0.00     0.031 A 
ATOM     72  C   UNL A   1      48.885  31.638  27.357  1.00  0.00     0.131 A 
ATOM     73  C   UNL A   1      50.692  30.723  29.240  1.00  0.00     0.055 A 
ATOM     74  C   UNL A   1      50.233  31.522  27.018  1.00  0.00     0.041 A 
ATOM     75  F   UNL A   1      48.047  32.126  26.429  1.00  0.00    -0.206 F 
ATOM     76  C   UNL A   1      51.147  31.070  27.965  1.00  0.00     0.022 A 
BRANCH  73  77
ATOM     77  S   UNL A   1      51.877  30.279  30.538  1.00  0.00     0.124 S 
ATOM     78  O   UNL A   1      51.021  30.250  31.721  1.00  0.00    -0.237 OA
ATOM     79  O   UNL A   1      52.380  28.990  30.081  1.00  0.00    -0.237 OA
ATOM     80  O   UNL A   1      52.846  31.374  30.506  1.00  0.00    -0.744 OA
ENDBRANCH  73  77
ENDBRANCH  56  70
BRANCH  57  81
ATOM     81  C   UNL A   1      38.578  31.514  30.536  1.00  0.00     0.023 A 
ATOM     82  C   UNL A   1      37.697  32.184  29.674  1.00  0.00     0.031 A 
ATOM     83  C   UNL A   1      38.039  30.873  31.668  1.00  0.00     0.131 A 
ATOM     84  C   UNL A   1      36.323  32.205  29.961  1.00  0.00     0.055 A 
ATOM     85  C   UNL A   1      36.668  30.868  31.928  1.00  0.00     0.041 A 
ATOM     86  F   UNL A   1      38.841  30.219  32.522  1.00  0.00    -0.206 F 
ATOM     87  C   UNL A   1      35.801  31.539  31.074  1.00  0.00     0.022 A 
BRANCH  84  88
ATOM     88  S   UNL A   1      35.214  33.131  28.862  1.00  0.00     0.124 S 
ATOM     89  O   UNL A   1      35.637  32.658  27.548  1.00  0.00    -0.237 OA
ATOM     90  O   UNL A   1      33.899  32.688  29.313  1.00  0.00    -0.237 OA
ATOM     91  O   UNL A   1      35.531  34.527  29.156  1.00  0.00    -0.744 OA
ENDBRANCH  84  88
ENDBRANCH  57  81
BRANCH  69  92
ATOM     92  C   UNL A   1      43.778  36.177  31.107  1.00  0.00     0.023 A 
ATOM     93  C   UNL A   1      44.010  36.490  32.456  1.00  0.00     0.031 A 
ATOM     94  C   UNL A   1      43.731  37.229  30.175  1.00  0.00     0.131 A 
ATOM     95  C   UNL A   1      44.188  37.827  32.838  1.00  0.00     0.055 A 
ATOM     96  C   UNL A   1      43.947  38.554  30.554  1.00  0.00     0.041 A 
ATOM     97  F   UNL A   1      43.522  36.977  28.873  1.00  0.00    -0.206 F 
ATOM     98  C   UNL A   1      44.179  38.859  31.893  1.00  0.00     0.022 A 
BRANCH  95  99
ATOM     99  S   UNL A   1      44.444  38.208  34.592  1.00  0.00     0.124 S 
ATOM    100  O   UNL A   1      45.639  37.427  34.899  1.00  0.00    -0.237 OA
ATOM    101  O   UNL A   1      44.615  39.657  34.582  1.00  0.00    -0.237 OA
ATOM    102  O   UNL A   1      43.215  37.736  35.229  1.00  0.00    -0.744 OA
ENDBRANCH  95  99
ENDBRANCH  69  92
ENDBRANCH  43  44
ENDBRANCH  36  38
ENDBRANCH  35  36
ENDBRANCH  34  35
ENDBRANCH  33  34
ENDBRANCH  32  33
ENDBRANCH  31  32
ENDBRANCH  30  31
ENDBRANCH   1  30
TORSDOF 28
ENDMDL
