MODEL 1
REMARK VINA RESULT:      -6.5      0.000      0.000
REMARK SMILES CC[NH+](CC)[C@@H](C(=O)OCCOCCOCCOCCOC(=O)c1ccc(-c2c3nc(c(-c4cc(S(=O)(=O)[O-])ccc4F)c4ccc([nH]4)c(-c4cc(S(=O)(=O)[O-])ccc4F)c4nc(c(-c5cc(S(=O)(=O)[O-])ccc5F)c5ccc2[nH]5)C=C4)C=C3)cc1)c1ccc(C2CC2)cc1
REMARK SMILES IDX 16 1 15 2 14 3 13 4 12 5 11 6 10 7 9 8 7 9 8 10 6 11 3 12
REMARK SMILES IDX 2 14 1 15 4 16 5 17 87 18 88 19 95 20 89 21 94 22 90 23
REMARK SMILES IDX 91 24 92 25 93 26 17 27 18 28 19 29 20 30 21 31 22 32 23 33
REMARK SMILES IDX 24 34 25 35 86 36 26 37 85 38 27 39 28 40 29 41 79 42 30 43
REMARK SMILES IDX 84 44 78 45 80 46 31 47 83 48 77 49 76 50 32 52 64 53 44 54
REMARK SMILES IDX 63 55 45 56 48 57 62 58 81 59 46 60 47 61 61 63 82 64 49 65
REMARK SMILES IDX 33 66 34 67 42 68 35 69 41 70 43 71 40 72 36 73 37 74 38 75
REMARK SMILES IDX 39 76 65 77 66 78 74 79 67 80 73 81 75 82 72 83 68 84 69 85
REMARK SMILES IDX 70 86 71 87 50 88 51 89 59 90 52 91 58 92 60 93 57 94 53 95
REMARK SMILES IDX 54 96 55 97 56 98
REMARK H PARENT 3 13 80 51 48 62
REMARK Flexibility Score: inf
ROOT
ATOM      1  C   UNL A   1      52.787  25.820  25.051  1.00  0.00     0.188 C 
ENDROOT
BRANCH   1   2
ATOM      2  O   UNL A   1      52.033  25.012  25.948  1.00  0.00    -0.377 OA
BRANCH   2   3
ATOM      3  C   UNL A   1      51.290  25.618  26.990  1.00  0.00     0.188 C 
BRANCH   3   4
ATOM      4  C   UNL A   1      49.792  25.747  26.724  1.00  0.00     0.188 C 
BRANCH   4   5
ATOM      5  O   UNL A   1      48.932  25.375  27.788  1.00  0.00    -0.376 OA
BRANCH   5   6
ATOM      6  C   UNL A   1      47.652  24.834  27.440  1.00  0.00     0.202 C 
BRANCH   6   7
ATOM      7  C   UNL A   1      46.441  25.129  28.340  1.00  0.00     0.261 C 
BRANCH   7   8
ATOM      8  O   UNL A   1      45.683  26.300  27.933  1.00  0.00    -0.459 OA
BRANCH   8   9
ATOM      9  C   UNL A   1      44.704  26.068  27.019  1.00  0.00     0.369 C 
ATOM     10  O   UNL A   1      44.858  26.315  25.820  1.00  0.00    -0.245 OA
BRANCH   9  11
ATOM     11  C   UNL A   1      43.392  25.420  27.526  1.00  0.00     0.326 C 
BRANCH  11  12
ATOM     12  N   UNL A   1      42.896  24.150  26.935  1.00  0.00    -0.320 N 
ATOM     13  H   UNL A   1      41.953  24.473  27.145  1.00  0.00     0.349 HD
BRANCH  12  14
ATOM     14  C   UNL A   1      42.599  23.931  25.522  1.00  0.00     0.259 C 
ATOM     15  C   UNL A   1      43.609  23.239  24.613  1.00  0.00     0.071 C 
ENDBRANCH  12  14
BRANCH  12  16
ATOM     16  C   UNL A   1      43.271  22.922  27.646  1.00  0.00     0.259 C 
ATOM     17  C   UNL A   1      42.966  22.859  29.142  1.00  0.00     0.071 C 
ENDBRANCH  12  16
ENDBRANCH  11  12
BRANCH  11  18
ATOM     18  C   UNL A   1      42.303  26.441  27.880  1.00  0.00     0.021 A 
ATOM     19  C   UNL A   1      40.945  26.116  27.949  1.00  0.00     0.011 A 
ATOM     20  C   UNL A   1      42.667  27.761  28.186  1.00  0.00     0.011 A 
ATOM     21  C   UNL A   1      39.998  27.049  28.385  1.00  0.00     0.004 A 
ATOM     22  C   UNL A   1      41.714  28.690  28.627  1.00  0.00     0.004 A 
ATOM     23  C   UNL A   1      40.360  28.351  28.761  1.00  0.00    -0.045 A 
BRANCH  23  24
ATOM     24  C   UNL A   1      39.305  29.282  29.316  1.00  0.00     0.019 C 
ATOM     25  C   UNL A   1      37.994  29.567  28.628  1.00  0.00     0.009 C 
ATOM     26  C   UNL A   1      38.019  28.693  29.845  1.00  0.00     0.009 C 
ENDBRANCH  23  24
ENDBRANCH  11  18
ENDBRANCH   9  11
ENDBRANCH   8   9
ENDBRANCH   7   8
ENDBRANCH   6   7
ENDBRANCH   5   6
ENDBRANCH   4   5
ENDBRANCH   3   4
ENDBRANCH   2   3
ENDBRANCH   1   2
BRANCH   1  27
ATOM     27  C   UNL A   1      52.760  27.332  25.265  1.00  0.00     0.188 C 
BRANCH  27  28
ATOM     28  O   UNL A   1      52.089  28.117  24.277  1.00  0.00    -0.376 OA
BRANCH  28  29
ATOM     29  C   UNL A   1      52.782  29.219  23.697  1.00  0.00     0.202 C 
BRANCH  29  30
ATOM     30  C   UNL A   1      52.771  30.512  24.513  1.00  0.00     0.261 C 
BRANCH  30  31
ATOM     31  O   UNL A   1      51.596  30.639  25.328  1.00  0.00    -0.460 OA
BRANCH  31  32
ATOM     32  C   UNL A   1      51.824  31.125  26.573  1.00  0.00     0.338 C 
ATOM     33  O   UNL A   1      52.794  31.755  26.947  1.00  0.00    -0.246 OA
BRANCH  32  34
ATOM     34  C   UNL A   1      50.634  30.908  27.418  1.00  0.00     0.060 A 
ATOM     35  C   UNL A   1      49.560  30.196  26.868  1.00  0.00     0.016 A 
ATOM     36  C   UNL A   1      50.528  31.495  28.681  1.00  0.00     0.016 A 
ATOM     37  C   UNL A   1      48.349  30.130  27.550  1.00  0.00     0.010 A 
ATOM     38  C   UNL A   1      49.309  31.439  29.359  1.00  0.00     0.010 A 
ATOM     39  C   UNL A   1      48.203  30.801  28.771  1.00  0.00    -0.014 A 
BRANCH  39  40
ATOM     40  C   UNL A   1      46.840  31.018  29.311  1.00  0.00     0.031 A 
ATOM     41  C   UNL A   1      46.222  29.926  30.141  1.00  0.00     0.074 A 
ATOM     42  C   UNL A   1      46.193  32.177  29.098  1.00  0.00     0.049 A 
ATOM     43  N   UNL A   1      45.040  29.871  30.697  1.00  0.00    -0.248 NA
ATOM     44  C   UNL A   1      47.051  28.731  30.372  1.00  0.00     0.031 C 
ATOM     45  C   UNL A   1      46.723  33.313  28.347  1.00  0.00     0.029 A 
ATOM     46  N   UNL A   1      44.946  32.585  29.494  1.00  0.00    -0.354 N 
ATOM     47  C   UNL A   1      44.980  28.635  31.335  1.00  0.00     0.074 A 
ATOM     48  C   UNL A   1      46.232  27.961  31.069  1.00  0.00     0.031 C 
ATOM     49  C   UNL A   1      45.797  34.288  28.323  1.00  0.00     0.029 A 
ATOM     50  C   UNL A   1      44.601  33.832  29.028  1.00  0.00     0.049 A 
ATOM     51  H   UNL A   1      44.353  32.038  30.059  1.00  0.00     0.167 HD
ATOM     52  C   UNL A   1      43.972  28.116  32.079  1.00  0.00     0.034 A 
ATOM     53  C   UNL A   1      43.442  34.510  29.140  1.00  0.00     0.034 A 
ATOM     54  C   UNL A   1      42.729  28.806  32.323  1.00  0.00     0.049 A 
ATOM     55  C   UNL A   1      42.313  33.888  29.926  1.00  0.00     0.074 A 
ATOM     56  C   UNL A   1      41.641  28.386  33.066  1.00  0.00     0.029 A 
ATOM     57  N   UNL A   1      42.405  30.059  31.819  1.00  0.00    -0.354 N 
ATOM     58  N   UNL A   1      42.270  32.724  30.535  1.00  0.00    -0.248 NA
ATOM     59  C   UNL A   1      41.083  34.679  30.056  1.00  0.00     0.031 C 
ATOM     60  C   UNL A   1      40.634  29.351  32.953  1.00  0.00     0.029 A 
ATOM     61  C   UNL A   1      41.124  30.415  32.209  1.00  0.00     0.049 A 
ATOM     62  H   UNL A   1      43.000  30.615  31.264  1.00  0.00     0.167 HD
ATOM     63  C   UNL A   1      41.020  32.661  31.148  1.00  0.00     0.074 A 
ATOM     64  C   UNL A   1      40.352  33.911  30.850  1.00  0.00     0.031 C 
ATOM     65  C   UNL A   1      40.473  31.665  31.894  1.00  0.00     0.034 A 
BRANCH  52  66
ATOM     66  C   UNL A   1      44.156  26.719  32.621  1.00  0.00     0.023 A 
ATOM     67  C   UNL A   1      44.437  26.474  33.977  1.00  0.00     0.031 A 
ATOM     68  C   UNL A   1      44.076  25.612  31.757  1.00  0.00     0.131 A 
ATOM     69  C   UNL A   1      44.689  25.165  34.415  1.00  0.00     0.055 A 
ATOM     70  C   UNL A   1      44.253  24.305  32.213  1.00  0.00     0.041 A 
ATOM     71  F   UNL A   1      43.838  25.785  30.447  1.00  0.00    -0.206 F 
ATOM     72  C   UNL A   1      44.574  24.076  33.548  1.00  0.00     0.022 A 
BRANCH  69  73
ATOM     73  S   UNL A   1      45.300  24.913  36.106  1.00  0.00     0.124 S 
ATOM     74  O   UNL A   1      44.963  26.189  36.733  1.00  0.00    -0.237 OA
ATOM     75  O   UNL A   1      44.529  23.759  36.551  1.00  0.00    -0.237 OA
ATOM     76  O   UNL A   1      46.729  24.675  35.922  1.00  0.00    -0.744 OA
ENDBRANCH  69  73
ENDBRANCH  52  66
BRANCH  53  77
ATOM     77  C   UNL A   1      43.267  35.829  28.464  1.00  0.00     0.023 A 
ATOM     78  C   UNL A   1      43.507  37.035  29.142  1.00  0.00     0.031 A 
ATOM     79  C   UNL A   1      42.796  35.901  27.141  1.00  0.00     0.131 A 
ATOM     80  C   UNL A   1      43.226  38.259  28.514  1.00  0.00     0.055 A 
ATOM     81  C   UNL A   1      42.571  37.121  26.501  1.00  0.00     0.041 A 
ATOM     82  F   UNL A   1      42.552  34.778  26.446  1.00  0.00    -0.206 F 
ATOM     83  C   UNL A   1      42.771  38.310  27.193  1.00  0.00     0.022 A 
BRANCH  80  84
ATOM     84  S   UNL A   1      43.370  39.786  29.482  1.00  0.00     0.124 S 
ATOM     85  O   UNL A   1      41.987  40.249  29.514  1.00  0.00    -0.237 OA
ATOM     86  O   UNL A   1      43.911  39.293  30.743  1.00  0.00    -0.237 OA
ATOM     87  O   UNL A   1      44.286  40.605  28.690  1.00  0.00    -0.744 OA
ENDBRANCH  80  84
ENDBRANCH  53  77
BRANCH  65  88
ATOM     88  C   UNL A   1      39.104  31.923  32.477  1.00  0.00     0.023 A 
ATOM     89  C   UNL A   1      37.948  31.945  31.678  1.00  0.00     0.031 A 
ATOM     90  C   UNL A   1      38.960  32.177  33.853  1.00  0.00     0.131 A 
ATOM     91  C   UNL A   1      36.712  32.287  32.245  1.00  0.00     0.055 A 
ATOM     92  C   UNL A   1      37.717  32.448  34.425  1.00  0.00     0.041 A 
ATOM     93  F   UNL A   1      40.030  32.169  34.665  1.00  0.00    -0.206 F 
ATOM     94  C   UNL A   1      36.586  32.521  33.616  1.00  0.00     0.022 A 
BRANCH  91  95
ATOM     95  S   UNL A   1      35.291  32.540  31.146  1.00  0.00     0.124 S 
ATOM     96  O   UNL A   1      35.491  33.917  30.705  1.00  0.00    -0.237 OA
ATOM     97  O   UNL A   1      35.494  31.510  30.133  1.00  0.00    -0.237 OA
ATOM     98  O   UNL A   1      34.140  32.331  32.022  1.00  0.00    -0.744 OA
ENDBRANCH  91  95
ENDBRANCH  65  88
ENDBRANCH  39  40
ENDBRANCH  32  34
ENDBRANCH  31  32
ENDBRANCH  30  31
ENDBRANCH  29  30
ENDBRANCH  28  29
ENDBRANCH  27  28
ENDBRANCH   1  27
TORSDOF 28
ENDMDL
MODEL 2
REMARK VINA RESULT:      -6.4      3.034      5.691
REMARK SMILES CC[NH+](CC)[C@@H](C(=O)OCCOCCOCCOCCOC(=O)c1ccc(-c2c3nc(c(-c4cc(S(=O)(=O)[O-])ccc4F)c4ccc([nH]4)c(-c4cc(S(=O)(=O)[O-])ccc4F)c4nc(c(-c5cc(S(=O)(=O)[O-])ccc5F)c5ccc2[nH]5)C=C4)C=C3)cc1)c1ccc(C2CC2)cc1
REMARK SMILES IDX 16 1 15 2 14 3 13 4 12 5 11 6 10 7 9 8 7 9 8 10 6 11 3 12
REMARK SMILES IDX 2 14 1 15 4 16 5 17 87 18 88 19 95 20 89 21 94 22 90 23
REMARK SMILES IDX 91 24 92 25 93 26 17 27 18 28 19 29 20 30 21 31 22 32 23 33
REMARK SMILES IDX 24 34 25 35 86 36 26 37 85 38 27 39 28 40 29 41 79 42 30 43
REMARK SMILES IDX 84 44 78 45 80 46 31 47 83 48 77 49 76 50 32 52 64 53 44 54
REMARK SMILES IDX 63 55 45 56 48 57 62 58 81 59 46 60 47 61 61 63 82 64 49 65
REMARK SMILES IDX 33 66 34 67 42 68 35 69 41 70 43 71 40 72 36 73 37 74 38 75
REMARK SMILES IDX 39 76 65 77 66 78 74 79 67 80 73 81 75 82 72 83 68 84 69 85
REMARK SMILES IDX 70 86 71 87 50 88 51 89 59 90 52 91 58 92 60 93 57 94 53 95
REMARK SMILES IDX 54 96 55 97 56 98
REMARK H PARENT 3 13 80 51 48 62
REMARK Flexibility Score: inf
ROOT
ATOM      1  C   UNL A   1      51.697  29.581  26.484  1.00  0.00     0.188 C 
ENDROOT
BRANCH   1   2
ATOM      2  O   UNL A   1      50.503  28.832  26.682  1.00  0.00    -0.377 OA
BRANCH   2   3
ATOM      3  C   UNL A   1      49.613  29.184  27.726  1.00  0.00     0.188 C 
BRANCH   3   4
ATOM      4  C   UNL A   1      50.078  28.797  29.128  1.00  0.00     0.188 C 
BRANCH   4   5
ATOM      5  O   UNL A   1      50.475  29.864  29.973  1.00  0.00    -0.376 OA
BRANCH   5   6
ATOM      6  C   UNL A   1      49.990  29.851  31.321  1.00  0.00     0.202 C 
BRANCH   6   7
ATOM      7  C   UNL A   1      48.501  29.570  31.582  1.00  0.00     0.261 C 
BRANCH   7   8
ATOM      8  O   UNL A   1      48.101  28.209  31.269  1.00  0.00    -0.459 OA
BRANCH   8   9
ATOM      9  C   UNL A   1      46.943  28.092  30.567  1.00  0.00     0.369 C 
ATOM     10  O   UNL A   1      46.602  28.927  29.726  1.00  0.00    -0.245 OA
BRANCH   9  11
ATOM     11  C   UNL A   1      46.081  26.829  30.816  1.00  0.00     0.326 C 
BRANCH  11  12
ATOM     12  N   UNL A   1      45.907  26.290  32.190  1.00  0.00    -0.320 N 
ATOM     13  H   UNL A   1      45.418  25.500  31.769  1.00  0.00     0.349 HD
BRANCH  12  14
ATOM     14  C   UNL A   1      46.860  25.436  32.893  1.00  0.00     0.259 C 
ATOM     15  C   UNL A   1      46.394  24.165  33.595  1.00  0.00     0.071 C 
ENDBRANCH  12  14
BRANCH  12  16
ATOM     16  C   UNL A   1      45.068  27.089  33.091  1.00  0.00     0.259 C 
ATOM     17  C   UNL A   1      43.556  26.892  33.000  1.00  0.00     0.071 C 
ENDBRANCH  12  16
ENDBRANCH  11  12
BRANCH  11  18
ATOM     18  C   UNL A   1      46.212  25.771  29.713  1.00  0.00     0.021 A 
ATOM     19  C   UNL A   1      45.144  24.975  29.288  1.00  0.00     0.011 A 
ATOM     20  C   UNL A   1      47.444  25.598  29.065  1.00  0.00     0.011 A 
ATOM     21  C   UNL A   1      45.279  24.102  28.203  1.00  0.00     0.004 A 
ATOM     22  C   UNL A   1      47.572  24.724  27.976  1.00  0.00     0.004 A 
ATOM     23  C   UNL A   1      46.487  23.973  27.502  1.00  0.00    -0.045 A 
BRANCH  23  24
ATOM     24  C   UNL A   1      46.542  23.084  26.279  1.00  0.00     0.019 C 
ATOM     25  C   UNL A   1      45.321  22.621  25.524  1.00  0.00     0.009 C 
ATOM     26  C   UNL A   1      46.205  23.677  24.932  1.00  0.00     0.009 C 
ENDBRANCH  23  24
ENDBRANCH  11  18
ENDBRANCH   9  11
ENDBRANCH   8   9
ENDBRANCH   7   8
ENDBRANCH   6   7
ENDBRANCH   5   6
ENDBRANCH   4   5
ENDBRANCH   3   4
ENDBRANCH   2   3
ENDBRANCH   1   2
BRANCH   1  27
ATOM     27  C   UNL A   1      51.702  30.628  25.372  1.00  0.00     0.188 C 
BRANCH  27  28
ATOM     28  O   UNL A   1      51.578  30.150  24.030  1.00  0.00    -0.376 OA
BRANCH  28  29
ATOM     29  C   UNL A   1      52.530  29.201  23.555  1.00  0.00     0.202 C 
BRANCH  29  30
ATOM     30  C   UNL A   1      51.952  28.014  22.783  1.00  0.00     0.261 C 
BRANCH  30  31
ATOM     31  O   UNL A   1      50.753  27.499  23.381  1.00  0.00    -0.460 OA
BRANCH  31  32
ATOM     32  C   UNL A   1      49.677  27.476  22.557  1.00  0.00     0.338 C 
ATOM     33  O   UNL A   1      49.686  27.398  21.344  1.00  0.00    -0.246 OA
BRANCH  32  34
ATOM     34  C   UNL A   1      48.439  27.413  23.357  1.00  0.00     0.060 A 
ATOM     35  C   UNL A   1      47.327  28.131  22.901  1.00  0.00     0.016 A 
ATOM     36  C   UNL A   1      48.409  26.759  24.591  1.00  0.00     0.016 A 
ATOM     37  C   UNL A   1      46.202  28.259  23.711  1.00  0.00     0.010 A 
ATOM     38  C   UNL A   1      47.286  26.898  25.409  1.00  0.00     0.010 A 
ATOM     39  C   UNL A   1      46.203  27.691  24.992  1.00  0.00    -0.014 A 
BRANCH  39  40
ATOM     40  C   UNL A   1      45.170  28.116  25.965  1.00  0.00     0.031 A 
ATOM     41  C   UNL A   1      44.016  27.186  26.229  1.00  0.00     0.074 A 
ATOM     42  C   UNL A   1      45.283  29.283  26.623  1.00  0.00     0.049 A 
ATOM     43  N   UNL A   1      42.981  27.346  27.012  1.00  0.00    -0.248 NA
ATOM     44  C   UNL A   1      44.032  25.903  25.508  1.00  0.00     0.031 C 
ATOM     45  C   UNL A   1      46.385  30.232  26.472  1.00  0.00     0.029 A 
ATOM     46  N   UNL A   1      44.458  29.867  27.549  1.00  0.00    -0.354 N 
ATOM     47  C   UNL A   1      42.219  26.190  26.871  1.00  0.00     0.074 A 
ATOM     48  C   UNL A   1      42.896  25.353  25.903  1.00  0.00     0.031 C 
ATOM     49  C   UNL A   1      46.158  31.291  27.269  1.00  0.00     0.029 A 
ATOM     50  C   UNL A   1      44.883  31.108  27.958  1.00  0.00     0.049 A 
ATOM     51  H   UNL A   1      43.639  29.437  27.888  1.00  0.00     0.167 HD
ATOM     52  C   UNL A   1      41.064  25.857  27.497  1.00  0.00     0.034 A 
ATOM     53  C   UNL A   1      44.292  32.001  28.778  1.00  0.00     0.034 A 
ATOM     54  C   UNL A   1      40.404  26.713  28.454  1.00  0.00     0.049 A 
ATOM     55  C   UNL A   1      42.976  31.631  29.422  1.00  0.00     0.074 A 
ATOM     56  C   UNL A   1      39.237  26.481  29.158  1.00  0.00     0.029 A 
ATOM     57  N   UNL A   1      40.851  27.973  28.830  1.00  0.00    -0.354 N 
ATOM     58  N   UNL A   1      42.270  30.530  29.291  1.00  0.00    -0.248 NA
ATOM     59  C   UNL A   1      42.389  32.616  30.337  1.00  0.00     0.031 C 
ATOM     60  C   UNL A   1      38.941  27.626  29.905  1.00  0.00     0.029 A 
ATOM     61  C   UNL A   1      39.968  28.542  29.734  1.00  0.00     0.049 A 
ATOM     62  H   UNL A   1      41.676  28.400  28.503  1.00  0.00     0.167 HD
ATOM     63  C   UNL A   1      41.172  30.680  30.135  1.00  0.00     0.074 A 
ATOM     64  C   UNL A   1      41.323  31.968  30.782  1.00  0.00     0.031 C 
ATOM     65  C   UNL A   1      40.135  29.832  30.362  1.00  0.00     0.034 A 
BRANCH  52  66
ATOM     66  C   UNL A   1      40.419  24.546  27.118  1.00  0.00     0.023 A 
ATOM     67  C   UNL A   1      41.124  23.329  27.147  1.00  0.00     0.031 A 
ATOM     68  C   UNL A   1      39.079  24.518  26.690  1.00  0.00     0.131 A 
ATOM     69  C   UNL A   1      40.507  22.151  26.698  1.00  0.00     0.055 A 
ATOM     70  C   UNL A   1      38.448  23.330  26.317  1.00  0.00     0.041 A 
ATOM     71  F   UNL A   1      38.363  25.651  26.615  1.00  0.00    -0.206 F 
ATOM     72  C   UNL A   1      39.166  22.139  26.307  1.00  0.00     0.022 A 
BRANCH  69  73
ATOM     73  S   UNL A   1      41.519  20.656  26.506  1.00  0.00     0.124 S 
ATOM     74  O   UNL A   1      42.047  20.483  27.857  1.00  0.00    -0.237 OA
ATOM     75  O   UNL A   1      40.540  19.667  26.070  1.00  0.00    -0.237 OA
ATOM     76  O   UNL A   1      42.508  21.040  25.501  1.00  0.00    -0.744 OA
ENDBRANCH  69  73
ENDBRANCH  52  66
BRANCH  53  77
ATOM     77  C   UNL A   1      44.906  33.341  29.009  1.00  0.00     0.023 A 
ATOM     78  C   UNL A   1      44.412  34.490  28.372  1.00  0.00     0.031 A 
ATOM     79  C   UNL A   1      46.041  33.479  29.829  1.00  0.00     0.131 A 
ATOM     80  C   UNL A   1      45.082  35.715  28.523  1.00  0.00     0.055 A 
ATOM     81  C   UNL A   1      46.670  34.710  30.020  1.00  0.00     0.041 A 
ATOM     82  F   UNL A   1      46.554  32.412  30.463  1.00  0.00    -0.206 F 
ATOM     83  C   UNL A   1      46.200  35.835  29.352  1.00  0.00     0.022 A 
BRANCH  80  84
ATOM     84  S   UNL A   1      44.527  37.135  27.539  1.00  0.00     0.124 S 
ATOM     85  O   UNL A   1      45.772  37.570  26.917  1.00  0.00    -0.237 OA
ATOM     86  O   UNL A   1      43.546  36.521  26.652  1.00  0.00    -0.237 OA
ATOM     87  O   UNL A   1      43.976  38.047  28.540  1.00  0.00    -0.744 OA
ENDBRANCH  80  84
ENDBRANCH  53  77
BRANCH  65  88
ATOM     88  C   UNL A   1      39.117  30.259  31.393  1.00  0.00     0.023 A 
ATOM     89  C   UNL A   1      38.066  31.138  31.078  1.00  0.00     0.031 A 
ATOM     90  C   UNL A   1      39.219  29.799  32.718  1.00  0.00     0.131 A 
ATOM     91  C   UNL A   1      37.203  31.587  32.090  1.00  0.00     0.055 A 
ATOM     92  C   UNL A   1      38.316  30.194  33.705  1.00  0.00     0.041 A 
ATOM     93  F   UNL A   1      40.203  28.958  33.075  1.00  0.00    -0.206 F 
ATOM     94  C   UNL A   1      37.310  31.106  33.397  1.00  0.00     0.022 A 
BRANCH  91  95
ATOM     95  S   UNL A   1      36.014  32.899  31.700  1.00  0.00     0.124 S 
ATOM     96  O   UNL A   1      36.803  33.778  30.841  1.00  0.00    -0.237 OA
ATOM     97  O   UNL A   1      34.940  32.161  31.043  1.00  0.00    -0.237 OA
ATOM     98  O   UNL A   1      35.675  33.454  33.008  1.00  0.00    -0.744 OA
ENDBRANCH  91  95
ENDBRANCH  65  88
ENDBRANCH  39  40
ENDBRANCH  32  34
ENDBRANCH  31  32
ENDBRANCH  30  31
ENDBRANCH  29  30
ENDBRANCH  28  29
ENDBRANCH  27  28
ENDBRANCH   1  27
TORSDOF 28
ENDMDL
MODEL 3
REMARK VINA RESULT:      -6.3      5.177     11.719
REMARK SMILES CC[NH+](CC)[C@@H](C(=O)OCCOCCOCCOCCOC(=O)c1ccc(-c2c3nc(c(-c4cc(S(=O)(=O)[O-])ccc4F)c4ccc([nH]4)c(-c4cc(S(=O)(=O)[O-])ccc4F)c4nc(c(-c5cc(S(=O)(=O)[O-])ccc5F)c5ccc2[nH]5)C=C4)C=C3)cc1)c1ccc(C2CC2)cc1
REMARK SMILES IDX 16 1 15 2 14 3 13 4 12 5 11 6 10 7 9 8 7 9 8 10 6 11 3 12
REMARK SMILES IDX 2 14 1 15 4 16 5 17 87 18 88 19 95 20 89 21 94 22 90 23
REMARK SMILES IDX 91 24 92 25 93 26 17 27 18 28 19 29 20 30 21 31 22 32 23 33
REMARK SMILES IDX 24 34 25 35 86 36 26 37 85 38 27 39 28 40 29 41 79 42 30 43
REMARK SMILES IDX 84 44 78 45 80 46 31 47 83 48 77 49 76 50 32 52 64 53 44 54
REMARK SMILES IDX 63 55 45 56 48 57 62 58 81 59 46 60 47 61 61 63 82 64 49 65
REMARK SMILES IDX 33 66 34 67 42 68 35 69 41 70 43 71 40 72 36 73 37 74 38 75
REMARK SMILES IDX 39 76 65 77 66 78 74 79 67 80 73 81 75 82 72 83 68 84 69 85
REMARK SMILES IDX 70 86 71 87 50 88 51 89 59 90 52 91 58 92 60 93 57 94 53 95
REMARK SMILES IDX 54 96 55 97 56 98
REMARK H PARENT 3 13 80 51 48 62
REMARK Flexibility Score: inf
ROOT
ATOM      1  C   UNL A   1      39.634  31.163  30.180  1.00  0.00     0.188 C 
ENDROOT
BRANCH   1   2
ATOM      2  O   UNL A   1      39.003  30.287  29.251  1.00  0.00    -0.377 OA
BRANCH   2   3
ATOM      3  C   UNL A   1      37.704  30.585  28.772  1.00  0.00     0.188 C 
BRANCH   3   4
ATOM      4  C   UNL A   1      36.936  29.392  28.206  1.00  0.00     0.188 C 
BRANCH   4   5
ATOM      5  O   UNL A   1      35.530  29.412  28.381  1.00  0.00    -0.376 OA
BRANCH   5   6
ATOM      6  C   UNL A   1      34.731  29.773  27.248  1.00  0.00     0.202 C 
BRANCH   6   7
ATOM      7  C   UNL A   1      33.979  28.676  26.478  1.00  0.00     0.261 C 
BRANCH   7   8
ATOM      8  O   UNL A   1      32.737  28.266  27.111  1.00  0.00    -0.459 OA
BRANCH   8   9
ATOM      9  C   UNL A   1      32.023  27.329  26.434  1.00  0.00     0.369 C 
ATOM     10  O   UNL A   1      31.054  26.755  26.938  1.00  0.00    -0.245 OA
BRANCH   9  11
ATOM     11  C   UNL A   1      32.432  27.040  24.968  1.00  0.00     0.326 C 
BRANCH  11  12
ATOM     12  N   UNL A   1      31.618  27.559  23.838  1.00  0.00    -0.320 N 
ATOM     13  H   UNL A   1      31.264  26.611  23.717  1.00  0.00     0.349 HD
BRANCH  12  14
ATOM     14  C   UNL A   1      30.282  28.136  23.950  1.00  0.00     0.259 C 
ATOM     15  C   UNL A   1      29.959  29.480  23.305  1.00  0.00     0.071 C 
ENDBRANCH  12  14
BRANCH  12  16
ATOM     16  C   UNL A   1      32.372  28.059  22.682  1.00  0.00     0.259 C 
ATOM     17  C   UNL A   1      33.704  28.754  22.962  1.00  0.00     0.071 C 
ENDBRANCH  12  16
ENDBRANCH  11  12
BRANCH  11  18
ATOM     18  C   UNL A   1      33.011  25.635  24.761  1.00  0.00     0.021 A 
ATOM     19  C   UNL A   1      34.380  25.388  24.615  1.00  0.00     0.011 A 
ATOM     20  C   UNL A   1      32.151  24.528  24.746  1.00  0.00     0.011 A 
ATOM     21  C   UNL A   1      34.876  24.081  24.540  1.00  0.00     0.004 A 
ATOM     22  C   UNL A   1      32.655  23.221  24.675  1.00  0.00     0.004 A 
ATOM     23  C   UNL A   1      34.030  22.964  24.596  1.00  0.00    -0.045 A 
BRANCH  23  24
ATOM     24  C   UNL A   1      34.636  21.577  24.608  1.00  0.00     0.019 C 
ATOM     25  C   UNL A   1      36.119  21.311  24.676  1.00  0.00     0.009 C 
ATOM     26  C   UNL A   1      35.264  21.068  25.883  1.00  0.00     0.009 C 
ENDBRANCH  23  24
ENDBRANCH  11  18
ENDBRANCH   9  11
ENDBRANCH   8   9
ENDBRANCH   7   8
ENDBRANCH   6   7
ENDBRANCH   5   6
ENDBRANCH   4   5
ENDBRANCH   3   4
ENDBRANCH   2   3
ENDBRANCH   1   2
BRANCH   1  27
ATOM     27  C   UNL A   1      39.032  31.263  31.581  1.00  0.00     0.188 C 
BRANCH  27  28
ATOM     28  O   UNL A   1      38.015  32.247  31.782  1.00  0.00    -0.376 OA
BRANCH  28  29
ATOM     29  C   UNL A   1      37.501  32.435  33.098  1.00  0.00     0.202 C 
BRANCH  29  30
ATOM     30  C   UNL A   1      37.811  31.319  34.096  1.00  0.00     0.261 C 
BRANCH  30  31
ATOM     31  O   UNL A   1      38.807  31.700  35.057  1.00  0.00    -0.460 OA
BRANCH  31  32
ATOM     32  C   UNL A   1      39.351  30.667  35.745  1.00  0.00     0.338 C 
ATOM     33  O   UNL A   1      38.804  29.977  36.584  1.00  0.00    -0.246 OA
BRANCH  32  34
ATOM     34  C   UNL A   1      40.703  30.381  35.228  1.00  0.00     0.060 A 
ATOM     35  C   UNL A   1      41.319  31.352  34.430  1.00  0.00     0.016 A 
ATOM     36  C   UNL A   1      41.302  29.134  35.425  1.00  0.00     0.016 A 
ATOM     37  C   UNL A   1      42.505  31.054  33.764  1.00  0.00     0.010 A 
ATOM     38  C   UNL A   1      42.484  28.831  34.747  1.00  0.00     0.010 A 
ATOM     39  C   UNL A   1      43.059  29.773  33.876  1.00  0.00    -0.014 A 
BRANCH  39  40
ATOM     40  C   UNL A   1      44.104  29.358  32.910  1.00  0.00     0.031 A 
ATOM     41  C   UNL A   1      43.672  28.636  31.662  1.00  0.00     0.074 A 
ATOM     42  C   UNL A   1      45.397  29.655  33.126  1.00  0.00     0.049 A 
ATOM     43  N   UNL A   1      44.397  28.153  30.688  1.00  0.00    -0.248 NA
ATOM     44  C   UNL A   1      42.224  28.430  31.494  1.00  0.00     0.031 C 
ATOM     45  C   UNL A   1      45.913  30.390  34.280  1.00  0.00     0.029 A 
ATOM     46  N   UNL A   1      46.512  29.371  32.381  1.00  0.00    -0.354 N 
ATOM     47  C   UNL A   1      43.496  27.577  29.796  1.00  0.00     0.074 A 
ATOM     48  C   UNL A   1      42.175  27.745  30.363  1.00  0.00     0.031 C 
ATOM     49  C   UNL A   1      47.249  30.485  34.173  1.00  0.00     0.029 A 
ATOM     50  C   UNL A   1      47.684  29.792  32.962  1.00  0.00     0.049 A 
ATOM     51  H   UNL A   1      46.476  28.909  31.511  1.00  0.00     0.167 HD
ATOM     52  C   UNL A   1      43.750  26.971  28.611  1.00  0.00     0.034 A 
ATOM     53  C   UNL A   1      48.961  29.612  32.569  1.00  0.00     0.034 A 
ATOM     54  C   UNL A   1      45.078  26.809  28.070  1.00  0.00     0.049 A 
ATOM     55  C   UNL A   1      49.223  28.883  31.272  1.00  0.00     0.074 A 
ATOM     56  C   UNL A   1      45.458  26.220  26.878  1.00  0.00     0.029 A 
ATOM     57  N   UNL A   1      46.245  27.229  28.696  1.00  0.00    -0.354 N 
ATOM     58  N   UNL A   1      48.363  28.354  30.431  1.00  0.00    -0.248 NA
ATOM     59  C   UNL A   1      50.626  28.746  30.864  1.00  0.00     0.031 C 
ATOM     60  C   UNL A   1      46.856  26.221  26.815  1.00  0.00     0.029 A 
ATOM     61  C   UNL A   1      47.347  26.886  27.929  1.00  0.00     0.049 A 
ATOM     62  H   UNL A   1      46.284  27.701  29.559  1.00  0.00     0.167 HD
ATOM     63  C   UNL A   1      49.123  27.850  29.377  1.00  0.00     0.074 A 
ATOM     64  C   UNL A   1      50.506  28.158  29.683  1.00  0.00     0.031 C 
ATOM     65  C   UNL A   1      48.719  27.197  28.256  1.00  0.00     0.034 A 
BRANCH  52  66
ATOM     66  C   UNL A   1      42.576  26.388  27.861  1.00  0.00     0.023 A 
ATOM     67  C   UNL A   1      42.254  25.021  27.922  1.00  0.00     0.031 A 
ATOM     68  C   UNL A   1      41.781  27.215  27.046  1.00  0.00     0.131 A 
ATOM     69  C   UNL A   1      41.209  24.511  27.134  1.00  0.00     0.055 A 
ATOM     70  C   UNL A   1      40.695  26.715  26.325  1.00  0.00     0.041 A 
ATOM     71  F   UNL A   1      42.056  28.523  26.927  1.00  0.00    -0.206 F 
ATOM     72  C   UNL A   1      40.412  25.354  26.356  1.00  0.00     0.022 A 
BRANCH  69  73
ATOM     73  S   UNL A   1      40.987  22.712  27.038  1.00  0.00     0.124 S 
ATOM     74  O   UNL A   1      39.536  22.602  26.906  1.00  0.00    -0.237 OA
ATOM     75  O   UNL A   1      41.765  22.362  25.857  1.00  0.00    -0.237 OA
ATOM     76  O   UNL A   1      41.529  22.233  28.307  1.00  0.00    -0.744 OA
ENDBRANCH  69  73
ENDBRANCH  52  66
BRANCH  53  77
ATOM     77  C   UNL A   1      50.090  30.087  33.421  1.00  0.00     0.023 A 
ATOM     78  C   UNL A   1      50.635  31.371  33.263  1.00  0.00     0.031 A 
ATOM     79  C   UNL A   1      50.682  29.234  34.370  1.00  0.00     0.131 A 
ATOM     80  C   UNL A   1      51.769  31.746  34.002  1.00  0.00     0.055 A 
ATOM     81  C   UNL A   1      51.774  29.631  35.143  1.00  0.00     0.041 A 
ATOM     82  F   UNL A   1      50.200  27.995  34.563  1.00  0.00    -0.206 F 
ATOM     83  C   UNL A   1      52.334  30.889  34.950  1.00  0.00     0.022 A 
BRANCH  80  84
ATOM     84  S   UNL A   1      52.556  33.339  33.638  1.00  0.00     0.124 S 
ATOM     85  O   UNL A   1      52.807  33.859  34.977  1.00  0.00    -0.237 OA
ATOM     86  O   UNL A   1      53.732  32.926  32.879  1.00  0.00    -0.237 OA
ATOM     87  O   UNL A   1      51.539  34.053  32.869  1.00  0.00    -0.744 OA
ENDBRANCH  80  84
ENDBRANCH  53  77
BRANCH  65  88
ATOM     88  C   UNL A   1      49.791  26.824  27.260  1.00  0.00     0.023 A 
ATOM     89  C   UNL A   1      50.125  27.661  26.181  1.00  0.00     0.031 A 
ATOM     90  C   UNL A   1      50.470  25.598  27.379  1.00  0.00     0.131 A 
ATOM     91  C   UNL A   1      51.056  27.230  25.223  1.00  0.00     0.055 A 
ATOM     92  C   UNL A   1      51.446  25.206  26.463  1.00  0.00     0.041 A 
ATOM     93  F   UNL A   1      50.192  24.759  28.390  1.00  0.00    -0.206 F 
ATOM     94  C   UNL A   1      51.731  26.016  25.367  1.00  0.00     0.022 A 
BRANCH  91  95
ATOM     95  S   UNL A   1      51.283  28.224  23.723  1.00  0.00     0.124 S 
ATOM     96  O   UNL A   1      51.528  29.553  24.275  1.00  0.00    -0.237 OA
ATOM     97  O   UNL A   1      52.427  27.575  23.091  1.00  0.00    -0.237 OA
ATOM     98  O   UNL A   1      50.014  28.071  23.016  1.00  0.00    -0.744 OA
ENDBRANCH  91  95
ENDBRANCH  65  88
ENDBRANCH  39  40
ENDBRANCH  32  34
ENDBRANCH  31  32
ENDBRANCH  30  31
ENDBRANCH  29  30
ENDBRANCH  28  29
ENDBRANCH  27  28
ENDBRANCH   1  27
TORSDOF 28
ENDMDL
