MODEL 1
REMARK VINA RESULT:      -9.5      0.000      0.000
REMARK SMILES O=C(COc1ccc(Br)cc1/C=C1\C(=O)Nc2ccc(Br)cc21)OCCOCCOCCOCCOC(=O)c1ccc(-c2c3nc(c(-c4cc(S(=O)(=O)[O-])ccc4F)c4ccc([nH]4)c(-c4cc(S(=O)(=O)[O-])ccc4F)c4nc(c(-c5cc(S(=O)(=O)[O-])ccc5F)c5ccc2[nH]5)C=C4)C=C3)cc1
REMARK SMILES IDX 30 1 29 2 28 3 27 4 26 5 25 6 24 7 2 8 1 9 3 10 4 11 5 12
REMARK SMILES IDX 6 13 11 14 7 15 10 16 8 17 9 18 12 19 13 20 14 21 23 22
REMARK SMILES IDX 15 23 16 24 17 25 22 26 18 28 20 29 19 30 21 31 31 32 32 33
REMARK SMILES IDX 33 34 34 35 35 36 36 37 37 38 38 39 39 40 40 41 101 42 41 43
REMARK SMILES IDX 100 44 42 45 43 46 44 47 94 48 45 49 99 50 93 51 95 52 46 53
REMARK SMILES IDX 98 54 92 55 91 56 47 58 79 59 59 60 78 61 60 62 63 63 77 64
REMARK SMILES IDX 96 65 61 66 62 67 76 69 97 70 64 71 48 72 49 73 57 74 50 75
REMARK SMILES IDX 56 76 58 77 55 78 51 79 52 80 53 81 54 82 80 83 81 84 89 85
REMARK SMILES IDX 82 86 88 87 90 88 87 89 83 90 84 91 85 92 86 93 65 94 66 95
REMARK SMILES IDX 74 96 67 97 73 98 75 99 72 100 68 101 69 102 70 103 71 104
REMARK H PARENT 16 27 95 57 63 68
REMARK Flexibility Score: inf
ROOT
ATOM      1  O   UNL A   1      36.467  23.861  24.749  1.00  0.00    -0.377 OA
ENDROOT
BRANCH   1   2
ATOM      2  C   UNL A   1      36.679  23.342  23.438  1.00  0.00     0.188 C 
BRANCH   2   3
ATOM      3  C   UNL A   1      35.377  23.040  22.685  1.00  0.00     0.188 C 
BRANCH   3   4
ATOM      4  O   UNL A   1      34.354  24.000  22.913  1.00  0.00    -0.376 OA
BRANCH   4   5
ATOM      5  C   UNL A   1      33.319  24.251  21.980  1.00  0.00     0.202 C 
BRANCH   5   6
ATOM      6  C   UNL A   1      32.930  25.688  21.639  1.00  0.00     0.261 C 
BRANCH   6   7
ATOM      7  O   UNL A   1      33.410  26.708  22.540  1.00  0.00    -0.461 OA
BRANCH   7   8
ATOM      8  C   UNL A   1      33.520  28.030  22.285  1.00  0.00     0.344 C 
ATOM      9  O   UNL A   1      34.519  28.459  21.709  1.00  0.00    -0.248 OA
BRANCH   8  10
ATOM     10  C   UNL A   1      32.418  28.966  22.767  1.00  0.00     0.351 C 
BRANCH  10  11
ATOM     11  O   UNL A   1      31.440  28.415  23.662  1.00  0.00    -0.481 OA
BRANCH  11  12
ATOM     12  C   UNL A   1      31.753  28.877  24.928  1.00  0.00     0.127 A 
ATOM     13  C   UNL A   1      31.516  30.241  25.171  1.00  0.00     0.048 A 
ATOM     14  C   UNL A   1      32.509  28.070  25.801  1.00  0.00     0.018 A 
ATOM     15  C   UNL A   1      32.223  30.893  26.168  1.00  0.00     0.019 A 
ATOM     16  C   UNL A   1      33.259  28.781  26.742  1.00  0.00     0.027 A 
ATOM     17  C   UNL A   1      33.135  30.166  26.913  1.00  0.00     0.018 A 
ATOM     18  Br  UNL A   1      34.261  31.054  28.147  1.00  0.00    -0.051 Br
BRANCH  14  19
ATOM     19  C   UNL A   1      32.556  26.585  25.620  1.00  0.00     0.026 C 
ATOM     20  C   UNL A   1      31.564  25.681  25.474  1.00  0.00     0.050 C 
ATOM     21  C   UNL A   1      30.083  25.923  25.539  1.00  0.00     0.256 C 
ATOM     22  C   UNL A   1      31.715  24.227  25.678  1.00  0.00     0.012 A 
ATOM     23  O   UNL A   1      29.411  26.762  24.973  1.00  0.00    -0.269 OA
ATOM     24  N   UNL A   1      29.597  24.866  26.285  1.00  0.00    -0.321 N 
ATOM     25  C   UNL A   1      30.534  23.841  26.331  1.00  0.00     0.049 A 
ATOM     26  C   UNL A   1      32.625  23.261  25.286  1.00  0.00     0.026 A 
ATOM     27  H   UNL A   1      28.716  24.843  26.721  1.00  0.00     0.170 HD
ATOM     28  C   UNL A   1      30.294  22.562  26.781  1.00  0.00     0.028 A 
ATOM     29  C   UNL A   1      32.348  21.932  25.645  1.00  0.00     0.018 A 
ATOM     30  C   UNL A   1      31.228  21.591  26.430  1.00  0.00     0.018 A 
ATOM     31  Br  UNL A   1      33.448  20.533  24.995  1.00  0.00    -0.051 Br
ENDBRANCH  14  19
ENDBRANCH  11  12
ENDBRANCH  10  11
ENDBRANCH   8  10
ENDBRANCH   7   8
ENDBRANCH   6   7
ENDBRANCH   5   6
ENDBRANCH   4   5
ENDBRANCH   3   4
ENDBRANCH   2   3
ENDBRANCH   1   2
BRANCH   1  32
ATOM     32  C   UNL A   1      36.958  23.033  25.795  1.00  0.00     0.188 C 
BRANCH  32  33
ATOM     33  C   UNL A   1      36.933  21.508  25.534  1.00  0.00     0.188 C 
BRANCH  33  34
ATOM     34  O   UNL A   1      37.910  20.869  24.720  1.00  0.00    -0.376 OA
BRANCH  34  35
ATOM     35  C   UNL A   1      38.312  19.536  24.997  1.00  0.00     0.202 C 
BRANCH  35  36
ATOM     36  C   UNL A   1      39.516  19.302  25.912  1.00  0.00     0.261 C 
BRANCH  36  37
ATOM     37  O   UNL A   1      40.748  19.810  25.384  1.00  0.00    -0.460 OA
BRANCH  37  38
ATOM     38  C   UNL A   1      41.828  19.695  26.195  1.00  0.00     0.338 C 
ATOM     39  O   UNL A   1      42.371  18.663  26.554  1.00  0.00    -0.246 OA
BRANCH  38  40
ATOM     40  C   UNL A   1      42.396  21.042  26.408  1.00  0.00     0.060 A 
ATOM     41  C   UNL A   1      42.797  21.838  25.331  1.00  0.00     0.016 A 
ATOM     42  C   UNL A   1      42.585  21.483  27.725  1.00  0.00     0.016 A 
ATOM     43  C   UNL A   1      43.358  23.092  25.575  1.00  0.00     0.010 A 
ATOM     44  C   UNL A   1      43.171  22.725  27.968  1.00  0.00     0.010 A 
ATOM     45  C   UNL A   1      43.534  23.549  26.892  1.00  0.00    -0.014 A 
BRANCH  45  46
ATOM     46  C   UNL A   1      43.865  24.970  27.137  1.00  0.00     0.031 A 
ATOM     47  C   UNL A   1      42.854  25.963  27.611  1.00  0.00     0.074 A 
ATOM     48  C   UNL A   1      45.134  25.347  26.889  1.00  0.00     0.049 A 
ATOM     49  N   UNL A   1      43.037  27.214  27.938  1.00  0.00    -0.248 NA
ATOM     50  C   UNL A   1      41.461  25.505  27.730  1.00  0.00     0.031 C 
ATOM     51  C   UNL A   1      46.177  24.455  26.381  1.00  0.00     0.029 A 
ATOM     52  N   UNL A   1      45.759  26.560  27.011  1.00  0.00    -0.354 N 
ATOM     53  C   UNL A   1      41.795  27.695  28.330  1.00  0.00     0.074 A 
ATOM     54  C   UNL A   1      40.853  26.608  28.156  1.00  0.00     0.031 C 
ATOM     55  C   UNL A   1      47.310  25.152  26.223  1.00  0.00     0.029 A 
ATOM     56  C   UNL A   1      47.073  26.541  26.604  1.00  0.00     0.049 A 
ATOM     57  H   UNL A   1      45.312  27.366  27.356  1.00  0.00     0.167 HD
ATOM     58  C   UNL A   1      41.489  28.926  28.804  1.00  0.00     0.034 A 
ATOM     59  C   UNL A   1      47.987  27.529  26.540  1.00  0.00     0.034 A 
ATOM     60  C   UNL A   1      42.453  29.990  28.958  1.00  0.00     0.049 A 
ATOM     61  C   UNL A   1      47.616  28.889  27.067  1.00  0.00     0.074 A 
ATOM     62  C   UNL A   1      42.256  31.244  29.510  1.00  0.00     0.029 A 
ATOM     63  N   UNL A   1      43.779  29.942  28.550  1.00  0.00    -0.354 N 
ATOM     64  N   UNL A   1      46.473  29.287  27.574  1.00  0.00    -0.248 NA
ATOM     65  C   UNL A   1      48.655  29.927  27.041  1.00  0.00     0.031 C 
ATOM     66  C   UNL A   1      43.434  31.976  29.369  1.00  0.00     0.029 A 
ATOM     67  C   UNL A   1      44.396  31.157  28.798  1.00  0.00     0.049 A 
ATOM     68  H   UNL A   1      44.217  29.158  28.143  1.00  0.00     0.167 HD
ATOM     69  C   UNL A   1      46.659  30.615  27.942  1.00  0.00     0.074 A 
ATOM     70  C   UNL A   1      48.034  30.943  27.627  1.00  0.00     0.031 C 
ATOM     71  C   UNL A   1      45.768  31.481  28.485  1.00  0.00     0.034 A 
BRANCH  58  72
ATOM     72  C   UNL A   1      40.078  29.220  29.246  1.00  0.00     0.023 A 
ATOM     73  C   UNL A   1      39.746  29.195  30.614  1.00  0.00     0.031 A 
ATOM     74  C   UNL A   1      39.033  29.312  28.309  1.00  0.00     0.131 A 
ATOM     75  C   UNL A   1      38.401  29.206  31.004  1.00  0.00     0.055 A 
ATOM     76  C   UNL A   1      37.696  29.357  28.705  1.00  0.00     0.041 A 
ATOM     77  F   UNL A   1      39.299  29.331  26.993  1.00  0.00    -0.206 F 
ATOM     78  C   UNL A   1      37.374  29.289  30.057  1.00  0.00     0.022 A 
BRANCH  75  79
ATOM     79  S   UNL A   1      37.927  29.037  32.747  1.00  0.00     0.124 S 
ATOM     80  O   UNL A   1      36.754  29.906  32.824  1.00  0.00    -0.237 OA
ATOM     81  O   UNL A   1      37.654  27.608  32.853  1.00  0.00    -0.237 OA
ATOM     82  O   UNL A   1      39.097  29.516  33.475  1.00  0.00    -0.744 OA
ENDBRANCH  75  79
ENDBRANCH  58  72
BRANCH  59  83
ATOM     83  C   UNL A   1      49.343  27.214  26.008  1.00  0.00     0.023 A 
ATOM     84  C   UNL A   1      50.431  27.041  26.885  1.00  0.00     0.031 A 
ATOM     85  C   UNL A   1      49.599  27.220  24.629  1.00  0.00     0.131 A 
ATOM     86  C   UNL A   1      51.730  26.949  26.374  1.00  0.00     0.055 A 
ATOM     87  C   UNL A   1      50.889  27.058  24.120  1.00  0.00     0.041 A 
ATOM     88  F   UNL A   1      48.597  27.404  23.755  1.00  0.00    -0.206 F 
ATOM     89  C   UNL A   1      51.965  26.940  24.996  1.00  0.00     0.022 A 
BRANCH  86  90
ATOM     90  S   UNL A   1      53.168  26.996  27.482  1.00  0.00     0.124 S 
ATOM     91  O   UNL A   1      54.257  26.640  26.580  1.00  0.00    -0.237 OA
ATOM     92  O   UNL A   1      53.151  28.384  27.937  1.00  0.00    -0.237 OA
ATOM     93  O   UNL A   1      52.845  26.007  28.506  1.00  0.00    -0.744 OA
ENDBRANCH  86  90
ENDBRANCH  59  83
BRANCH  71  94
ATOM     94  C   UNL A   1      46.216  32.894  28.772  1.00  0.00     0.023 A 
ATOM     95  C   UNL A   1      46.146  33.877  27.766  1.00  0.00     0.031 A 
ATOM     96  C   UNL A   1      46.862  33.220  29.978  1.00  0.00     0.131 A 
ATOM     97  C   UNL A   1      46.759  35.120  27.964  1.00  0.00     0.055 A 
ATOM     98  C   UNL A   1      47.428  34.477  30.188  1.00  0.00     0.041 A 
ATOM     99  F   UNL A   1      46.961  32.314  30.964  1.00  0.00    -0.206 F 
ATOM    100  C   UNL A   1      47.392  35.428  29.171  1.00  0.00     0.022 A 
BRANCH  97 101
ATOM    101  S   UNL A   1      46.838  36.348  26.630  1.00  0.00     0.124 S 
ATOM    102  O   UNL A   1      46.357  35.581  25.483  1.00  0.00    -0.237 OA
ATOM    103  O   UNL A   1      45.930  37.384  27.113  1.00  0.00    -0.237 OA
ATOM    104  O   UNL A   1      48.248  36.722  26.578  1.00  0.00    -0.744 OA
ENDBRANCH  97 101
ENDBRANCH  71  94
ENDBRANCH  45  46
ENDBRANCH  38  40
ENDBRANCH  37  38
ENDBRANCH  36  37
ENDBRANCH  35  36
ENDBRANCH  34  35
ENDBRANCH  33  34
ENDBRANCH  32  33
ENDBRANCH   1  32
TORSDOF 26
ENDMDL
MODEL 2
REMARK VINA RESULT:      -9.2      5.035     10.469
REMARK SMILES O=C(COc1ccc(Br)cc1/C=C1\C(=O)Nc2ccc(Br)cc21)OCCOCCOCCOCCOC(=O)c1ccc(-c2c3nc(c(-c4cc(S(=O)(=O)[O-])ccc4F)c4ccc([nH]4)c(-c4cc(S(=O)(=O)[O-])ccc4F)c4nc(c(-c5cc(S(=O)(=O)[O-])ccc5F)c5ccc2[nH]5)C=C4)C=C3)cc1
REMARK SMILES IDX 30 1 29 2 28 3 27 4 26 5 25 6 24 7 2 8 1 9 3 10 4 11 5 12
REMARK SMILES IDX 6 13 11 14 7 15 10 16 8 17 9 18 12 19 13 20 14 21 23 22
REMARK SMILES IDX 15 23 16 24 17 25 22 26 18 28 20 29 19 30 21 31 31 32 32 33
REMARK SMILES IDX 33 34 34 35 35 36 36 37 37 38 38 39 39 40 40 41 101 42 41 43
REMARK SMILES IDX 100 44 42 45 43 46 44 47 94 48 45 49 99 50 93 51 95 52 46 53
REMARK SMILES IDX 98 54 92 55 91 56 47 58 79 59 59 60 78 61 60 62 63 63 77 64
REMARK SMILES IDX 96 65 61 66 62 67 76 69 97 70 64 71 48 72 49 73 57 74 50 75
REMARK SMILES IDX 56 76 58 77 55 78 51 79 52 80 53 81 54 82 80 83 81 84 89 85
REMARK SMILES IDX 82 86 88 87 90 88 87 89 83 90 84 91 85 92 86 93 65 94 66 95
REMARK SMILES IDX 74 96 67 97 73 98 75 99 72 100 68 101 69 102 70 103 71 104
REMARK H PARENT 16 27 95 57 63 68
REMARK Flexibility Score: inf
ROOT
ATOM      1  O   UNL A   1      42.099  21.590  26.059  1.00  0.00    -0.377 OA
ENDROOT
BRANCH   1   2
ATOM      2  C   UNL A   1      41.325  21.368  27.236  1.00  0.00     0.188 C 
BRANCH   2   3
ATOM      3  C   UNL A   1      40.031  22.191  27.279  1.00  0.00     0.188 C 
BRANCH   3   4
ATOM      4  O   UNL A   1      39.390  22.305  26.016  1.00  0.00    -0.376 OA
BRANCH   4   5
ATOM      5  C   UNL A   1      37.992  22.491  25.882  1.00  0.00     0.202 C 
BRANCH   5   6
ATOM      6  C   UNL A   1      37.450  23.741  25.193  1.00  0.00     0.261 C 
BRANCH   6   7
ATOM      7  O   UNL A   1      36.129  23.630  24.621  1.00  0.00    -0.461 OA
BRANCH   7   8
ATOM      8  C   UNL A   1      35.822  23.287  23.351  1.00  0.00     0.344 C 
ATOM      9  O   UNL A   1      36.680  22.774  22.633  1.00  0.00    -0.248 OA
BRANCH   8  10
ATOM     10  C   UNL A   1      34.426  23.596  22.824  1.00  0.00     0.351 C 
BRANCH  10  11
ATOM     11  O   UNL A   1      33.471  22.524  22.844  1.00  0.00    -0.481 OA
BRANCH  11  12
ATOM     12  C   UNL A   1      32.304  23.041  23.377  1.00  0.00     0.127 A 
ATOM     13  C   UNL A   1      31.947  24.336  22.962  1.00  0.00     0.048 A 
ATOM     14  C   UNL A   1      31.685  22.395  24.466  1.00  0.00     0.018 A 
ATOM     15  C   UNL A   1      31.129  25.113  23.766  1.00  0.00     0.019 A 
ATOM     16  C   UNL A   1      30.929  23.238  25.285  1.00  0.00     0.027 A 
ATOM     17  C   UNL A   1      30.670  24.575  24.955  1.00  0.00     0.018 A 
ATOM     18  Br  UNL A   1      29.717  25.664  26.174  1.00  0.00    -0.051 Br
BRANCH  14  19
ATOM     19  C   UNL A   1      31.940  20.945  24.738  1.00  0.00     0.026 C 
ATOM     20  C   UNL A   1      33.022  20.317  25.243  1.00  0.00     0.050 C 
ATOM     21  C   UNL A   1      34.349  20.922  25.607  1.00  0.00     0.256 C 
ATOM     22  C   UNL A   1      33.291  18.872  25.115  1.00  0.00     0.012 A 
ATOM     23  O   UNL A   1      34.593  21.901  26.281  1.00  0.00    -0.269 OA
ATOM     24  N   UNL A   1      35.278  20.020  25.124  1.00  0.00    -0.321 N 
ATOM     25  C   UNL A   1      34.672  18.794  24.877  1.00  0.00     0.049 A 
ATOM     26  C   UNL A   1      32.562  17.709  25.288  1.00  0.00     0.026 A 
ATOM     27  H   UNL A   1      36.230  20.218  24.974  1.00  0.00     0.170 HD
ATOM     28  C   UNL A   1      35.337  17.615  24.620  1.00  0.00     0.028 A 
ATOM     29  C   UNL A   1      33.245  16.492  25.132  1.00  0.00     0.018 A 
ATOM     30  C   UNL A   1      34.600  16.441  24.748  1.00  0.00     0.018 A 
ATOM     31  Br  UNL A   1      32.363  14.861  25.528  1.00  0.00    -0.051 Br
ENDBRANCH  14  19
ENDBRANCH  11  12
ENDBRANCH  10  11
ENDBRANCH   8  10
ENDBRANCH   7   8
ENDBRANCH   6   7
ENDBRANCH   5   6
ENDBRANCH   4   5
ENDBRANCH   3   4
ENDBRANCH   2   3
ENDBRANCH   1   2
BRANCH   1  32
ATOM     32  C   UNL A   1      43.166  22.514  26.223  1.00  0.00     0.188 C 
BRANCH  32  33
ATOM     33  C   UNL A   1      43.350  23.559  25.097  1.00  0.00     0.188 C 
BRANCH  33  34
ATOM     34  O   UNL A   1      42.692  24.821  25.127  1.00  0.00    -0.376 OA
BRANCH  34  35
ATOM     35  C   UNL A   1      41.843  25.159  26.213  1.00  0.00     0.202 C 
BRANCH  35  36
ATOM     36  C   UNL A   1      42.360  26.123  27.283  1.00  0.00     0.261 C 
BRANCH  36  37
ATOM     37  O   UNL A   1      42.804  27.381  26.759  1.00  0.00    -0.460 OA
BRANCH  37  38
ATOM     38  C   UNL A   1      44.125  27.647  26.908  1.00  0.00     0.338 C 
ATOM     39  O   UNL A   1      45.060  27.022  26.433  1.00  0.00    -0.246 OA
BRANCH  38  40
ATOM     40  C   UNL A   1      44.263  28.965  27.563  1.00  0.00     0.060 A 
ATOM     41  C   UNL A   1      43.453  30.044  27.197  1.00  0.00     0.016 A 
ATOM     42  C   UNL A   1      45.273  29.127  28.521  1.00  0.00     0.016 A 
ATOM     43  C   UNL A   1      43.636  31.280  27.818  1.00  0.00     0.010 A 
ATOM     44  C   UNL A   1      45.472  30.370  29.120  1.00  0.00     0.010 A 
ATOM     45  C   UNL A   1      44.635  31.447  28.792  1.00  0.00    -0.014 A 
BRANCH  45  46
ATOM     46  C   UNL A   1      44.640  32.663  29.635  1.00  0.00     0.031 A 
ATOM     47  C   UNL A   1      45.601  33.787  29.421  1.00  0.00     0.074 A 
ATOM     48  C   UNL A   1      43.741  32.709  30.638  1.00  0.00     0.049 A 
ATOM     49  N   UNL A   1      45.654  34.938  30.039  1.00  0.00    -0.248 NA
ATOM     50  C   UNL A   1      46.637  33.605  28.394  1.00  0.00     0.031 C 
ATOM     51  C   UNL A   1      42.794  31.636  30.948  1.00  0.00     0.029 A 
ATOM     52  N   UNL A   1      43.483  33.669  31.580  1.00  0.00    -0.354 N 
ATOM     53  C   UNL A   1      46.708  35.635  29.463  1.00  0.00     0.074 A 
ATOM     54  C   UNL A   1      47.298  34.756  28.473  1.00  0.00     0.031 C 
ATOM     55  C   UNL A   1      42.067  31.991  32.014  1.00  0.00     0.029 A 
ATOM     56  C   UNL A   1      42.501  33.307  32.473  1.00  0.00     0.049 A 
ATOM     57  H   UNL A   1      43.954  34.532  31.615  1.00  0.00     0.167 HD
ATOM     58  C   UNL A   1      47.120  36.896  29.735  1.00  0.00     0.034 A 
ATOM     59  C   UNL A   1      42.006  33.958  33.544  1.00  0.00     0.034 A 
ATOM     60  C   UNL A   1      46.513  37.742  30.735  1.00  0.00     0.049 A 
ATOM     61  C   UNL A   1      42.489  35.354  33.826  1.00  0.00     0.074 A 
ATOM     62  C   UNL A   1      46.806  39.064  31.022  1.00  0.00     0.029 A 
ATOM     63  N   UNL A   1      45.513  37.357  31.617  1.00  0.00    -0.354 N 
ATOM     64  N   UNL A   1      43.387  36.057  33.176  1.00  0.00    -0.248 NA
ATOM     65  C   UNL A   1      41.883  36.060  34.963  1.00  0.00     0.031 C 
ATOM     66  C   UNL A   1      46.040  39.453  32.121  1.00  0.00     0.029 A 
ATOM     67  C   UNL A   1      45.211  38.401  32.476  1.00  0.00     0.049 A 
ATOM     68  H   UNL A   1      45.081  36.471  31.630  1.00  0.00     0.167 HD
ATOM     69  C   UNL A   1      43.442  37.292  33.814  1.00  0.00     0.074 A 
ATOM     70  C   UNL A   1      42.464  37.250  34.882  1.00  0.00     0.031 C 
ATOM     71  C   UNL A   1      44.234  38.358  33.539  1.00  0.00     0.034 A 
BRANCH  58  72
ATOM     72  C   UNL A   1      48.249  37.494  28.934  1.00  0.00     0.023 A 
ATOM     73  C   UNL A   1      49.560  37.486  29.448  1.00  0.00     0.031 A 
ATOM     74  C   UNL A   1      47.992  38.251  27.778  1.00  0.00     0.131 A 
ATOM     75  C   UNL A   1      50.551  38.264  28.837  1.00  0.00     0.055 A 
ATOM     76  C   UNL A   1      48.992  38.997  27.153  1.00  0.00     0.041 A 
ATOM     77  F   UNL A   1      46.755  38.296  27.255  1.00  0.00    -0.206 F 
ATOM     78  C   UNL A   1      50.275  39.018  27.691  1.00  0.00     0.022 A 
BRANCH  75  79
ATOM     79  S   UNL A   1      52.217  38.389  29.545  1.00  0.00     0.124 S 
ATOM     80  O   UNL A   1      52.598  36.983  29.664  1.00  0.00    -0.237 OA
ATOM     81  O   UNL A   1      52.929  39.145  28.520  1.00  0.00    -0.237 OA
ATOM     82  O   UNL A   1      52.007  39.080  30.813  1.00  0.00    -0.744 OA
ENDBRANCH  75  79
ENDBRANCH  58  72
BRANCH  59  83
ATOM     83  C   UNL A   1      40.956  33.289  34.363  1.00  0.00     0.023 A 
ATOM     84  C   UNL A   1      39.592  33.517  34.100  1.00  0.00     0.031 A 
ATOM     85  C   UNL A   1      41.295  32.531  35.495  1.00  0.00     0.131 A 
ATOM     86  C   UNL A   1      38.622  33.051  34.995  1.00  0.00     0.055 A 
ATOM     87  C   UNL A   1      40.320  32.009  36.347  1.00  0.00     0.041 A 
ATOM     88  F   UNL A   1      42.582  32.305  35.799  1.00  0.00    -0.206 F 
ATOM     89  C   UNL A   1      38.976  32.284  36.108  1.00  0.00     0.022 A 
BRANCH  86  90
ATOM     90  S   UNL A   1      36.887  33.557  34.827  1.00  0.00     0.124 S 
ATOM     91  O   UNL A   1      37.009  34.830  34.126  1.00  0.00    -0.237 OA
ATOM     92  O   UNL A   1      36.327  32.456  34.045  1.00  0.00    -0.237 OA
ATOM     93  O   UNL A   1      36.416  33.636  36.206  1.00  0.00    -0.744 OA
ENDBRANCH  86  90
ENDBRANCH  59  83
BRANCH  71  94
ATOM     94  C   UNL A   1      44.118  39.588  34.407  1.00  0.00     0.023 A 
ATOM     95  C   UNL A   1      43.388  40.704  33.958  1.00  0.00     0.031 A 
ATOM     96  C   UNL A   1      44.865  39.712  35.592  1.00  0.00     0.131 A 
ATOM     97  C   UNL A   1      43.462  41.913  34.661  1.00  0.00     0.055 A 
ATOM     98  C   UNL A   1      44.895  40.905  36.315  1.00  0.00     0.041 A 
ATOM     99  F   UNL A   1      45.584  38.678  36.056  1.00  0.00    -0.206 F 
ATOM    100  C   UNL A   1      44.205  42.017  35.841  1.00  0.00     0.022 A 
BRANCH  97 101
ATOM    101  S   UNL A   1      42.674  43.418  34.023  1.00  0.00     0.124 S 
ATOM    102  O   UNL A   1      42.228  42.988  32.699  1.00  0.00    -0.237 OA
ATOM    103  O   UNL A   1      41.610  43.644  34.997  1.00  0.00    -0.237 OA
ATOM    104  O   UNL A   1      43.749  44.406  34.023  1.00  0.00    -0.744 OA
ENDBRANCH  97 101
ENDBRANCH  71  94
ENDBRANCH  45  46
ENDBRANCH  38  40
ENDBRANCH  37  38
ENDBRANCH  36  37
ENDBRANCH  35  36
ENDBRANCH  34  35
ENDBRANCH  33  34
ENDBRANCH  32  33
ENDBRANCH   1  32
TORSDOF 26
ENDMDL
MODEL 3
REMARK VINA RESULT:      -9.0      5.046      9.107
REMARK SMILES O=C(COc1ccc(Br)cc1/C=C1\C(=O)Nc2ccc(Br)cc21)OCCOCCOCCOCCOC(=O)c1ccc(-c2c3nc(c(-c4cc(S(=O)(=O)[O-])ccc4F)c4ccc([nH]4)c(-c4cc(S(=O)(=O)[O-])ccc4F)c4nc(c(-c5cc(S(=O)(=O)[O-])ccc5F)c5ccc2[nH]5)C=C4)C=C3)cc1
REMARK SMILES IDX 30 1 29 2 28 3 27 4 26 5 25 6 24 7 2 8 1 9 3 10 4 11 5 12
REMARK SMILES IDX 6 13 11 14 7 15 10 16 8 17 9 18 12 19 13 20 14 21 23 22
REMARK SMILES IDX 15 23 16 24 17 25 22 26 18 28 20 29 19 30 21 31 31 32 32 33
REMARK SMILES IDX 33 34 34 35 35 36 36 37 37 38 38 39 39 40 40 41 101 42 41 43
REMARK SMILES IDX 100 44 42 45 43 46 44 47 94 48 45 49 99 50 93 51 95 52 46 53
REMARK SMILES IDX 98 54 92 55 91 56 47 58 79 59 59 60 78 61 60 62 63 63 77 64
REMARK SMILES IDX 96 65 61 66 62 67 76 69 97 70 64 71 48 72 49 73 57 74 50 75
REMARK SMILES IDX 56 76 58 77 55 78 51 79 52 80 53 81 54 82 80 83 81 84 89 85
REMARK SMILES IDX 82 86 88 87 90 88 87 89 83 90 84 91 85 92 86 93 65 94 66 95
REMARK SMILES IDX 74 96 67 97 73 98 75 99 72 100 68 101 69 102 70 103 71 104
REMARK H PARENT 16 27 95 57 63 68
REMARK Flexibility Score: inf
ROOT
ATOM      1  O   UNL A   1      43.789  22.047  26.738  1.00  0.00    -0.377 OA
ENDROOT
BRANCH   1   2
ATOM      2  C   UNL A   1      43.814  23.459  26.932  1.00  0.00     0.188 C 
BRANCH   2   3
ATOM      3  C   UNL A   1      43.109  24.240  25.816  1.00  0.00     0.188 C 
BRANCH   3   4
ATOM      4  O   UNL A   1      42.492  25.440  26.265  1.00  0.00    -0.376 OA
BRANCH   4   5
ATOM      5  C   UNL A   1      41.891  26.367  25.380  1.00  0.00     0.202 C 
BRANCH   5   6
ATOM      6  C   UNL A   1      41.277  27.655  25.925  1.00  0.00     0.261 C 
BRANCH   6   7
ATOM      7  O   UNL A   1      41.084  27.713  27.354  1.00  0.00    -0.461 OA
BRANCH   7   8
ATOM      8  C   UNL A   1      39.962  27.395  28.034  1.00  0.00     0.344 C 
ATOM      9  O   UNL A   1      39.350  28.271  28.645  1.00  0.00    -0.248 OA
BRANCH   8  10
ATOM     10  C   UNL A   1      39.511  25.940  28.069  1.00  0.00     0.351 C 
BRANCH  10  11
ATOM     11  O   UNL A   1      38.909  25.416  26.876  1.00  0.00    -0.481 OA
BRANCH  11  12
ATOM     12  C   UNL A   1      38.962  24.037  26.976  1.00  0.00     0.127 A 
ATOM     13  C   UNL A   1      39.977  23.508  27.792  1.00  0.00     0.048 A 
ATOM     14  C   UNL A   1      38.206  23.241  26.092  1.00  0.00     0.018 A 
ATOM     15  C   UNL A   1      40.426  22.215  27.577  1.00  0.00     0.019 A 
ATOM     16  C   UNL A   1      38.741  21.972  25.856  1.00  0.00     0.027 A 
ATOM     17  C   UNL A   1      39.839  21.472  26.568  1.00  0.00     0.018 A 
ATOM     18  Br  UNL A   1      40.551  19.780  26.110  1.00  0.00    -0.051 Br
BRANCH  14  19
ATOM     19  C   UNL A   1      36.997  23.799  25.407  1.00  0.00     0.026 C 
ATOM     20  C   UNL A   1      35.744  23.312  25.290  1.00  0.00     0.050 C 
ATOM     21  C   UNL A   1      35.226  21.984  25.765  1.00  0.00     0.256 C 
ATOM     22  C   UNL A   1      34.758  23.762  24.289  1.00  0.00     0.012 A 
ATOM     23  O   UNL A   1      35.338  21.455  26.852  1.00  0.00    -0.269 OA
ATOM     24  N   UNL A   1      34.441  21.532  24.722  1.00  0.00    -0.321 N 
ATOM     25  C   UNL A   1      34.119  22.584  23.873  1.00  0.00     0.049 A 
ATOM     26  C   UNL A   1      34.303  24.984  23.827  1.00  0.00     0.026 A 
ATOM     27  H   UNL A   1      34.151  20.599  24.597  1.00  0.00     0.170 HD
ATOM     28  C   UNL A   1      33.168  22.542  22.877  1.00  0.00     0.028 A 
ATOM     29  C   UNL A   1      33.261  24.970  22.885  1.00  0.00     0.018 A 
ATOM     30  C   UNL A   1      32.736  23.766  22.374  1.00  0.00     0.018 A 
ATOM     31  Br  UNL A   1      32.464  26.600  22.339  1.00  0.00    -0.051 Br
ENDBRANCH  14  19
ENDBRANCH  11  12
ENDBRANCH  10  11
ENDBRANCH   8  10
ENDBRANCH   7   8
ENDBRANCH   6   7
ENDBRANCH   5   6
ENDBRANCH   4   5
ENDBRANCH   3   4
ENDBRANCH   2   3
ENDBRANCH   1   2
BRANCH   1  32
ATOM     32  C   UNL A   1      43.796  21.641  25.376  1.00  0.00     0.188 C 
BRANCH  32  33
ATOM     33  C   UNL A   1      45.093  20.967  24.867  1.00  0.00     0.188 C 
BRANCH  33  34
ATOM     34  O   UNL A   1      46.331  21.668  24.808  1.00  0.00    -0.376 OA
BRANCH  34  35
ATOM     35  C   UNL A   1      46.388  22.974  24.253  1.00  0.00     0.202 C 
BRANCH  35  36
ATOM     36  C   UNL A   1      46.908  24.122  25.119  1.00  0.00     0.261 C 
BRANCH  36  37
ATOM     37  O   UNL A   1      46.485  25.417  24.675  1.00  0.00    -0.460 OA
BRANCH  37  38
ATOM     38  C   UNL A   1      47.292  26.451  25.019  1.00  0.00     0.338 C 
ATOM     39  O   UNL A   1      48.316  26.802  24.456  1.00  0.00    -0.246 OA
BRANCH  38  40
ATOM     40  C   UNL A   1      46.616  27.240  26.069  1.00  0.00     0.060 A 
ATOM     41  C   UNL A   1      45.249  27.521  25.996  1.00  0.00     0.016 A 
ATOM     42  C   UNL A   1      47.393  27.760  27.114  1.00  0.00     0.016 A 
ATOM     43  C   UNL A   1      44.654  28.297  26.991  1.00  0.00     0.010 A 
ATOM     44  C   UNL A   1      46.803  28.558  28.092  1.00  0.00     0.010 A 
ATOM     45  C   UNL A   1      45.423  28.807  28.052  1.00  0.00    -0.014 A 
BRANCH  45  46
ATOM     46  C   UNL A   1      44.748  29.384  29.235  1.00  0.00     0.031 A 
ATOM     47  C   UNL A   1      44.415  28.576  30.448  1.00  0.00     0.074 A 
ATOM     48  C   UNL A   1      44.417  30.688  29.167  1.00  0.00     0.049 A 
ATOM     49  N   UNL A   1      43.899  28.983  31.577  1.00  0.00    -0.248 NA
ATOM     50  C   UNL A   1      44.687  27.132  30.394  1.00  0.00     0.031 C 
ATOM     51  C   UNL A   1      44.663  31.543  28.005  1.00  0.00     0.029 A 
ATOM     52  N   UNL A   1      43.800  31.515  30.069  1.00  0.00    -0.354 N 
ATOM     53  C   UNL A   1      43.806  27.857  32.385  1.00  0.00     0.074 A 
ATOM     54  C   UNL A   1      44.279  26.738  31.596  1.00  0.00     0.031 C 
ATOM     55  C   UNL A   1      44.191  32.771  28.257  1.00  0.00     0.029 A 
ATOM     56  C   UNL A   1      43.598  32.789  29.591  1.00  0.00     0.049 A 
ATOM     57  H   UNL A   1      43.528  31.226  30.969  1.00  0.00     0.167 HD
ATOM     58  C   UNL A   1      43.379  27.785  33.668  1.00  0.00     0.034 A 
ATOM     59  C   UNL A   1      43.000  33.855  30.159  1.00  0.00     0.034 A 
ATOM     60  C   UNL A   1      42.906  28.922  34.423  1.00  0.00     0.049 A 
ATOM     61  C   UNL A   1      42.528  33.742  31.583  1.00  0.00     0.074 A 
ATOM     62  C   UNL A   1      42.534  28.963  35.755  1.00  0.00     0.029 A 
ATOM     63  N   UNL A   1      42.722  30.203  33.921  1.00  0.00    -0.354 N 
ATOM     64  N   UNL A   1      42.583  32.705  32.385  1.00  0.00    -0.248 NA
ATOM     65  C   UNL A   1      41.937  34.941  32.194  1.00  0.00     0.031 C 
ATOM     66  C   UNL A   1      42.057  30.242  36.038  1.00  0.00     0.029 A 
ATOM     67  C   UNL A   1      42.201  31.027  34.905  1.00  0.00     0.049 A 
ATOM     68  H   UNL A   1      42.932  30.484  33.000  1.00  0.00     0.167 HD
ATOM     69  C   UNL A   1      42.051  33.129  33.598  1.00  0.00     0.074 A 
ATOM     70  C   UNL A   1      41.708  34.526  33.433  1.00  0.00     0.031 C 
ATOM     71  C   UNL A   1      41.861  32.420  34.738  1.00  0.00     0.034 A 
BRANCH  58  72
ATOM     72  C   UNL A   1      43.428  26.463  34.391  1.00  0.00     0.023 A 
ATOM     73  C   UNL A   1      44.663  25.818  34.600  1.00  0.00     0.031 A 
ATOM     74  C   UNL A   1      42.249  25.753  34.677  1.00  0.00     0.131 A 
ATOM     75  C   UNL A   1      44.687  24.485  35.029  1.00  0.00     0.055 A 
ATOM     76  C   UNL A   1      42.280  24.436  35.137  1.00  0.00     0.041 A 
ATOM     77  F   UNL A   1      41.048  26.323  34.486  1.00  0.00    -0.206 F 
ATOM     78  C   UNL A   1      43.503  23.791  35.301  1.00  0.00     0.022 A 
BRANCH  75  79
ATOM     79  S   UNL A   1      46.249  23.575  35.180  1.00  0.00     0.124 S 
ATOM     80  O   UNL A   1      47.202  24.516  34.594  1.00  0.00    -0.237 OA
ATOM     81  O   UNL A   1      46.358  23.393  36.623  1.00  0.00    -0.237 OA
ATOM     82  O   UNL A   1      46.023  22.362  34.402  1.00  0.00    -0.744 OA
ENDBRANCH  75  79
ENDBRANCH  58  72
BRANCH  59  83
ATOM     83  C   UNL A   1      42.889  35.115  29.372  1.00  0.00     0.023 A 
ATOM     84  C   UNL A   1      43.947  36.044  29.359  1.00  0.00     0.031 A 
ATOM     85  C   UNL A   1      41.688  35.472  28.741  1.00  0.00     0.131 A 
ATOM     86  C   UNL A   1      43.758  37.308  28.789  1.00  0.00     0.055 A 
ATOM     87  C   UNL A   1      41.527  36.708  28.112  1.00  0.00     0.041 A 
ATOM     88  F   UNL A   1      40.644  34.628  28.745  1.00  0.00    -0.206 F 
ATOM     89  C   UNL A   1      42.560  37.641  28.151  1.00  0.00     0.022 A 
BRANCH  86  90
ATOM     90  S   UNL A   1      45.003  38.613  28.995  1.00  0.00     0.124 S 
ATOM     91  O   UNL A   1      45.217  38.603  30.438  1.00  0.00    -0.237 OA
ATOM     92  O   UNL A   1      46.109  38.102  28.188  1.00  0.00    -0.237 OA
ATOM     93  O   UNL A   1      44.347  39.803  28.460  1.00  0.00    -0.744 OA
ENDBRANCH  86  90
ENDBRANCH  59  83
BRANCH  71  94
ATOM     94  C   UNL A   1      41.233  33.114  35.924  1.00  0.00     0.023 A 
ATOM     95  C   UNL A   1      42.045  33.679  36.925  1.00  0.00     0.031 A 
ATOM     96  C   UNL A   1      39.845  33.065  36.140  1.00  0.00     0.131 A 
ATOM     97  C   UNL A   1      41.468  34.125  38.120  1.00  0.00     0.055 A 
ATOM     98  C   UNL A   1      39.270  33.555  37.313  1.00  0.00     0.041 A 
ATOM     99  F   UNL A   1      39.030  32.527  35.219  1.00  0.00    -0.206 F 
ATOM    100  C   UNL A   1      40.085  34.073  38.316  1.00  0.00     0.022 A 
BRANCH  97 101
ATOM    101  S   UNL A   1      42.496  34.701  39.500  1.00  0.00     0.124 S 
ATOM    102  O   UNL A   1      41.876  34.031  40.641  1.00  0.00    -0.237 OA
ATOM    103  O   UNL A   1      43.818  34.204  39.127  1.00  0.00    -0.237 OA
ATOM    104  O   UNL A   1      42.340  36.152  39.473  1.00  0.00    -0.744 OA
ENDBRANCH  97 101
ENDBRANCH  71  94
ENDBRANCH  45  46
ENDBRANCH  38  40
ENDBRANCH  37  38
ENDBRANCH  36  37
ENDBRANCH  35  36
ENDBRANCH  34  35
ENDBRANCH  33  34
ENDBRANCH  32  33
ENDBRANCH   1  32
TORSDOF 26
ENDMDL
