MODEL 1
REMARK VINA RESULT:      -8.2      0.000      0.000
REMARK SMILES CC1(C)C(NC(=O)[C@@H]2CCC[C@@H](C(=O)OCCOCCOCCOCCOC(=O)c3ccc(-c4c5nc(c(-c6cc(S(=O)(=O)[O-])ccc6F)c6ccc([nH]6)c(-c6cc(S(=O)(=O)[O-])ccc6F)c6nc(c(-c7cc(S(=O)(=O)[O-])ccc7F)c7ccc4[nH]7)C=C6)C=C5)cc3)C2)C1(C)C
REMARK SMILES IDX 22 1 21 2 20 3 19 4 18 5 17 6 16 7 15 8 13 9 14 10 12 11
REMARK SMILES IDX 8 12 9 13 93 14 10 15 11 16 6 17 5 18 7 20 4 21 1 22 2 23
REMARK SMILES IDX 3 24 94 25 95 26 96 27 23 28 24 29 25 30 26 31 27 32 28 33
REMARK SMILES IDX 29 34 30 35 31 36 92 37 32 38 91 39 33 40 34 41 35 42 85 43
REMARK SMILES IDX 36 44 90 45 84 46 86 47 37 48 89 49 83 50 82 51 38 53 70 54
REMARK SMILES IDX 50 55 69 56 51 57 54 58 68 59 87 60 52 61 53 62 67 64 88 65
REMARK SMILES IDX 55 66 39 67 40 68 48 69 41 70 47 71 49 72 46 73 42 74 43 75
REMARK SMILES IDX 44 76 45 77 71 78 72 79 80 80 73 81 79 82 81 83 78 84 74 85
REMARK SMILES IDX 75 86 76 87 77 88 56 89 57 90 65 91 58 92 64 93 66 94 63 95
REMARK SMILES IDX 59 96 60 97 61 98 62 99
REMARK H PARENT 5 19 86 52 54 63
REMARK Flexibility Score: inf
ROOT
ATOM      1  C   UNL A   1      45.803  19.744  24.498  1.00  0.00     0.188 C 
ENDROOT
BRANCH   1   2
ATOM      2  O   UNL A   1      45.083  18.951  25.437  1.00  0.00    -0.377 OA
BRANCH   2   3
ATOM      3  C   UNL A   1      43.735  18.617  25.175  1.00  0.00     0.188 C 
BRANCH   3   4
ATOM      4  C   UNL A   1      42.684  19.034  26.226  1.00  0.00     0.188 C 
BRANCH   4   5
ATOM      5  O   UNL A   1      41.733  19.977  25.758  1.00  0.00    -0.376 OA
BRANCH   5   6
ATOM      6  C   UNL A   1      41.680  21.264  26.350  1.00  0.00     0.202 C 
BRANCH   6   7
ATOM      7  C   UNL A   1      40.336  21.775  26.898  1.00  0.00     0.261 C 
BRANCH   7   8
ATOM      8  O   UNL A   1      39.817  22.953  26.269  1.00  0.00    -0.463 OA
BRANCH   8   9
ATOM      9  C   UNL A   1      40.095  24.116  26.892  1.00  0.00     0.309 C 
ATOM     10  O   UNL A   1      39.478  24.542  27.860  1.00  0.00    -0.252 OA
BRANCH   9  11
ATOM     11  C   UNL A   1      41.307  24.792  26.259  1.00  0.00     0.100 C 
ATOM     12  C   UNL A   1      40.834  26.941  27.501  1.00  0.00     0.079 C 
ATOM     13  C   UNL A   1      41.746  26.449  28.654  1.00  0.00     0.013 C 
ATOM     14  C   UNL A   1      41.021  26.270  26.130  1.00  0.00     0.028 C 
ATOM     15  C   UNL A   1      42.504  25.125  28.471  1.00  0.00     0.002 C 
ATOM     16  C   UNL A   1      42.612  24.624  27.041  1.00  0.00     0.015 C 
BRANCH  12  17
ATOM     17  C   UNL A   1      40.812  28.447  27.255  1.00  0.00     0.223 C 
ATOM     18  N   UNL A   1      40.763  29.310  28.317  1.00  0.00    -0.352 N 
ATOM     19  H   UNL A   1      41.015  30.245  28.137  1.00  0.00     0.163 HD
ATOM     20  O   UNL A   1      40.940  28.906  26.119  1.00  0.00    -0.275 OA
BRANCH  18  21
ATOM     21  C   UNL A   1      40.387  28.998  29.653  1.00  0.00     0.094 C 
ATOM     22  C   UNL A   1      40.201  29.699  32.091  1.00  0.00     0.014 C 
ATOM     23  C   UNL A   1      39.732  29.905  30.660  1.00  0.00    -0.007 C 
ATOM     24  C   UNL A   1      39.516  31.361  30.344  1.00  0.00     0.014 C 
ATOM     25  C   UNL A   1      38.911  28.800  29.958  1.00  0.00    -0.007 C 
ATOM     26  C   UNL A   1      38.528  27.533  30.689  1.00  0.00     0.014 C 
ATOM     27  C   UNL A   1      37.909  29.136  28.870  1.00  0.00     0.014 C 
ENDBRANCH  18  21
ENDBRANCH  12  17
ENDBRANCH   9  11
ENDBRANCH   8   9
ENDBRANCH   7   8
ENDBRANCH   6   7
ENDBRANCH   5   6
ENDBRANCH   4   5
ENDBRANCH   3   4
ENDBRANCH   2   3
ENDBRANCH   1   2
BRANCH   1  28
ATOM     28  C   UNL A   1      45.917  21.284  24.630  1.00  0.00     0.188 C 
BRANCH  28  29
ATOM     29  O   UNL A   1      45.402  21.826  25.835  1.00  0.00    -0.376 OA
BRANCH  29  30
ATOM     30  C   UNL A   1      45.857  23.104  26.236  1.00  0.00     0.202 C 
BRANCH  30  31
ATOM     31  C   UNL A   1      46.390  24.026  25.131  1.00  0.00     0.261 C 
BRANCH  31  32
ATOM     32  O   UNL A   1      47.269  25.079  25.552  1.00  0.00    -0.460 OA
BRANCH  32  33
ATOM     33  C   UNL A   1      47.046  26.310  25.039  1.00  0.00     0.338 C 
ATOM     34  O   UNL A   1      47.184  26.651  23.876  1.00  0.00    -0.246 OA
BRANCH  33  35
ATOM     35  C   UNL A   1      46.398  27.122  26.092  1.00  0.00     0.060 A 
ATOM     36  C   UNL A   1      47.195  27.735  27.071  1.00  0.00     0.016 A 
ATOM     37  C   UNL A   1      45.014  27.304  26.089  1.00  0.00     0.016 A 
ATOM     38  C   UNL A   1      46.602  28.503  28.073  1.00  0.00     0.010 A 
ATOM     39  C   UNL A   1      44.419  28.048  27.111  1.00  0.00     0.010 A 
ATOM     40  C   UNL A   1      45.207  28.618  28.127  1.00  0.00    -0.014 A 
BRANCH  40  41
ATOM     41  C   UNL A   1      44.566  29.116  29.368  1.00  0.00     0.031 A 
ATOM     42  C   UNL A   1      44.075  30.541  29.379  1.00  0.00     0.074 A 
ATOM     43  C   UNL A   1      44.391  28.327  30.443  1.00  0.00     0.049 A 
ATOM     44  N   UNL A   1      43.535  31.228  30.349  1.00  0.00    -0.248 NA
ATOM     45  C   UNL A   1      44.222  31.286  28.119  1.00  0.00     0.031 C 
ATOM     46  C   UNL A   1      44.771  26.918  30.527  1.00  0.00     0.029 A 
ATOM     47  N   UNL A   1      43.850  28.605  31.673  1.00  0.00    -0.354 N 
ATOM     48  C   UNL A   1      43.285  32.491  29.820  1.00  0.00     0.074 A 
ATOM     49  C   UNL A   1      43.767  32.483  28.456  1.00  0.00     0.031 C 
ATOM     50  C   UNL A   1      44.461  26.458  31.752  1.00  0.00     0.029 A 
ATOM     51  C   UNL A   1      43.902  27.547  32.551  1.00  0.00     0.049 A 
ATOM     52  H   UNL A   1      43.462  29.479  31.905  1.00  0.00     0.167 HD
ATOM     53  C   UNL A   1      42.698  33.557  30.416  1.00  0.00     0.034 A 
ATOM     54  C   UNL A   1      43.563  27.480  33.856  1.00  0.00     0.034 A 
ATOM     55  C   UNL A   1      42.234  33.551  31.781  1.00  0.00     0.049 A 
ATOM     56  C   UNL A   1      43.000  28.712  34.529  1.00  0.00     0.074 A 
ATOM     57  C   UNL A   1      41.619  34.572  32.484  1.00  0.00     0.029 A 
ATOM     58  N   UNL A   1      42.348  32.478  32.656  1.00  0.00    -0.354 N 
ATOM     59  N   UNL A   1      42.764  29.902  34.020  1.00  0.00    -0.248 NA
ATOM     60  C   UNL A   1      42.650  28.591  35.950  1.00  0.00     0.031 C 
ATOM     61  C   UNL A   1      41.440  34.146  33.804  1.00  0.00     0.029 A 
ATOM     62  C   UNL A   1      41.849  32.825  33.902  1.00  0.00     0.049 A 
ATOM     63  H   UNL A   1      42.727  31.599  32.425  1.00  0.00     0.167 HD
ATOM     64  C   UNL A   1      42.200  30.653  35.050  1.00  0.00     0.074 A 
ATOM     65  C   UNL A   1      42.120  29.779  36.202  1.00  0.00     0.031 C 
ATOM     66  C   UNL A   1      41.779  31.944  35.045  1.00  0.00     0.034 A 
BRANCH  53  67
ATOM     67  C   UNL A   1      42.586  34.829  29.611  1.00  0.00     0.023 A 
ATOM     68  C   UNL A   1      43.647  35.746  29.516  1.00  0.00     0.031 A 
ATOM     69  C   UNL A   1      41.386  35.141  28.949  1.00  0.00     0.131 A 
ATOM     70  C   UNL A   1      43.465  36.957  28.830  1.00  0.00     0.055 A 
ATOM     71  C   UNL A   1      41.239  36.308  28.198  1.00  0.00     0.041 A 
ATOM     72  F   UNL A   1      40.327  34.319  29.029  1.00  0.00    -0.206 F 
ATOM     73  C   UNL A   1      42.278  37.232  28.147  1.00  0.00     0.022 A 
BRANCH  70  74
ATOM     74  S   UNL A   1      44.748  38.233  28.965  1.00  0.00     0.124 S 
ATOM     75  O   UNL A   1      44.653  38.599  30.376  1.00  0.00    -0.237 OA
ATOM     76  O   UNL A   1      45.953  37.512  28.572  1.00  0.00    -0.237 OA
ATOM     77  O   UNL A   1      44.305  39.265  28.031  1.00  0.00    -0.744 OA
ENDBRANCH  70  74
ENDBRANCH  53  67
BRANCH  54  78
ATOM     78  C   UNL A   1      43.785  26.227  34.637  1.00  0.00     0.023 A 
ATOM     79  C   UNL A   1      45.079  25.800  34.978  1.00  0.00     0.031 A 
ATOM     80  C   UNL A   1      42.707  25.394  34.987  1.00  0.00     0.131 A 
ATOM     81  C   UNL A   1      45.266  24.552  35.595  1.00  0.00     0.055 A 
ATOM     82  C   UNL A   1      42.892  24.185  35.660  1.00  0.00     0.041 A 
ATOM     83  F   UNL A   1      41.448  25.747  34.679  1.00  0.00    -0.206 F 
ATOM     84  C   UNL A   1      44.180  23.750  35.953  1.00  0.00     0.022 A 
BRANCH  81  85
ATOM     85  S   UNL A   1      46.959  23.940  35.823  1.00  0.00     0.124 S 
ATOM     86  O   UNL A   1      46.786  22.507  35.616  1.00  0.00    -0.237 OA
ATOM     87  O   UNL A   1      47.683  24.657  34.779  1.00  0.00    -0.237 OA
ATOM     88  O   UNL A   1      47.283  24.339  37.191  1.00  0.00    -0.744 OA
ENDBRANCH  81  85
ENDBRANCH  54  78
BRANCH  66  89
ATOM     89  C   UNL A   1      41.137  32.470  36.309  1.00  0.00     0.023 A 
ATOM     90  C   UNL A   1      39.804  32.180  36.646  1.00  0.00     0.031 A 
ATOM     91  C   UNL A   1      41.876  33.284  37.188  1.00  0.00     0.131 A 
ATOM     92  C   UNL A   1      39.231  32.752  37.793  1.00  0.00     0.055 A 
ATOM     93  C   UNL A   1      41.324  33.789  38.366  1.00  0.00     0.041 A 
ATOM     94  F   UNL A   1      43.154  33.597  36.919  1.00  0.00    -0.206 F 
ATOM     95  C   UNL A   1      39.989  33.539  38.665  1.00  0.00     0.022 A 
BRANCH  92  96
ATOM     96  S   UNL A   1      37.450  32.551  38.071  1.00  0.00     0.124 S 
ATOM     97  O   UNL A   1      37.278  31.110  37.908  1.00  0.00    -0.237 OA
ATOM     98  O   UNL A   1      37.287  33.063  39.427  1.00  0.00    -0.237 OA
ATOM     99  O   UNL A   1      36.844  33.369  37.023  1.00  0.00    -0.744 OA
ENDBRANCH  92  96
ENDBRANCH  66  89
ENDBRANCH  40  41
ENDBRANCH  33  35
ENDBRANCH  32  33
ENDBRANCH  31  32
ENDBRANCH  30  31
ENDBRANCH  29  30
ENDBRANCH  28  29
ENDBRANCH   1  28
TORSDOF 25
ENDMDL
MODEL 2
REMARK VINA RESULT:      -8.1      5.548      9.877
REMARK SMILES CC1(C)C(NC(=O)[C@@H]2CCC[C@@H](C(=O)OCCOCCOCCOCCOC(=O)c3ccc(-c4c5nc(c(-c6cc(S(=O)(=O)[O-])ccc6F)c6ccc([nH]6)c(-c6cc(S(=O)(=O)[O-])ccc6F)c6nc(c(-c7cc(S(=O)(=O)[O-])ccc7F)c7ccc4[nH]7)C=C6)C=C5)cc3)C2)C1(C)C
REMARK SMILES IDX 22 1 21 2 20 3 19 4 18 5 17 6 16 7 15 8 13 9 14 10 12 11
REMARK SMILES IDX 8 12 9 13 93 14 10 15 11 16 6 17 5 18 7 20 4 21 1 22 2 23
REMARK SMILES IDX 3 24 94 25 95 26 96 27 23 28 24 29 25 30 26 31 27 32 28 33
REMARK SMILES IDX 29 34 30 35 31 36 92 37 32 38 91 39 33 40 34 41 35 42 85 43
REMARK SMILES IDX 36 44 90 45 84 46 86 47 37 48 89 49 83 50 82 51 38 53 70 54
REMARK SMILES IDX 50 55 69 56 51 57 54 58 68 59 87 60 52 61 53 62 67 64 88 65
REMARK SMILES IDX 55 66 39 67 40 68 48 69 41 70 47 71 49 72 46 73 42 74 43 75
REMARK SMILES IDX 44 76 45 77 71 78 72 79 80 80 73 81 79 82 81 83 78 84 74 85
REMARK SMILES IDX 75 86 76 87 77 88 56 89 57 90 65 91 58 92 64 93 66 94 63 95
REMARK SMILES IDX 59 96 60 97 61 98 62 99
REMARK H PARENT 5 19 86 52 54 63
REMARK Flexibility Score: inf
ROOT
ATOM      1  C   UNL A   1      40.829  22.841  27.658  1.00  0.00     0.188 C 
ENDROOT
BRANCH   1   2
ATOM      2  O   UNL A   1      40.267  23.889  26.874  1.00  0.00    -0.377 OA
BRANCH   2   3
ATOM      3  C   UNL A   1      38.882  24.156  26.962  1.00  0.00     0.188 C 
BRANCH   3   4
ATOM      4  C   UNL A   1      37.974  23.555  25.867  1.00  0.00     0.188 C 
BRANCH   4   5
ATOM      5  O   UNL A   1      37.675  22.179  26.046  1.00  0.00    -0.376 OA
BRANCH   5   6
ATOM      6  C   UNL A   1      36.606  21.600  25.316  1.00  0.00     0.202 C 
BRANCH   6   7
ATOM      7  C   UNL A   1      35.210  21.550  25.960  1.00  0.00     0.261 C 
BRANCH   7   8
ATOM      8  O   UNL A   1      34.107  21.495  25.047  1.00  0.00    -0.463 OA
BRANCH   8   9
ATOM      9  C   UNL A   1      33.113  22.377  25.283  1.00  0.00     0.309 C 
ATOM     10  O   UNL A   1      33.153  23.242  26.147  1.00  0.00    -0.252 OA
BRANCH   9  11
ATOM     11  C   UNL A   1      31.967  22.177  24.295  1.00  0.00     0.100 C 
ATOM     12  C   UNL A   1      31.671  24.673  24.041  1.00  0.00     0.079 C 
ATOM     13  C   UNL A   1      32.663  24.647  22.851  1.00  0.00     0.013 C 
ATOM     14  C   UNL A   1      31.010  23.339  24.426  1.00  0.00     0.028 C 
ATOM     15  C   UNL A   1      33.193  23.287  22.371  1.00  0.00     0.002 C 
ATOM     16  C   UNL A   1      32.399  22.075  22.830  1.00  0.00     0.015 C 
BRANCH  12  17
ATOM     17  C   UNL A   1      30.554  25.711  23.964  1.00  0.00     0.223 C 
ATOM     18  N   UNL A   1      30.733  26.947  24.525  1.00  0.00    -0.352 N 
ATOM     19  H   UNL A   1      30.118  27.657  24.230  1.00  0.00     0.163 HD
ATOM     20  O   UNL A   1      29.529  25.492  23.317  1.00  0.00    -0.275 OA
BRANCH  18  21
ATOM     21  C   UNL A   1      31.714  27.313  25.487  1.00  0.00     0.094 C 
ATOM     22  C   UNL A   1      34.160  27.439  26.176  1.00  0.00     0.014 C 
ATOM     23  C   UNL A   1      33.067  27.922  25.236  1.00  0.00    -0.007 C 
ATOM     24  C   UNL A   1      33.574  28.094  23.828  1.00  0.00     0.014 C 
ATOM     25  C   UNL A   1      31.914  28.790  25.787  1.00  0.00    -0.007 C 
ATOM     26  C   UNL A   1      31.878  29.204  27.241  1.00  0.00     0.014 C 
ATOM     27  C   UNL A   1      31.198  29.796  24.906  1.00  0.00     0.014 C 
ENDBRANCH  18  21
ENDBRANCH  12  17
ENDBRANCH   9  11
ENDBRANCH   8   9
ENDBRANCH   7   8
ENDBRANCH   6   7
ENDBRANCH   5   6
ENDBRANCH   4   5
ENDBRANCH   3   4
ENDBRANCH   2   3
ENDBRANCH   1   2
BRANCH   1  28
ATOM     28  C   UNL A   1      40.839  21.366  27.182  1.00  0.00     0.188 C 
BRANCH  28  29
ATOM     29  O   UNL A   1      42.057  20.671  27.397  1.00  0.00    -0.376 OA
BRANCH  29  30
ATOM     30  C   UNL A   1      42.172  19.358  26.883  1.00  0.00     0.202 C 
BRANCH  30  31
ATOM     31  C   UNL A   1      42.873  19.206  25.526  1.00  0.00     0.261 C 
BRANCH  31  32
ATOM     32  O   UNL A   1      43.464  20.394  24.981  1.00  0.00    -0.460 OA
BRANCH  32  33
ATOM     33  C   UNL A   1      44.775  20.339  24.656  1.00  0.00     0.338 C 
ATOM     34  O   UNL A   1      45.331  19.461  24.016  1.00  0.00    -0.246 OA
BRANCH  33  35
ATOM     35  C   UNL A   1      45.383  21.634  25.028  1.00  0.00     0.060 A 
ATOM     36  C   UNL A   1      45.415  22.013  26.378  1.00  0.00     0.016 A 
ATOM     37  C   UNL A   1      45.949  22.453  24.049  1.00  0.00     0.016 A 
ATOM     38  C   UNL A   1      45.983  23.233  26.748  1.00  0.00     0.010 A 
ATOM     39  C   UNL A   1      46.489  23.688  24.417  1.00  0.00     0.010 A 
ATOM     40  C   UNL A   1      46.474  24.098  25.762  1.00  0.00    -0.014 A 
BRANCH  40  41
ATOM     41  C   UNL A   1      46.738  25.517  26.106  1.00  0.00     0.031 A 
ATOM     42  C   UNL A   1      45.556  26.382  26.458  1.00  0.00     0.074 A 
ATOM     43  C   UNL A   1      47.985  26.018  26.139  1.00  0.00     0.049 A 
ATOM     44  N   UNL A   1      45.512  27.658  26.738  1.00  0.00    -0.248 NA
ATOM     45  C   UNL A   1      44.247  25.711  26.492  1.00  0.00     0.031 C 
ATOM     46  C   UNL A   1      49.208  25.262  25.875  1.00  0.00     0.029 A 
ATOM     47  N   UNL A   1      48.426  27.291  26.406  1.00  0.00    -0.354 N 
ATOM     48  C   UNL A   1      44.171  27.944  26.973  1.00  0.00     0.074 A 
ATOM     49  C   UNL A   1      43.433  26.717  26.766  1.00  0.00     0.031 C 
ATOM     50  C   UNL A   1      50.262  26.090  25.982  1.00  0.00     0.029 A 
ATOM     51  C   UNL A   1      49.787  27.441  26.279  1.00  0.00     0.049 A 
ATOM     52  H   UNL A   1      47.824  28.026  26.663  1.00  0.00     0.167 HD
ATOM     53  C   UNL A   1      43.608  29.122  27.338  1.00  0.00     0.034 A 
ATOM     54  C   UNL A   1      50.554  28.550  26.364  1.00  0.00     0.034 A 
ATOM     55  C   UNL A   1      44.359  30.337  27.528  1.00  0.00     0.049 A 
ATOM     56  C   UNL A   1      49.891  29.874  26.676  1.00  0.00     0.074 A 
ATOM     57  C   UNL A   1      43.893  31.585  27.904  1.00  0.00     0.029 A 
ATOM     58  N   UNL A   1      45.730  30.464  27.343  1.00  0.00    -0.354 N 
ATOM     59  N   UNL A   1      48.622  30.134  26.900  1.00  0.00    -0.248 NA
ATOM     60  C   UNL A   1      50.766  31.051  26.755  1.00  0.00     0.031 C 
ATOM     61  C   UNL A   1      44.965  32.482  27.862  1.00  0.00     0.029 A 
ATOM     62  C   UNL A   1      46.119  31.777  27.560  1.00  0.00     0.049 A 
ATOM     63  H   UNL A   1      46.336  29.730  27.094  1.00  0.00     0.167 HD
ATOM     64  C   UNL A   1      48.557  31.497  27.187  1.00  0.00     0.074 A 
ATOM     65  C   UNL A   1      49.914  31.997  27.119  1.00  0.00     0.031 C 
ATOM     66  C   UNL A   1      47.477  32.265  27.485  1.00  0.00     0.034 A 
BRANCH  53  67
ATOM     67  C   UNL A   1      42.107  29.157  27.491  1.00  0.00     0.023 A 
ATOM     68  C   UNL A   1      41.489  29.253  28.750  1.00  0.00     0.031 A 
ATOM     69  C   UNL A   1      41.281  29.068  26.357  1.00  0.00     0.131 A 
ATOM     70  C   UNL A   1      40.090  29.193  28.848  1.00  0.00     0.055 A 
ATOM     71  C   UNL A   1      39.888  29.093  26.456  1.00  0.00     0.041 A 
ATOM     72  F   UNL A   1      41.813  28.943  25.131  1.00  0.00    -0.206 F 
ATOM     73  C   UNL A   1      39.285  29.142  27.708  1.00  0.00     0.022 A 
BRANCH  70  74
ATOM     74  S   UNL A   1      39.341  29.034  30.493  1.00  0.00     0.124 S 
ATOM     75  O   UNL A   1      39.474  27.600  30.741  1.00  0.00    -0.237 OA
ATOM     76  O   UNL A   1      40.182  29.904  31.308  1.00  0.00    -0.237 OA
ATOM     77  O   UNL A   1      37.971  29.499  30.292  1.00  0.00    -0.744 OA
ENDBRANCH  70  74
ENDBRANCH  53  67
BRANCH  54  78
ATOM     78  C   UNL A   1      52.023  28.481  26.106  1.00  0.00     0.023 A 
ATOM     79  C   UNL A   1      52.540  28.561  24.802  1.00  0.00     0.031 A 
ATOM     80  C   UNL A   1      52.930  28.256  27.158  1.00  0.00     0.131 A 
ATOM     81  C   UNL A   1      53.911  28.360  24.578  1.00  0.00     0.055 A 
ATOM     82  C   UNL A   1      54.302  28.123  26.937  1.00  0.00     0.041 A 
ATOM     83  F   UNL A   1      52.493  28.162  28.424  1.00  0.00    -0.206 F 
ATOM     84  C   UNL A   1      54.798  28.157  25.638  1.00  0.00     0.022 A 
BRANCH  81  85
ATOM     85  S   UNL A   1      54.505  28.254  22.867  1.00  0.00     0.124 S 
ATOM     86  O   UNL A   1      55.710  29.073  22.921  1.00  0.00    -0.237 OA
ATOM     87  O   UNL A   1      54.711  26.819  22.706  1.00  0.00    -0.237 OA
ATOM     88  O   UNL A   1      53.402  28.815  22.089  1.00  0.00    -0.744 OA
ENDBRANCH  81  85
ENDBRANCH  54  78
BRANCH  66  89
ATOM     89  C   UNL A   1      47.731  33.717  27.823  1.00  0.00     0.023 A 
ATOM     90  C   UNL A   1      47.862  34.703  26.830  1.00  0.00     0.031 A 
ATOM     91  C   UNL A   1      47.851  34.116  29.168  1.00  0.00     0.131 A 
ATOM     92  C   UNL A   1      48.170  36.024  27.193  1.00  0.00     0.055 A 
ATOM     93  C   UNL A   1      48.084  35.444  29.525  1.00  0.00     0.041 A 
ATOM     94  F   UNL A   1      47.738  33.218  30.160  1.00  0.00    -0.206 F 
ATOM     95  C   UNL A   1      48.262  36.404  28.535  1.00  0.00     0.022 A 
BRANCH  92  96
ATOM     96  S   UNL A   1      48.565  37.217  25.884  1.00  0.00     0.124 S 
ATOM     97  O   UNL A   1      49.142  36.358  24.855  1.00  0.00    -0.237 OA
ATOM     98  O   UNL A   1      47.258  37.788  25.579  1.00  0.00    -0.237 OA
ATOM     99  O   UNL A   1      49.505  38.132  26.527  1.00  0.00    -0.744 OA
ENDBRANCH  92  96
ENDBRANCH  66  89
ENDBRANCH  40  41
ENDBRANCH  33  35
ENDBRANCH  32  33
ENDBRANCH  31  32
ENDBRANCH  30  31
ENDBRANCH  29  30
ENDBRANCH  28  29
ENDBRANCH   1  28
TORSDOF 25
ENDMDL
MODEL 3
REMARK VINA RESULT:      -7.9      4.799      8.262
REMARK SMILES CC1(C)C(NC(=O)[C@@H]2CCC[C@@H](C(=O)OCCOCCOCCOCCOC(=O)c3ccc(-c4c5nc(c(-c6cc(S(=O)(=O)[O-])ccc6F)c6ccc([nH]6)c(-c6cc(S(=O)(=O)[O-])ccc6F)c6nc(c(-c7cc(S(=O)(=O)[O-])ccc7F)c7ccc4[nH]7)C=C6)C=C5)cc3)C2)C1(C)C
REMARK SMILES IDX 22 1 21 2 20 3 19 4 18 5 17 6 16 7 15 8 13 9 14 10 12 11
REMARK SMILES IDX 8 12 9 13 93 14 10 15 11 16 6 17 5 18 7 20 4 21 1 22 2 23
REMARK SMILES IDX 3 24 94 25 95 26 96 27 23 28 24 29 25 30 26 31 27 32 28 33
REMARK SMILES IDX 29 34 30 35 31 36 92 37 32 38 91 39 33 40 34 41 35 42 85 43
REMARK SMILES IDX 36 44 90 45 84 46 86 47 37 48 89 49 83 50 82 51 38 53 70 54
REMARK SMILES IDX 50 55 69 56 51 57 54 58 68 59 87 60 52 61 53 62 67 64 88 65
REMARK SMILES IDX 55 66 39 67 40 68 48 69 41 70 47 71 49 72 46 73 42 74 43 75
REMARK SMILES IDX 44 76 45 77 71 78 72 79 80 80 73 81 79 82 81 83 78 84 74 85
REMARK SMILES IDX 75 86 76 87 77 88 56 89 57 90 65 91 58 92 64 93 66 94 63 95
REMARK SMILES IDX 59 96 60 97 61 98 62 99
REMARK H PARENT 5 19 86 52 54 63
REMARK Flexibility Score: inf
ROOT
ATOM      1  C   UNL A   1      42.537  21.958  25.897  1.00  0.00     0.188 C 
ENDROOT
BRANCH   1   2
ATOM      2  O   UNL A   1      42.770  20.607  25.514  1.00  0.00    -0.377 OA
BRANCH   2   3
ATOM      3  C   UNL A   1      41.965  19.582  26.061  1.00  0.00     0.188 C 
BRANCH   3   4
ATOM      4  C   UNL A   1      40.619  19.999  26.692  1.00  0.00     0.188 C 
BRANCH   4   5
ATOM      5  O   UNL A   1      39.566  20.174  25.758  1.00  0.00    -0.376 OA
BRANCH   5   6
ATOM      6  C   UNL A   1      38.891  21.420  25.698  1.00  0.00     0.202 C 
BRANCH   6   7
ATOM      7  C   UNL A   1      37.462  21.463  25.127  1.00  0.00     0.261 C 
BRANCH   7   8
ATOM      8  O   UNL A   1      36.691  22.621  25.473  1.00  0.00    -0.463 OA
BRANCH   8   9
ATOM      9  C   UNL A   1      35.373  22.544  25.195  1.00  0.00     0.309 C 
ATOM     10  O   UNL A   1      34.863  21.659  24.522  1.00  0.00    -0.252 OA
BRANCH   9  11
ATOM     11  C   UNL A   1      34.611  23.677  25.878  1.00  0.00     0.100 C 
ATOM     12  C   UNL A   1      33.643  24.435  23.671  1.00  0.00     0.079 C 
ATOM     13  C   UNL A   1      32.424  23.509  23.913  1.00  0.00     0.013 C 
ATOM     14  C   UNL A   1      34.478  24.823  24.902  1.00  0.00     0.028 C 
ATOM     15  C   UNL A   1      32.329  22.761  25.252  1.00  0.00     0.002 C 
ATOM     16  C   UNL A   1      33.211  23.299  26.366  1.00  0.00     0.015 C 
BRANCH  12  17
ATOM     17  C   UNL A   1      33.366  25.725  22.903  1.00  0.00     0.223 C 
ATOM     18  N   UNL A   1      32.833  26.805  23.554  1.00  0.00    -0.352 N 
ATOM     19  H   UNL A   1      32.917  27.677  23.104  1.00  0.00     0.163 HD
ATOM     20  O   UNL A   1      33.709  25.848  21.726  1.00  0.00    -0.275 OA
BRANCH  18  21
ATOM     21  C   UNL A   1      32.169  26.800  24.813  1.00  0.00     0.094 C 
ATOM     22  C   UNL A   1      31.670  27.952  27.025  1.00  0.00     0.014 C 
ATOM     23  C   UNL A   1      31.515  27.959  25.512  1.00  0.00    -0.007 C 
ATOM     24  C   UNL A   1      31.624  29.350  24.944  1.00  0.00     0.014 C 
ATOM     25  C   UNL A   1      30.652  26.877  24.827  1.00  0.00    -0.007 C 
ATOM     26  C   UNL A   1      29.921  25.834  25.642  1.00  0.00     0.014 C 
ATOM     27  C   UNL A   1      29.942  27.153  23.515  1.00  0.00     0.014 C 
ENDBRANCH  18  21
ENDBRANCH  12  17
ENDBRANCH   9  11
ENDBRANCH   8   9
ENDBRANCH   7   8
ENDBRANCH   6   7
ENDBRANCH   5   6
ENDBRANCH   4   5
ENDBRANCH   3   4
ENDBRANCH   2   3
ENDBRANCH   1   2
BRANCH   1  28
ATOM     28  C   UNL A   1      43.042  22.537  27.243  1.00  0.00     0.188 C 
BRANCH  28  29
ATOM     29  O   UNL A   1      42.197  23.509  27.838  1.00  0.00    -0.376 OA
BRANCH  29  30
ATOM     30  C   UNL A   1      40.918  23.715  27.268  1.00  0.00     0.202 C 
BRANCH  30  31
ATOM     31  C   UNL A   1      40.570  25.152  26.857  1.00  0.00     0.261 C 
BRANCH  31  32
ATOM     32  O   UNL A   1      41.021  25.569  25.561  1.00  0.00    -0.460 OA
BRANCH  32  33
ATOM     33  C   UNL A   1      42.354  25.711  25.388  1.00  0.00     0.338 C 
ATOM     34  O   UNL A   1      43.070  25.045  24.659  1.00  0.00    -0.246 OA
BRANCH  33  35
ATOM     35  C   UNL A   1      42.763  26.956  26.074  1.00  0.00     0.060 A 
ATOM     36  C   UNL A   1      43.667  26.882  27.145  1.00  0.00     0.016 A 
ATOM     37  C   UNL A   1      42.282  28.191  25.638  1.00  0.00     0.016 A 
ATOM     38  C   UNL A   1      44.062  28.045  27.805  1.00  0.00     0.010 A 
ATOM     39  C   UNL A   1      42.655  29.352  26.320  1.00  0.00     0.010 A 
ATOM     40  C   UNL A   1      43.516  29.278  27.429  1.00  0.00    -0.014 A 
BRANCH  40  41
ATOM     41  C   UNL A   1      43.649  30.441  28.341  1.00  0.00     0.031 A 
ATOM     42  C   UNL A   1      42.485  30.757  29.244  1.00  0.00     0.074 A 
ATOM     43  C   UNL A   1      44.774  31.176  28.395  1.00  0.00     0.049 A 
ATOM     44  N   UNL A   1      42.328  31.744  30.086  1.00  0.00    -0.248 NA
ATOM     45  C   UNL A   1      41.344  29.831  29.180  1.00  0.00     0.031 C 
ATOM     46  C   UNL A   1      45.983  30.928  27.613  1.00  0.00     0.029 A 
ATOM     47  N   UNL A   1      45.077  32.286  29.143  1.00  0.00    -0.354 N 
ATOM     48  C   UNL A   1      41.067  31.563  30.645  1.00  0.00     0.074 A 
ATOM     49  C   UNL A   1      40.489  30.394  30.019  1.00  0.00     0.031 C 
ATOM     50  C   UNL A   1      46.895  31.869  27.915  1.00  0.00     0.029 A 
ATOM     51  C   UNL A   1      46.320  32.809  28.877  1.00  0.00     0.049 A 
ATOM     52  H   UNL A   1      44.461  32.672  29.807  1.00  0.00     0.167 HD
ATOM     53  C   UNL A   1      40.451  32.300  31.601  1.00  0.00     0.034 A 
ATOM     54  C   UNL A   1      46.911  33.933  29.337  1.00  0.00     0.034 A 
ATOM     55  C   UNL A   1      41.038  33.470  32.205  1.00  0.00     0.049 A 
ATOM     56  C   UNL A   1      46.165  34.796  30.331  1.00  0.00     0.074 A 
ATOM     57  C   UNL A   1      40.507  34.289  33.186  1.00  0.00     0.029 A 
ATOM     58  N   UNL A   1      42.279  33.999  31.874  1.00  0.00    -0.354 N 
ATOM     59  N   UNL A   1      44.973  34.614  30.857  1.00  0.00    -0.248 NA
ATOM     60  C   UNL A   1      46.846  36.009  30.799  1.00  0.00     0.031 C 
ATOM     61  C   UNL A   1      41.387  35.357  33.387  1.00  0.00     0.029 A 
ATOM     62  C   UNL A   1      42.514  35.154  32.606  1.00  0.00     0.049 A 
ATOM     63  H   UNL A   1      42.901  33.612  31.218  1.00  0.00     0.167 HD
ATOM     64  C   UNL A   1      44.785  35.670  31.748  1.00  0.00     0.074 A 
ATOM     65  C   UNL A   1      45.989  36.473  31.696  1.00  0.00     0.031 C 
ATOM     66  C   UNL A   1      43.719  35.949  32.542  1.00  0.00     0.034 A 
BRANCH  53  67
ATOM     67  C   UNL A   1      39.053  31.895  31.999  1.00  0.00     0.023 A 
ATOM     68  C   UNL A   1      37.918  32.359  31.311  1.00  0.00     0.031 A 
ATOM     69  C   UNL A   1      38.852  31.048  33.103  1.00  0.00     0.131 A 
ATOM     70  C   UNL A   1      36.635  32.026  31.774  1.00  0.00     0.055 A 
ATOM     71  C   UNL A   1      37.576  30.653  33.507  1.00  0.00     0.041 A 
ATOM     72  F   UNL A   1      39.896  30.597  33.818  1.00  0.00    -0.206 F 
ATOM     73  C   UNL A   1      36.457  31.154  32.850  1.00  0.00     0.022 A 
BRANCH  70  74
ATOM     74  S   UNL A   1      35.203  32.866  31.042  1.00  0.00     0.124 S 
ATOM     75  O   UNL A   1      34.168  32.610  32.041  1.00  0.00    -0.237 OA
ATOM     76  O   UNL A   1      35.665  34.245  30.939  1.00  0.00    -0.237 OA
ATOM     77  O   UNL A   1      35.014  32.174  29.769  1.00  0.00    -0.744 OA
ENDBRANCH  70  74
ENDBRANCH  53  67
BRANCH  54  78
ATOM     78  C   UNL A   1      48.256  34.346  28.838  1.00  0.00     0.023 A 
ATOM     79  C   UNL A   1      48.404  35.024  27.616  1.00  0.00     0.031 A 
ATOM     80  C   UNL A   1      49.424  33.997  29.540  1.00  0.00     0.131 A 
ATOM     81  C   UNL A   1      49.689  35.281  27.108  1.00  0.00     0.055 A 
ATOM     82  C   UNL A   1      50.697  34.313  29.063  1.00  0.00     0.041 A 
ATOM     83  F   UNL A   1      49.344  33.341  30.708  1.00  0.00    -0.206 F 
ATOM     84  C   UNL A   1      50.835  34.944  27.831  1.00  0.00     0.022 A 
BRANCH  81  85
ATOM     85  S   UNL A   1      49.839  35.961  25.433  1.00  0.00     0.124 S 
ATOM     86  O   UNL A   1      51.233  35.669  25.119  1.00  0.00    -0.237 OA
ATOM     87  O   UNL A   1      48.841  35.189  24.701  1.00  0.00    -0.237 OA
ATOM     88  O   UNL A   1      49.522  37.377  25.612  1.00  0.00    -0.744 OA
ENDBRANCH  81  85
ENDBRANCH  54  78
BRANCH  66  89
ATOM     89  C   UNL A   1      43.834  37.140  33.466  1.00  0.00     0.023 A 
ATOM     90  C   UNL A   1      43.405  38.423  33.088  1.00  0.00     0.031 A 
ATOM     91  C   UNL A   1      44.395  36.984  34.748  1.00  0.00     0.131 A 
ATOM     92  C   UNL A   1      43.602  39.511  33.954  1.00  0.00     0.055 A 
ATOM     93  C   UNL A   1      44.520  38.055  35.634  1.00  0.00     0.041 A 
ATOM     94  F   UNL A   1      44.826  35.782  35.165  1.00  0.00    -0.206 F 
ATOM     95  C   UNL A   1      44.139  39.331  35.232  1.00  0.00     0.022 A 
BRANCH  92  96
ATOM     96  S   UNL A   1      43.255  41.184  33.345  1.00  0.00     0.124 S 
ATOM     97  O   UNL A   1      41.890  41.402  33.817  1.00  0.00    -0.237 OA
ATOM     98  O   UNL A   1      44.290  41.975  34.001  1.00  0.00    -0.237 OA
ATOM     99  O   UNL A   1      43.396  41.058  31.896  1.00  0.00    -0.744 OA
ENDBRANCH  92  96
ENDBRANCH  66  89
ENDBRANCH  40  41
ENDBRANCH  33  35
ENDBRANCH  32  33
ENDBRANCH  31  32
ENDBRANCH  30  31
ENDBRANCH  29  30
ENDBRANCH  28  29
ENDBRANCH   1  28
TORSDOF 25
ENDMDL
