MODEL 1
REMARK VINA RESULT:     -10.4      0.000      0.000
REMARK SMILES CCOC(=O)c1c(NC(=O)[C@@H]2[C@@H](C(=O)OCCOCCOCCOCCOC(=O)c3ccc(-c4c5nc(c(-c6cc(S(=O)(=O)[O-])ccc6F)c6ccc([nH]6)c(-c6cc(S(=O)(=O)[O-])ccc6F)c6nc(c(-c7cc(S(=O)(=O)[O-])ccc7F)c7ccc4[nH]7)C=C6)C=C5)cc3)[C@@H]3C=C[C@H]2CC3)sc2c1CCC2
REMARK SMILES IDX 20 1 19 2 18 3 17 4 16 5 15 6 13 7 14 8 12 9 11 10 96 11
REMARK SMILES IDX 93 12 95 13 97 14 94 15 98 16 9 17 8 18 10 20 7 21 6 22
REMARK SMILES IDX 101 23 99 24 100 25 102 26 104 27 103 28 4 29 5 30 3 31 2 32
REMARK SMILES IDX 1 33 21 34 22 35 23 36 24 37 25 38 26 39 27 40 28 41 29 42
REMARK SMILES IDX 30 43 31 44 92 45 32 46 91 47 33 48 34 49 35 50 85 51 36 52
REMARK SMILES IDX 90 53 84 54 86 55 37 56 89 57 83 58 82 59 38 61 70 62 50 63
REMARK SMILES IDX 69 64 51 65 54 66 68 67 87 68 52 69 53 70 67 72 88 73 55 74
REMARK SMILES IDX 39 75 40 76 48 77 41 78 47 79 49 80 46 81 42 82 43 83 44 84
REMARK SMILES IDX 45 85 71 86 72 87 80 88 73 89 79 90 81 91 78 92 74 93 75 94
REMARK SMILES IDX 76 95 77 96 56 97 57 98 65 99 58 100 64 101 66 102 63 103
REMARK SMILES IDX 59 104 60 105 61 106 62 107
REMARK H PARENT 8 19 86 60 54 71
REMARK Flexibility Score: inf
ROOT
ATOM      1  C   UNL A   1      34.163  28.519  24.156  1.00  0.00     0.188 C 
ENDROOT
BRANCH   1   2
ATOM      2  C   UNL A   1      34.245  29.053  22.703  1.00  0.00     0.188 C 
BRANCH   2   3
ATOM      3  O   UNL A   1      34.075  28.141  21.633  1.00  0.00    -0.376 OA
BRANCH   3   4
ATOM      4  C   UNL A   1      33.809  26.778  21.920  1.00  0.00     0.202 C 
BRANCH   4   5
ATOM      5  C   UNL A   1      32.571  26.054  21.349  1.00  0.00     0.261 C 
BRANCH   5   6
ATOM      6  O   UNL A   1      32.409  24.659  21.666  1.00  0.00    -0.463 OA
BRANCH   6   7
ATOM      7  C   UNL A   1      31.861  24.338  22.864  1.00  0.00     0.310 C 
ATOM      8  O   UNL A   1      31.521  23.204  23.178  1.00  0.00    -0.252 OA
BRANCH   7   9
ATOM      9  C   UNL A   1      31.644  25.584  23.734  1.00  0.00     0.119 C 
ATOM     10  C   UNL A   1      31.588  25.429  25.278  1.00  0.00     0.100 C 
ATOM     11  C   UNL A   1      30.364  26.262  25.803  1.00  0.00     0.025 C 
ATOM     12  C   UNL A   1      30.461  26.433  23.216  1.00  0.00     0.026 C 
ATOM     13  C   UNL A   1      30.528  27.673  25.284  1.00  0.00    -0.027 C 
ATOM     14  C   UNL A   1      29.062  25.695  25.162  1.00  0.00     0.009 C 
ATOM     15  C   UNL A   1      30.577  27.766  23.945  1.00  0.00    -0.027 C 
ATOM     16  C   UNL A   1      29.141  25.771  23.624  1.00  0.00     0.009 C 
BRANCH  10  17
ATOM     17  C   UNL A   1      32.821  25.649  26.200  1.00  0.00     0.229 C 
ATOM     18  N   UNL A   1      33.984  24.943  26.295  1.00  0.00    -0.317 N 
ATOM     19  H   UNL A   1      34.604  25.261  26.991  1.00  0.00     0.170 HD
ATOM     20  O   UNL A   1      32.785  26.669  26.916  1.00  0.00    -0.274 OA
BRANCH  18  21
ATOM     21  C   UNL A   1      34.430  23.862  25.581  1.00  0.00     0.110 A 
ATOM     22  C   UNL A   1      34.143  22.500  25.696  1.00  0.00     0.098 A 
ATOM     23  C   UNL A   1      35.260  21.825  25.125  1.00  0.00    -0.017 A 
ATOM     24  S   UNL A   1      35.104  24.070  24.001  1.00  0.00    -0.122 S 
ATOM     25  C   UNL A   1      35.983  22.675  24.329  1.00  0.00     0.011 A 
ATOM     26  C   UNL A   1      35.878  20.478  25.096  1.00  0.00     0.038 C 
ATOM     27  C   UNL A   1      37.288  22.174  23.866  1.00  0.00     0.047 C 
ATOM     28  C   UNL A   1      37.330  20.786  24.581  1.00  0.00     0.010 C 
BRANCH  22  29
ATOM     29  C   UNL A   1      32.945  22.020  26.372  1.00  0.00     0.341 C 
ATOM     30  O   UNL A   1      32.695  22.317  27.507  1.00  0.00    -0.246 OA
BRANCH  29  31
ATOM     31  O   UNL A   1      32.108  21.326  25.535  1.00  0.00    -0.462 OA
BRANCH  31  32
ATOM     32  C   UNL A   1      32.472  19.954  25.304  1.00  0.00     0.230 C 
ATOM     33  C   UNL A   1      32.445  19.511  23.848  1.00  0.00     0.049 C 
ENDBRANCH  31  32
ENDBRANCH  29  31
ENDBRANCH  22  29
ENDBRANCH  18  21
ENDBRANCH  10  17
ENDBRANCH   7   9
ENDBRANCH   6   7
ENDBRANCH   5   6
ENDBRANCH   4   5
ENDBRANCH   3   4
ENDBRANCH   2   3
ENDBRANCH   1   2
BRANCH   1  34
ATOM     34  O   UNL A   1      33.337  29.316  24.990  1.00  0.00    -0.377 OA
BRANCH  34  35
ATOM     35  C   UNL A   1      33.862  29.640  26.272  1.00  0.00     0.188 C 
BRANCH  35  36
ATOM     36  C   UNL A   1      32.985  30.434  27.274  1.00  0.00     0.188 C 
BRANCH  36  37
ATOM     37  O   UNL A   1      33.570  31.631  27.758  1.00  0.00    -0.376 OA
BRANCH  37  38
ATOM     38  C   UNL A   1      34.966  31.822  27.883  1.00  0.00     0.202 C 
BRANCH  38  39
ATOM     39  C   UNL A   1      35.537  31.457  29.250  1.00  0.00     0.261 C 
BRANCH  39  40
ATOM     40  O   UNL A   1      36.831  30.895  29.163  1.00  0.00    -0.460 OA
BRANCH  40  41
ATOM     41  C   UNL A   1      36.995  29.815  29.949  1.00  0.00     0.338 C 
ATOM     42  O   UNL A   1      36.652  29.687  31.110  1.00  0.00    -0.246 OA
BRANCH  41  43
ATOM     43  C   UNL A   1      37.785  28.836  29.211  1.00  0.00     0.060 A 
ATOM     44  C   UNL A   1      38.401  27.869  30.001  1.00  0.00     0.016 A 
ATOM     45  C   UNL A   1      38.234  29.189  27.930  1.00  0.00     0.016 A 
ATOM     46  C   UNL A   1      39.672  27.504  29.649  1.00  0.00     0.010 A 
ATOM     47  C   UNL A   1      39.512  28.846  27.597  1.00  0.00     0.010 A 
ATOM     48  C   UNL A   1      40.242  28.100  28.517  1.00  0.00    -0.014 A 
BRANCH  48  49
ATOM     49  C   UNL A   1      41.622  27.810  28.235  1.00  0.00     0.031 A 
ATOM     50  C   UNL A   1      41.748  26.488  27.607  1.00  0.00     0.074 A 
ATOM     51  C   UNL A   1      42.618  28.679  28.475  1.00  0.00     0.049 A 
ATOM     52  N   UNL A   1      42.094  25.390  28.189  1.00  0.00    -0.248 NA
ATOM     53  C   UNL A   1      41.142  26.302  26.279  1.00  0.00     0.031 C 
ATOM     54  C   UNL A   1      42.521  30.079  28.896  1.00  0.00     0.029 A 
ATOM     55  N   UNL A   1      43.953  28.497  28.310  1.00  0.00    -0.354 N 
ATOM     56  C   UNL A   1      42.027  24.429  27.195  1.00  0.00     0.074 A 
ATOM     57  C   UNL A   1      41.178  24.974  26.175  1.00  0.00     0.031 C 
ATOM     58  C   UNL A   1      43.729  30.674  28.754  1.00  0.00     0.029 A 
ATOM     59  C   UNL A   1      44.706  29.666  28.372  1.00  0.00     0.049 A 
ATOM     60  H   UNL A   1      44.356  27.611  28.159  1.00  0.00     0.167 HD
ATOM     61  C   UNL A   1      42.960  23.442  27.145  1.00  0.00     0.034 A 
ATOM     62  C   UNL A   1      46.032  29.783  28.097  1.00  0.00     0.034 A 
ATOM     63  C   UNL A   1      43.651  23.339  28.415  1.00  0.00     0.049 A 
ATOM     64  C   UNL A   1      46.622  28.436  28.279  1.00  0.00     0.074 A 
ATOM     65  C   UNL A   1      43.298  22.977  29.699  1.00  0.00     0.029 A 
ATOM     66  N   UNL A   1      44.822  24.055  28.513  1.00  0.00    -0.354 N 
ATOM     67  N   UNL A   1      46.681  27.844  29.440  1.00  0.00    -0.248 NA
ATOM     68  C   UNL A   1      46.752  27.548  27.132  1.00  0.00     0.031 C 
ATOM     69  C   UNL A   1      44.108  23.775  30.562  1.00  0.00     0.029 A 
ATOM     70  C   UNL A   1      44.965  24.557  29.783  1.00  0.00     0.049 A 
ATOM     71  H   UNL A   1      45.465  24.189  27.779  1.00  0.00     0.167 HD
ATOM     72  C   UNL A   1      46.405  26.513  29.176  1.00  0.00     0.074 A 
ATOM     73  C   UNL A   1      46.630  26.364  27.741  1.00  0.00     0.031 C 
ATOM     74  C   UNL A   1      45.740  25.749  30.091  1.00  0.00     0.034 A 
BRANCH  61  75
ATOM     75  C   UNL A   1      43.572  22.931  25.854  1.00  0.00     0.023 A 
ATOM     76  C   UNL A   1      43.598  21.535  25.682  1.00  0.00     0.031 A 
ATOM     77  C   UNL A   1      44.369  23.672  24.947  1.00  0.00     0.131 A 
ATOM     78  C   UNL A   1      44.450  20.939  24.737  1.00  0.00     0.055 A 
ATOM     79  C   UNL A   1      45.173  23.076  23.973  1.00  0.00     0.041 A 
ATOM     80  F   UNL A   1      44.497  25.002  24.989  1.00  0.00    -0.206 F 
ATOM     81  C   UNL A   1      45.242  21.701  23.883  1.00  0.00     0.022 A 
BRANCH  78  82
ATOM     82  S   UNL A   1      44.627  19.140  24.752  1.00  0.00     0.124 S 
ATOM     83  O   UNL A   1      44.993  18.867  23.367  1.00  0.00    -0.237 OA
ATOM     84  O   UNL A   1      45.678  18.953  25.748  1.00  0.00    -0.237 OA
ATOM     85  O   UNL A   1      43.301  18.675  25.150  1.00  0.00    -0.744 OA
ENDBRANCH  78  82
ENDBRANCH  61  75
BRANCH  62  86
ATOM     86  C   UNL A   1      46.738  30.896  27.411  1.00  0.00     0.023 A 
ATOM     87  C   UNL A   1      46.064  32.000  26.843  1.00  0.00     0.031 A 
ATOM     88  C   UNL A   1      48.138  31.008  27.553  1.00  0.00     0.131 A 
ATOM     89  C   UNL A   1      46.788  33.154  26.460  1.00  0.00     0.055 A 
ATOM     90  C   UNL A   1      48.846  32.152  27.177  1.00  0.00     0.041 A 
ATOM     91  F   UNL A   1      48.853  30.041  28.151  1.00  0.00    -0.206 F 
ATOM     92  C   UNL A   1      48.171  33.235  26.638  1.00  0.00     0.022 A 
BRANCH  89  93
ATOM     93  S   UNL A   1      45.921  34.615  25.795  1.00  0.00     0.124 S 
ATOM     94  O   UNL A   1      47.015  35.546  25.553  1.00  0.00    -0.237 OA
ATOM     95  O   UNL A   1      45.255  34.074  24.616  1.00  0.00    -0.237 OA
ATOM     96  O   UNL A   1      45.018  35.000  26.882  1.00  0.00    -0.744 OA
ENDBRANCH  89  93
ENDBRANCH  62  86
BRANCH  74  97
ATOM     97  C   UNL A   1      45.698  26.269  31.516  1.00  0.00     0.023 A 
ATOM     98  C   UNL A   1      44.602  26.938  32.108  1.00  0.00     0.031 A 
ATOM     99  C   UNL A   1      46.820  26.011  32.321  1.00  0.00     0.131 A 
ATOM    100  C   UNL A   1      44.668  27.336  33.459  1.00  0.00     0.055 A 
ATOM    101  C   UNL A   1      46.872  26.385  33.662  1.00  0.00     0.041 A 
ATOM    102  F   UNL A   1      47.883  25.362  31.819  1.00  0.00    -0.206 F 
ATOM    103  C   UNL A   1      45.797  27.055  34.236  1.00  0.00     0.022 A 
BRANCH 100 104
ATOM    104  S   UNL A   1      43.287  28.243  34.232  1.00  0.00     0.124 S 
ATOM    105  O   UNL A   1      42.750  29.044  33.139  1.00  0.00    -0.237 OA
ATOM    106  O   UNL A   1      42.430  27.163  34.716  1.00  0.00    -0.237 OA
ATOM    107  O   UNL A   1      43.938  29.017  35.292  1.00  0.00    -0.744 OA
ENDBRANCH 100 104
ENDBRANCH  74  97
ENDBRANCH  48  49
ENDBRANCH  41  43
ENDBRANCH  40  41
ENDBRANCH  39  40
ENDBRANCH  38  39
ENDBRANCH  37  38
ENDBRANCH  36  37
ENDBRANCH  35  36
ENDBRANCH  34  35
ENDBRANCH   1  34
TORSDOF 28
ENDMDL
MODEL 2
REMARK VINA RESULT:     -10.0      2.303      2.901
REMARK SMILES CCOC(=O)c1c(NC(=O)[C@@H]2[C@@H](C(=O)OCCOCCOCCOCCOC(=O)c3ccc(-c4c5nc(c(-c6cc(S(=O)(=O)[O-])ccc6F)c6ccc([nH]6)c(-c6cc(S(=O)(=O)[O-])ccc6F)c6nc(c(-c7cc(S(=O)(=O)[O-])ccc7F)c7ccc4[nH]7)C=C6)C=C5)cc3)[C@@H]3C=C[C@H]2CC3)sc2c1CCC2
REMARK SMILES IDX 20 1 19 2 18 3 17 4 16 5 15 6 13 7 14 8 12 9 11 10 96 11
REMARK SMILES IDX 93 12 95 13 97 14 94 15 98 16 9 17 8 18 10 20 7 21 6 22
REMARK SMILES IDX 101 23 99 24 100 25 102 26 104 27 103 28 4 29 5 30 3 31 2 32
REMARK SMILES IDX 1 33 21 34 22 35 23 36 24 37 25 38 26 39 27 40 28 41 29 42
REMARK SMILES IDX 30 43 31 44 92 45 32 46 91 47 33 48 34 49 35 50 85 51 36 52
REMARK SMILES IDX 90 53 84 54 86 55 37 56 89 57 83 58 82 59 38 61 70 62 50 63
REMARK SMILES IDX 69 64 51 65 54 66 68 67 87 68 52 69 53 70 67 72 88 73 55 74
REMARK SMILES IDX 39 75 40 76 48 77 41 78 47 79 49 80 46 81 42 82 43 83 44 84
REMARK SMILES IDX 45 85 71 86 72 87 80 88 73 89 79 90 81 91 78 92 74 93 75 94
REMARK SMILES IDX 76 95 77 96 56 97 57 98 65 99 58 100 64 101 66 102 63 103
REMARK SMILES IDX 59 104 60 105 61 106 62 107
REMARK H PARENT 8 19 86 60 54 71
REMARK Flexibility Score: inf
ROOT
ATOM      1  C   UNL A   1      33.644  28.519  24.124  1.00  0.00     0.188 C 
ENDROOT
BRANCH   1   2
ATOM      2  C   UNL A   1      34.071  28.845  22.669  1.00  0.00     0.188 C 
BRANCH   2   3
ATOM      3  O   UNL A   1      33.868  27.865  21.667  1.00  0.00    -0.376 OA
BRANCH   3   4
ATOM      4  C   UNL A   1      33.702  26.509  22.046  1.00  0.00     0.202 C 
BRANCH   4   5
ATOM      5  C   UNL A   1      32.581  25.630  21.452  1.00  0.00     0.261 C 
BRANCH   5   6
ATOM      6  O   UNL A   1      32.353  24.343  22.053  1.00  0.00    -0.463 OA
BRANCH   6   7
ATOM      7  C   UNL A   1      31.423  24.254  23.036  1.00  0.00     0.310 C 
ATOM      8  O   UNL A   1      30.367  23.645  22.925  1.00  0.00    -0.252 OA
BRANCH   7   9
ATOM      9  C   UNL A   1      31.825  25.085  24.264  1.00  0.00     0.119 C 
ATOM     10  C   UNL A   1      32.636  24.408  25.402  1.00  0.00     0.100 C 
ATOM     11  C   UNL A   1      31.983  24.821  26.771  1.00  0.00     0.025 C 
ATOM     12  C   UNL A   1      30.622  25.873  24.828  1.00  0.00     0.026 C 
ATOM     13  C   UNL A   1      31.931  26.333  26.802  1.00  0.00    -0.027 C 
ATOM     14  C   UNL A   1      30.509  24.318  26.794  1.00  0.00     0.009 C 
ATOM     15  C   UNL A   1      31.225  26.881  25.799  1.00  0.00    -0.027 C 
ATOM     16  C   UNL A   1      29.716  24.923  25.619  1.00  0.00     0.009 C 
BRANCH  10  17
ATOM     17  C   UNL A   1      34.185  24.483  25.503  1.00  0.00     0.229 C 
ATOM     18  N   UNL A   1      35.106  23.487  25.653  1.00  0.00    -0.317 N 
ATOM     19  H   UNL A   1      36.038  23.795  25.731  1.00  0.00     0.170 HD
ATOM     20  O   UNL A   1      34.683  25.616  25.351  1.00  0.00    -0.274 OA
BRANCH  18  21
ATOM     21  C   UNL A   1      34.944  22.128  25.715  1.00  0.00     0.110 A 
ATOM     22  C   UNL A   1      35.794  21.082  25.349  1.00  0.00     0.098 A 
ATOM     23  C   UNL A   1      34.942  19.968  25.096  1.00  0.00    -0.017 A 
ATOM     24  S   UNL A   1      33.765  21.430  26.772  1.00  0.00    -0.122 S 
ATOM     25  C   UNL A   1      33.712  20.161  25.670  1.00  0.00     0.011 A 
ATOM     26  C   UNL A   1      34.972  18.646  24.428  1.00  0.00     0.038 C 
ATOM     27  C   UNL A   1      32.664  19.199  25.291  1.00  0.00     0.047 C 
ATOM     28  C   UNL A   1      33.443  18.318  24.264  1.00  0.00     0.010 C 
BRANCH  22  29
ATOM     29  C   UNL A   1      37.232  21.271  25.208  1.00  0.00     0.341 C 
ATOM     30  O   UNL A   1      37.797  22.216  25.684  1.00  0.00    -0.246 OA
BRANCH  29  31
ATOM     31  O   UNL A   1      37.849  20.205  24.604  1.00  0.00    -0.462 OA
BRANCH  31  32
ATOM     32  C   UNL A   1      38.518  19.297  25.497  1.00  0.00     0.230 C 
ATOM     33  C   UNL A   1      39.974  19.628  25.790  1.00  0.00     0.049 C 
ENDBRANCH  31  32
ENDBRANCH  29  31
ENDBRANCH  22  29
ENDBRANCH  18  21
ENDBRANCH  10  17
ENDBRANCH   7   9
ENDBRANCH   6   7
ENDBRANCH   5   6
ENDBRANCH   4   5
ENDBRANCH   3   4
ENDBRANCH   2   3
ENDBRANCH   1   2
BRANCH   1  34
ATOM     34  O   UNL A   1      33.385  29.683  24.894  1.00  0.00    -0.377 OA
BRANCH  34  35
ATOM     35  C   UNL A   1      33.729  29.614  26.274  1.00  0.00     0.188 C 
BRANCH  35  36
ATOM     36  C   UNL A   1      32.910  30.434  27.302  1.00  0.00     0.188 C 
BRANCH  36  37
ATOM     37  O   UNL A   1      33.556  31.601  27.783  1.00  0.00    -0.376 OA
BRANCH  37  38
ATOM     38  C   UNL A   1      34.959  31.780  27.763  1.00  0.00     0.202 C 
BRANCH  38  39
ATOM     39  C   UNL A   1      35.675  31.321  29.031  1.00  0.00     0.261 C 
BRANCH  39  40
ATOM     40  O   UNL A   1      36.858  30.598  28.753  1.00  0.00    -0.460 OA
BRANCH  40  41
ATOM     41  C   UNL A   1      37.018  29.517  29.537  1.00  0.00     0.338 C 
ATOM     42  O   UNL A   1      36.482  29.295  30.608  1.00  0.00    -0.246 OA
BRANCH  41  43
ATOM     43  C   UNL A   1      38.060  28.683  28.950  1.00  0.00     0.060 A 
ATOM     44  C   UNL A   1      38.518  27.657  29.772  1.00  0.00     0.016 A 
ATOM     45  C   UNL A   1      38.809  29.220  27.892  1.00  0.00     0.016 A 
ATOM     46  C   UNL A   1      39.863  27.407  29.755  1.00  0.00     0.010 A 
ATOM     47  C   UNL A   1      40.154  28.990  27.898  1.00  0.00     0.010 A 
ATOM     48  C   UNL A   1      40.667  28.172  28.900  1.00  0.00    -0.014 A 
BRANCH  48  49
ATOM     49  C   UNL A   1      42.091  27.993  28.987  1.00  0.00     0.031 A 
ATOM     50  C   UNL A   1      42.494  26.757  28.303  1.00  0.00     0.074 A 
ATOM     51  C   UNL A   1      42.907  28.885  29.571  1.00  0.00     0.049 A 
ATOM     52  N   UNL A   1      42.761  25.624  28.857  1.00  0.00    -0.248 NA
ATOM     53  C   UNL A   1      42.288  26.685  26.847  1.00  0.00     0.031 C 
ATOM     54  C   UNL A   1      42.582  30.223  30.074  1.00  0.00     0.029 A 
ATOM     55  N   UNL A   1      44.248  28.799  29.769  1.00  0.00    -0.354 N 
ATOM     56  C   UNL A   1      43.047  24.775  27.800  1.00  0.00     0.074 A 
ATOM     57  C   UNL A   1      42.463  25.381  26.638  1.00  0.00     0.031 C 
ATOM     58  C   UNL A   1      43.729  30.897  30.327  1.00  0.00     0.029 A 
ATOM     59  C   UNL A   1      44.854  29.994  30.142  1.00  0.00     0.049 A 
ATOM     60  H   UNL A   1      44.750  27.959  29.657  1.00  0.00     0.167 HD
ATOM     61  C   UNL A   1      44.039  23.855  27.923  1.00  0.00     0.034 A 
ATOM     62  C   UNL A   1      46.191  30.216  30.258  1.00  0.00     0.034 A 
ATOM     63  C   UNL A   1      44.366  23.651  29.320  1.00  0.00     0.049 A 
ATOM     64  C   UNL A   1      46.821  28.893  30.476  1.00  0.00     0.074 A 
ATOM     65  C   UNL A   1      43.711  23.131  30.418  1.00  0.00     0.029 A 
ATOM     66  N   UNL A   1      45.402  24.418  29.804  1.00  0.00    -0.354 N 
ATOM     67  N   UNL A   1      46.614  28.181  31.549  1.00  0.00    -0.248 NA
ATOM     68  C   UNL A   1      47.331  28.145  29.334  1.00  0.00     0.031 C 
ATOM     69  C   UNL A   1      44.187  23.875  31.540  1.00  0.00     0.029 A 
ATOM     70  C   UNL A   1      45.153  24.784  31.104  1.00  0.00     0.049 A 
ATOM     71  H   UNL A   1      46.206  24.668  29.293  1.00  0.00     0.167 HD
ATOM     72  C   UNL A   1      46.533  26.874  31.100  1.00  0.00     0.074 A 
ATOM     73  C   UNL A   1      47.149  26.896  29.777  1.00  0.00     0.031 C 
ATOM     74  C   UNL A   1      45.712  25.977  31.721  1.00  0.00     0.034 A 
BRANCH  61  75
ATOM     75  C   UNL A   1      45.019  23.524  26.813  1.00  0.00     0.023 A 
ATOM     76  C   UNL A   1      45.956  24.521  26.485  1.00  0.00     0.031 A 
ATOM     77  C   UNL A   1      44.917  22.456  25.887  1.00  0.00     0.131 A 
ATOM     78  C   UNL A   1      46.649  24.488  25.263  1.00  0.00     0.055 A 
ATOM     79  C   UNL A   1      45.648  22.402  24.699  1.00  0.00     0.041 A 
ATOM     80  F   UNL A   1      44.052  21.446  26.017  1.00  0.00    -0.206 F 
ATOM     81  C   UNL A   1      46.497  23.436  24.365  1.00  0.00     0.022 A 
BRANCH  78  82
ATOM     82  S   UNL A   1      47.633  25.930  24.794  1.00  0.00     0.124 S 
ATOM     83  O   UNL A   1      48.783  25.805  25.682  1.00  0.00    -0.237 OA
ATOM     84  O   UNL A   1      47.878  25.675  23.377  1.00  0.00    -0.237 OA
ATOM     85  O   UNL A   1      46.744  27.053  25.080  1.00  0.00    -0.744 OA
ENDBRANCH  78  82
ENDBRANCH  61  75
BRANCH  62  86
ATOM     86  C   UNL A   1      46.959  31.436  29.899  1.00  0.00     0.023 A 
ATOM     87  C   UNL A   1      47.078  31.906  28.573  1.00  0.00     0.031 A 
ATOM     88  C   UNL A   1      47.365  32.315  30.926  1.00  0.00     0.131 A 
ATOM     89  C   UNL A   1      47.573  33.208  28.322  1.00  0.00     0.055 A 
ATOM     90  C   UNL A   1      47.848  33.600  30.672  1.00  0.00     0.041 A 
ATOM     91  F   UNL A   1      47.217  31.985  32.219  1.00  0.00    -0.206 F 
ATOM     92  C   UNL A   1      47.944  34.056  29.368  1.00  0.00     0.022 A 
BRANCH  89  93
ATOM     93  S   UNL A   1      47.662  33.854  26.618  1.00  0.00     0.124 S 
ATOM     94  O   UNL A   1      46.656  33.058  25.928  1.00  0.00    -0.237 OA
ATOM     95  O   UNL A   1      47.357  35.269  26.804  1.00  0.00    -0.237 OA
ATOM     96  O   UNL A   1      49.043  33.576  26.219  1.00  0.00    -0.744 OA
ENDBRANCH  89  93
ENDBRANCH  62  86
BRANCH  74  97
ATOM     97  C   UNL A   1      45.242  26.334  33.119  1.00  0.00     0.023 A 
ATOM     98  C   UNL A   1      44.039  27.010  33.427  1.00  0.00     0.031 A 
ATOM     99  C   UNL A   1      46.044  25.905  34.189  1.00  0.00     0.131 A 
ATOM    100  C   UNL A   1      43.690  27.247  34.773  1.00  0.00     0.055 A 
ATOM    101  C   UNL A   1      45.684  26.120  35.519  1.00  0.00     0.041 A 
ATOM    102  F   UNL A   1      47.188  25.240  33.958  1.00  0.00    -0.206 F 
ATOM    103  C   UNL A   1      44.508  26.798  35.816  1.00  0.00     0.022 A 
BRANCH 100 104
ATOM    104  S   UNL A   1      42.169  28.159  35.195  1.00  0.00     0.124 S 
ATOM    105  O   UNL A   1      41.103  27.254  34.784  1.00  0.00    -0.237 OA
ATOM    106  O   UNL A   1      42.313  28.367  36.634  1.00  0.00    -0.237 OA
ATOM    107  O   UNL A   1      42.271  29.383  34.396  1.00  0.00    -0.744 OA
ENDBRANCH 100 104
ENDBRANCH  74  97
ENDBRANCH  48  49
ENDBRANCH  41  43
ENDBRANCH  40  41
ENDBRANCH  39  40
ENDBRANCH  38  39
ENDBRANCH  37  38
ENDBRANCH  36  37
ENDBRANCH  35  36
ENDBRANCH  34  35
ENDBRANCH   1  34
TORSDOF 28
ENDMDL
MODEL 3
REMARK VINA RESULT:      -9.8      4.296      9.560
REMARK SMILES CCOC(=O)c1c(NC(=O)[C@@H]2[C@@H](C(=O)OCCOCCOCCOCCOC(=O)c3ccc(-c4c5nc(c(-c6cc(S(=O)(=O)[O-])ccc6F)c6ccc([nH]6)c(-c6cc(S(=O)(=O)[O-])ccc6F)c6nc(c(-c7cc(S(=O)(=O)[O-])ccc7F)c7ccc4[nH]7)C=C6)C=C5)cc3)[C@@H]3C=C[C@H]2CC3)sc2c1CCC2
REMARK SMILES IDX 20 1 19 2 18 3 17 4 16 5 15 6 13 7 14 8 12 9 11 10 96 11
REMARK SMILES IDX 93 12 95 13 97 14 94 15 98 16 9 17 8 18 10 20 7 21 6 22
REMARK SMILES IDX 101 23 99 24 100 25 102 26 104 27 103 28 4 29 5 30 3 31 2 32
REMARK SMILES IDX 1 33 21 34 22 35 23 36 24 37 25 38 26 39 27 40 28 41 29 42
REMARK SMILES IDX 30 43 31 44 92 45 32 46 91 47 33 48 34 49 35 50 85 51 36 52
REMARK SMILES IDX 90 53 84 54 86 55 37 56 89 57 83 58 82 59 38 61 70 62 50 63
REMARK SMILES IDX 69 64 51 65 54 66 68 67 87 68 52 69 53 70 67 72 88 73 55 74
REMARK SMILES IDX 39 75 40 76 48 77 41 78 47 79 49 80 46 81 42 82 43 83 44 84
REMARK SMILES IDX 45 85 71 86 72 87 80 88 73 89 79 90 81 91 78 92 74 93 75 94
REMARK SMILES IDX 76 95 77 96 56 97 57 98 65 99 58 100 64 101 66 102 63 103
REMARK SMILES IDX 59 104 60 105 61 106 62 107
REMARK H PARENT 8 19 86 60 54 71
REMARK Flexibility Score: inf
ROOT
ATOM      1  C   UNL A   1      41.549  23.266  26.912  1.00  0.00     0.188 C 
ENDROOT
BRANCH   1   2
ATOM      2  C   UNL A   1      40.064  22.822  26.915  1.00  0.00     0.188 C 
BRANCH   2   3
ATOM      3  O   UNL A   1      39.057  23.817  26.857  1.00  0.00    -0.376 OA
BRANCH   3   4
ATOM      4  C   UNL A   1      38.074  23.750  25.837  1.00  0.00     0.202 C 
BRANCH   4   5
ATOM      5  C   UNL A   1      36.643  23.243  26.119  1.00  0.00     0.261 C 
BRANCH   5   6
ATOM      6  O   UNL A   1      35.548  24.103  25.756  1.00  0.00    -0.463 OA
BRANCH   6   7
ATOM      7  C   UNL A   1      34.319  23.811  26.251  1.00  0.00     0.310 C 
ATOM      8  O   UNL A   1      34.129  23.246  27.320  1.00  0.00    -0.252 OA
BRANCH   7   9
ATOM      9  C   UNL A   1      33.210  24.200  25.262  1.00  0.00     0.119 C 
ATOM     10  C   UNL A   1      31.777  23.642  25.474  1.00  0.00     0.100 C 
ATOM     11  C   UNL A   1      31.248  23.131  24.086  1.00  0.00     0.025 C 
ATOM     12  C   UNL A   1      33.670  24.014  23.799  1.00  0.00     0.026 C 
ATOM     13  C   UNL A   1      31.374  24.280  23.109  1.00  0.00    -0.027 C 
ATOM     14  C   UNL A   1      32.191  22.000  23.576  1.00  0.00     0.009 C 
ATOM     15  C   UNL A   1      32.627  24.738  22.957  1.00  0.00    -0.027 C 
ATOM     16  C   UNL A   1      33.634  22.525  23.439  1.00  0.00     0.009 C 
BRANCH  10  17
ATOM     17  C   UNL A   1      30.660  24.427  26.217  1.00  0.00     0.229 C 
ATOM     18  N   UNL A   1      30.388  25.764  26.235  1.00  0.00    -0.317 N 
ATOM     19  H   UNL A   1      29.640  26.025  26.820  1.00  0.00     0.170 HD
ATOM     20  O   UNL A   1      29.831  23.731  26.838  1.00  0.00    -0.274 OA
BRANCH  18  21
ATOM     21  C   UNL A   1      30.987  26.802  25.573  1.00  0.00     0.110 A 
ATOM     22  C   UNL A   1      30.698  27.400  24.344  1.00  0.00     0.098 A 
ATOM     23  C   UNL A   1      31.918  27.996  23.912  1.00  0.00    -0.017 A 
ATOM     24  S   UNL A   1      31.976  27.937  26.427  1.00  0.00    -0.122 S 
ATOM     25  C   UNL A   1      32.782  28.143  24.966  1.00  0.00     0.011 A 
ATOM     26  C   UNL A   1      32.543  28.536  22.682  1.00  0.00     0.038 C 
ATOM     27  C   UNL A   1      34.161  28.528  24.621  1.00  0.00     0.047 C 
ATOM     28  C   UNL A   1      34.068  28.558  23.063  1.00  0.00     0.010 C 
BRANCH  22  29
ATOM     29  C   UNL A   1      29.389  27.273  23.715  1.00  0.00     0.341 C 
ATOM     30  O   UNL A   1      28.543  26.545  24.153  1.00  0.00    -0.246 OA
BRANCH  29  31
ATOM     31  O   UNL A   1      29.212  28.156  22.680  1.00  0.00    -0.462 OA
BRANCH  31  32
ATOM     32  C   UNL A   1      28.914  29.508  23.071  1.00  0.00     0.230 C 
ATOM     33  C   UNL A   1      28.959  30.534  21.949  1.00  0.00     0.049 C 
ENDBRANCH  31  32
ENDBRANCH  29  31
ENDBRANCH  22  29
ENDBRANCH  18  21
ENDBRANCH  10  17
ENDBRANCH   7   9
ENDBRANCH   6   7
ENDBRANCH   5   6
ENDBRANCH   4   5
ENDBRANCH   3   4
ENDBRANCH   2   3
ENDBRANCH   1   2
BRANCH   1  34
ATOM     34  O   UNL A   1      42.118  23.272  25.613  1.00  0.00    -0.377 OA
BRANCH  34  35
ATOM     35  C   UNL A   1      43.051  22.235  25.329  1.00  0.00     0.188 C 
BRANCH  35  36
ATOM     36  C   UNL A   1      44.552  22.584  25.174  1.00  0.00     0.188 C 
BRANCH  36  37
ATOM     37  O   UNL A   1      45.131  23.231  26.295  1.00  0.00    -0.376 OA
BRANCH  37  38
ATOM     38  C   UNL A   1      45.512  24.593  26.300  1.00  0.00     0.202 C 
BRANCH  38  39
ATOM     39  C   UNL A   1      44.481  25.538  26.911  1.00  0.00     0.261 C 
BRANCH  39  40
ATOM     40  O   UNL A   1      44.756  25.837  28.265  1.00  0.00    -0.460 OA
BRANCH  40  41
ATOM     41  C   UNL A   1      44.071  25.067  29.130  1.00  0.00     0.338 C 
ATOM     42  O   UNL A   1      44.189  23.868  29.305  1.00  0.00    -0.246 OA
BRANCH  41  43
ATOM     43  C   UNL A   1      43.045  25.893  29.755  1.00  0.00     0.060 A 
ATOM     44  C   UNL A   1      41.998  26.259  28.913  1.00  0.00     0.016 A 
ATOM     45  C   UNL A   1      43.395  26.608  30.910  1.00  0.00     0.016 A 
ATOM     46  C   UNL A   1      41.524  27.536  29.039  1.00  0.00     0.010 A 
ATOM     47  C   UNL A   1      42.941  27.890  31.014  1.00  0.00     0.010 A 
ATOM     48  C   UNL A   1      42.098  28.362  30.013  1.00  0.00    -0.014 A 
BRANCH  48  49
ATOM     49  C   UNL A   1      41.686  29.739  30.047  1.00  0.00     0.031 A 
ATOM     50  C   UNL A   1      42.793  30.615  29.643  1.00  0.00     0.074 A 
ATOM     51  C   UNL A   1      40.436  30.122  30.356  1.00  0.00     0.049 A 
ATOM     52  N   UNL A   1      43.568  31.286  30.425  1.00  0.00    -0.248 NA
ATOM     53  C   UNL A   1      43.283  30.501  28.259  1.00  0.00     0.031 C 
ATOM     54  C   UNL A   1      39.250  29.284  30.556  1.00  0.00     0.029 A 
ATOM     55  N   UNL A   1      39.947  31.383  30.482  1.00  0.00    -0.354 N 
ATOM     56  C   UNL A   1      44.464  31.915  29.577  1.00  0.00     0.074 A 
ATOM     57  C   UNL A   1      44.427  31.179  28.346  1.00  0.00     0.031 C 
ATOM     58  C   UNL A   1      38.146  30.068  30.573  1.00  0.00     0.029 A 
ATOM     59  C   UNL A   1      38.559  31.462  30.530  1.00  0.00     0.049 A 
ATOM     60  H   UNL A   1      40.528  32.177  30.535  1.00  0.00     0.167 HD
ATOM     61  C   UNL A   1      44.871  33.183  29.845  1.00  0.00     0.034 A 
ATOM     62  C   UNL A   1      37.816  32.600  30.506  1.00  0.00     0.034 A 
ATOM     63  C   UNL A   1      44.594  33.519  31.227  1.00  0.00     0.049 A 
ATOM     64  C   UNL A   1      38.700  33.690  30.982  1.00  0.00     0.074 A 
ATOM     65  C   UNL A   1      45.051  33.084  32.455  1.00  0.00     0.029 A 
ATOM     66  N   UNL A   1      43.396  34.156  31.454  1.00  0.00    -0.354 N 
ATOM     67  N   UNL A   1      39.160  33.744  32.202  1.00  0.00    -0.248 NA
ATOM     68  C   UNL A   1      39.440  34.489  30.013  1.00  0.00     0.031 C 
ATOM     69  C   UNL A   1      43.938  33.195  33.342  1.00  0.00     0.029 A 
ATOM     70  C   UNL A   1      42.857  33.742  32.647  1.00  0.00     0.049 A 
ATOM     71  H   UNL A   1      42.983  34.815  30.849  1.00  0.00     0.167 HD
ATOM     72  C   UNL A   1      40.462  34.195  32.072  1.00  0.00     0.074 A 
ATOM     73  C   UNL A   1      40.518  34.796  30.743  1.00  0.00     0.031 C 
ATOM     74  C   UNL A   1      41.431  33.770  32.935  1.00  0.00     0.034 A 
BRANCH  61  75
ATOM     75  C   UNL A   1      45.051  34.250  28.781  1.00  0.00     0.023 A 
ATOM     76  C   UNL A   1      44.082  35.269  28.745  1.00  0.00     0.031 A 
ATOM     77  C   UNL A   1      45.905  34.181  27.653  1.00  0.00     0.131 A 
ATOM     78  C   UNL A   1      43.926  36.078  27.607  1.00  0.00     0.055 A 
ATOM     79  C   UNL A   1      45.780  35.024  26.547  1.00  0.00     0.041 A 
ATOM     80  F   UNL A   1      46.853  33.252  27.499  1.00  0.00    -0.206 F 
ATOM     81  C   UNL A   1      44.767  35.959  26.504  1.00  0.00     0.022 A 
BRANCH  78  82
ATOM     82  S   UNL A   1      42.498  37.184  27.527  1.00  0.00     0.124 S 
ATOM     83  O   UNL A   1      42.929  38.152  26.524  1.00  0.00    -0.237 OA
ATOM     84  O   UNL A   1      41.434  36.268  27.127  1.00  0.00    -0.237 OA
ATOM     85  O   UNL A   1      42.395  37.701  28.889  1.00  0.00    -0.744 OA
ENDBRANCH  78  82
ENDBRANCH  61  75
BRANCH  62  86
ATOM     86  C   UNL A   1      36.518  32.842  29.826  1.00  0.00     0.023 A 
ATOM     87  C   UNL A   1      35.574  33.786  30.284  1.00  0.00     0.031 A 
ATOM     88  C   UNL A   1      36.316  32.316  28.531  1.00  0.00     0.131 A 
ATOM     89  C   UNL A   1      34.496  34.176  29.453  1.00  0.00     0.055 A 
ATOM     90  C   UNL A   1      35.253  32.707  27.715  1.00  0.00     0.041 A 
ATOM     91  F   UNL A   1      37.203  31.470  27.981  1.00  0.00    -0.206 F 
ATOM     92  C   UNL A   1      34.344  33.648  28.169  1.00  0.00     0.022 A 
BRANCH  89  93
ATOM     93  S   UNL A   1      33.313  35.450  30.005  1.00  0.00     0.124 S 
ATOM     94  O   UNL A   1      32.730  34.842  31.194  1.00  0.00    -0.237 OA
ATOM     95  O   UNL A   1      34.176  36.606  30.222  1.00  0.00    -0.237 OA
ATOM     96  O   UNL A   1      32.396  35.579  28.871  1.00  0.00    -0.744 OA
ENDBRANCH  89  93
ENDBRANCH  62  86
BRANCH  74  97
ATOM     97  C   UNL A   1      40.964  33.153  34.240  1.00  0.00     0.023 A 
ATOM     98  C   UNL A   1      40.504  33.875  35.366  1.00  0.00     0.031 A 
ATOM     99  C   UNL A   1      40.936  31.750  34.306  1.00  0.00     0.131 A 
ATOM    100  C   UNL A   1      40.054  33.183  36.509  1.00  0.00     0.055 A 
ATOM    101  C   UNL A   1      40.469  31.070  35.429  1.00  0.00     0.041 A 
ATOM    102  F   UNL A   1      41.342  31.012  33.261  1.00  0.00    -0.206 F 
ATOM    103  C   UNL A   1      40.031  31.784  36.539  1.00  0.00     0.022 A 
BRANCH 100 104
ATOM    104  S   UNL A   1      39.501  34.090  37.991  1.00  0.00     0.124 S 
ATOM    105  O   UNL A   1      40.347  33.559  39.052  1.00  0.00    -0.237 OA
ATOM    106  O   UNL A   1      39.741  35.482  37.618  1.00  0.00    -0.237 OA
ATOM    107  O   UNL A   1      38.085  33.732  38.104  1.00  0.00    -0.744 OA
ENDBRANCH 100 104
ENDBRANCH  74  97
ENDBRANCH  48  49
ENDBRANCH  41  43
ENDBRANCH  40  41
ENDBRANCH  39  40
ENDBRANCH  38  39
ENDBRANCH  37  38
ENDBRANCH  36  37
ENDBRANCH  35  36
ENDBRANCH  34  35
ENDBRANCH   1  34
TORSDOF 28
ENDMDL
