MODEL 1
REMARK VINA RESULT:      -9.6      0.000      0.000
REMARK SMILES Cc1nsc(NC(=O)CC[C@H](C)CC[NH3+])c1C(=O)OCCOCCOCCOCCOC(=O)c1ccc(-c2c3nc(c(-c4cc(S(=O)(=O)[O-])ccc4F)c4ccc([nH]4)c(-c4cc(S(=O)(=O)[O-])ccc4F)c4nc(c(-c5cc(S(=O)(=O)[O-])ccc5F)c5ccc2[nH]5)C=C4)C=C3)cc1
REMARK SMILES IDX 23 1 22 2 21 3 20 4 19 5 17 6 18 7 16 8 1 9 2 10 3 11 4 12
REMARK SMILES IDX 5 13 6 14 7 15 8 17 9 18 10 19 11 20 12 21 13 22 14 23 15 24
REMARK SMILES IDX 24 28 25 29 26 30 27 31 28 32 29 33 30 34 31 35 32 36 33 37
REMARK SMILES IDX 34 38 35 39 96 40 36 41 95 42 37 43 38 44 39 45 89 46 40 47
REMARK SMILES IDX 94 48 88 49 90 50 41 51 93 52 87 53 86 54 42 56 74 57 54 58
REMARK SMILES IDX 73 59 55 60 58 61 72 62 91 63 56 64 57 65 71 67 92 68 59 69
REMARK SMILES IDX 43 70 44 71 52 72 45 73 51 74 53 75 50 76 46 77 47 78 48 79
REMARK SMILES IDX 49 80 75 81 76 82 84 83 77 84 83 85 85 86 82 87 78 88 79 89
REMARK SMILES IDX 80 90 81 91 60 92 61 93 69 94 62 95 68 96 70 97 67 98 63 99
REMARK SMILES IDX 64 100 65 101 66 102
REMARK H PARENT 6 16 15 25 15 26 15 27 90 55 58 66
REMARK Flexibility Score: inf
ROOT
ATOM      1  C   UNL A   1      33.538  30.931  27.408  1.00  0.00     0.188 C 
ENDROOT
BRANCH   1   2
ATOM      2  O   UNL A   1      33.066  29.603  27.586  1.00  0.00    -0.376 OA
BRANCH   2   3
ATOM      3  C   UNL A   1      33.539  28.516  26.817  1.00  0.00     0.202 C 
BRANCH   3   4
ATOM      4  C   UNL A   1      32.643  27.309  26.515  1.00  0.00     0.261 C 
BRANCH   4   5
ATOM      5  O   UNL A   1      33.294  26.088  26.164  1.00  0.00    -0.460 OA
BRANCH   5   6
ATOM      6  C   UNL A   1      32.510  24.993  26.044  1.00  0.00     0.343 C 
ATOM      7  O   UNL A   1      31.387  24.882  26.533  1.00  0.00    -0.246 OA
BRANCH   6   8
ATOM      8  C   UNL A   1      33.101  23.966  25.201  1.00  0.00     0.117 A 
ATOM      9  C   UNL A   1      33.643  22.022  26.924  1.00  0.00     0.069 C 
ATOM     10  C   UNL A   1      33.506  22.622  25.563  1.00  0.00     0.068 A 
ATOM     11  N   UNL A   1      33.814  21.826  24.534  1.00  0.00    -0.195 NA
ATOM     12  S   UNL A   1      33.748  22.712  23.144  1.00  0.00    -0.017 S 
ATOM     13  C   UNL A   1      33.570  24.213  23.913  1.00  0.00     0.130 A 
BRANCH  13  14
ATOM     14  N   UNL A   1      33.847  25.437  23.328  1.00  0.00    -0.316 N 
ATOM     15  C   UNL A   1      33.154  26.187  22.417  1.00  0.00     0.225 C 
ATOM     16  H   UNL A   1      34.696  25.841  23.620  1.00  0.00     0.170 HD
ATOM     17  O   UNL A   1      33.757  27.145  21.912  1.00  0.00    -0.275 OA
BRANCH  15  18
ATOM     18  C   UNL A   1      31.733  25.906  21.959  1.00  0.00     0.101 C 
BRANCH  18  19
ATOM     19  C   UNL A   1      30.617  26.879  22.381  1.00  0.00     0.013 C 
BRANCH  19  20
ATOM     20  C   UNL A   1      31.043  28.288  22.839  1.00  0.00    -0.008 C 
ATOM     21  C   UNL A   1      30.570  28.552  24.269  1.00  0.00     0.008 C 
BRANCH  20  22
ATOM     22  C   UNL A   1      30.545  29.404  21.895  1.00  0.00     0.064 C 
BRANCH  22  23
ATOM     23  C   UNL A   1      29.434  30.263  22.530  1.00  0.00     0.259 C 
BRANCH  23  24
ATOM     24  N   UNL A   1      28.132  29.996  21.925  1.00  0.00    -0.358 N 
ATOM     25  H   UNL A   1      27.415  29.983  22.651  1.00  0.00     0.344 HD
ATOM     26  H   UNL A   1      28.155  29.092  21.453  1.00  0.00     0.344 HD
ATOM     27  H   UNL A   1      27.915  30.728  21.248  1.00  0.00     0.344 HD
ENDBRANCH  23  24
ENDBRANCH  22  23
ENDBRANCH  20  22
ENDBRANCH  19  20
ENDBRANCH  18  19
ENDBRANCH  15  18
ENDBRANCH  13  14
ENDBRANCH   6   8
ENDBRANCH   5   6
ENDBRANCH   4   5
ENDBRANCH   3   4
ENDBRANCH   2   3
ENDBRANCH   1   2
BRANCH   1  28
ATOM     28  C   UNL A   1      35.032  31.321  27.463  1.00  0.00     0.188 C 
BRANCH  28  29
ATOM     29  O   UNL A   1      35.270  32.701  27.679  1.00  0.00    -0.377 OA
BRANCH  29  30
ATOM     30  C   UNL A   1      34.243  33.385  28.405  1.00  0.00     0.188 C 
BRANCH  30  31
ATOM     31  C   UNL A   1      34.512  33.698  29.899  1.00  0.00     0.188 C 
BRANCH  31  32
ATOM     32  O   UNL A   1      34.989  32.576  30.628  1.00  0.00    -0.376 OA
BRANCH  32  33
ATOM     33  C   UNL A   1      36.179  32.624  31.389  1.00  0.00     0.202 C 
BRANCH  33  34
ATOM     34  C   UNL A   1      37.366  31.822  30.875  1.00  0.00     0.261 C 
BRANCH  34  35
ATOM     35  O   UNL A   1      37.030  30.864  29.892  1.00  0.00    -0.460 OA
BRANCH  35  36
ATOM     36  C   UNL A   1      36.980  29.601  30.346  1.00  0.00     0.338 C 
ATOM     37  O   UNL A   1      36.318  29.184  31.290  1.00  0.00    -0.246 OA
BRANCH  36  38
ATOM     38  C   UNL A   1      37.973  28.822  29.613  1.00  0.00     0.060 A 
ATOM     39  C   UNL A   1      38.646  27.833  30.323  1.00  0.00     0.016 A 
ATOM     40  C   UNL A   1      38.434  29.315  28.379  1.00  0.00     0.016 A 
ATOM     41  C   UNL A   1      39.918  27.514  29.915  1.00  0.00     0.010 A 
ATOM     42  C   UNL A   1      39.709  29.007  27.984  1.00  0.00     0.010 A 
ATOM     43  C   UNL A   1      40.465  28.188  28.812  1.00  0.00    -0.014 A 
BRANCH  43  44
ATOM     44  C   UNL A   1      41.837  27.915  28.467  1.00  0.00     0.031 A 
ATOM     45  C   UNL A   1      41.972  26.632  27.758  1.00  0.00     0.074 A 
ATOM     46  C   UNL A   1      42.856  28.756  28.722  1.00  0.00     0.049 A 
ATOM     47  N   UNL A   1      42.378  25.520  28.264  1.00  0.00    -0.248 NA
ATOM     48  C   UNL A   1      41.358  26.502  26.427  1.00  0.00     0.031 C 
ATOM     49  C   UNL A   1      42.813  30.134  29.211  1.00  0.00     0.029 A 
ATOM     50  N   UNL A   1      44.182  28.548  28.515  1.00  0.00    -0.354 N 
ATOM     51  C   UNL A   1      42.327  24.605  27.227  1.00  0.00     0.074 A 
ATOM     52  C   UNL A   1      41.479  25.190  26.223  1.00  0.00     0.031 C 
ATOM     53  C   UNL A   1      44.034  30.702  29.050  1.00  0.00     0.029 A 
ATOM     54  C   UNL A   1      44.970  29.691  28.580  1.00  0.00     0.049 A 
ATOM     55  H   UNL A   1      44.556  27.655  28.334  1.00  0.00     0.167 HD
ATOM     56  C   UNL A   1      43.215  23.578  27.173  1.00  0.00     0.034 A 
ATOM     57  C   UNL A   1      46.280  29.793  28.220  1.00  0.00     0.034 A 
ATOM     58  C   UNL A   1      43.852  23.377  28.457  1.00  0.00     0.049 A 
ATOM     59  C   UNL A   1      46.850  28.421  28.302  1.00  0.00     0.074 A 
ATOM     60  C   UNL A   1      43.390  23.088  29.727  1.00  0.00     0.029 A 
ATOM     61  N   UNL A   1      45.124  23.878  28.632  1.00  0.00    -0.354 N 
ATOM     62  N   UNL A   1      46.977  27.774  29.429  1.00  0.00    -0.248 NA
ATOM     63  C   UNL A   1      46.788  27.578  27.115  1.00  0.00     0.031 C 
ATOM     64  C   UNL A   1      44.190  23.881  30.602  1.00  0.00     0.029 A 
ATOM     65  C   UNL A   1      45.153  24.542  29.837  1.00  0.00     0.049 A 
ATOM     66  H   UNL A   1      45.878  23.780  28.007  1.00  0.00     0.167 HD
ATOM     67  C   UNL A   1      46.564  26.479  29.152  1.00  0.00     0.074 A 
ATOM     68  C   UNL A   1      46.549  26.394  27.691  1.00  0.00     0.031 C 
ATOM     69  C   UNL A   1      45.995  25.693  30.116  1.00  0.00     0.034 A 
BRANCH  56  70
ATOM     70  C   UNL A   1      43.783  23.030  25.889  1.00  0.00     0.023 A 
ATOM     71  C   UNL A   1      43.751  21.635  25.723  1.00  0.00     0.031 A 
ATOM     72  C   UNL A   1      44.596  23.743  24.977  1.00  0.00     0.131 A 
ATOM     73  C   UNL A   1      44.564  21.007  24.767  1.00  0.00     0.055 A 
ATOM     74  C   UNL A   1      45.347  23.118  23.980  1.00  0.00     0.041 A 
ATOM     75  F   UNL A   1      44.793  25.063  25.051  1.00  0.00    -0.206 F 
ATOM     76  C   UNL A   1      45.361  21.739  23.891  1.00  0.00     0.022 A 
BRANCH  73  77
ATOM     77  S   UNL A   1      44.695  19.205  24.814  1.00  0.00     0.124 S 
ATOM     78  O   UNL A   1      43.704  18.865  25.829  1.00  0.00    -0.237 OA
ATOM     79  O   UNL A   1      44.361  18.845  23.439  1.00  0.00    -0.237 OA
ATOM     80  O   UNL A   1      46.087  18.978  25.197  1.00  0.00    -0.744 OA
ENDBRANCH  73  77
ENDBRANCH  56  70
BRANCH  57  81
ATOM     81  C   UNL A   1      46.931  30.909  27.472  1.00  0.00     0.023 A 
ATOM     82  C   UNL A   1      46.211  31.998  26.929  1.00  0.00     0.031 A 
ATOM     83  C   UNL A   1      48.338  31.038  27.505  1.00  0.00     0.131 A 
ATOM     84  C   UNL A   1      46.898  33.146  26.457  1.00  0.00     0.055 A 
ATOM     85  C   UNL A   1      49.008  32.173  27.041  1.00  0.00     0.041 A 
ATOM     86  F   UNL A   1      49.110  30.101  28.075  1.00  0.00    -0.206 F 
ATOM     87  C   UNL A   1      48.290  33.237  26.523  1.00  0.00     0.022 A 
BRANCH  84  88
ATOM     88  S   UNL A   1      45.980  34.590  25.823  1.00  0.00     0.124 S 
ATOM     89  O   UNL A   1      45.144  34.953  26.961  1.00  0.00    -0.237 OA
ATOM     90  O   UNL A   1      47.051  35.518  25.480  1.00  0.00    -0.237 OA
ATOM     91  O   UNL A   1      45.249  34.054  24.673  1.00  0.00    -0.744 OA
ENDBRANCH  84  88
ENDBRANCH  57  81
BRANCH  69  92
ATOM     92  C   UNL A   1      46.086  26.149  31.563  1.00  0.00     0.023 A 
ATOM     93  C   UNL A   1      45.039  26.757  32.297  1.00  0.00     0.031 A 
ATOM     94  C   UNL A   1      47.272  25.849  32.256  1.00  0.00     0.131 A 
ATOM     95  C   UNL A   1      45.213  27.053  33.665  1.00  0.00     0.055 A 
ATOM     96  C   UNL A   1      47.432  26.120  33.614  1.00  0.00     0.041 A 
ATOM     97  F   UNL A   1      48.297  25.252  31.625  1.00  0.00    -0.206 F 
ATOM     98  C   UNL A   1      46.404  26.729  34.324  1.00  0.00     0.022 A 
BRANCH  95  99
ATOM     99  S   UNL A   1      43.900  27.888  34.616  1.00  0.00     0.124 S 
ATOM    100  O   UNL A   1      43.462  28.958  33.728  1.00  0.00    -0.237 OA
ATOM    101  O   UNL A   1      42.940  26.811  34.842  1.00  0.00    -0.237 OA
ATOM    102  O   UNL A   1      44.594  28.345  35.823  1.00  0.00    -0.744 OA
ENDBRANCH  95  99
ENDBRANCH  69  92
ENDBRANCH  43  44
ENDBRANCH  36  38
ENDBRANCH  35  36
ENDBRANCH  34  35
ENDBRANCH  33  34
ENDBRANCH  32  33
ENDBRANCH  31  32
ENDBRANCH  30  31
ENDBRANCH  29  30
ENDBRANCH  28  29
ENDBRANCH   1  28
TORSDOF 30
ENDMDL
MODEL 2
REMARK VINA RESULT:      -9.6      3.566      8.789
REMARK SMILES Cc1nsc(NC(=O)CC[C@H](C)CC[NH3+])c1C(=O)OCCOCCOCCOCCOC(=O)c1ccc(-c2c3nc(c(-c4cc(S(=O)(=O)[O-])ccc4F)c4ccc([nH]4)c(-c4cc(S(=O)(=O)[O-])ccc4F)c4nc(c(-c5cc(S(=O)(=O)[O-])ccc5F)c5ccc2[nH]5)C=C4)C=C3)cc1
REMARK SMILES IDX 23 1 22 2 21 3 20 4 19 5 17 6 18 7 16 8 1 9 2 10 3 11 4 12
REMARK SMILES IDX 5 13 6 14 7 15 8 17 9 18 10 19 11 20 12 21 13 22 14 23 15 24
REMARK SMILES IDX 24 28 25 29 26 30 27 31 28 32 29 33 30 34 31 35 32 36 33 37
REMARK SMILES IDX 34 38 35 39 96 40 36 41 95 42 37 43 38 44 39 45 89 46 40 47
REMARK SMILES IDX 94 48 88 49 90 50 41 51 93 52 87 53 86 54 42 56 74 57 54 58
REMARK SMILES IDX 73 59 55 60 58 61 72 62 91 63 56 64 57 65 71 67 92 68 59 69
REMARK SMILES IDX 43 70 44 71 52 72 45 73 51 74 53 75 50 76 46 77 47 78 48 79
REMARK SMILES IDX 49 80 75 81 76 82 84 83 77 84 83 85 85 86 82 87 78 88 79 89
REMARK SMILES IDX 80 90 81 91 60 92 61 93 69 94 62 95 68 96 70 97 67 98 63 99
REMARK SMILES IDX 64 100 65 101 66 102
REMARK H PARENT 6 16 15 25 15 26 15 27 90 55 58 66
REMARK Flexibility Score: inf
ROOT
ATOM      1  C   UNL A   1      32.513  21.709  23.753  1.00  0.00     0.188 C 
ENDROOT
BRANCH   1   2
ATOM      2  O   UNL A   1      32.757  22.474  22.582  1.00  0.00    -0.376 OA
BRANCH   2   3
ATOM      3  C   UNL A   1      33.292  23.780  22.621  1.00  0.00     0.202 C 
BRANCH   3   4
ATOM      4  C   UNL A   1      33.055  24.770  21.474  1.00  0.00     0.261 C 
BRANCH   4   5
ATOM      5  O   UNL A   1      31.880  25.578  21.545  1.00  0.00    -0.460 OA
BRANCH   5   6
ATOM      6  C   UNL A   1      31.926  26.646  22.372  1.00  0.00     0.343 C 
ATOM      7  O   UNL A   1      32.935  27.313  22.596  1.00  0.00    -0.246 OA
BRANCH   6   8
ATOM      8  C   UNL A   1      30.624  26.988  22.924  1.00  0.00     0.117 A 
ATOM      9  C   UNL A   1      30.347  29.541  22.255  1.00  0.00     0.069 C 
ATOM     10  C   UNL A   1      29.882  28.226  22.789  1.00  0.00     0.068 A 
ATOM     11  N   UNL A   1      28.618  28.178  23.218  1.00  0.00    -0.195 NA
ATOM     12  S   UNL A   1      28.349  26.702  23.904  1.00  0.00    -0.017 S 
ATOM     13  C   UNL A   1      29.971  26.209  23.876  1.00  0.00     0.130 A 
BRANCH  13  14
ATOM     14  N   UNL A   1      30.504  25.206  24.667  1.00  0.00    -0.316 N 
ATOM     15  C   UNL A   1      31.523  25.213  25.581  1.00  0.00     0.225 C 
ATOM     16  H   UNL A   1      30.071  24.329  24.553  1.00  0.00     0.170 HD
ATOM     17  O   UNL A   1      31.919  24.109  25.979  1.00  0.00    -0.275 OA
BRANCH  15  18
ATOM     18  C   UNL A   1      32.217  26.460  26.100  1.00  0.00     0.101 C 
BRANCH  18  19
ATOM     19  C   UNL A   1      31.386  27.743  26.286  1.00  0.00     0.013 C 
BRANCH  19  20
ATOM     20  C   UNL A   1      32.019  28.883  27.108  1.00  0.00    -0.008 C 
ATOM     21  C   UNL A   1      31.783  30.231  26.423  1.00  0.00     0.008 C 
BRANCH  20  22
ATOM     22  C   UNL A   1      33.526  28.671  27.370  1.00  0.00     0.064 C 
BRANCH  22  23
ATOM     23  C   UNL A   1      34.410  29.620  26.537  1.00  0.00     0.259 C 
BRANCH  23  24
ATOM     24  N   UNL A   1      35.679  29.901  27.202  1.00  0.00    -0.358 N 
ATOM     25  H   UNL A   1      36.403  29.285  26.828  1.00  0.00     0.344 HD
ATOM     26  H   UNL A   1      35.581  29.740  28.205  1.00  0.00     0.344 HD
ATOM     27  H   UNL A   1      35.942  30.872  27.037  1.00  0.00     0.344 HD
ENDBRANCH  23  24
ENDBRANCH  22  23
ENDBRANCH  20  22
ENDBRANCH  19  20
ENDBRANCH  18  19
ENDBRANCH  15  18
ENDBRANCH  13  14
ENDBRANCH   6   8
ENDBRANCH   5   6
ENDBRANCH   4   5
ENDBRANCH   3   4
ENDBRANCH   2   3
ENDBRANCH   1   2
BRANCH   1  28
ATOM     28  C   UNL A   1      33.592  20.849  24.451  1.00  0.00     0.188 C 
BRANCH  28  29
ATOM     29  O   UNL A   1      33.755  21.121  25.832  1.00  0.00    -0.377 OA
BRANCH  29  30
ATOM     30  C   UNL A   1      35.070  21.542  26.213  1.00  0.00     0.188 C 
BRANCH  30  31
ATOM     31  C   UNL A   1      35.664  22.774  25.484  1.00  0.00     0.188 C 
BRANCH  31  32
ATOM     32  O   UNL A   1      36.987  22.561  25.014  1.00  0.00    -0.376 OA
BRANCH  32  33
ATOM     33  C   UNL A   1      37.798  21.511  25.500  1.00  0.00     0.202 C 
BRANCH  33  34
ATOM     34  C   UNL A   1      39.265  21.823  25.753  1.00  0.00     0.261 C 
BRANCH  34  35
ATOM     35  O   UNL A   1      39.496  22.597  26.913  1.00  0.00    -0.460 OA
BRANCH  35  36
ATOM     36  C   UNL A   1      40.577  23.392  26.841  1.00  0.00     0.338 C 
ATOM     37  O   UNL A   1      41.542  23.256  26.097  1.00  0.00    -0.246 OA
BRANCH  36  38
ATOM     38  C   UNL A   1      40.479  24.377  27.913  1.00  0.00     0.060 A 
ATOM     39  C   UNL A   1      39.295  25.104  27.992  1.00  0.00     0.016 A 
ATOM     40  C   UNL A   1      41.658  24.778  28.567  1.00  0.00     0.016 A 
ATOM     41  C   UNL A   1      39.362  26.368  28.525  1.00  0.00     0.010 A 
ATOM     42  C   UNL A   1      41.725  26.046  29.082  1.00  0.00     0.010 A 
ATOM     43  C   UNL A   1      40.603  26.854  28.964  1.00  0.00    -0.014 A 
BRANCH  43  44
ATOM     44  C   UNL A   1      40.670  28.220  29.420  1.00  0.00     0.031 A 
ATOM     45  C   UNL A   1      41.726  28.971  28.722  1.00  0.00     0.074 A 
ATOM     46  C   UNL A   1      39.837  28.747  30.335  1.00  0.00     0.049 A 
ATOM     47  N   UNL A   1      42.892  29.261  29.187  1.00  0.00    -0.248 NA
ATOM     48  C   UNL A   1      41.577  29.205  27.277  1.00  0.00     0.031 C 
ATOM     49  C   UNL A   1      38.628  28.170  30.923  1.00  0.00     0.029 A 
ATOM     50  N   UNL A   1      39.879  29.988  30.886  1.00  0.00    -0.354 N 
ATOM     51  C   UNL A   1      43.526  29.959  28.175  1.00  0.00     0.074 A 
ATOM     52  C   UNL A   1      42.784  29.682  26.974  1.00  0.00     0.031 C 
ATOM     53  C   UNL A   1      37.942  29.141  31.573  1.00  0.00     0.029 A 
ATOM     54  C   UNL A   1      38.727  30.366  31.564  1.00  0.00     0.049 A 
ATOM     55  H   UNL A   1      40.668  30.574  30.812  1.00  0.00     0.167 HD
ATOM     56  C   UNL A   1      44.433  30.926  28.473  1.00  0.00     0.034 A 
ATOM     57  C   UNL A   1      38.435  31.613  32.031  1.00  0.00     0.034 A 
ATOM     58  C   UNL A   1      44.889  30.804  29.841  1.00  0.00     0.049 A 
ATOM     59  C   UNL A   1      39.734  32.315  32.205  1.00  0.00     0.074 A 
ATOM     60  C   UNL A   1      45.517  29.805  30.562  1.00  0.00     0.029 A 
ATOM     61  N   UNL A   1      44.344  31.651  30.782  1.00  0.00    -0.354 N 
ATOM     62  N   UNL A   1      40.624  31.950  33.087  1.00  0.00    -0.248 NA
ATOM     63  C   UNL A   1      40.264  33.071  31.077  1.00  0.00     0.031 C 
ATOM     64  C   UNL A   1      44.898  29.831  31.847  1.00  0.00     0.029 A 
ATOM     65  C   UNL A   1      43.994  30.895  31.877  1.00  0.00     0.049 A 
ATOM     66  H   UNL A   1      44.226  32.624  30.687  1.00  0.00     0.167 HD
ATOM     67  C   UNL A   1      41.841  32.023  32.425  1.00  0.00     0.074 A 
ATOM     68  C   UNL A   1      41.568  32.810  31.222  1.00  0.00     0.031 C 
ATOM     69  C   UNL A   1      42.882  31.202  32.760  1.00  0.00     0.034 A 
BRANCH  56  70
ATOM     70  C   UNL A   1      44.603  32.190  27.670  1.00  0.00     0.023 A 
ATOM     71  C   UNL A   1      43.986  33.349  28.170  1.00  0.00     0.031 A 
ATOM     72  C   UNL A   1      45.069  32.264  26.337  1.00  0.00     0.131 A 
ATOM     73  C   UNL A   1      43.768  34.461  27.341  1.00  0.00     0.055 A 
ATOM     74  C   UNL A   1      44.914  33.399  25.539  1.00  0.00     0.041 A 
ATOM     75  F   UNL A   1      45.607  31.223  25.692  1.00  0.00    -0.206 F 
ATOM     76  C   UNL A   1      44.231  34.496  26.029  1.00  0.00     0.022 A 
BRANCH  73  77
ATOM     77  S   UNL A   1      42.709  35.789  27.960  1.00  0.00     0.124 S 
ATOM     78  O   UNL A   1      41.701  35.873  26.909  1.00  0.00    -0.237 OA
ATOM     79  O   UNL A   1      42.263  35.245  29.239  1.00  0.00    -0.237 OA
ATOM     80  O   UNL A   1      43.616  36.931  28.050  1.00  0.00    -0.744 OA
ENDBRANCH  73  77
ENDBRANCH  56  70
BRANCH  57  81
ATOM     81  C   UNL A   1      37.121  32.319  31.969  1.00  0.00     0.023 A 
ATOM     82  C   UNL A   1      36.520  32.728  30.756  1.00  0.00     0.031 A 
ATOM     83  C   UNL A   1      36.307  32.372  33.123  1.00  0.00     0.131 A 
ATOM     84  C   UNL A   1      35.169  33.159  30.736  1.00  0.00     0.055 A 
ATOM     85  C   UNL A   1      34.976  32.795  33.096  1.00  0.00     0.041 A 
ATOM     86  F   UNL A   1      36.750  31.927  34.309  1.00  0.00    -0.206 F 
ATOM     87  C   UNL A   1      34.397  33.181  31.899  1.00  0.00     0.022 A 
BRANCH  84  88
ATOM     88  S   UNL A   1      34.357  33.620  29.167  1.00  0.00     0.124 S 
ATOM     89  O   UNL A   1      35.330  34.523  28.566  1.00  0.00    -0.237 OA
ATOM     90  O   UNL A   1      34.177  32.329  28.515  1.00  0.00    -0.237 OA
ATOM     91  O   UNL A   1      33.114  34.261  29.601  1.00  0.00    -0.744 OA
ENDBRANCH  84  88
ENDBRANCH  57  81
BRANCH  69  92
ATOM     92  C   UNL A   1      42.787  30.410  34.054  1.00  0.00     0.023 A 
ATOM     93  C   UNL A   1      42.409  29.050  34.155  1.00  0.00     0.031 A 
ATOM     94  C   UNL A   1      43.209  31.053  35.231  1.00  0.00     0.131 A 
ATOM     95  C   UNL A   1      42.447  28.396  35.404  1.00  0.00     0.055 A 
ATOM     96  C   UNL A   1      43.271  30.396  36.460  1.00  0.00     0.041 A 
ATOM     97  F   UNL A   1      43.603  32.337  35.201  1.00  0.00    -0.206 F 
ATOM     98  C   UNL A   1      42.883  29.065  36.552  1.00  0.00     0.022 A 
BRANCH  95  99
ATOM     99  S   UNL A   1      41.909  26.660  35.569  1.00  0.00     0.124 S 
ATOM    100  O   UNL A   1      41.624  26.524  36.993  1.00  0.00    -0.237 OA
ATOM    101  O   UNL A   1      40.754  26.602  34.677  1.00  0.00    -0.237 OA
ATOM    102  O   UNL A   1      43.072  25.899  35.105  1.00  0.00    -0.744 OA
ENDBRANCH  95  99
ENDBRANCH  69  92
ENDBRANCH  43  44
ENDBRANCH  36  38
ENDBRANCH  35  36
ENDBRANCH  34  35
ENDBRANCH  33  34
ENDBRANCH  32  33
ENDBRANCH  31  32
ENDBRANCH  30  31
ENDBRANCH  29  30
ENDBRANCH  28  29
ENDBRANCH   1  28
TORSDOF 30
ENDMDL
MODEL 3
REMARK VINA RESULT:      -9.1      3.646      9.018
REMARK SMILES Cc1nsc(NC(=O)CC[C@H](C)CC[NH3+])c1C(=O)OCCOCCOCCOCCOC(=O)c1ccc(-c2c3nc(c(-c4cc(S(=O)(=O)[O-])ccc4F)c4ccc([nH]4)c(-c4cc(S(=O)(=O)[O-])ccc4F)c4nc(c(-c5cc(S(=O)(=O)[O-])ccc5F)c5ccc2[nH]5)C=C4)C=C3)cc1
REMARK SMILES IDX 23 1 22 2 21 3 20 4 19 5 17 6 18 7 16 8 1 9 2 10 3 11 4 12
REMARK SMILES IDX 5 13 6 14 7 15 8 17 9 18 10 19 11 20 12 21 13 22 14 23 15 24
REMARK SMILES IDX 24 28 25 29 26 30 27 31 28 32 29 33 30 34 31 35 32 36 33 37
REMARK SMILES IDX 34 38 35 39 96 40 36 41 95 42 37 43 38 44 39 45 89 46 40 47
REMARK SMILES IDX 94 48 88 49 90 50 41 51 93 52 87 53 86 54 42 56 74 57 54 58
REMARK SMILES IDX 73 59 55 60 58 61 72 62 91 63 56 64 57 65 71 67 92 68 59 69
REMARK SMILES IDX 43 70 44 71 52 72 45 73 51 74 53 75 50 76 46 77 47 78 48 79
REMARK SMILES IDX 49 80 75 81 76 82 84 83 77 84 83 85 85 86 82 87 78 88 79 89
REMARK SMILES IDX 80 90 81 91 60 92 61 93 69 94 62 95 68 96 70 97 67 98 63 99
REMARK SMILES IDX 64 100 65 101 66 102
REMARK H PARENT 6 16 15 25 15 26 15 27 90 55 58 66
REMARK Flexibility Score: inf
ROOT
ATOM      1  C   UNL A   1      36.681  23.385  25.433  1.00  0.00     0.188 C 
ENDROOT
BRANCH   1   2
ATOM      2  O   UNL A   1      35.555  23.849  26.163  1.00  0.00    -0.376 OA
BRANCH   2   3
ATOM      3  C   UNL A   1      34.390  24.343  25.535  1.00  0.00     0.202 C 
BRANCH   3   4
ATOM      4  C   UNL A   1      34.465  25.479  24.506  1.00  0.00     0.261 C 
BRANCH   4   5
ATOM      5  O   UNL A   1      34.539  25.105  23.131  1.00  0.00    -0.460 OA
BRANCH   5   6
ATOM      6  C   UNL A   1      33.581  25.598  22.314  1.00  0.00     0.343 C 
ATOM      7  O   UNL A   1      33.800  26.281  21.314  1.00  0.00    -0.246 OA
BRANCH   6   8
ATOM      8  C   UNL A   1      32.243  25.171  22.691  1.00  0.00     0.117 A 
ATOM      9  C   UNL A   1      32.430  22.524  22.653  1.00  0.00     0.069 C 
ATOM     10  C   UNL A   1      31.759  23.828  22.940  1.00  0.00     0.068 A 
ATOM     11  N   UNL A   1      30.541  23.756  23.485  1.00  0.00    -0.195 NA
ATOM     12  S   UNL A   1      29.915  25.279  23.580  1.00  0.00    -0.017 S 
ATOM     13  C   UNL A   1      31.137  26.017  22.664  1.00  0.00     0.130 A 
BRANCH  13  14
ATOM     14  N   UNL A   1      31.016  27.241  22.029  1.00  0.00    -0.316 N 
ATOM     15  C   UNL A   1      30.529  28.446  22.459  1.00  0.00     0.225 C 
ATOM     16  H   UNL A   1      31.339  27.246  21.098  1.00  0.00     0.170 HD
ATOM     17  O   UNL A   1      30.348  29.313  21.593  1.00  0.00    -0.275 OA
BRANCH  15  18
ATOM     18  C   UNL A   1      30.163  28.773  23.896  1.00  0.00     0.101 C 
BRANCH  18  19
ATOM     19  C   UNL A   1      31.034  28.195  25.028  1.00  0.00     0.013 C 
BRANCH  19  20
ATOM     20  C   UNL A   1      31.899  29.187  25.831  1.00  0.00    -0.008 C 
ATOM     21  C   UNL A   1      33.083  29.667  24.988  1.00  0.00     0.008 C 
BRANCH  20  22
ATOM     22  C   UNL A   1      32.397  28.603  27.171  1.00  0.00     0.064 C 
BRANCH  22  23
ATOM     23  C   UNL A   1      33.935  28.561  27.263  1.00  0.00     0.259 C 
BRANCH  23  24
ATOM     24  N   UNL A   1      34.455  29.606  28.140  1.00  0.00    -0.358 N 
ATOM     25  H   UNL A   1      33.693  30.224  28.421  1.00  0.00     0.344 HD
ATOM     26  H   UNL A   1      35.165  30.145  27.643  1.00  0.00     0.344 HD
ATOM     27  H   UNL A   1      34.869  29.179  28.969  1.00  0.00     0.344 HD
ENDBRANCH  23  24
ENDBRANCH  22  23
ENDBRANCH  20  22
ENDBRANCH  19  20
ENDBRANCH  18  19
ENDBRANCH  15  18
ENDBRANCH  13  14
ENDBRANCH   6   8
ENDBRANCH   5   6
ENDBRANCH   4   5
ENDBRANCH   3   4
ENDBRANCH   2   3
ENDBRANCH   1   2
BRANCH   1  28
ATOM     28  C   UNL A   1      36.579  22.430  24.222  1.00  0.00     0.188 C 
BRANCH  28  29
ATOM     29  O   UNL A   1      37.528  21.377  24.224  1.00  0.00    -0.377 OA
BRANCH  29  30
ATOM     30  C   UNL A   1      37.983  20.977  25.521  1.00  0.00     0.188 C 
BRANCH  30  31
ATOM     31  C   UNL A   1      39.422  21.382  25.929  1.00  0.00     0.188 C 
BRANCH  31  32
ATOM     32  O   UNL A   1      40.223  20.279  26.328  1.00  0.00    -0.376 OA
BRANCH  32  33
ATOM     33  C   UNL A   1      41.155  20.369  27.386  1.00  0.00     0.202 C 
BRANCH  33  34
ATOM     34  C   UNL A   1      42.194  21.478  27.306  1.00  0.00     0.261 C 
BRANCH  34  35
ATOM     35  O   UNL A   1      41.680  22.767  27.571  1.00  0.00    -0.460 OA
BRANCH  35  36
ATOM     36  C   UNL A   1      42.238  23.378  28.630  1.00  0.00     0.338 C 
ATOM     37  O   UNL A   1      42.524  22.867  29.707  1.00  0.00    -0.246 OA
BRANCH  36  38
ATOM     38  C   UNL A   1      42.314  24.805  28.334  1.00  0.00     0.060 A 
ATOM     39  C   UNL A   1      43.347  25.517  28.936  1.00  0.00     0.016 A 
ATOM     40  C   UNL A   1      41.191  25.434  27.768  1.00  0.00     0.016 A 
ATOM     41  C   UNL A   1      43.134  26.849  29.191  1.00  0.00     0.010 A 
ATOM     42  C   UNL A   1      40.974  26.759  28.039  1.00  0.00     0.010 A 
ATOM     43  C   UNL A   1      41.904  27.420  28.830  1.00  0.00    -0.014 A 
BRANCH  43  44
ATOM     44  C   UNL A   1      41.661  28.791  29.203  1.00  0.00     0.031 A 
ATOM     45  C   UNL A   1      42.685  29.692  28.650  1.00  0.00     0.074 A 
ATOM     46  C   UNL A   1      40.601  29.195  29.926  1.00  0.00     0.049 A 
ATOM     47  N   UNL A   1      43.684  30.196  29.289  1.00  0.00    -0.248 NA
ATOM     48  C   UNL A   1      42.762  29.848  27.189  1.00  0.00     0.031 C 
ATOM     49  C   UNL A   1      39.418  28.434  30.333  1.00  0.00     0.029 A 
ATOM     50  N   UNL A   1      40.336  30.441  30.397  1.00  0.00    -0.354 N 
ATOM     51  C   UNL A   1      44.365  30.960  28.359  1.00  0.00     0.074 A 
ATOM     52  C   UNL A   1      43.908  30.518  27.069  1.00  0.00     0.031 C 
ATOM     53  C   UNL A   1      38.474  29.292  30.792  1.00  0.00     0.029 A 
ATOM     54  C   UNL A   1      39.034  30.634  30.841  1.00  0.00     0.049 A 
ATOM     55  H   UNL A   1      41.017  31.153  30.422  1.00  0.00     0.167 HD
ATOM     56  C   UNL A   1      45.030  32.080  28.747  1.00  0.00     0.034 A 
ATOM     57  C   UNL A   1      38.460  31.825  31.171  1.00  0.00     0.034 A 
ATOM     58  C   UNL A   1      45.246  32.085  30.177  1.00  0.00     0.049 A 
ATOM     59  C   UNL A   1      39.572  32.750  31.520  1.00  0.00     0.074 A 
ATOM     60  C   UNL A   1      45.891  31.235  31.057  1.00  0.00     0.029 A 
ATOM     61  N   UNL A   1      44.408  32.854  30.955  1.00  0.00    -0.354 N 
ATOM     62  N   UNL A   1      40.336  32.574  32.563  1.00  0.00    -0.248 NA
ATOM     63  C   UNL A   1      40.162  33.549  30.455  1.00  0.00     0.031 C 
ATOM     64  C   UNL A   1      45.055  31.195  32.213  1.00  0.00     0.029 A 
ATOM     65  C   UNL A   1      43.997  32.085  32.020  1.00  0.00     0.049 A 
ATOM     66  H   UNL A   1      44.148  33.787  30.780  1.00  0.00     0.167 HD
ATOM     67  C   UNL A   1      41.623  32.837  32.117  1.00  0.00     0.074 A 
ATOM     68  C   UNL A   1      41.444  33.524  30.838  1.00  0.00     0.031 C 
ATOM     69  C   UNL A   1      42.708  32.222  32.677  1.00  0.00     0.034 A 
BRANCH  56  70
ATOM     70  C   UNL A   1      45.129  33.328  27.906  1.00  0.00     0.023 A 
ATOM     71  C   UNL A   1      44.266  34.387  28.235  1.00  0.00     0.031 A 
ATOM     72  C   UNL A   1      45.789  33.431  26.660  1.00  0.00     0.131 A 
ATOM     73  C   UNL A   1      44.016  35.419  27.318  1.00  0.00     0.055 A 
ATOM     74  C   UNL A   1      45.591  34.499  25.781  1.00  0.00     0.041 A 
ATOM     75  F   UNL A   1      46.581  32.471  26.169  1.00  0.00    -0.206 F 
ATOM     76  C   UNL A   1      44.675  35.485  26.093  1.00  0.00     0.022 A 
BRANCH  73  77
ATOM     77  S   UNL A   1      42.676  36.576  27.685  1.00  0.00     0.124 S 
ATOM     78  O   UNL A   1      41.508  35.818  27.251  1.00  0.00    -0.237 OA
ATOM     79  O   UNL A   1      42.827  36.763  29.124  1.00  0.00    -0.237 OA
ATOM     80  O   UNL A   1      43.004  37.742  26.867  1.00  0.00    -0.744 OA
ENDBRANCH  73  77
ENDBRANCH  56  70
BRANCH  57  81
ATOM     81  C   UNL A   1      37.079  32.288  30.839  1.00  0.00     0.023 A 
ATOM     82  C   UNL A   1      36.219  32.892  31.785  1.00  0.00     0.031 A 
ATOM     83  C   UNL A   1      36.681  32.368  29.486  1.00  0.00     0.131 A 
ATOM     84  C   UNL A   1      35.030  33.539  31.360  1.00  0.00     0.055 A 
ATOM     85  C   UNL A   1      35.510  33.008  29.073  1.00  0.00     0.041 A 
ATOM     86  F   UNL A   1      37.464  31.902  28.501  1.00  0.00    -0.206 F 
ATOM     87  C   UNL A   1      34.683  33.606  30.009  1.00  0.00     0.022 A 
BRANCH  84  88
ATOM     88  S   UNL A   1      33.947  34.388  32.560  1.00  0.00     0.124 S 
ATOM     89  O   UNL A   1      34.893  35.209  33.306  1.00  0.00    -0.237 OA
ATOM     90  O   UNL A   1      33.012  35.096  31.694  1.00  0.00    -0.237 OA
ATOM     91  O   UNL A   1      33.356  33.289  33.324  1.00  0.00    -0.744 OA
ENDBRANCH  84  88
ENDBRANCH  57  81
BRANCH  69  92
ATOM     92  C   UNL A   1      42.515  31.468  33.984  1.00  0.00     0.023 A 
ATOM     93  C   UNL A   1      42.268  30.079  34.098  1.00  0.00     0.031 A 
ATOM     94  C   UNL A   1      42.698  32.193  35.174  1.00  0.00     0.131 A 
ATOM     95  C   UNL A   1      42.198  29.476  35.371  1.00  0.00     0.055 A 
ATOM     96  C   UNL A   1      42.654  31.589  36.430  1.00  0.00     0.041 A 
ATOM     97  F   UNL A   1      42.958  33.511  35.136  1.00  0.00    -0.206 F 
ATOM     98  C   UNL A   1      42.397  30.227  36.534  1.00  0.00     0.022 A 
BRANCH  95  99
ATOM     99  S   UNL A   1      41.824  27.699  35.545  1.00  0.00     0.124 S 
ATOM    100  O   UNL A   1      41.028  27.635  36.765  1.00  0.00    -0.237 OA
ATOM    101  O   UNL A   1      41.117  27.402  34.303  1.00  0.00    -0.237 OA
ATOM    102  O   UNL A   1      43.149  27.082  35.650  1.00  0.00    -0.744 OA
ENDBRANCH  95  99
ENDBRANCH  69  92
ENDBRANCH  43  44
ENDBRANCH  36  38
ENDBRANCH  35  36
ENDBRANCH  34  35
ENDBRANCH  33  34
ENDBRANCH  32  33
ENDBRANCH  31  32
ENDBRANCH  30  31
ENDBRANCH  29  30
ENDBRANCH  28  29
ENDBRANCH   1  28
TORSDOF 30
ENDMDL
