MODEL 1
REMARK VINA RESULT:      -9.5      0.000      0.000
REMARK SMILES O=C(N[C@H](C(=O)OCCOCCOCCOCCOC(=O)c1ccc(-c2c3nc(c(-c4cc(S(=O)(=O)[O-])ccc4F)c4ccc([nH]4)c(-c4cc(S(=O)(=O)[O-])ccc4F)c4nc(c(-c5cc(S(=O)(=O)[O-])ccc5F)c5ccc2[nH]5)C=C4)C=C3)cc1)c1ccccc1F)c1ccc(C[NH+]2CCCCC2)cc1
REMARK SMILES IDX 12 1 11 2 10 3 9 4 8 5 7 6 5 7 6 8 4 9 3 10 1 11 2 12 92 14
REMARK SMILES IDX 93 15 104 16 94 17 103 18 95 19 96 20 97 21 98 22 102 23
REMARK SMILES IDX 99 25 101 26 100 27 85 28 86 29 90 30 87 31 89 32 91 33
REMARK SMILES IDX 88 34 13 35 14 36 15 37 16 38 17 39 18 40 19 41 20 42 21 43
REMARK SMILES IDX 22 44 23 45 84 46 24 47 83 48 25 49 26 50 27 51 77 52 28 53
REMARK SMILES IDX 82 54 76 55 78 56 29 57 81 58 75 59 74 60 30 62 62 63 42 64
REMARK SMILES IDX 61 65 43 66 46 67 60 68 79 69 44 70 45 71 59 73 80 74 47 75
REMARK SMILES IDX 31 76 32 77 40 78 33 79 39 80 41 81 38 82 34 83 35 84 36 85
REMARK SMILES IDX 37 86 63 87 64 88 72 89 65 90 71 91 73 92 70 93 66 94 67 95
REMARK SMILES IDX 68 96 69 97 48 98 49 99 57 100 50 101 56 102 58 103 55 104
REMARK SMILES IDX 51 105 52 106 53 107 54 108
REMARK H PARENT 3 13 97 24 78 61 46 72
REMARK Flexibility Score: inf
ROOT
ATOM      1  C   UNL A   1      39.392  22.150  26.321  1.00  0.00     0.188 C 
ENDROOT
BRANCH   1   2
ATOM      2  C   UNL A   1      38.197  23.038  25.906  1.00  0.00     0.188 C 
BRANCH   2   3
ATOM      3  O   UNL A   1      36.997  22.330  25.626  1.00  0.00    -0.376 OA
BRANCH   3   4
ATOM      4  C   UNL A   1      36.716  22.025  24.269  1.00  0.00     0.202 C 
BRANCH   4   5
ATOM      5  C   UNL A   1      36.247  23.202  23.400  1.00  0.00     0.261 C 
BRANCH   5   6
ATOM      6  O   UNL A   1      34.986  23.013  22.723  1.00  0.00    -0.461 OA
BRANCH   6   7
ATOM      7  C   UNL A   1      34.019  23.939  22.961  1.00  0.00     0.333 C 
ATOM      8  O   UNL A   1      34.103  25.083  22.535  1.00  0.00    -0.249 OA
BRANCH   7   9
ATOM      9  C   UNL A   1      32.890  23.392  23.866  1.00  0.00     0.226 C 
BRANCH   9  10
ATOM     10  N   UNL A   1      31.598  23.916  23.362  1.00  0.00    -0.335 N 
ATOM     11  O   UNL A   1      29.637  25.010  23.319  1.00  0.00    -0.269 OA
ATOM     12  C   UNL A   1      30.795  24.977  23.731  1.00  0.00     0.252 C 
ATOM     13  H   UNL A   1      31.237  23.398  22.607  1.00  0.00     0.165 HD
BRANCH  12  14
ATOM     14  C   UNL A   1      31.282  26.114  24.540  1.00  0.00     0.039 A 
ATOM     15  C   UNL A   1      31.584  25.888  25.886  1.00  0.00     0.014 A 
ATOM     16  C   UNL A   1      31.458  27.395  24.006  1.00  0.00     0.014 A 
ATOM     17  C   UNL A   1      31.860  26.973  26.732  1.00  0.00     0.010 A 
ATOM     18  C   UNL A   1      31.720  28.482  24.858  1.00  0.00     0.010 A 
ATOM     19  C   UNL A   1      31.855  28.295  26.243  1.00  0.00     0.006 A 
BRANCH  19  20
ATOM     20  C   UNL A   1      32.006  29.474  27.192  1.00  0.00     0.299 C 
BRANCH  20  21
ATOM     21  N   UNL A   1      33.353  29.897  27.625  1.00  0.00    -0.331 N 
ATOM     22  C   UNL A   1      34.456  29.128  27.044  1.00  0.00     0.262 C 
ATOM     23  C   UNL A   1      33.610  31.331  27.509  1.00  0.00     0.262 C 
ATOM     24  H   UNL A   1      33.330  29.678  28.622  1.00  0.00     0.348 HD
ATOM     25  C   UNL A   1      35.765  29.436  27.786  1.00  0.00     0.062 C 
ATOM     26  C   UNL A   1      34.891  31.750  28.238  1.00  0.00     0.062 C 
ATOM     27  C   UNL A   1      36.083  30.925  27.772  1.00  0.00     0.012 C 
ENDBRANCH  20  21
ENDBRANCH  19  20
ENDBRANCH  12  14
ENDBRANCH   9  10
BRANCH   9  28
ATOM     28  C   UNL A   1      32.874  21.940  24.344  1.00  0.00     0.021 A 
ATOM     29  C   UNL A   1      32.471  20.868  23.523  1.00  0.00     0.009 A 
ATOM     30  C   UNL A   1      33.262  21.575  25.622  1.00  0.00     0.129 A 
ATOM     31  C   UNL A   1      32.567  19.526  23.954  1.00  0.00     0.001 A 
ATOM     32  C   UNL A   1      33.513  20.256  26.007  1.00  0.00     0.039 A 
ATOM     33  F   UNL A   1      33.255  22.503  26.573  1.00  0.00    -0.207 F 
ATOM     34  C   UNL A   1      33.154  19.216  25.174  1.00  0.00     0.003 A 
ENDBRANCH   9  28
ENDBRANCH   7   9
ENDBRANCH   6   7
ENDBRANCH   5   6
ENDBRANCH   4   5
ENDBRANCH   3   4
ENDBRANCH   2   3
ENDBRANCH   1   2
BRANCH   1  35
ATOM     35  O   UNL A   1      39.486  20.796  25.923  1.00  0.00    -0.377 OA
BRANCH  35  36
ATOM     36  C   UNL A   1      40.475  20.019  26.561  1.00  0.00     0.188 C 
BRANCH  36  37
ATOM     37  C   UNL A   1      41.895  20.517  26.255  1.00  0.00     0.188 C 
BRANCH  37  38
ATOM     38  O   UNL A   1      42.596  19.879  25.205  1.00  0.00    -0.376 OA
BRANCH  38  39
ATOM     39  C   UNL A   1      43.934  19.420  25.296  1.00  0.00     0.202 C 
BRANCH  39  40
ATOM     40  C   UNL A   1      45.202  20.031  24.678  1.00  0.00     0.261 C 
BRANCH  40  41
ATOM     41  O   UNL A   1      45.557  21.363  24.996  1.00  0.00    -0.460 OA
BRANCH  41  42
ATOM     42  C   UNL A   1      44.871  22.353  24.382  1.00  0.00     0.338 C 
ATOM     43  O   UNL A   1      44.388  22.346  23.280  1.00  0.00    -0.246 OA
BRANCH  42  44
ATOM     44  C   UNL A   1      44.678  23.365  25.442  1.00  0.00     0.060 A 
ATOM     45  C   UNL A   1      44.666  24.726  25.109  1.00  0.00     0.016 A 
ATOM     46  C   UNL A   1      44.387  22.936  26.740  1.00  0.00     0.016 A 
ATOM     47  C   UNL A   1      44.356  25.672  26.084  1.00  0.00     0.010 A 
ATOM     48  C   UNL A   1      44.127  23.880  27.722  1.00  0.00     0.010 A 
ATOM     49  C   UNL A   1      44.141  25.248  27.400  1.00  0.00    -0.014 A 
BRANCH  49  50
ATOM     50  C   UNL A   1      44.251  26.207  28.513  1.00  0.00     0.031 A 
ATOM     51  C   UNL A   1      45.551  26.206  29.262  1.00  0.00     0.074 A 
ATOM     52  C   UNL A   1      43.219  26.981  28.884  1.00  0.00     0.049 A 
ATOM     53  N   UNL A   1      45.851  26.754  30.406  1.00  0.00    -0.248 NA
ATOM     54  C   UNL A   1      46.655  25.455  28.638  1.00  0.00     0.031 C 
ATOM     55  C   UNL A   1      41.945  27.094  28.179  1.00  0.00     0.029 A 
ATOM     56  N   UNL A   1      43.079  27.798  29.975  1.00  0.00    -0.354 N 
ATOM     57  C   UNL A   1      47.174  26.401  30.646  1.00  0.00     0.074 A 
ATOM     58  C   UNL A   1      47.604  25.563  29.550  1.00  0.00     0.031 C 
ATOM     59  C   UNL A   1      41.137  27.916  28.873  1.00  0.00     0.029 A 
ATOM     60  C   UNL A   1      41.819  28.335  30.097  1.00  0.00     0.049 A 
ATOM     61  H   UNL A   1      43.808  27.983  30.609  1.00  0.00     0.167 HD
ATOM     62  C   UNL A   1      47.957  26.750  31.694  1.00  0.00     0.034 A 
ATOM     63  C   UNL A   1      41.279  29.041  31.111  1.00  0.00     0.034 A 
ATOM     64  C   UNL A   1      47.484  27.557  32.786  1.00  0.00     0.049 A 
ATOM     65  C   UNL A   1      42.134  29.323  32.329  1.00  0.00     0.074 A 
ATOM     66  C   UNL A   1      48.167  27.964  33.916  1.00  0.00     0.029 A 
ATOM     67  N   UNL A   1      46.197  28.072  32.886  1.00  0.00    -0.354 N 
ATOM     68  N   UNL A   1      43.378  28.971  32.567  1.00  0.00    -0.248 NA
ATOM     69  C   UNL A   1      41.515  30.097  33.414  1.00  0.00     0.031 C 
ATOM     70  C   UNL A   1      47.273  28.661  34.733  1.00  0.00     0.029 A 
ATOM     71  C   UNL A   1      46.060  28.772  34.070  1.00  0.00     0.049 A 
ATOM     72  H   UNL A   1      45.487  27.952  32.214  1.00  0.00     0.167 HD
ATOM     73  C   UNL A   1      43.704  29.528  33.802  1.00  0.00     0.074 A 
ATOM     74  C   UNL A   1      42.524  30.230  34.262  1.00  0.00     0.031 C 
ATOM     75  C   UNL A   1      44.873  29.480  34.490  1.00  0.00     0.034 A 
BRANCH  62  76
ATOM     76  C   UNL A   1      49.361  26.205  31.717  1.00  0.00     0.023 A 
ATOM     77  C   UNL A   1      50.395  26.801  30.974  1.00  0.00     0.031 A 
ATOM     78  C   UNL A   1      49.661  25.043  32.450  1.00  0.00     0.131 A 
ATOM     79  C   UNL A   1      51.657  26.194  30.920  1.00  0.00     0.055 A 
ATOM     80  C   UNL A   1      50.943  24.494  32.463  1.00  0.00     0.041 A 
ATOM     81  F   UNL A   1      48.706  24.409  33.149  1.00  0.00    -0.206 F 
ATOM     82  C   UNL A   1      51.947  25.061  31.683  1.00  0.00     0.022 A 
BRANCH  79  83
ATOM     83  S   UNL A   1      52.865  26.817  29.719  1.00  0.00     0.124 S 
ATOM     84  O   UNL A   1      52.789  28.258  29.947  1.00  0.00    -0.237 OA
ATOM     85  O   UNL A   1      54.099  26.168  30.146  1.00  0.00    -0.237 OA
ATOM     86  O   UNL A   1      52.334  26.367  28.434  1.00  0.00    -0.744 OA
ENDBRANCH  79  83
ENDBRANCH  62  76
BRANCH  63  87
ATOM     87  C   UNL A   1      39.861  29.497  31.055  1.00  0.00     0.023 A 
ATOM     88  C   UNL A   1      39.549  30.830  30.742  1.00  0.00     0.031 A 
ATOM     89  C   UNL A   1      38.799  28.633  31.377  1.00  0.00     0.131 A 
ATOM     90  C   UNL A   1      38.221  31.276  30.817  1.00  0.00     0.055 A 
ATOM     91  C   UNL A   1      37.470  29.066  31.387  1.00  0.00     0.041 A 
ATOM     92  F   UNL A   1      39.035  27.349  31.688  1.00  0.00    -0.206 F 
ATOM     93  C   UNL A   1      37.177  30.400  31.122  1.00  0.00     0.022 A 
BRANCH  90  94
ATOM     94  S   UNL A   1      37.893  33.049  30.623  1.00  0.00     0.124 S 
ATOM     95  O   UNL A   1      36.483  33.129  30.986  1.00  0.00    -0.237 OA
ATOM     96  O   UNL A   1      38.835  33.635  31.570  1.00  0.00    -0.237 OA
ATOM     97  O   UNL A   1      38.191  33.296  29.214  1.00  0.00    -0.744 OA
ENDBRANCH  90  94
ENDBRANCH  63  87
BRANCH  75  98
ATOM     98  C   UNL A   1      44.972  30.286  35.761  1.00  0.00     0.023 A 
ATOM     99  C   UNL A   1      45.373  31.631  35.769  1.00  0.00     0.031 A 
ATOM    100  C   UNL A   1      44.602  29.694  36.983  1.00  0.00     0.131 A 
ATOM    101  C   UNL A   1      45.424  32.333  36.983  1.00  0.00     0.055 A 
ATOM    102  C   UNL A   1      44.598  30.414  38.177  1.00  0.00     0.041 A 
ATOM    103  F   UNL A   1      44.212  28.410  37.031  1.00  0.00    -0.206 F 
ATOM    104  C   UNL A   1      45.018  31.740  38.182  1.00  0.00     0.022 A 
BRANCH 101 105
ATOM    105  S   UNL A   1      46.088  34.021  36.988  1.00  0.00     0.124 S 
ATOM    106  O   UNL A   1      47.371  33.845  36.316  1.00  0.00    -0.237 OA
ATOM    107  O   UNL A   1      45.074  34.759  36.243  1.00  0.00    -0.237 OA
ATOM    108  O   UNL A   1      46.172  34.351  38.411  1.00  0.00    -0.744 OA
ENDBRANCH 101 105
ENDBRANCH  75  98
ENDBRANCH  49  50
ENDBRANCH  42  44
ENDBRANCH  41  42
ENDBRANCH  40  41
ENDBRANCH  39  40
ENDBRANCH  38  39
ENDBRANCH  37  38
ENDBRANCH  36  37
ENDBRANCH  35  36
ENDBRANCH   1  35
TORSDOF 28
ENDMDL
MODEL 2
REMARK VINA RESULT:      -9.0      4.308      5.695
REMARK SMILES O=C(N[C@H](C(=O)OCCOCCOCCOCCOC(=O)c1ccc(-c2c3nc(c(-c4cc(S(=O)(=O)[O-])ccc4F)c4ccc([nH]4)c(-c4cc(S(=O)(=O)[O-])ccc4F)c4nc(c(-c5cc(S(=O)(=O)[O-])ccc5F)c5ccc2[nH]5)C=C4)C=C3)cc1)c1ccccc1F)c1ccc(C[NH+]2CCCCC2)cc1
REMARK SMILES IDX 12 1 11 2 10 3 9 4 8 5 7 6 5 7 6 8 4 9 3 10 1 11 2 12 92 14
REMARK SMILES IDX 93 15 104 16 94 17 103 18 95 19 96 20 97 21 98 22 102 23
REMARK SMILES IDX 99 25 101 26 100 27 85 28 86 29 90 30 87 31 89 32 91 33
REMARK SMILES IDX 88 34 13 35 14 36 15 37 16 38 17 39 18 40 19 41 20 42 21 43
REMARK SMILES IDX 22 44 23 45 84 46 24 47 83 48 25 49 26 50 27 51 77 52 28 53
REMARK SMILES IDX 82 54 76 55 78 56 29 57 81 58 75 59 74 60 30 62 62 63 42 64
REMARK SMILES IDX 61 65 43 66 46 67 60 68 79 69 44 70 45 71 59 73 80 74 47 75
REMARK SMILES IDX 31 76 32 77 40 78 33 79 39 80 41 81 38 82 34 83 35 84 36 85
REMARK SMILES IDX 37 86 63 87 64 88 72 89 65 90 71 91 73 92 70 93 66 94 67 95
REMARK SMILES IDX 68 96 69 97 48 98 49 99 57 100 50 101 56 102 58 103 55 104
REMARK SMILES IDX 51 105 52 106 53 107 54 108
REMARK H PARENT 3 13 97 24 78 61 46 72
REMARK Flexibility Score: inf
ROOT
ATOM      1  C   UNL A   1      38.437  23.437  26.282  1.00  0.00     0.188 C 
ENDROOT
BRANCH   1   2
ATOM      2  C   UNL A   1      37.098  23.799  25.601  1.00  0.00     0.188 C 
BRANCH   2   3
ATOM      3  O   UNL A   1      36.173  22.726  25.498  1.00  0.00    -0.376 OA
BRANCH   3   4
ATOM      4  C   UNL A   1      35.981  22.145  24.218  1.00  0.00     0.202 C 
BRANCH   4   5
ATOM      5  C   UNL A   1      35.442  23.086  23.129  1.00  0.00     0.261 C 
BRANCH   5   6
ATOM      6  O   UNL A   1      34.070  22.865  22.737  1.00  0.00    -0.461 OA
BRANCH   6   7
ATOM      7  C   UNL A   1      33.367  23.956  22.333  1.00  0.00     0.333 C 
ATOM      8  O   UNL A   1      33.347  24.314  21.163  1.00  0.00    -0.249 OA
BRANCH   7   9
ATOM      9  C   UNL A   1      32.689  24.690  23.514  1.00  0.00     0.226 C 
BRANCH   9  10
ATOM     10  N   UNL A   1      31.664  25.608  22.962  1.00  0.00    -0.335 N 
ATOM     11  O   UNL A   1      30.119  27.236  22.869  1.00  0.00    -0.269 OA
ATOM     12  C   UNL A   1      31.168  26.831  23.366  1.00  0.00     0.252 C 
ATOM     13  H   UNL A   1      31.250  25.274  22.133  1.00  0.00     0.165 HD
BRANCH  12  14
ATOM     14  C   UNL A   1      31.876  27.713  24.318  1.00  0.00     0.039 A 
ATOM     15  C   UNL A   1      31.560  27.611  25.676  1.00  0.00     0.014 A 
ATOM     16  C   UNL A   1      32.848  28.632  23.910  1.00  0.00     0.014 A 
ATOM     17  C   UNL A   1      32.062  28.558  26.583  1.00  0.00     0.010 A 
ATOM     18  C   UNL A   1      33.338  29.588  24.817  1.00  0.00     0.010 A 
ATOM     19  C   UNL A   1      32.897  29.607  26.150  1.00  0.00     0.006 A 
BRANCH  19  20
ATOM     20  C   UNL A   1      33.314  30.713  27.108  1.00  0.00     0.299 C 
BRANCH  20  21
ATOM     21  N   UNL A   1      34.741  30.895  27.439  1.00  0.00    -0.331 N 
ATOM     22  C   UNL A   1      35.004  31.824  28.541  1.00  0.00     0.262 C 
ATOM     23  C   UNL A   1      35.489  29.654  27.626  1.00  0.00     0.262 C 
ATOM     24  H   UNL A   1      35.098  31.333  26.589  1.00  0.00     0.348 HD
ATOM     25  C   UNL A   1      36.498  32.175  28.594  1.00  0.00     0.062 C 
ATOM     26  C   UNL A   1      37.003  29.891  27.671  1.00  0.00     0.062 C 
ATOM     27  C   UNL A   1      37.364  30.929  28.724  1.00  0.00     0.012 C 
ENDBRANCH  20  21
ENDBRANCH  19  20
ENDBRANCH  12  14
ENDBRANCH   9  10
BRANCH   9  28
ATOM     28  C   UNL A   1      32.299  23.959  24.798  1.00  0.00     0.021 A 
ATOM     29  C   UNL A   1      33.035  24.067  25.996  1.00  0.00     0.009 A 
ATOM     30  C   UNL A   1      31.186  23.138  24.877  1.00  0.00     0.129 A 
ATOM     31  C   UNL A   1      32.592  23.466  27.195  1.00  0.00     0.001 A 
ATOM     32  C   UNL A   1      30.652  22.673  26.080  1.00  0.00     0.039 A 
ATOM     33  F   UNL A   1      30.683  22.648  23.749  1.00  0.00    -0.207 F 
ATOM     34  C   UNL A   1      31.362  22.824  27.252  1.00  0.00     0.003 A 
ENDBRANCH   9  28
ENDBRANCH   7   9
ENDBRANCH   6   7
ENDBRANCH   5   6
ENDBRANCH   4   5
ENDBRANCH   3   4
ENDBRANCH   2   3
ENDBRANCH   1   2
BRANCH   1  35
ATOM     35  O   UNL A   1      39.129  22.242  25.974  1.00  0.00    -0.377 OA
BRANCH  35  36
ATOM     36  C   UNL A   1      40.248  21.937  26.777  1.00  0.00     0.188 C 
BRANCH  36  37
ATOM     37  C   UNL A   1      41.518  22.661  26.307  1.00  0.00     0.188 C 
BRANCH  37  38
ATOM     38  O   UNL A   1      42.359  21.975  25.400  1.00  0.00    -0.376 OA
BRANCH  38  39
ATOM     39  C   UNL A   1      43.444  21.145  25.780  1.00  0.00     0.202 C 
BRANCH  39  40
ATOM     40  C   UNL A   1      44.889  21.154  25.256  1.00  0.00     0.261 C 
BRANCH  40  41
ATOM     41  O   UNL A   1      45.815  22.082  25.787  1.00  0.00    -0.460 OA
BRANCH  41  42
ATOM     42  C   UNL A   1      45.985  23.244  25.117  1.00  0.00     0.338 C 
ATOM     43  O   UNL A   1      46.098  23.405  23.930  1.00  0.00    -0.246 OA
BRANCH  42  44
ATOM     44  C   UNL A   1      45.802  24.283  26.153  1.00  0.00     0.060 A 
ATOM     45  C   UNL A   1      44.561  24.921  26.285  1.00  0.00     0.016 A 
ATOM     46  C   UNL A   1      46.836  24.520  27.062  1.00  0.00     0.016 A 
ATOM     47  C   UNL A   1      44.348  25.804  27.340  1.00  0.00     0.010 A 
ATOM     48  C   UNL A   1      46.641  25.436  28.085  1.00  0.00     0.010 A 
ATOM     49  C   UNL A   1      45.407  26.099  28.205  1.00  0.00    -0.014 A 
BRANCH  49  50
ATOM     50  C   UNL A   1      45.370  27.318  29.032  1.00  0.00     0.031 A 
ATOM     51  C   UNL A   1      44.887  27.147  30.442  1.00  0.00     0.074 A 
ATOM     52  C   UNL A   1      45.675  28.525  28.529  1.00  0.00     0.049 A 
ATOM     53  N   UNL A   1      44.527  28.049  31.313  1.00  0.00    -0.248 NA
ATOM     54  C   UNL A   1      44.769  25.758  30.920  1.00  0.00     0.031 C 
ATOM     55  C   UNL A   1      46.212  28.777  27.194  1.00  0.00     0.029 A 
ATOM     56  N   UNL A   1      45.543  29.770  29.084  1.00  0.00    -0.354 N 
ATOM     57  C   UNL A   1      44.126  27.334  32.437  1.00  0.00     0.074 A 
ATOM     58  C   UNL A   1      44.251  25.929  32.124  1.00  0.00     0.031 C 
ATOM     59  C   UNL A   1      46.339  30.105  27.023  1.00  0.00     0.029 A 
ATOM     60  C   UNL A   1      45.836  30.791  28.212  1.00  0.00     0.049 A 
ATOM     61  H   UNL A   1      45.264  29.919  30.016  1.00  0.00     0.167 HD
ATOM     62  C   UNL A   1      43.693  27.817  33.624  1.00  0.00     0.034 A 
ATOM     63  C   UNL A   1      45.667  32.121  28.356  1.00  0.00     0.034 A 
ATOM     64  C   UNL A   1      43.547  29.223  33.889  1.00  0.00     0.049 A 
ATOM     65  C   UNL A   1      45.071  32.636  29.649  1.00  0.00     0.074 A 
ATOM     66  C   UNL A   1      43.099  29.842  35.040  1.00  0.00     0.029 A 
ATOM     67  N   UNL A   1      43.838  30.231  32.977  1.00  0.00    -0.354 N 
ATOM     68  N   UNL A   1      44.671  31.961  30.704  1.00  0.00    -0.248 NA
ATOM     69  C   UNL A   1      44.903  34.091  29.773  1.00  0.00     0.031 C 
ATOM     70  C   UNL A   1      43.049  31.217  34.800  1.00  0.00     0.029 A 
ATOM     71  C   UNL A   1      43.557  31.464  33.532  1.00  0.00     0.049 A 
ATOM     72  H   UNL A   1      44.190  30.086  32.069  1.00  0.00     0.167 HD
ATOM     73  C   UNL A   1      44.257  32.913  31.634  1.00  0.00     0.074 A 
ATOM     74  C   UNL A   1      44.447  34.207  31.012  1.00  0.00     0.031 C 
ATOM     75  C   UNL A   1      43.779  32.741  32.892  1.00  0.00     0.034 A 
BRANCH  62  76
ATOM     76  C   UNL A   1      43.297  26.811  34.674  1.00  0.00     0.023 A 
ATOM     77  C   UNL A   1      44.257  26.158  35.467  1.00  0.00     0.031 A 
ATOM     78  C   UNL A   1      41.947  26.461  34.851  1.00  0.00     0.131 A 
ATOM     79  C   UNL A   1      43.862  25.138  36.344  1.00  0.00     0.055 A 
ATOM     80  C   UNL A   1      41.553  25.508  35.790  1.00  0.00     0.041 A 
ATOM     81  F   UNL A   1      40.990  27.024  34.097  1.00  0.00    -0.206 F 
ATOM     82  C   UNL A   1      42.514  24.829  36.533  1.00  0.00     0.022 A 
BRANCH  79  83
ATOM     83  S   UNL A   1      45.148  24.118  37.117  1.00  0.00     0.124 S 
ATOM     84  O   UNL A   1      46.363  24.822  36.714  1.00  0.00    -0.237 OA
ATOM     85  O   UNL A   1      44.805  24.197  38.532  1.00  0.00    -0.237 OA
ATOM     86  O   UNL A   1      44.962  22.807  36.500  1.00  0.00    -0.744 OA
ENDBRANCH  79  83
ENDBRANCH  62  76
BRANCH  63  87
ATOM     87  C   UNL A   1      46.019  33.060  27.253  1.00  0.00     0.023 A 
ATOM     88  C   UNL A   1      47.347  33.476  27.063  1.00  0.00     0.031 A 
ATOM     89  C   UNL A   1      45.033  33.611  26.415  1.00  0.00     0.131 A 
ATOM     90  C   UNL A   1      47.643  34.456  26.103  1.00  0.00     0.055 A 
ATOM     91  C   UNL A   1      45.343  34.539  25.418  1.00  0.00     0.041 A 
ATOM     92  F   UNL A   1      43.746  33.254  26.552  1.00  0.00    -0.206 F 
ATOM     93  C   UNL A   1      46.654  34.979  25.269  1.00  0.00     0.022 A 
BRANCH  90  94
ATOM     94  S   UNL A   1      49.329  35.122  26.044  1.00  0.00     0.124 S 
ATOM     95  O   UNL A   1      49.077  36.559  26.013  1.00  0.00    -0.237 OA
ATOM     96  O   UNL A   1      49.904  34.597  27.277  1.00  0.00    -0.237 OA
ATOM     97  O   UNL A   1      49.874  34.557  24.811  1.00  0.00    -0.744 OA
ENDBRANCH  90  94
ENDBRANCH  63  87
BRANCH  75  98
ATOM     98  C   UNL A   1      43.520  33.975  33.719  1.00  0.00     0.023 A 
ATOM     99  C   UNL A   1      44.509  34.556  34.530  1.00  0.00     0.031 A 
ATOM    100  C   UNL A   1      42.264  34.604  33.646  1.00  0.00     0.131 A 
ATOM    101  C   UNL A   1      44.213  35.718  35.259  1.00  0.00     0.055 A 
ATOM    102  C   UNL A   1      41.996  35.791  34.326  1.00  0.00     0.041 A 
ATOM    103  F   UNL A   1      41.285  34.089  32.886  1.00  0.00    -0.206 F 
ATOM    104  C   UNL A   1      42.971  36.350  35.145  1.00  0.00     0.022 A 
BRANCH 101 105
ATOM    105  S   UNL A   1      45.454  36.365  36.412  1.00  0.00     0.124 S 
ATOM    106  O   UNL A   1      46.419  36.978  35.506  1.00  0.00    -0.237 OA
ATOM    107  O   UNL A   1      44.674  37.286  37.230  1.00  0.00    -0.237 OA
ATOM    108  O   UNL A   1      45.930  35.170  37.108  1.00  0.00    -0.744 OA
ENDBRANCH 101 105
ENDBRANCH  75  98
ENDBRANCH  49  50
ENDBRANCH  42  44
ENDBRANCH  41  42
ENDBRANCH  40  41
ENDBRANCH  39  40
ENDBRANCH  38  39
ENDBRANCH  37  38
ENDBRANCH  36  37
ENDBRANCH  35  36
ENDBRANCH   1  35
TORSDOF 28
ENDMDL
MODEL 3
REMARK VINA RESULT:      -8.1      6.339     14.077
REMARK SMILES O=C(N[C@H](C(=O)OCCOCCOCCOCCOC(=O)c1ccc(-c2c3nc(c(-c4cc(S(=O)(=O)[O-])ccc4F)c4ccc([nH]4)c(-c4cc(S(=O)(=O)[O-])ccc4F)c4nc(c(-c5cc(S(=O)(=O)[O-])ccc5F)c5ccc2[nH]5)C=C4)C=C3)cc1)c1ccccc1F)c1ccc(C[NH+]2CCCCC2)cc1
REMARK SMILES IDX 12 1 11 2 10 3 9 4 8 5 7 6 5 7 6 8 4 9 3 10 1 11 2 12 92 14
REMARK SMILES IDX 93 15 104 16 94 17 103 18 95 19 96 20 97 21 98 22 102 23
REMARK SMILES IDX 99 25 101 26 100 27 85 28 86 29 90 30 87 31 89 32 91 33
REMARK SMILES IDX 88 34 13 35 14 36 15 37 16 38 17 39 18 40 19 41 20 42 21 43
REMARK SMILES IDX 22 44 23 45 84 46 24 47 83 48 25 49 26 50 27 51 77 52 28 53
REMARK SMILES IDX 82 54 76 55 78 56 29 57 81 58 75 59 74 60 30 62 62 63 42 64
REMARK SMILES IDX 61 65 43 66 46 67 60 68 79 69 44 70 45 71 59 73 80 74 47 75
REMARK SMILES IDX 31 76 32 77 40 78 33 79 39 80 41 81 38 82 34 83 35 84 36 85
REMARK SMILES IDX 37 86 63 87 64 88 72 89 65 90 71 91 73 92 70 93 66 94 67 95
REMARK SMILES IDX 68 96 69 97 48 98 49 99 57 100 50 101 56 102 58 103 55 104
REMARK SMILES IDX 51 105 52 106 53 107 54 108
REMARK H PARENT 3 13 97 24 78 61 46 72
REMARK Flexibility Score: inf
ROOT
ATOM      1  C   UNL A   1      38.755  34.795  31.595  1.00  0.00     0.188 C 
ENDROOT
BRANCH   1   2
ATOM      2  C   UNL A   1      39.726  33.804  30.913  1.00  0.00     0.188 C 
BRANCH   2   3
ATOM      3  O   UNL A   1      40.975  34.363  30.531  1.00  0.00    -0.376 OA
BRANCH   3   4
ATOM      4  C   UNL A   1      41.088  34.879  29.215  1.00  0.00     0.202 C 
BRANCH   4   5
ATOM      5  C   UNL A   1      42.164  35.956  29.007  1.00  0.00     0.261 C 
BRANCH   5   6
ATOM      6  O   UNL A   1      41.690  37.222  28.501  1.00  0.00    -0.461 OA
BRANCH   6   7
ATOM      7  C   UNL A   1      42.378  37.762  27.460  1.00  0.00     0.333 C 
ATOM      8  O   UNL A   1      42.255  37.342  26.318  1.00  0.00    -0.249 OA
BRANCH   7   9
ATOM      9  C   UNL A   1      43.350  38.877  27.913  1.00  0.00     0.226 C 
BRANCH   9  10
ATOM     10  N   UNL A   1      43.863  39.563  26.703  1.00  0.00    -0.335 N 
ATOM     11  O   UNL A   1      45.302  40.533  25.276  1.00  0.00    -0.269 OA
ATOM     12  C   UNL A   1      45.113  39.665  26.126  1.00  0.00     0.252 C 
ATOM     13  H   UNL A   1      43.165  40.050  26.207  1.00  0.00     0.165 HD
BRANCH  12  14
ATOM     14  C   UNL A   1      46.219  38.732  26.431  1.00  0.00     0.039 A 
ATOM     15  C   UNL A   1      47.369  38.787  25.638  1.00  0.00     0.014 A 
ATOM     16  C   UNL A   1      46.156  37.811  27.481  1.00  0.00     0.014 A 
ATOM     17  C   UNL A   1      48.354  37.794  25.767  1.00  0.00     0.010 A 
ATOM     18  C   UNL A   1      47.137  36.810  27.599  1.00  0.00     0.010 A 
ATOM     19  C   UNL A   1      48.213  36.747  26.699  1.00  0.00     0.006 A 
BRANCH  19  20
ATOM     20  C   UNL A   1      49.207  35.596  26.729  1.00  0.00     0.299 C 
BRANCH  20  21
ATOM     21  N   UNL A   1      50.533  35.758  26.101  1.00  0.00    -0.331 N 
ATOM     22  C   UNL A   1      51.655  35.242  26.891  1.00  0.00     0.262 C 
ATOM     23  C   UNL A   1      50.619  35.286  24.721  1.00  0.00     0.262 C 
ATOM     24  H   UNL A   1      50.630  36.774  26.076  1.00  0.00     0.348 HD
ATOM     25  C   UNL A   1      52.986  35.734  26.304  1.00  0.00     0.062 C 
ATOM     26  C   UNL A   1      51.909  35.744  24.033  1.00  0.00     0.062 C 
ATOM     27  C   UNL A   1      53.135  35.341  24.840  1.00  0.00     0.012 C 
ENDBRANCH  20  21
ENDBRANCH  19  20
ENDBRANCH  12  14
ENDBRANCH   9  10
BRANCH   9  28
ATOM     28  C   UNL A   1      43.037  39.782  29.104  1.00  0.00     0.021 A 
ATOM     29  C   UNL A   1      41.820  40.480  29.238  1.00  0.00     0.009 A 
ATOM     30  C   UNL A   1      43.931  39.976  30.144  1.00  0.00     0.129 A 
ATOM     31  C   UNL A   1      41.515  41.224  30.399  1.00  0.00     0.001 A 
ATOM     32  C   UNL A   1      43.586  40.571  31.360  1.00  0.00     0.039 A 
ATOM     33  F   UNL A   1      45.217  39.718  29.927  1.00  0.00    -0.207 F 
ATOM     34  C   UNL A   1      42.373  41.213  31.491  1.00  0.00     0.003 A 
ENDBRANCH   9  28
ENDBRANCH   7   9
ENDBRANCH   6   7
ENDBRANCH   5   6
ENDBRANCH   4   5
ENDBRANCH   3   4
ENDBRANCH   2   3
ENDBRANCH   1   2
BRANCH   1  35
ATOM     35  O   UNL A   1      37.361  34.561  31.636  1.00  0.00    -0.377 OA
BRANCH  35  36
ATOM     36  C   UNL A   1      36.702  34.887  32.840  1.00  0.00     0.188 C 
BRANCH  36  37
ATOM     37  C   UNL A   1      35.183  34.682  32.746  1.00  0.00     0.188 C 
BRANCH  37  38
ATOM     38  O   UNL A   1      34.458  35.561  31.907  1.00  0.00    -0.376 OA
BRANCH  38  39
ATOM     39  C   UNL A   1      33.553  35.144  30.898  1.00  0.00     0.202 C 
BRANCH  39  40
ATOM     40  C   UNL A   1      33.490  35.581  29.426  1.00  0.00     0.261 C 
BRANCH  40  41
ATOM     41  O   UNL A   1      34.200  34.841  28.451  1.00  0.00    -0.460 OA
BRANCH  41  42
ATOM     42  C   UNL A   1      33.751  33.599  28.164  1.00  0.00     0.338 C 
ATOM     43  O   UNL A   1      32.759  33.292  27.556  1.00  0.00    -0.246 OA
BRANCH  42  44
ATOM     44  C   UNL A   1      34.854  32.713  28.592  1.00  0.00     0.060 A 
ATOM     45  C   UNL A   1      34.585  31.376  28.917  1.00  0.00     0.016 A 
ATOM     46  C   UNL A   1      36.164  33.195  28.544  1.00  0.00     0.016 A 
ATOM     47  C   UNL A   1      35.638  30.508  29.194  1.00  0.00     0.010 A 
ATOM     48  C   UNL A   1      37.211  32.343  28.868  1.00  0.00     0.010 A 
ATOM     49  C   UNL A   1      36.944  31.009  29.222  1.00  0.00    -0.014 A 
BRANCH  49  50
ATOM     50  C   UNL A   1      38.006  30.267  29.923  1.00  0.00     0.031 A 
ATOM     51  C   UNL A   1      38.196  30.595  31.375  1.00  0.00     0.074 A 
ATOM     52  C   UNL A   1      38.810  29.405  29.280  1.00  0.00     0.049 A 
ATOM     53  N   UNL A   1      39.178  30.289  32.175  1.00  0.00    -0.248 NA
ATOM     54  C   UNL A   1      37.134  31.407  31.997  1.00  0.00     0.031 C 
ATOM     55  C   UNL A   1      38.660  28.979  27.891  1.00  0.00     0.029 A 
ATOM     56  N   UNL A   1      39.935  28.758  29.716  1.00  0.00    -0.354 N 
ATOM     57  C   UNL A   1      38.861  30.885  33.391  1.00  0.00     0.074 A 
ATOM     58  C   UNL A   1      37.618  31.598  33.211  1.00  0.00     0.031 C 
ATOM     59  C   UNL A   1      39.678  28.157  27.579  1.00  0.00     0.029 A 
ATOM     60  C   UNL A   1      40.577  28.051  28.727  1.00  0.00     0.049 A 
ATOM     61  H   UNL A   1      40.254  28.795  30.646  1.00  0.00     0.167 HD
ATOM     62  C   UNL A   1      39.553  30.835  34.552  1.00  0.00     0.034 A 
ATOM     63  C   UNL A   1      41.776  27.435  28.749  1.00  0.00     0.034 A 
ATOM     64  C   UNL A   1      40.807  30.143  34.685  1.00  0.00     0.049 A 
ATOM     65  C   UNL A   1      42.591  27.489  30.024  1.00  0.00     0.074 A 
ATOM     66  C   UNL A   1      41.618  30.034  35.798  1.00  0.00     0.029 A 
ATOM     67  N   UNL A   1      41.437  29.450  33.658  1.00  0.00    -0.354 N 
ATOM     68  N   UNL A   1      42.303  28.070  31.168  1.00  0.00    -0.248 NA
ATOM     69  C   UNL A   1      43.892  26.805  30.014  1.00  0.00     0.031 C 
ATOM     70  C   UNL A   1      42.771  29.340  35.425  1.00  0.00     0.029 A 
ATOM     71  C   UNL A   1      42.637  28.932  34.106  1.00  0.00     0.049 A 
ATOM     72  H   UNL A   1      41.082  29.347  32.746  1.00  0.00     0.167 HD
ATOM     73  C   UNL A   1      43.360  27.773  32.025  1.00  0.00     0.074 A 
ATOM     74  C   UNL A   1      44.296  26.971  31.265  1.00  0.00     0.031 C 
ATOM     75  C   UNL A   1      43.540  28.116  33.326  1.00  0.00     0.034 A 
BRANCH  62  76
ATOM     76  C   UNL A   1      38.989  31.596  35.724  1.00  0.00     0.023 A 
ATOM     77  C   UNL A   1      38.338  30.940  36.784  1.00  0.00     0.031 A 
ATOM     78  C   UNL A   1      39.055  33.000  35.759  1.00  0.00     0.131 A 
ATOM     79  C   UNL A   1      37.716  31.689  37.792  1.00  0.00     0.055 A 
ATOM     80  C   UNL A   1      38.511  33.735  36.812  1.00  0.00     0.041 A 
ATOM     81  F   UNL A   1      39.632  33.683  34.757  1.00  0.00    -0.206 F 
ATOM     82  C   UNL A   1      37.824  33.080  37.830  1.00  0.00     0.022 A 
BRANCH  79  83
ATOM     83  S   UNL A   1      36.635  30.826  38.967  1.00  0.00     0.124 S 
ATOM     84  O   UNL A   1      36.364  29.579  38.255  1.00  0.00    -0.237 OA
ATOM     85  O   UNL A   1      37.480  30.715  40.149  1.00  0.00    -0.237 OA
ATOM     86  O   UNL A   1      35.489  31.723  39.098  1.00  0.00    -0.744 OA
ENDBRANCH  79  83
ENDBRANCH  62  76
BRANCH  63  87
ATOM     87  C   UNL A   1      42.308  26.753  27.535  1.00  0.00     0.023 A 
ATOM     88  C   UNL A   1      42.229  25.357  27.405  1.00  0.00     0.031 A 
ATOM     89  C   UNL A   1      42.962  27.470  26.517  1.00  0.00     0.131 A 
ATOM     90  C   UNL A   1      42.845  24.718  26.318  1.00  0.00     0.055 A 
ATOM     91  C   UNL A   1      43.518  26.834  25.404  1.00  0.00     0.041 A 
ATOM     92  F   UNL A   1      43.071  28.806  26.588  1.00  0.00    -0.206 F 
ATOM     93  C   UNL A   1      43.476  25.447  25.309  1.00  0.00     0.022 A 
BRANCH  90  94
ATOM     94  S   UNL A   1      42.910  22.905  26.307  1.00  0.00     0.124 S 
ATOM     95  O   UNL A   1      41.767  22.565  27.147  1.00  0.00    -0.237 OA
ATOM     96  O   UNL A   1      42.775  22.608  24.886  1.00  0.00    -0.237 OA
ATOM     97  O   UNL A   1      44.220  22.610  26.884  1.00  0.00    -0.744 OA
ENDBRANCH  90  94
ENDBRANCH  63  87
BRANCH  75  98
ATOM     98  C   UNL A   1      44.738  27.547  34.043  1.00  0.00     0.023 A 
ATOM     99  C   UNL A   1      45.957  28.238  34.134  1.00  0.00     0.031 A 
ATOM    100  C   UNL A   1      44.629  26.303  34.690  1.00  0.00     0.131 A 
ATOM    101  C   UNL A   1      47.030  27.664  34.834  1.00  0.00     0.055 A 
ATOM    102  C   UNL A   1      45.678  25.765  35.434  1.00  0.00     0.041 A 
ATOM    103  F   UNL A   1      43.485  25.601  34.633  1.00  0.00    -0.206 F 
ATOM    104  C   UNL A   1      46.891  26.444  35.502  1.00  0.00     0.022 A 
BRANCH 101 105
ATOM    105  S   UNL A   1      48.637  28.505  34.812  1.00  0.00     0.124 S 
ATOM    106  O   UNL A   1      49.549  27.425  35.173  1.00  0.00    -0.237 OA
ATOM    107  O   UNL A   1      48.723  28.979  33.435  1.00  0.00    -0.237 OA
ATOM    108  O   UNL A   1      48.488  29.555  35.819  1.00  0.00    -0.744 OA
ENDBRANCH 101 105
ENDBRANCH  75  98
ENDBRANCH  49  50
ENDBRANCH  42  44
ENDBRANCH  41  42
ENDBRANCH  40  41
ENDBRANCH  39  40
ENDBRANCH  38  39
ENDBRANCH  37  38
ENDBRANCH  36  37
ENDBRANCH  35  36
ENDBRANCH   1  35
TORSDOF 28
ENDMDL
