MODEL 1
REMARK VINA RESULT:      -7.6      0.000      0.000
REMARK SMILES N#C/C(=C/c1ccc(-c2cccc(C(=O)OCCOCCOCCOCCOC(=O)c3ccc(-c4c5nc(c(-c6cc(S(=O)(=O)[O-])ccc6F)c6ccc([nH]6)c(-c6cc(S(=O)(=O)[O-])ccc6F)c6nc(c(-c7cc(S(=O)(=O)[O-])ccc7F)c7ccc4[nH]7)C=C6)C=C5)cc3)c2)o1)c1ccc(F)cc1
REMARK SMILES IDX 22 1 21 2 20 3 19 4 18 5 17 6 16 7 14 8 15 9 13 10 9 11
REMARK SMILES IDX 10 12 94 13 11 14 12 15 8 16 5 17 6 18 95 19 7 20 4 21 3 22
REMARK SMILES IDX 2 23 1 24 96 25 97 26 102 27 98 28 101 29 99 30 100 31 23 32
REMARK SMILES IDX 24 33 25 34 26 35 27 36 28 37 29 38 30 39 31 40 32 41 93 42
REMARK SMILES IDX 33 43 92 44 34 45 35 46 36 47 86 48 37 49 91 50 85 51 87 52
REMARK SMILES IDX 38 53 90 54 84 55 83 56 39 58 71 59 51 60 70 61 52 62 55 63
REMARK SMILES IDX 69 64 88 65 53 66 54 67 68 69 89 70 56 71 40 72 41 73 49 74
REMARK SMILES IDX 42 75 48 76 50 77 47 78 43 79 44 80 45 81 46 82 72 83 73 84
REMARK SMILES IDX 81 85 74 86 80 87 82 88 79 89 75 90 76 91 77 92 78 93 57 94
REMARK SMILES IDX 58 95 66 96 59 97 65 98 67 99 64 100 60 101 61 102 62 103
REMARK SMILES IDX 63 104
REMARK H PARENT 87 57 55 68
REMARK Flexibility Score: inf
ROOT
ATOM      1  O   UNL A   1      45.653  20.005  25.364  1.00  0.00    -0.377 OA
ENDROOT
BRANCH   1   2
ATOM      2  C   UNL A   1      44.679  19.159  24.782  1.00  0.00     0.188 C 
BRANCH   2   3
ATOM      3  C   UNL A   1      43.413  18.994  25.643  1.00  0.00     0.188 C 
BRANCH   3   4
ATOM      4  O   UNL A   1      42.356  19.906  25.422  1.00  0.00    -0.376 OA
BRANCH   4   5
ATOM      5  C   UNL A   1      42.271  21.167  26.067  1.00  0.00     0.202 C 
BRANCH   5   6
ATOM      6  C   UNL A   1      43.321  21.823  26.986  1.00  0.00     0.261 C 
BRANCH   6   7
ATOM      7  O   UNL A   1      43.273  23.233  27.176  1.00  0.00    -0.460 OA
BRANCH   7   8
ATOM      8  C   UNL A   1      42.470  23.712  28.153  1.00  0.00     0.338 C 
ATOM      9  O   UNL A   1      42.310  23.264  29.265  1.00  0.00    -0.246 OA
BRANCH   8  10
ATOM     10  C   UNL A   1      41.979  25.032  27.680  1.00  0.00     0.060 A 
ATOM     11  C   UNL A   1      41.159  27.280  28.159  1.00  0.00     0.018 A 
ATOM     12  C   UNL A   1      40.817  27.419  26.809  1.00  0.00     0.012 A 
ATOM     13  C   UNL A   1      41.719  26.064  28.586  1.00  0.00     0.027 A 
ATOM     14  C   UNL A   1      41.070  26.382  25.899  1.00  0.00     0.002 A 
ATOM     15  C   UNL A   1      41.668  25.197  26.329  1.00  0.00     0.016 A 
BRANCH  11  16
ATOM     16  C   UNL A   1      41.029  28.360  29.129  1.00  0.00     0.134 A 
ATOM     17  C   UNL A   1      40.574  29.256  31.118  1.00  0.00     0.128 A 
ATOM     18  C   UNL A   1      40.971  30.278  30.261  1.00  0.00     0.051 A 
ATOM     19  O   UNL A   1      40.639  28.067  30.408  1.00  0.00    -0.457 OA
ATOM     20  C   UNL A   1      41.223  29.717  28.999  1.00  0.00     0.051 A 
BRANCH  17  21
ATOM     21  C   UNL A   1      40.135  29.375  32.476  1.00  0.00     0.067 C 
ATOM     22  C   UNL A   1      38.953  29.949  32.791  1.00  0.00     0.063 C 
BRANCH  22  23
ATOM     23  C   UNL A   1      38.582  30.256  34.233  1.00  0.00     0.100 C 
ATOM     24  N   UNL A   1      38.274  30.510  35.429  1.00  0.00    -0.192 NA
ENDBRANCH  22  23
BRANCH  22  25
ATOM     25  C   UNL A   1      37.933  30.354  31.778  1.00  0.00    -0.007 A 
ATOM     26  C   UNL A   1      37.193  29.389  31.068  1.00  0.00     0.012 A 
ATOM     27  C   UNL A   1      37.704  31.713  31.500  1.00  0.00     0.012 A 
ATOM     28  C   UNL A   1      36.300  29.768  30.065  1.00  0.00     0.040 A 
ATOM     29  C   UNL A   1      36.794  32.091  30.508  1.00  0.00     0.040 A 
ATOM     30  C   UNL A   1      36.112  31.115  29.792  1.00  0.00     0.123 A 
ATOM     31  F   UNL A   1      35.262  31.480  28.822  1.00  0.00    -0.207 F 
ENDBRANCH  22  25
ENDBRANCH  17  21
ENDBRANCH  11  16
ENDBRANCH   8  10
ENDBRANCH   7   8
ENDBRANCH   6   7
ENDBRANCH   5   6
ENDBRANCH   4   5
ENDBRANCH   3   4
ENDBRANCH   2   3
ENDBRANCH   1   2
BRANCH   1  32
ATOM     32  C   UNL A   1      46.145  21.088  24.579  1.00  0.00     0.188 C 
BRANCH  32  33
ATOM     33  C   UNL A   1      45.178  22.072  23.880  1.00  0.00     0.188 C 
BRANCH  33  34
ATOM     34  O   UNL A   1      45.670  23.402  23.755  1.00  0.00    -0.376 OA
BRANCH  34  35
ATOM     35  C   UNL A   1      45.519  24.284  24.855  1.00  0.00     0.202 C 
BRANCH  35  36
ATOM     36  C   UNL A   1      46.808  24.657  25.600  1.00  0.00     0.261 C 
BRANCH  36  37
ATOM     37  O   UNL A   1      47.565  25.730  25.021  1.00  0.00    -0.460 OA
BRANCH  37  38
ATOM     38  C   UNL A   1      46.904  26.895  24.840  1.00  0.00     0.338 C 
ATOM     39  O   UNL A   1      46.621  27.412  23.775  1.00  0.00    -0.246 OA
BRANCH  38  40
ATOM     40  C   UNL A   1      46.397  27.347  26.150  1.00  0.00     0.060 A 
ATOM     41  C   UNL A   1      45.022  27.555  26.295  1.00  0.00     0.016 A 
ATOM     42  C   UNL A   1      47.268  27.583  27.218  1.00  0.00     0.016 A 
ATOM     43  C   UNL A   1      44.518  28.059  27.490  1.00  0.00     0.010 A 
ATOM     44  C   UNL A   1      46.762  28.103  28.414  1.00  0.00     0.010 A 
ATOM     45  C   UNL A   1      45.390  28.386  28.538  1.00  0.00    -0.014 A 
BRANCH  45  46
ATOM     46  C   UNL A   1      44.873  29.209  29.661  1.00  0.00     0.031 A 
ATOM     47  C   UNL A   1      44.711  30.691  29.452  1.00  0.00     0.074 A 
ATOM     48  C   UNL A   1      44.482  28.638  30.814  1.00  0.00     0.049 A 
ATOM     49  N   UNL A   1      44.222  31.597  30.258  1.00  0.00    -0.248 NA
ATOM     50  C   UNL A   1      45.165  31.220  28.157  1.00  0.00     0.031 C 
ATOM     51  C   UNL A   1      44.565  27.211  31.117  1.00  0.00     0.029 A 
ATOM     52  N   UNL A   1      43.927  29.192  31.941  1.00  0.00    -0.354 N 
ATOM     53  C   UNL A   1      44.312  32.803  29.570  1.00  0.00     0.074 A 
ATOM     54  C   UNL A   1      44.947  32.517  28.302  1.00  0.00     0.031 C 
ATOM     55  C   UNL A   1      44.076  27.000  32.352  1.00  0.00     0.029 A 
ATOM     56  C   UNL A   1      43.675  28.278  32.938  1.00  0.00     0.049 A 
ATOM     57  H   UNL A   1      43.728  30.152  32.028  1.00  0.00     0.167 HD
ATOM     58  C   UNL A   1      43.893  34.034  29.957  1.00  0.00     0.034 A 
ATOM     59  C   UNL A   1      43.193  28.457  34.185  1.00  0.00     0.034 A 
ATOM     60  C   UNL A   1      43.274  34.302  31.234  1.00  0.00     0.049 A 
ATOM     61  C   UNL A   1      42.786  29.845  34.619  1.00  0.00     0.074 A 
ATOM     62  C   UNL A   1      42.787  35.502  31.720  1.00  0.00     0.029 A 
ATOM     63  N   UNL A   1      43.074  33.360  32.238  1.00  0.00    -0.354 N 
ATOM     64  N   UNL A   1      42.846  30.974  33.948  1.00  0.00    -0.248 NA
ATOM     65  C   UNL A   1      42.230  29.978  35.970  1.00  0.00     0.031 C 
ATOM     66  C   UNL A   1      42.382  35.307  33.045  1.00  0.00     0.029 A 
ATOM     67  C   UNL A   1      42.513  33.962  33.354  1.00  0.00     0.049 A 
ATOM     68  H   UNL A   1      43.300  32.404  32.166  1.00  0.00     0.167 HD
ATOM     69  C   UNL A   1      42.303  31.945  34.788  1.00  0.00     0.074 A 
ATOM     70  C   UNL A   1      41.906  31.262  36.003  1.00  0.00     0.031 C 
ATOM     71  C   UNL A   1      42.139  33.277  34.571  1.00  0.00     0.034 A 
BRANCH  58  72
ATOM     72  C   UNL A   1      44.158  35.187  29.014  1.00  0.00     0.023 A 
ATOM     73  C   UNL A   1      45.394  35.858  28.981  1.00  0.00     0.031 A 
ATOM     74  C   UNL A   1      43.138  35.652  28.164  1.00  0.00     0.131 A 
ATOM     75  C   UNL A   1      45.550  37.002  28.182  1.00  0.00     0.055 A 
ATOM     76  C   UNL A   1      43.329  36.733  27.303  1.00  0.00     0.041 A 
ATOM     77  F   UNL A   1      41.927  35.072  28.169  1.00  0.00    -0.206 F 
ATOM     78  C   UNL A   1      44.536  37.427  27.321  1.00  0.00     0.022 A 
BRANCH  75  79
ATOM     79  S   UNL A   1      47.032  38.025  28.407  1.00  0.00     0.124 S 
ATOM     80  O   UNL A   1      46.649  39.254  27.718  1.00  0.00    -0.237 OA
ATOM     81  O   UNL A   1      47.136  38.112  29.859  1.00  0.00    -0.237 OA
ATOM     82  O   UNL A   1      48.085  37.253  27.749  1.00  0.00    -0.744 OA
ENDBRANCH  75  79
ENDBRANCH  58  72
BRANCH  59  83
ATOM     83  C   UNL A   1      43.102  27.302  35.125  1.00  0.00     0.023 A 
ATOM     84  C   UNL A   1      44.180  26.928  35.944  1.00  0.00     0.031 A 
ATOM     85  C   UNL A   1      41.931  26.525  35.186  1.00  0.00     0.131 A 
ATOM     86  C   UNL A   1      44.078  25.788  36.759  1.00  0.00     0.055 A 
ATOM     87  C   UNL A   1      41.813  25.427  36.039  1.00  0.00     0.041 A 
ATOM     88  F   UNL A   1      40.871  26.835  34.422  1.00  0.00    -0.206 F 
ATOM     89  C   UNL A   1      42.896  25.046  36.824  1.00  0.00     0.022 A 
BRANCH  86  90
ATOM     90  S   UNL A   1      45.541  25.237  37.680  1.00  0.00     0.124 S 
ATOM     91  O   UNL A   1      44.986  24.175  38.511  1.00  0.00    -0.237 OA
ATOM     92  O   UNL A   1      46.433  24.813  36.606  1.00  0.00    -0.237 OA
ATOM     93  O   UNL A   1      45.962  26.439  38.398  1.00  0.00    -0.744 OA
ENDBRANCH  86  90
ENDBRANCH  59  83
BRANCH  71  94
ATOM     94  C   UNL A   1      41.454  34.073  35.661  1.00  0.00     0.023 A 
ATOM     95  C   UNL A   1      42.177  34.742  36.664  1.00  0.00     0.031 A 
ATOM     96  C   UNL A   1      40.048  34.137  35.712  1.00  0.00     0.131 A 
ATOM     97  C   UNL A   1      41.495  35.373  37.717  1.00  0.00     0.055 A 
ATOM     98  C   UNL A   1      39.377  34.836  36.717  1.00  0.00     0.041 A 
ATOM     99  F   UNL A   1      39.300  33.516  34.786  1.00  0.00    -0.206 F 
ATOM    100  C   UNL A   1      40.100  35.442  37.739  1.00  0.00     0.022 A 
BRANCH  97 101
ATOM    101  S   UNL A   1      42.454  35.980  39.133  1.00  0.00     0.124 S 
ATOM    102  O   UNL A   1      43.823  35.861  38.643  1.00  0.00    -0.237 OA
ATOM    103  O   UNL A   1      41.948  37.338  39.293  1.00  0.00    -0.237 OA
ATOM    104  O   UNL A   1      42.099  35.055  40.208  1.00  0.00    -0.744 OA
ENDBRANCH  97 101
ENDBRANCH  71  94
ENDBRANCH  45  46
ENDBRANCH  38  40
ENDBRANCH  37  38
ENDBRANCH  36  37
ENDBRANCH  35  36
ENDBRANCH  34  35
ENDBRANCH  33  34
ENDBRANCH  32  33
ENDBRANCH   1  32
TORSDOF 27
ENDMDL
MODEL 2
REMARK VINA RESULT:      -7.1      3.638      8.232
REMARK SMILES N#C/C(=C/c1ccc(-c2cccc(C(=O)OCCOCCOCCOCCOC(=O)c3ccc(-c4c5nc(c(-c6cc(S(=O)(=O)[O-])ccc6F)c6ccc([nH]6)c(-c6cc(S(=O)(=O)[O-])ccc6F)c6nc(c(-c7cc(S(=O)(=O)[O-])ccc7F)c7ccc4[nH]7)C=C6)C=C5)cc3)c2)o1)c1ccc(F)cc1
REMARK SMILES IDX 22 1 21 2 20 3 19 4 18 5 17 6 16 7 14 8 15 9 13 10 9 11
REMARK SMILES IDX 10 12 94 13 11 14 12 15 8 16 5 17 6 18 95 19 7 20 4 21 3 22
REMARK SMILES IDX 2 23 1 24 96 25 97 26 102 27 98 28 101 29 99 30 100 31 23 32
REMARK SMILES IDX 24 33 25 34 26 35 27 36 28 37 29 38 30 39 31 40 32 41 93 42
REMARK SMILES IDX 33 43 92 44 34 45 35 46 36 47 86 48 37 49 91 50 85 51 87 52
REMARK SMILES IDX 38 53 90 54 84 55 83 56 39 58 71 59 51 60 70 61 52 62 55 63
REMARK SMILES IDX 69 64 88 65 53 66 54 67 68 69 89 70 56 71 40 72 41 73 49 74
REMARK SMILES IDX 42 75 48 76 50 77 47 78 43 79 44 80 45 81 46 82 72 83 73 84
REMARK SMILES IDX 81 85 74 86 80 87 82 88 79 89 75 90 76 91 77 92 78 93 57 94
REMARK SMILES IDX 58 95 66 96 59 97 65 98 67 99 64 100 60 101 61 102 62 103
REMARK SMILES IDX 63 104
REMARK H PARENT 87 57 55 68
REMARK Flexibility Score: inf
ROOT
ATOM      1  O   UNL A   1      46.262  21.018  25.415  1.00  0.00    -0.377 OA
ENDROOT
BRANCH   1   2
ATOM      2  C   UNL A   1      45.967  19.834  24.698  1.00  0.00     0.188 C 
BRANCH   2   3
ATOM      3  C   UNL A   1      44.846  18.993  25.336  1.00  0.00     0.188 C 
BRANCH   3   4
ATOM      4  O   UNL A   1      43.534  19.182  24.845  1.00  0.00    -0.376 OA
BRANCH   4   5
ATOM      5  C   UNL A   1      42.498  19.780  25.608  1.00  0.00     0.202 C 
BRANCH   5   6
ATOM      6  C   UNL A   1      42.233  19.619  27.119  1.00  0.00     0.261 C 
BRANCH   6   7
ATOM      7  O   UNL A   1      41.349  20.535  27.756  1.00  0.00    -0.460 OA
BRANCH   7   8
ATOM      8  C   UNL A   1      41.776  21.806  27.931  1.00  0.00     0.338 C 
ATOM      9  O   UNL A   1      42.856  22.175  28.333  1.00  0.00    -0.246 OA
BRANCH   8  10
ATOM     10  C   UNL A   1      40.741  22.682  27.324  1.00  0.00     0.060 A 
ATOM     11  C   UNL A   1      39.780  24.898  26.981  1.00  0.00     0.018 A 
ATOM     12  C   UNL A   1      38.657  24.298  26.399  1.00  0.00     0.012 A 
ATOM     13  C   UNL A   1      40.807  24.071  27.464  1.00  0.00     0.027 A 
ATOM     14  C   UNL A   1      38.584  22.904  26.265  1.00  0.00     0.002 A 
ATOM     15  C   UNL A   1      39.632  22.096  26.708  1.00  0.00     0.016 A 
BRANCH  11  16
ATOM     16  C   UNL A   1      39.967  26.343  27.045  1.00  0.00     0.134 A 
ATOM     17  C   UNL A   1      39.369  28.449  27.462  1.00  0.00     0.128 A 
ATOM     18  C   UNL A   1      40.674  28.454  26.977  1.00  0.00     0.051 A 
ATOM     19  O   UNL A   1      38.952  27.128  27.521  1.00  0.00    -0.457 OA
ATOM     20  C   UNL A   1      41.036  27.131  26.683  1.00  0.00     0.051 A 
BRANCH  17  21
ATOM     21  C   UNL A   1      38.561  29.579  27.807  1.00  0.00     0.067 C 
ATOM     22  C   UNL A   1      38.292  29.892  29.093  1.00  0.00     0.063 C 
BRANCH  22  23
ATOM     23  C   UNL A   1      37.276  30.964  29.450  1.00  0.00     0.100 C 
ATOM     24  N   UNL A   1      36.433  31.854  29.747  1.00  0.00    -0.192 NA
ENDBRANCH  22  23
BRANCH  22  25
ATOM     25  C   UNL A   1      38.929  29.213  30.261  1.00  0.00    -0.007 A 
ATOM     26  C   UNL A   1      38.181  28.371  31.107  1.00  0.00     0.012 A 
ATOM     27  C   UNL A   1      40.290  29.417  30.549  1.00  0.00     0.012 A 
ATOM     28  C   UNL A   1      38.759  27.805  32.244  1.00  0.00     0.040 A 
ATOM     29  C   UNL A   1      40.871  28.831  31.678  1.00  0.00     0.040 A 
ATOM     30  C   UNL A   1      40.098  28.043  32.521  1.00  0.00     0.123 A 
ATOM     31  F   UNL A   1      40.651  27.507  33.617  1.00  0.00    -0.207 F 
ENDBRANCH  22  25
ENDBRANCH  17  21
ENDBRANCH  11  16
ENDBRANCH   8  10
ENDBRANCH   7   8
ENDBRANCH   6   7
ENDBRANCH   5   6
ENDBRANCH   4   5
ENDBRANCH   3   4
ENDBRANCH   2   3
ENDBRANCH   1   2
BRANCH   1  32
ATOM     32  C   UNL A   1      45.834  22.257  24.853  1.00  0.00     0.188 C 
BRANCH  32  33
ATOM     33  C   UNL A   1      44.501  22.911  25.283  1.00  0.00     0.188 C 
BRANCH  33  34
ATOM     34  O   UNL A   1      44.299  24.231  24.789  1.00  0.00    -0.376 OA
BRANCH  34  35
ATOM     35  C   UNL A   1      44.806  25.319  25.543  1.00  0.00     0.202 C 
BRANCH  35  36
ATOM     36  C   UNL A   1      44.661  25.206  27.067  1.00  0.00     0.261 C 
BRANCH  36  37
ATOM     37  O   UNL A   1      45.110  26.346  27.815  1.00  0.00    -0.460 OA
BRANCH  37  38
ATOM     38  C   UNL A   1      44.290  26.770  28.802  1.00  0.00     0.338 C 
ATOM     39  O   UNL A   1      43.640  26.071  29.558  1.00  0.00    -0.246 OA
BRANCH  38  40
ATOM     40  C   UNL A   1      44.463  28.228  28.952  1.00  0.00     0.060 A 
ATOM     41  C   UNL A   1      45.423  28.694  29.856  1.00  0.00     0.016 A 
ATOM     42  C   UNL A   1      43.674  29.126  28.227  1.00  0.00     0.016 A 
ATOM     43  C   UNL A   1      45.556  30.061  30.083  1.00  0.00     0.010 A 
ATOM     44  C   UNL A   1      43.801  30.498  28.466  1.00  0.00     0.010 A 
ATOM     45  C   UNL A   1      44.711  30.968  29.430  1.00  0.00    -0.014 A 
BRANCH  45  46
ATOM     46  C   UNL A   1      44.656  32.367  29.922  1.00  0.00     0.031 A 
ATOM     47  C   UNL A   1      43.833  32.669  31.146  1.00  0.00     0.074 A 
ATOM     48  C   UNL A   1      45.387  33.335  29.340  1.00  0.00     0.049 A 
ATOM     49  N   UNL A   1      43.685  33.794  31.795  1.00  0.00    -0.248 NA
ATOM     50  C   UNL A   1      43.071  31.544  31.712  1.00  0.00     0.031 C 
ATOM     51  C   UNL A   1      46.243  33.154  28.169  1.00  0.00     0.029 A 
ATOM     52  N   UNL A   1      45.532  34.661  29.663  1.00  0.00    -0.354 N 
ATOM     53  C   UNL A   1      42.813  33.516  32.842  1.00  0.00     0.074 A 
ATOM     54  C   UNL A   1      42.429  32.127  32.711  1.00  0.00     0.031 C 
ATOM     55  C   UNL A   1      46.826  34.329  27.871  1.00  0.00     0.029 A 
ATOM     56  C   UNL A   1      46.362  35.350  28.810  1.00  0.00     0.049 A 
ATOM     57  H   UNL A   1      45.083  35.080  30.432  1.00  0.00     0.167 HD
ATOM     58  C   UNL A   1      42.381  34.340  33.829  1.00  0.00     0.034 A 
ATOM     59  C   UNL A   1      46.694  36.657  28.779  1.00  0.00     0.034 A 
ATOM     60  C   UNL A   1      42.766  35.729  33.935  1.00  0.00     0.049 A 
ATOM     61  C   UNL A   1      46.157  37.572  29.853  1.00  0.00     0.074 A 
ATOM     62  C   UNL A   1      42.411  36.648  34.906  1.00  0.00     0.029 A 
ATOM     63  N   UNL A   1      43.574  36.404  33.027  1.00  0.00    -0.354 N 
ATOM     64  N   UNL A   1      45.357  37.291  30.859  1.00  0.00    -0.248 NA
ATOM     65  C   UNL A   1      46.582  38.976  29.798  1.00  0.00     0.031 C 
ATOM     66  C   UNL A   1      42.925  37.896  34.536  1.00  0.00     0.029 A 
ATOM     67  C   UNL A   1      43.692  37.737  33.392  1.00  0.00     0.049 A 
ATOM     68  H   UNL A   1      43.999  35.996  32.239  1.00  0.00     0.167 HD
ATOM     69  C   UNL A   1      45.213  38.479  31.574  1.00  0.00     0.074 A 
ATOM     70  C   UNL A   1      46.022  39.469  30.893  1.00  0.00     0.031 C 
ATOM     71  C   UNL A   1      44.485  38.725  32.695  1.00  0.00     0.034 A 
BRANCH  58  72
ATOM     72  C   UNL A   1      41.393  33.775  34.825  1.00  0.00     0.023 A 
ATOM     73  C   UNL A   1      40.015  33.703  34.553  1.00  0.00     0.031 A 
ATOM     74  C   UNL A   1      41.835  33.341  36.088  1.00  0.00     0.131 A 
ATOM     75  C   UNL A   1      39.122  33.290  35.556  1.00  0.00     0.055 A 
ATOM     76  C   UNL A   1      40.952  32.844  37.049  1.00  0.00     0.041 A 
ATOM     77  F   UNL A   1      43.134  33.409  36.419  1.00  0.00    -0.206 F 
ATOM     78  C   UNL A   1      39.584  32.832  36.792  1.00  0.00     0.022 A 
BRANCH  75  79
ATOM     79  S   UNL A   1      37.343  33.519  35.284  1.00  0.00     0.124 S 
ATOM     80  O   UNL A   1      36.857  33.701  36.650  1.00  0.00    -0.237 OA
ATOM     81  O   UNL A   1      37.304  34.699  34.429  1.00  0.00    -0.237 OA
ATOM     82  O   UNL A   1      36.930  32.270  34.646  1.00  0.00    -0.744 OA
ENDBRANCH  75  79
ENDBRANCH  58  72
BRANCH  59  83
ATOM     83  C   UNL A   1      47.549  37.187  27.677  1.00  0.00     0.023 A 
ATOM     84  C   UNL A   1      48.950  37.198  27.767  1.00  0.00     0.031 A 
ATOM     85  C   UNL A   1      46.961  37.730  26.520  1.00  0.00     0.131 A 
ATOM     86  C   UNL A   1      49.713  37.776  26.739  1.00  0.00     0.055 A 
ATOM     87  C   UNL A   1      47.725  38.251  25.475  1.00  0.00     0.041 A 
ATOM     88  F   UNL A   1      45.626  37.748  26.383  1.00  0.00    -0.206 F 
ATOM     89  C   UNL A   1      49.111  38.286  25.587  1.00  0.00     0.022 A 
BRANCH  86  90
ATOM     90  S   UNL A   1      51.509  37.923  26.959  1.00  0.00     0.124 S 
ATOM     91  O   UNL A   1      52.004  37.480  25.661  1.00  0.00    -0.237 OA
ATOM     92  O   UNL A   1      51.662  39.343  27.255  1.00  0.00    -0.237 OA
ATOM     93  O   UNL A   1      51.789  37.023  28.076  1.00  0.00    -0.744 OA
ENDBRANCH  86  90
ENDBRANCH  59  83
BRANCH  71  94
ATOM     94  C   UNL A   1      44.575  40.117  33.283  1.00  0.00     0.023 A 
ATOM     95  C   UNL A   1      43.663  41.132  32.942  1.00  0.00     0.031 A 
ATOM     96  C   UNL A   1      45.613  40.441  34.178  1.00  0.00     0.131 A 
ATOM     97  C   UNL A   1      43.854  42.437  33.425  1.00  0.00     0.055 A 
ATOM     98  C   UNL A   1      45.748  41.720  34.719  1.00  0.00     0.041 A 
ATOM     99  F   UNL A   1      46.517  39.517  34.540  1.00  0.00    -0.206 F 
ATOM    100  C   UNL A   1      44.878  42.732  34.328  1.00  0.00     0.022 A 
BRANCH  97 101
ATOM    101  S   UNL A   1      42.831  43.773  32.747  1.00  0.00     0.124 S 
ATOM    102  O   UNL A   1      41.871  43.993  33.823  1.00  0.00    -0.237 OA
ATOM    103  O   UNL A   1      43.807  44.835  32.532  1.00  0.00    -0.237 OA
ATOM    104  O   UNL A   1      42.271  43.190  31.528  1.00  0.00    -0.744 OA
ENDBRANCH  97 101
ENDBRANCH  71  94
ENDBRANCH  45  46
ENDBRANCH  38  40
ENDBRANCH  37  38
ENDBRANCH  36  37
ENDBRANCH  35  36
ENDBRANCH  34  35
ENDBRANCH  33  34
ENDBRANCH  32  33
ENDBRANCH   1  32
TORSDOF 27
ENDMDL
MODEL 3
REMARK VINA RESULT:      -7.0      3.799      5.960
REMARK SMILES N#C/C(=C/c1ccc(-c2cccc(C(=O)OCCOCCOCCOCCOC(=O)c3ccc(-c4c5nc(c(-c6cc(S(=O)(=O)[O-])ccc6F)c6ccc([nH]6)c(-c6cc(S(=O)(=O)[O-])ccc6F)c6nc(c(-c7cc(S(=O)(=O)[O-])ccc7F)c7ccc4[nH]7)C=C6)C=C5)cc3)c2)o1)c1ccc(F)cc1
REMARK SMILES IDX 22 1 21 2 20 3 19 4 18 5 17 6 16 7 14 8 15 9 13 10 9 11
REMARK SMILES IDX 10 12 94 13 11 14 12 15 8 16 5 17 6 18 95 19 7 20 4 21 3 22
REMARK SMILES IDX 2 23 1 24 96 25 97 26 102 27 98 28 101 29 99 30 100 31 23 32
REMARK SMILES IDX 24 33 25 34 26 35 27 36 28 37 29 38 30 39 31 40 32 41 93 42
REMARK SMILES IDX 33 43 92 44 34 45 35 46 36 47 86 48 37 49 91 50 85 51 87 52
REMARK SMILES IDX 38 53 90 54 84 55 83 56 39 58 71 59 51 60 70 61 52 62 55 63
REMARK SMILES IDX 69 64 88 65 53 66 54 67 68 69 89 70 56 71 40 72 41 73 49 74
REMARK SMILES IDX 42 75 48 76 50 77 47 78 43 79 44 80 45 81 46 82 72 83 73 84
REMARK SMILES IDX 81 85 74 86 80 87 82 88 79 89 75 90 76 91 77 92 78 93 57 94
REMARK SMILES IDX 58 95 66 96 59 97 65 98 67 99 64 100 60 101 61 102 62 103
REMARK SMILES IDX 63 104
REMARK H PARENT 87 57 55 68
REMARK Flexibility Score: inf
ROOT
ATOM      1  O   UNL A   1      46.279  20.984  25.409  1.00  0.00    -0.377 OA
ENDROOT
BRANCH   1   2
ATOM      2  C   UNL A   1      46.022  19.798  24.680  1.00  0.00     0.188 C 
BRANCH   2   3
ATOM      3  C   UNL A   1      44.888  18.944  25.275  1.00  0.00     0.188 C 
BRANCH   3   4
ATOM      4  O   UNL A   1      43.585  19.150  24.766  1.00  0.00    -0.376 OA
BRANCH   4   5
ATOM      5  C   UNL A   1      42.535  19.721  25.530  1.00  0.00     0.202 C 
BRANCH   5   6
ATOM      6  C   UNL A   1      42.240  19.504  27.028  1.00  0.00     0.261 C 
BRANCH   6   7
ATOM      7  O   UNL A   1      41.347  20.400  27.682  1.00  0.00    -0.460 OA
BRANCH   7   8
ATOM      8  C   UNL A   1      41.776  21.661  27.914  1.00  0.00     0.338 C 
ATOM      9  O   UNL A   1      42.846  22.009  28.359  1.00  0.00    -0.246 OA
BRANCH   8  10
ATOM     10  C   UNL A   1      40.763  22.564  27.309  1.00  0.00     0.060 A 
ATOM     11  C   UNL A   1      39.871  24.807  26.954  1.00  0.00     0.018 A 
ATOM     12  C   UNL A   1      38.723  24.238  26.390  1.00  0.00     0.012 A 
ATOM     13  C   UNL A   1      40.877  23.952  27.434  1.00  0.00     0.027 A 
ATOM     14  C   UNL A   1      38.603  22.846  26.271  1.00  0.00     0.002 A 
ATOM     15  C   UNL A   1      39.629  22.009  26.711  1.00  0.00     0.016 A 
BRANCH  11  16
ATOM     16  C   UNL A   1      40.106  26.246  27.000  1.00  0.00     0.134 A 
ATOM     17  C   UNL A   1      39.579  28.375  27.393  1.00  0.00     0.128 A 
ATOM     18  C   UNL A   1      40.882  28.331  26.907  1.00  0.00     0.051 A 
ATOM     19  O   UNL A   1      39.118  27.070  27.469  1.00  0.00    -0.457 OA
ATOM     20  C   UNL A   1      41.200  26.993  26.627  1.00  0.00     0.051 A 
BRANCH  17  21
ATOM     21  C   UNL A   1      38.809  29.535  27.727  1.00  0.00     0.067 C 
ATOM     22  C   UNL A   1      38.509  29.843  29.008  1.00  0.00     0.063 C 
BRANCH  22  23
ATOM     23  C   UNL A   1      37.529  30.954  29.345  1.00  0.00     0.100 C 
ATOM     24  N   UNL A   1      36.716  31.877  29.625  1.00  0.00    -0.192 NA
ENDBRANCH  22  23
BRANCH  22  25
ATOM     25  C   UNL A   1      39.075  29.122  30.187  1.00  0.00    -0.007 A 
ATOM     26  C   UNL A   1      38.232  28.560  31.166  1.00  0.00     0.012 A 
ATOM     27  C   UNL A   1      40.466  29.005  30.351  1.00  0.00     0.012 A 
ATOM     28  C   UNL A   1      38.765  27.959  32.308  1.00  0.00     0.040 A 
ATOM     29  C   UNL A   1      40.996  28.384  31.487  1.00  0.00     0.040 A 
ATOM     30  C   UNL A   1      40.142  27.881  32.459  1.00  0.00     0.123 A 
ATOM     31  F   UNL A   1      40.654  27.313  33.559  1.00  0.00    -0.207 F 
ENDBRANCH  22  25
ENDBRANCH  17  21
ENDBRANCH  11  16
ENDBRANCH   8  10
ENDBRANCH   7   8
ENDBRANCH   6   7
ENDBRANCH   5   6
ENDBRANCH   4   5
ENDBRANCH   3   4
ENDBRANCH   2   3
ENDBRANCH   1   2
BRANCH   1  32
ATOM     32  C   UNL A   1      45.864  22.220  24.832  1.00  0.00     0.188 C 
BRANCH  32  33
ATOM     33  C   UNL A   1      44.464  22.807  25.123  1.00  0.00     0.188 C 
BRANCH  33  34
ATOM     34  O   UNL A   1      44.316  24.185  24.797  1.00  0.00    -0.376 OA
BRANCH  34  35
ATOM     35  C   UNL A   1      44.742  25.152  25.743  1.00  0.00     0.202 C 
BRANCH  35  36
ATOM     36  C   UNL A   1      44.461  24.821  27.215  1.00  0.00     0.261 C 
BRANCH  36  37
ATOM     37  O   UNL A   1      44.918  25.796  28.164  1.00  0.00    -0.460 OA
BRANCH  37  38
ATOM     38  C   UNL A   1      44.005  26.225  29.063  1.00  0.00     0.338 C 
ATOM     39  O   UNL A   1      43.183  25.542  29.647  1.00  0.00    -0.246 OA
BRANCH  38  40
ATOM     40  C   UNL A   1      44.297  27.636  29.381  1.00  0.00     0.060 A 
ATOM     41  C   UNL A   1      45.061  27.917  30.519  1.00  0.00     0.016 A 
ATOM     42  C   UNL A   1      43.808  28.672  28.580  1.00  0.00     0.016 A 
ATOM     43  C   UNL A   1      45.286  29.238  30.894  1.00  0.00     0.010 A 
ATOM     44  C   UNL A   1      44.025  29.999  28.966  1.00  0.00     0.010 A 
ATOM     45  C   UNL A   1      44.725  30.286  30.151  1.00  0.00    -0.014 A 
BRANCH  45  46
ATOM     46  C   UNL A   1      44.710  31.647  30.743  1.00  0.00     0.031 A 
ATOM     47  C   UNL A   1      45.725  32.651  30.263  1.00  0.00     0.074 A 
ATOM     48  C   UNL A   1      43.765  32.007  31.628  1.00  0.00     0.049 A 
ATOM     49  N   UNL A   1      45.866  33.911  30.583  1.00  0.00    -0.248 NA
ATOM     50  C   UNL A   1      46.716  32.163  29.293  1.00  0.00     0.031 C 
ATOM     51  C   UNL A   1      42.715  31.129  32.142  1.00  0.00     0.029 A 
ATOM     52  N   UNL A   1      43.530  33.211  32.245  1.00  0.00    -0.354 N 
ATOM     53  C   UNL A   1      46.962  34.366  29.856  1.00  0.00     0.074 A 
ATOM     54  C   UNL A   1      47.475  33.233  29.118  1.00  0.00     0.031 C 
ATOM     55  C   UNL A   1      41.946  31.826  32.997  1.00  0.00     0.029 A 
ATOM     56  C   UNL A   1      42.466  33.188  33.115  1.00  0.00     0.049 A 
ATOM     57  H   UNL A   1      44.073  34.015  32.080  1.00  0.00     0.167 HD
ATOM     58  C   UNL A   1      47.484  35.616  29.802  1.00  0.00     0.034 A 
ATOM     59  C   UNL A   1      41.979  34.149  33.926  1.00  0.00     0.034 A 
ATOM     60  C   UNL A   1      46.965  36.732  30.559  1.00  0.00     0.049 A 
ATOM     61  C   UNL A   1      42.611  35.520  33.895  1.00  0.00     0.074 A 
ATOM     62  C   UNL A   1      47.398  38.046  30.561  1.00  0.00     0.029 A 
ATOM     63  N   UNL A   1      45.913  36.661  31.464  1.00  0.00    -0.354 N 
ATOM     64  N   UNL A   1      43.628  35.949  33.179  1.00  0.00    -0.248 NA
ATOM     65  C   UNL A   1      42.018  36.541  34.767  1.00  0.00     0.031 C 
ATOM     66  C   UNL A   1      46.672  38.745  31.531  1.00  0.00     0.029 A 
ATOM     67  C   UNL A   1      45.712  37.898  32.062  1.00  0.00     0.049 A 
ATOM     68  H   UNL A   1      45.387  35.851  31.655  1.00  0.00     0.167 HD
ATOM     69  C   UNL A   1      43.772  37.299  33.492  1.00  0.00     0.074 A 
ATOM     70  C   UNL A   1      42.727  37.613  34.446  1.00  0.00     0.031 C 
ATOM     71  C   UNL A   1      44.679  38.198  33.028  1.00  0.00     0.034 A 
BRANCH  58  72
ATOM     72  C   UNL A   1      48.717  35.819  28.949  1.00  0.00     0.023 A 
ATOM     73  C   UNL A   1      48.661  35.830  27.543  1.00  0.00     0.031 A 
ATOM     74  C   UNL A   1      49.979  35.958  29.555  1.00  0.00     0.131 A 
ATOM     75  C   UNL A   1      49.847  35.894  26.794  1.00  0.00     0.055 A 
ATOM     76  C   UNL A   1      51.145  36.114  28.804  1.00  0.00     0.041 A 
ATOM     77  F   UNL A   1      50.103  35.928  30.891  1.00  0.00    -0.206 F 
ATOM     78  C   UNL A   1      51.086  36.065  27.415  1.00  0.00     0.022 A 
BRANCH  75  79
ATOM     79  S   UNL A   1      49.765  35.579  25.009  1.00  0.00     0.124 S 
ATOM     80  O   UNL A   1      50.345  36.805  24.467  1.00  0.00    -0.237 OA
ATOM     81  O   UNL A   1      50.571  34.373  24.865  1.00  0.00    -0.237 OA
ATOM     82  O   UNL A   1      48.336  35.410  24.755  1.00  0.00    -0.744 OA
ENDBRANCH  75  79
ENDBRANCH  58  72
BRANCH  59  83
ATOM     83  C   UNL A   1      40.859  33.842  34.863  1.00  0.00     0.023 A 
ATOM     84  C   UNL A   1      39.525  33.781  34.427  1.00  0.00     0.031 A 
ATOM     85  C   UNL A   1      41.112  33.642  36.232  1.00  0.00     0.131 A 
ATOM     86  C   UNL A   1      38.494  33.564  35.356  1.00  0.00     0.055 A 
ATOM     87  C   UNL A   1      40.090  33.371  37.143  1.00  0.00     0.041 A 
ATOM     88  F   UNL A   1      42.367  33.693  36.705  1.00  0.00    -0.206 F 
ATOM     89  C   UNL A   1      38.769  33.342  36.707  1.00  0.00     0.022 A 
BRANCH  86  90
ATOM     90  S   UNL A   1      36.773  33.653  34.789  1.00  0.00     0.124 S 
ATOM     91  O   UNL A   1      36.045  33.693  36.052  1.00  0.00    -0.237 OA
ATOM     92  O   UNL A   1      36.775  34.886  34.008  1.00  0.00    -0.237 OA
ATOM     93  O   UNL A   1      36.608  32.427  34.010  1.00  0.00    -0.744 OA
ENDBRANCH  86  90
ENDBRANCH  59  83
BRANCH  71  94
ATOM     94  C   UNL A   1      44.545  39.626  33.513  1.00  0.00     0.023 A 
ATOM     95  C   UNL A   1      43.713  40.558  32.868  1.00  0.00     0.031 A 
ATOM     96  C   UNL A   1      45.287  40.068  34.624  1.00  0.00     0.131 A 
ATOM     97  C   UNL A   1      43.709  41.899  33.285  1.00  0.00     0.055 A 
ATOM     98  C   UNL A   1      45.215  41.383  35.085  1.00  0.00     0.041 A 
ATOM     99  F   UNL A   1      46.102  39.227  35.281  1.00  0.00    -0.206 F 
ATOM    100  C   UNL A   1      44.438  42.313  34.402  1.00  0.00     0.022 A 
BRANCH  97 101
ATOM    101  S   UNL A   1      42.847  43.125  32.262  1.00  0.00     0.124 S 
ATOM    102  O   UNL A   1      42.063  43.851  33.257  1.00  0.00    -0.237 OA
ATOM    103  O   UNL A   1      43.951  43.860  31.658  1.00  0.00    -0.237 OA
ATOM    104  O   UNL A   1      42.065  42.308  31.335  1.00  0.00    -0.744 OA
ENDBRANCH  97 101
ENDBRANCH  71  94
ENDBRANCH  45  46
ENDBRANCH  38  40
ENDBRANCH  37  38
ENDBRANCH  36  37
ENDBRANCH  35  36
ENDBRANCH  34  35
ENDBRANCH  33  34
ENDBRANCH  32  33
ENDBRANCH   1  32
TORSDOF 27
ENDMDL
