MODEL 1
REMARK VINA RESULT:      -8.9      0.000      0.000
REMARK SMILES Cc1c(C(=O)OCCOCCOCCOCCOC(=O)c2ccc(-c3c4nc(c(-c5cc(S(=O)(=O)[O-])ccc5F)c5ccc([nH]5)c(-c5cc(S(=O)(=O)[O-])ccc5F)c5nc(c(-c6cc(S(=O)(=O)[O-])ccc6F)c6ccc3[nH]6)C=C5)C=C4)cc2)oc2c1/C(=N/NC(=O)C(c1ccccc1)c1ccccc1)CCC2
REMARK SMILES IDX 12 1 11 2 10 3 9 4 8 5 7 6 6 7 4 8 5 9 3 10 1 11 2 12 86 13
REMARK SMILES IDX 84 14 85 15 87 16 107 17 88 18 105 19 106 20 89 21 90 22
REMARK SMILES IDX 91 24 92 25 93 26 94 27 98 28 95 29 97 30 96 31 99 32 100 33
REMARK SMILES IDX 104 34 101 35 103 36 102 37 13 38 14 39 15 40 16 41 17 42
REMARK SMILES IDX 18 43 19 44 20 45 21 46 22 47 83 48 23 49 82 50 24 51 25 52
REMARK SMILES IDX 26 53 76 54 27 55 81 56 75 57 77 58 28 59 80 60 74 61 73 62
REMARK SMILES IDX 29 64 61 65 41 66 60 67 42 68 45 69 59 70 78 71 43 72 44 73
REMARK SMILES IDX 58 75 79 76 46 77 30 78 31 79 39 80 32 81 38 82 40 83 37 84
REMARK SMILES IDX 33 85 34 86 35 87 36 88 62 89 63 90 71 91 64 92 70 93 72 94
REMARK SMILES IDX 69 95 65 96 66 97 67 98 68 99 47 100 48 101 56 102 49 103
REMARK SMILES IDX 55 104 57 105 54 106 50 107 51 108 52 109 53 110
REMARK H PARENT 89 23 77 63 45 74
REMARK Flexibility Score: inf
ROOT
ATOM      1  O   UNL A   1      36.014  21.765  26.007  1.00  0.00    -0.377 OA
ENDROOT
BRANCH   1   2
ATOM      2  C   UNL A   1      35.564  20.726  25.138  1.00  0.00     0.188 C 
BRANCH   2   3
ATOM      3  C   UNL A   1      34.112  20.640  24.612  1.00  0.00     0.188 C 
BRANCH   3   4
ATOM      4  O   UNL A   1      33.500  21.913  24.493  1.00  0.00    -0.376 OA
BRANCH   4   5
ATOM      5  C   UNL A   1      33.114  22.384  23.221  1.00  0.00     0.202 C 
BRANCH   5   6
ATOM      6  C   UNL A   1      31.677  22.892  23.233  1.00  0.00     0.261 C 
BRANCH   6   7
ATOM      7  O   UNL A   1      31.517  24.218  23.737  1.00  0.00    -0.457 OA
BRANCH   7   8
ATOM      8  C   UNL A   1      31.283  24.452  25.055  1.00  0.00     0.374 C 
ATOM      9  O   UNL A   1      30.834  23.638  25.857  1.00  0.00    -0.242 OA
BRANCH   8  10
ATOM     10  C   UNL A   1      31.830  25.755  25.345  1.00  0.00     0.215 A 
ATOM     11  C   UNL A   1      34.374  25.509  25.732  1.00  0.00     0.049 C 
ATOM     12  C   UNL A   1      33.098  26.267  25.649  1.00  0.00     0.012 A 
ATOM     13  C   UNL A   1      32.903  27.676  25.803  1.00  0.00     0.043 A 
ATOM     14  O   UNL A   1      30.951  26.779  25.153  1.00  0.00    -0.453 OA
ATOM     15  C   UNL A   1      31.619  27.908  25.344  1.00  0.00     0.114 A 
ATOM     16  C   UNL A   1      33.654  28.824  26.314  1.00  0.00     0.072 C 
ATOM     17  C   UNL A   1      30.868  29.162  25.127  1.00  0.00     0.076 C 
ATOM     18  N   UNL A   1      34.895  28.692  26.663  1.00  0.00    -0.177 NA
ATOM     19  C   UNL A   1      32.750  30.001  26.474  1.00  0.00     0.059 C 
ATOM     20  C   UNL A   1      31.833  30.316  25.305  1.00  0.00     0.014 C 
BRANCH  18  21
ATOM     21  N   UNL A   1      35.787  29.548  27.277  1.00  0.00    -0.246 N 
ATOM     22  C   UNL A   1      36.960  29.593  28.005  1.00  0.00     0.252 C 
ATOM     23  H   UNL A   1      35.469  30.471  27.148  1.00  0.00     0.193 HD
ATOM     24  O   UNL A   1      37.402  30.743  28.202  1.00  0.00    -0.272 OA
BRANCH  22  25
ATOM     25  C   UNL A   1      37.779  28.402  28.603  1.00  0.00     0.140 C 
BRANCH  25  26
ATOM     26  C   UNL A   1      38.941  28.057  27.599  1.00  0.00    -0.031 A 
ATOM     27  C   UNL A   1      39.423  26.761  27.354  1.00  0.00     0.005 A 
ATOM     28  C   UNL A   1      39.681  29.115  27.004  1.00  0.00     0.005 A 
ATOM     29  C   UNL A   1      40.687  26.560  26.769  1.00  0.00     0.000 A 
ATOM     30  C   UNL A   1      40.935  28.917  26.421  1.00  0.00     0.000 A 
ATOM     31  C   UNL A   1      41.461  27.639  26.344  1.00  0.00     0.000 A 
ENDBRANCH  25  26
BRANCH  25  32
ATOM     32  C   UNL A   1      37.964  28.675  30.136  1.00  0.00    -0.031 A 
ATOM     33  C   UNL A   1      38.941  27.920  30.834  1.00  0.00     0.005 A 
ATOM     34  C   UNL A   1      37.193  29.545  30.923  1.00  0.00     0.005 A 
ATOM     35  C   UNL A   1      38.956  27.822  32.228  1.00  0.00     0.000 A 
ATOM     36  C   UNL A   1      37.217  29.462  32.331  1.00  0.00     0.000 A 
ATOM     37  C   UNL A   1      38.056  28.560  32.978  1.00  0.00     0.000 A 
ENDBRANCH  25  32
ENDBRANCH  22  25
ENDBRANCH  18  21
ENDBRANCH   8  10
ENDBRANCH   7   8
ENDBRANCH   6   7
ENDBRANCH   5   6
ENDBRANCH   4   5
ENDBRANCH   3   4
ENDBRANCH   2   3
ENDBRANCH   1   2
BRANCH   1  38
ATOM     38  C   UNL A   1      37.244  22.422  25.738  1.00  0.00     0.188 C 
BRANCH  38  39
ATOM     39  C   UNL A   1      38.486  21.511  25.589  1.00  0.00     0.188 C 
BRANCH  39  40
ATOM     40  O   UNL A   1      39.564  21.829  26.459  1.00  0.00    -0.376 OA
BRANCH  40  41
ATOM     41  C   UNL A   1      40.534  20.868  26.833  1.00  0.00     0.202 C 
BRANCH  41  42
ATOM     42  C   UNL A   1      41.994  21.296  26.939  1.00  0.00     0.261 C 
BRANCH  42  43
ATOM     43  O   UNL A   1      42.392  22.240  25.971  1.00  0.00    -0.460 OA
BRANCH  43  44
ATOM     44  C   UNL A   1      43.556  21.971  25.358  1.00  0.00     0.338 C 
ATOM     45  O   UNL A   1      43.907  20.915  24.861  1.00  0.00    -0.246 OA
BRANCH  44  46
ATOM     46  C   UNL A   1      44.396  23.159  25.470  1.00  0.00     0.060 A 
ATOM     47  C   UNL A   1      45.507  23.035  26.302  1.00  0.00     0.016 A 
ATOM     48  C   UNL A   1      43.846  24.397  25.101  1.00  0.00     0.016 A 
ATOM     49  C   UNL A   1      45.880  24.144  27.011  1.00  0.00     0.010 A 
ATOM     50  C   UNL A   1      44.199  25.494  25.833  1.00  0.00     0.010 A 
ATOM     51  C   UNL A   1      45.136  25.317  26.846  1.00  0.00    -0.014 A 
BRANCH  51  52
ATOM     52  C   UNL A   1      45.394  26.394  27.763  1.00  0.00     0.031 A 
ATOM     53  C   UNL A   1      46.592  27.166  27.408  1.00  0.00     0.074 A 
ATOM     54  C   UNL A   1      44.571  26.677  28.786  1.00  0.00     0.049 A 
ATOM     55  N   UNL A   1      47.710  27.213  28.045  1.00  0.00    -0.248 NA
ATOM     56  C   UNL A   1      46.614  27.809  26.086  1.00  0.00     0.031 C 
ATOM     57  C   UNL A   1      43.231  26.151  29.049  1.00  0.00     0.029 A 
ATOM     58  N   UNL A   1      44.738  27.610  29.756  1.00  0.00    -0.354 N 
ATOM     59  C   UNL A   1      48.500  28.091  27.321  1.00  0.00     0.074 A 
ATOM     60  C   UNL A   1      47.871  28.246  26.038  1.00  0.00     0.031 C 
ATOM     61  C   UNL A   1      42.625  26.939  29.965  1.00  0.00     0.029 A 
ATOM     62  C   UNL A   1      43.572  27.940  30.430  1.00  0.00     0.049 A 
ATOM     63  H   UNL A   1      45.610  28.017  29.964  1.00  0.00     0.167 HD
ATOM     64  C   UNL A   1      49.462  28.829  27.934  1.00  0.00     0.034 A 
ATOM     65  C   UNL A   1      43.390  29.026  31.226  1.00  0.00     0.034 A 
ATOM     66  C   UNL A   1      49.848  28.246  29.198  1.00  0.00     0.049 A 
ATOM     67  C   UNL A   1      44.740  29.474  31.667  1.00  0.00     0.074 A 
ATOM     68  C   UNL A   1      50.320  26.997  29.565  1.00  0.00     0.029 A 
ATOM     69  N   UNL A   1      49.379  28.817  30.362  1.00  0.00    -0.354 N 
ATOM     70  N   UNL A   1      45.516  28.764  32.440  1.00  0.00    -0.248 NA
ATOM     71  C   UNL A   1      45.430  30.474  30.863  1.00  0.00     0.031 C 
ATOM     72  C   UNL A   1      49.655  26.696  30.790  1.00  0.00     0.029 A 
ATOM     73  C   UNL A   1      48.877  27.800  31.144  1.00  0.00     0.049 A 
ATOM     74  H   UNL A   1      49.400  29.774  30.591  1.00  0.00     0.167 HD
ATOM     75  C   UNL A   1      46.792  28.915  31.916  1.00  0.00     0.074 A 
ATOM     76  C   UNL A   1      46.693  30.059  31.012  1.00  0.00     0.031 C 
ATOM     77  C   UNL A   1      47.738  27.933  32.036  1.00  0.00     0.034 A 
BRANCH  64  78
ATOM     78  C   UNL A   1      49.791  30.240  27.528  1.00  0.00     0.023 A 
ATOM     79  C   UNL A   1      48.771  31.199  27.618  1.00  0.00     0.031 A 
ATOM     80  C   UNL A   1      50.955  30.637  26.823  1.00  0.00     0.131 A 
ATOM     81  C   UNL A   1      48.907  32.447  26.988  1.00  0.00     0.055 A 
ATOM     82  C   UNL A   1      51.116  31.906  26.269  1.00  0.00     0.041 A 
ATOM     83  F   UNL A   1      51.957  29.795  26.542  1.00  0.00    -0.206 F 
ATOM     84  C   UNL A   1      50.076  32.814  26.327  1.00  0.00     0.022 A 
BRANCH  81  85
ATOM     85  S   UNL A   1      47.453  33.520  26.895  1.00  0.00     0.124 S 
ATOM     86  O   UNL A   1      47.598  34.099  25.563  1.00  0.00    -0.237 OA
ATOM     87  O   UNL A   1      46.365  32.564  27.068  1.00  0.00    -0.237 OA
ATOM     88  O   UNL A   1      47.649  34.451  28.004  1.00  0.00    -0.744 OA
ENDBRANCH  81  85
ENDBRANCH  64  78
BRANCH  65  89
ATOM     89  C   UNL A   1      42.161  29.863  31.301  1.00  0.00     0.023 A 
ATOM     90  C   UNL A   1      41.602  30.281  32.524  1.00  0.00     0.031 A 
ATOM     91  C   UNL A   1      41.633  30.456  30.130  1.00  0.00     0.131 A 
ATOM     92  C   UNL A   1      40.560  31.237  32.540  1.00  0.00     0.055 A 
ATOM     93  C   UNL A   1      40.593  31.386  30.150  1.00  0.00     0.041 A 
ATOM     94  F   UNL A   1      42.167  30.217  28.922  1.00  0.00    -0.206 F 
ATOM     95  C   UNL A   1      40.055  31.787  31.359  1.00  0.00     0.022 A 
BRANCH  92  96
ATOM     96  S   UNL A   1      39.908  31.859  34.122  1.00  0.00     0.124 S 
ATOM     97  O   UNL A   1      40.875  32.893  34.472  1.00  0.00    -0.237 OA
ATOM     98  O   UNL A   1      38.573  32.315  33.753  1.00  0.00    -0.237 OA
ATOM     99  O   UNL A   1      39.930  30.679  34.988  1.00  0.00    -0.744 OA
ENDBRANCH  92  96
ENDBRANCH  65  89
BRANCH  77 100
ATOM    100  C   UNL A   1      47.477  26.783  32.995  1.00  0.00     0.023 A 
ATOM    101  C   UNL A   1      46.419  25.851  32.871  1.00  0.00     0.031 A 
ATOM    102  C   UNL A   1      48.427  26.549  34.006  1.00  0.00     0.131 A 
ATOM    103  C   UNL A   1      46.338  24.750  33.748  1.00  0.00     0.055 A 
ATOM    104  C   UNL A   1      48.357  25.445  34.857  1.00  0.00     0.041 A 
ATOM    105  F   UNL A   1      49.473  27.378  34.163  1.00  0.00    -0.206 F 
ATOM    106  C   UNL A   1      47.307  24.544  34.735  1.00  0.00     0.022 A 
BRANCH 103 107
ATOM    107  S   UNL A   1      44.956  23.566  33.632  1.00  0.00     0.124 S 
ATOM    108  O   UNL A   1      45.524  22.325  34.145  1.00  0.00    -0.237 OA
ATOM    109  O   UNL A   1      43.933  24.196  34.462  1.00  0.00    -0.237 OA
ATOM    110  O   UNL A   1      44.647  23.546  32.201  1.00  0.00    -0.744 OA
ENDBRANCH 103 107
ENDBRANCH  77 100
ENDBRANCH  51  52
ENDBRANCH  44  46
ENDBRANCH  43  44
ENDBRANCH  42  43
ENDBRANCH  41  42
ENDBRANCH  40  41
ENDBRANCH  39  40
ENDBRANCH  38  39
ENDBRANCH   1  38
TORSDOF 27
ENDMDL
MODEL 2
REMARK VINA RESULT:      -8.5      2.570      7.197
REMARK SMILES Cc1c(C(=O)OCCOCCOCCOCCOC(=O)c2ccc(-c3c4nc(c(-c5cc(S(=O)(=O)[O-])ccc5F)c5ccc([nH]5)c(-c5cc(S(=O)(=O)[O-])ccc5F)c5nc(c(-c6cc(S(=O)(=O)[O-])ccc6F)c6ccc3[nH]6)C=C5)C=C4)cc2)oc2c1/C(=N/NC(=O)C(c1ccccc1)c1ccccc1)CCC2
REMARK SMILES IDX 12 1 11 2 10 3 9 4 8 5 7 6 6 7 4 8 5 9 3 10 1 11 2 12 86 13
REMARK SMILES IDX 84 14 85 15 87 16 107 17 88 18 105 19 106 20 89 21 90 22
REMARK SMILES IDX 91 24 92 25 93 26 94 27 98 28 95 29 97 30 96 31 99 32 100 33
REMARK SMILES IDX 104 34 101 35 103 36 102 37 13 38 14 39 15 40 16 41 17 42
REMARK SMILES IDX 18 43 19 44 20 45 21 46 22 47 83 48 23 49 82 50 24 51 25 52
REMARK SMILES IDX 26 53 76 54 27 55 81 56 75 57 77 58 28 59 80 60 74 61 73 62
REMARK SMILES IDX 29 64 61 65 41 66 60 67 42 68 45 69 59 70 78 71 43 72 44 73
REMARK SMILES IDX 58 75 79 76 46 77 30 78 31 79 39 80 32 81 38 82 40 83 37 84
REMARK SMILES IDX 33 85 34 86 35 87 36 88 62 89 63 90 71 91 64 92 70 93 72 94
REMARK SMILES IDX 69 95 65 96 66 97 67 98 68 99 47 100 48 101 56 102 49 103
REMARK SMILES IDX 55 104 57 105 54 106 50 107 51 108 52 109 53 110
REMARK H PARENT 89 23 77 63 45 74
REMARK Flexibility Score: inf
ROOT
ATOM      1  O   UNL A   1      36.186  21.900  25.710  1.00  0.00    -0.377 OA
ENDROOT
BRANCH   1   2
ATOM      2  C   UNL A   1      35.945  20.677  25.014  1.00  0.00     0.188 C 
BRANCH   2   3
ATOM      3  C   UNL A   1      34.524  20.132  24.738  1.00  0.00     0.188 C 
BRANCH   3   4
ATOM      4  O   UNL A   1      33.545  21.158  24.703  1.00  0.00    -0.376 OA
BRANCH   4   5
ATOM      5  C   UNL A   1      33.489  22.028  23.595  1.00  0.00     0.202 C 
BRANCH   5   6
ATOM      6  C   UNL A   1      32.073  22.544  23.370  1.00  0.00     0.261 C 
BRANCH   6   7
ATOM      7  O   UNL A   1      31.839  23.871  23.843  1.00  0.00    -0.457 OA
BRANCH   7   8
ATOM      8  C   UNL A   1      31.612  24.124  25.159  1.00  0.00     0.374 C 
ATOM      9  O   UNL A   1      31.247  23.300  25.993  1.00  0.00    -0.242 OA
BRANCH   8  10
ATOM     10  C   UNL A   1      32.054  25.475  25.400  1.00  0.00     0.215 A 
ATOM     11  C   UNL A   1      34.610  25.445  25.787  1.00  0.00     0.049 C 
ATOM     12  C   UNL A   1      33.279  26.096  25.681  1.00  0.00     0.012 A 
ATOM     13  C   UNL A   1      32.973  27.490  25.786  1.00  0.00     0.043 A 
ATOM     14  O   UNL A   1      31.097  26.419  25.174  1.00  0.00    -0.453 OA
ATOM     15  C   UNL A   1      31.675  27.604  25.323  1.00  0.00     0.114 A 
ATOM     16  C   UNL A   1      33.632  28.711  26.253  1.00  0.00     0.072 C 
ATOM     17  C   UNL A   1      30.827  28.785  25.063  1.00  0.00     0.076 C 
ATOM     18  N   UNL A   1      34.880  28.689  26.603  1.00  0.00    -0.177 NA
ATOM     19  C   UNL A   1      32.638  29.818  26.374  1.00  0.00     0.059 C 
ATOM     20  C   UNL A   1      31.699  30.018  25.197  1.00  0.00     0.014 C 
BRANCH  18  21
ATOM     21  N   UNL A   1      35.702  29.635  27.183  1.00  0.00    -0.246 N 
ATOM     22  C   UNL A   1      36.774  29.798  28.037  1.00  0.00     0.252 C 
ATOM     23  H   UNL A   1      35.418  30.525  26.870  1.00  0.00     0.193 HD
ATOM     24  O   UNL A   1      37.207  30.965  28.105  1.00  0.00    -0.272 OA
BRANCH  22  25
ATOM     25  C   UNL A   1      37.490  28.719  28.915  1.00  0.00     0.140 C 
BRANCH  25  26
ATOM     26  C   UNL A   1      38.854  28.353  28.220  1.00  0.00    -0.031 A 
ATOM     27  C   UNL A   1      39.577  29.217  27.381  1.00  0.00     0.005 A 
ATOM     28  C   UNL A   1      39.335  27.017  28.295  1.00  0.00     0.005 A 
ATOM     29  C   UNL A   1      40.552  28.716  26.498  1.00  0.00     0.000 A 
ATOM     30  C   UNL A   1      40.303  26.520  27.419  1.00  0.00     0.000 A 
ATOM     31  C   UNL A   1      40.882  27.363  26.486  1.00  0.00     0.000 A 
ENDBRANCH  25  26
BRANCH  25  32
ATOM     32  C   UNL A   1      37.329  29.144  30.415  1.00  0.00    -0.031 A 
ATOM     33  C   UNL A   1      36.282  30.043  30.745  1.00  0.00     0.005 A 
ATOM     34  C   UNL A   1      38.179  28.789  31.475  1.00  0.00     0.005 A 
ATOM     35  C   UNL A   1      36.254  30.752  31.949  1.00  0.00     0.000 A 
ATOM     36  C   UNL A   1      38.144  29.489  32.698  1.00  0.00     0.000 A 
ATOM     37  C   UNL A   1      37.221  30.509  32.910  1.00  0.00     0.000 A 
ENDBRANCH  25  32
ENDBRANCH  22  25
ENDBRANCH  18  21
ENDBRANCH   8  10
ENDBRANCH   7   8
ENDBRANCH   6   7
ENDBRANCH   5   6
ENDBRANCH   4   5
ENDBRANCH   3   4
ENDBRANCH   2   3
ENDBRANCH   1   2
BRANCH   1  38
ATOM     38  C   UNL A   1      37.434  22.561  25.558  1.00  0.00     0.188 C 
BRANCH  38  39
ATOM     39  C   UNL A   1      38.696  21.695  25.786  1.00  0.00     0.188 C 
BRANCH  39  40
ATOM     40  O   UNL A   1      39.803  22.393  26.341  1.00  0.00    -0.376 OA
BRANCH  40  41
ATOM     41  C   UNL A   1      40.988  21.726  26.737  1.00  0.00     0.202 C 
BRANCH  41  42
ATOM     42  C   UNL A   1      42.333  22.398  26.480  1.00  0.00     0.261 C 
BRANCH  42  43
ATOM     43  O   UNL A   1      42.374  23.182  25.309  1.00  0.00    -0.460 OA
BRANCH  43  44
ATOM     44  C   UNL A   1      43.507  23.082  24.596  1.00  0.00     0.338 C 
ATOM     45  O   UNL A   1      43.837  22.178  23.848  1.00  0.00    -0.246 OA
BRANCH  44  46
ATOM     46  C   UNL A   1      44.348  24.222  24.946  1.00  0.00     0.060 A 
ATOM     47  C   UNL A   1      45.663  23.917  25.293  1.00  0.00     0.016 A 
ATOM     48  C   UNL A   1      43.718  25.426  25.301  1.00  0.00     0.016 A 
ATOM     49  C   UNL A   1      46.246  24.691  26.260  1.00  0.00     0.010 A 
ATOM     50  C   UNL A   1      44.290  26.177  26.288  1.00  0.00     0.010 A 
ATOM     51  C   UNL A   1      45.495  25.731  26.819  1.00  0.00    -0.014 A 
BRANCH  51  52
ATOM     52  C   UNL A   1      46.034  26.377  27.984  1.00  0.00     0.031 A 
ATOM     53  C   UNL A   1      45.274  26.073  29.204  1.00  0.00     0.074 A 
ATOM     54  C   UNL A   1      47.152  27.119  27.940  1.00  0.00     0.049 A 
ATOM     55  N   UNL A   1      44.539  26.878  29.890  1.00  0.00    -0.248 NA
ATOM     56  C   UNL A   1      45.164  24.660  29.597  1.00  0.00     0.031 C 
ATOM     57  C   UNL A   1      48.117  27.247  26.846  1.00  0.00     0.029 A 
ATOM     58  N   UNL A   1      47.718  27.835  28.943  1.00  0.00    -0.354 N 
ATOM     59  C   UNL A   1      44.064  26.119  30.948  1.00  0.00     0.074 A 
ATOM     60  C   UNL A   1      44.292  24.743  30.599  1.00  0.00     0.031 C 
ATOM     61  C   UNL A   1      49.252  27.801  27.330  1.00  0.00     0.029 A 
ATOM     62  C   UNL A   1      49.046  28.170  28.721  1.00  0.00     0.049 A 
ATOM     63  H   UNL A   1      47.230  28.095  29.758  1.00  0.00     0.167 HD
ATOM     64  C   UNL A   1      43.768  26.697  32.141  1.00  0.00     0.034 A 
ATOM     65  C   UNL A   1      49.924  28.614  29.657  1.00  0.00     0.034 A 
ATOM     66  C   UNL A   1      43.545  28.117  31.998  1.00  0.00     0.049 A 
ATOM     67  C   UNL A   1      49.120  29.176  30.777  1.00  0.00     0.074 A 
ATOM     68  C   UNL A   1      42.685  28.871  31.218  1.00  0.00     0.029 A 
ATOM     69  N   UNL A   1      44.537  28.986  32.396  1.00  0.00    -0.354 N 
ATOM     70  N   UNL A   1      48.368  30.237  30.661  1.00  0.00    -0.248 NA
ATOM     71  C   UNL A   1      48.761  28.291  31.879  1.00  0.00     0.031 C 
ATOM     72  C   UNL A   1      43.463  29.982  30.779  1.00  0.00     0.029 A 
ATOM     73  C   UNL A   1      44.723  29.890  31.373  1.00  0.00     0.049 A 
ATOM     74  H   UNL A   1      45.022  28.966  33.252  1.00  0.00     0.167 HD
ATOM     75  C   UNL A   1      47.210  29.944  31.369  1.00  0.00     0.074 A 
ATOM     76  C   UNL A   1      47.552  28.778  32.181  1.00  0.00     0.031 C 
ATOM     77  C   UNL A   1      46.002  30.486  31.024  1.00  0.00     0.034 A 
BRANCH  64  78
ATOM     78  C   UNL A   1      44.016  26.016  33.460  1.00  0.00     0.023 A 
ATOM     79  C   UNL A   1      42.989  26.051  34.415  1.00  0.00     0.031 A 
ATOM     80  C   UNL A   1      45.278  25.565  33.922  1.00  0.00     0.131 A 
ATOM     81  C   UNL A   1      43.246  25.707  35.753  1.00  0.00     0.055 A 
ATOM     82  C   UNL A   1      45.507  25.148  35.233  1.00  0.00     0.041 A 
ATOM     83  F   UNL A   1      46.383  25.598  33.166  1.00  0.00    -0.206 F 
ATOM     84  C   UNL A   1      44.492  25.243  36.166  1.00  0.00     0.022 A 
BRANCH  81  85
ATOM     85  S   UNL A   1      41.966  26.049  36.985  1.00  0.00     0.124 S 
ATOM     86  O   UNL A   1      41.143  27.033  36.290  1.00  0.00    -0.237 OA
ATOM     87  O   UNL A   1      41.373  24.729  37.171  1.00  0.00    -0.237 OA
ATOM     88  O   UNL A   1      42.723  26.561  38.125  1.00  0.00    -0.744 OA
ENDBRANCH  81  85
ENDBRANCH  64  78
BRANCH  65  89
ATOM     89  C   UNL A   1      51.361  28.240  29.760  1.00  0.00     0.023 A 
ATOM     90  C   UNL A   1      52.397  29.194  29.730  1.00  0.00     0.031 A 
ATOM     91  C   UNL A   1      51.728  26.920  30.115  1.00  0.00     0.131 A 
ATOM     92  C   UNL A   1      53.725  28.812  30.033  1.00  0.00     0.055 A 
ATOM     93  C   UNL A   1      53.042  26.545  30.397  1.00  0.00     0.041 A 
ATOM     94  F   UNL A   1      50.806  25.960  30.286  1.00  0.00    -0.206 F 
ATOM     95  C   UNL A   1      54.048  27.494  30.365  1.00  0.00     0.022 A 
BRANCH  92  96
ATOM     96  S   UNL A   1      55.048  30.061  30.100  1.00  0.00     0.124 S 
ATOM     97  O   UNL A   1      54.454  31.099  30.934  1.00  0.00    -0.237 OA
ATOM     98  O   UNL A   1      56.156  29.313  30.684  1.00  0.00    -0.237 OA
ATOM     99  O   UNL A   1      55.237  30.433  28.697  1.00  0.00    -0.744 OA
ENDBRANCH  92  96
ENDBRANCH  65  89
BRANCH  77 100
ATOM    100  C   UNL A   1      45.976  31.638  30.032  1.00  0.00     0.023 A 
ATOM    101  C   UNL A   1      45.827  31.495  28.632  1.00  0.00     0.031 A 
ATOM    102  C   UNL A   1      45.972  32.945  30.551  1.00  0.00     0.131 A 
ATOM    103  C   UNL A   1      45.696  32.635  27.814  1.00  0.00     0.055 A 
ATOM    104  C   UNL A   1      45.817  34.071  29.740  1.00  0.00     0.041 A 
ATOM    105  F   UNL A   1      46.082  33.154  31.874  1.00  0.00    -0.206 F 
ATOM    106  C   UNL A   1      45.685  33.920  28.366  1.00  0.00     0.022 A 
BRANCH 103 107
ATOM    107  S   UNL A   1      45.550  32.471  26.003  1.00  0.00     0.124 S 
ATOM    108  O   UNL A   1      46.228  31.213  25.718  1.00  0.00    -0.237 OA
ATOM    109  O   UNL A   1      44.104  32.481  25.802  1.00  0.00    -0.237 OA
ATOM    110  O   UNL A   1      46.240  33.661  25.499  1.00  0.00    -0.744 OA
ENDBRANCH 103 107
ENDBRANCH  77 100
ENDBRANCH  51  52
ENDBRANCH  44  46
ENDBRANCH  43  44
ENDBRANCH  42  43
ENDBRANCH  41  42
ENDBRANCH  40  41
ENDBRANCH  39  40
ENDBRANCH  38  39
ENDBRANCH   1  38
TORSDOF 27
ENDMDL
MODEL 3
REMARK VINA RESULT:      -8.4      2.670      4.525
REMARK SMILES Cc1c(C(=O)OCCOCCOCCOCCOC(=O)c2ccc(-c3c4nc(c(-c5cc(S(=O)(=O)[O-])ccc5F)c5ccc([nH]5)c(-c5cc(S(=O)(=O)[O-])ccc5F)c5nc(c(-c6cc(S(=O)(=O)[O-])ccc6F)c6ccc3[nH]6)C=C5)C=C4)cc2)oc2c1/C(=N/NC(=O)C(c1ccccc1)c1ccccc1)CCC2
REMARK SMILES IDX 12 1 11 2 10 3 9 4 8 5 7 6 6 7 4 8 5 9 3 10 1 11 2 12 86 13
REMARK SMILES IDX 84 14 85 15 87 16 107 17 88 18 105 19 106 20 89 21 90 22
REMARK SMILES IDX 91 24 92 25 93 26 94 27 98 28 95 29 97 30 96 31 99 32 100 33
REMARK SMILES IDX 104 34 101 35 103 36 102 37 13 38 14 39 15 40 16 41 17 42
REMARK SMILES IDX 18 43 19 44 20 45 21 46 22 47 83 48 23 49 82 50 24 51 25 52
REMARK SMILES IDX 26 53 76 54 27 55 81 56 75 57 77 58 28 59 80 60 74 61 73 62
REMARK SMILES IDX 29 64 61 65 41 66 60 67 42 68 45 69 59 70 78 71 43 72 44 73
REMARK SMILES IDX 58 75 79 76 46 77 30 78 31 79 39 80 32 81 38 82 40 83 37 84
REMARK SMILES IDX 33 85 34 86 35 87 36 88 62 89 63 90 71 91 64 92 70 93 72 94
REMARK SMILES IDX 69 95 65 96 66 97 67 98 68 99 47 100 48 101 56 102 49 103
REMARK SMILES IDX 55 104 57 105 54 106 50 107 51 108 52 109 53 110
REMARK H PARENT 89 23 77 63 45 74
REMARK Flexibility Score: inf
ROOT
ATOM      1  O   UNL A   1      37.157  22.139  25.763  1.00  0.00    -0.377 OA
ENDROOT
BRANCH   1   2
ATOM      2  C   UNL A   1      36.524  21.365  24.743  1.00  0.00     0.188 C 
BRANCH   2   3
ATOM      3  C   UNL A   1      35.208  20.587  24.973  1.00  0.00     0.188 C 
BRANCH   3   4
ATOM      4  O   UNL A   1      34.459  21.096  26.065  1.00  0.00    -0.376 OA
BRANCH   4   5
ATOM      5  C   UNL A   1      33.827  22.351  25.950  1.00  0.00     0.202 C 
BRANCH   5   6
ATOM      6  C   UNL A   1      32.908  22.397  24.735  1.00  0.00     0.261 C 
BRANCH   6   7
ATOM      7  O   UNL A   1      32.216  23.633  24.557  1.00  0.00    -0.457 OA
BRANCH   7   8
ATOM      8  C   UNL A   1      31.464  24.174  25.552  1.00  0.00     0.374 C 
ATOM      9  O   UNL A   1      30.833  23.543  26.396  1.00  0.00    -0.242 OA
BRANCH   8  10
ATOM     10  C   UNL A   1      31.706  25.595  25.523  1.00  0.00     0.215 A 
ATOM     11  C   UNL A   1      34.163  26.024  26.201  1.00  0.00     0.049 C 
ATOM     12  C   UNL A   1      32.795  26.435  25.793  1.00  0.00     0.012 A 
ATOM     13  C   UNL A   1      32.316  27.759  25.536  1.00  0.00     0.043 A 
ATOM     14  O   UNL A   1      30.688  26.319  24.976  1.00  0.00    -0.453 OA
ATOM     15  C   UNL A   1      31.095  27.579  24.911  1.00  0.00     0.114 A 
ATOM     16  C   UNL A   1      32.753  29.135  25.780  1.00  0.00     0.072 C 
ATOM     17  C   UNL A   1      30.163  28.540  24.289  1.00  0.00     0.076 C 
ATOM     18  N   UNL A   1      33.930  29.372  26.267  1.00  0.00    -0.177 NA
ATOM     19  C   UNL A   1      31.629  30.084  25.525  1.00  0.00     0.059 C 
ATOM     20  C   UNL A   1      30.855  29.887  24.234  1.00  0.00     0.014 C 
BRANCH  18  21
ATOM     21  N   UNL A   1      34.543  30.530  26.704  1.00  0.00    -0.246 N 
ATOM     22  C   UNL A   1      35.321  31.060  27.713  1.00  0.00     0.252 C 
ATOM     23  H   UNL A   1      34.354  31.243  26.052  1.00  0.00     0.193 HD
ATOM     24  O   UNL A   1      35.708  32.227  27.509  1.00  0.00    -0.272 OA
BRANCH  22  25
ATOM     25  C   UNL A   1      35.762  30.387  29.055  1.00  0.00     0.140 C 
BRANCH  25  26
ATOM     26  C   UNL A   1      37.060  29.541  28.773  1.00  0.00    -0.031 A 
ATOM     27  C   UNL A   1      37.633  28.636  29.681  1.00  0.00     0.005 A 
ATOM     28  C   UNL A   1      37.816  29.802  27.598  1.00  0.00     0.005 A 
ATOM     29  C   UNL A   1      38.970  28.221  29.537  1.00  0.00     0.000 A 
ATOM     30  C   UNL A   1      39.143  29.389  27.454  1.00  0.00     0.000 A 
ATOM     31  C   UNL A   1      39.737  28.633  28.449  1.00  0.00     0.000 A 
ENDBRANCH  25  26
BRANCH  25  32
ATOM     32  C   UNL A   1      35.613  31.455  30.193  1.00  0.00    -0.031 A 
ATOM     33  C   UNL A   1      34.647  32.481  30.022  1.00  0.00     0.005 A 
ATOM     34  C   UNL A   1      36.407  31.557  31.346  1.00  0.00     0.005 A 
ATOM     35  C   UNL A   1      34.663  33.657  30.776  1.00  0.00     0.000 A 
ATOM     36  C   UNL A   1      36.415  32.735  32.120  1.00  0.00     0.000 A 
ATOM     37  C   UNL A   1      35.585  33.805  31.799  1.00  0.00     0.000 A 
ENDBRANCH  25  32
ENDBRANCH  22  25
ENDBRANCH  18  21
ENDBRANCH   8  10
ENDBRANCH   7   8
ENDBRANCH   6   7
ENDBRANCH   5   6
ENDBRANCH   4   5
ENDBRANCH   3   4
ENDBRANCH   2   3
ENDBRANCH   1   2
BRANCH   1  38
ATOM     38  C   UNL A   1      38.574  22.226  25.801  1.00  0.00     0.188 C 
BRANCH  38  39
ATOM     39  C   UNL A   1      39.330  20.911  26.106  1.00  0.00     0.188 C 
BRANCH  39  40
ATOM     40  O   UNL A   1      40.400  21.043  27.034  1.00  0.00    -0.376 OA
BRANCH  40  41
ATOM     41  C   UNL A   1      41.473  20.120  27.076  1.00  0.00     0.202 C 
BRANCH  41  42
ATOM     42  C   UNL A   1      42.618  20.272  26.080  1.00  0.00     0.261 C 
BRANCH  42  43
ATOM     43  O   UNL A   1      42.569  21.459  25.320  1.00  0.00    -0.460 OA
BRANCH  43  44
ATOM     44  C   UNL A   1      43.741  22.103  25.195  1.00  0.00     0.338 C 
ATOM     45  O   UNL A   1      44.831  21.620  24.940  1.00  0.00    -0.246 OA
BRANCH  44  46
ATOM     46  C   UNL A   1      43.507  23.507  25.517  1.00  0.00     0.060 A 
ATOM     47  C   UNL A   1      44.360  24.417  24.896  1.00  0.00     0.016 A 
ATOM     48  C   UNL A   1      42.772  23.807  26.674  1.00  0.00     0.016 A 
ATOM     49  C   UNL A   1      44.709  25.530  25.613  1.00  0.00     0.010 A 
ATOM     50  C   UNL A   1      43.146  24.901  27.401  1.00  0.00     0.010 A 
ATOM     51  C   UNL A   1      44.183  25.681  26.901  1.00  0.00    -0.014 A 
BRANCH  51  52
ATOM     52  C   UNL A   1      44.738  26.724  27.719  1.00  0.00     0.031 A 
ATOM     53  C   UNL A   1      46.000  26.329  28.362  1.00  0.00     0.074 A 
ATOM     54  C   UNL A   1      44.175  27.939  27.812  1.00  0.00     0.049 A 
ATOM     55  N   UNL A   1      46.207  26.121  29.616  1.00  0.00    -0.248 NA
ATOM     56  C   UNL A   1      47.110  25.934  27.484  1.00  0.00     0.031 C 
ATOM     57  C   UNL A   1      43.093  28.505  27.004  1.00  0.00     0.029 A 
ATOM     58  N   UNL A   1      44.555  28.977  28.598  1.00  0.00    -0.354 N 
ATOM     59  C   UNL A   1      47.552  25.798  29.708  1.00  0.00     0.074 A 
ATOM     60  C   UNL A   1      47.990  25.485  28.376  1.00  0.00     0.031 C 
ATOM     61  C   UNL A   1      43.069  29.845  27.186  1.00  0.00     0.029 A 
ATOM     62  C   UNL A   1      44.045  30.204  28.203  1.00  0.00     0.049 A 
ATOM     63  H   UNL A   1      45.141  28.869  29.382  1.00  0.00     0.167 HD
ATOM     64  C   UNL A   1      48.258  26.076  30.835  1.00  0.00     0.034 A 
ATOM     65  C   UNL A   1      44.483  31.422  28.615  1.00  0.00     0.034 A 
ATOM     66  C   UNL A   1      47.386  26.252  31.973  1.00  0.00     0.049 A 
ATOM     67  C   UNL A   1      45.193  31.214  29.908  1.00  0.00     0.074 A 
ATOM     68  C   UNL A   1      46.418  25.457  32.562  1.00  0.00     0.029 A 
ATOM     69  N   UNL A   1      47.133  27.531  32.422  1.00  0.00    -0.354 N 
ATOM     70  N   UNL A   1      44.597  30.815  30.999  1.00  0.00    -0.248 NA
ATOM     71  C   UNL A   1      46.629  30.972  29.874  1.00  0.00     0.031 C 
ATOM     72  C   UNL A   1      45.362  26.352  32.905  1.00  0.00     0.029 A 
ATOM     73  C   UNL A   1      45.770  27.647  32.580  1.00  0.00     0.049 A 
ATOM     74  H   UNL A   1      47.803  28.230  32.599  1.00  0.00     0.167 HD
ATOM     75  C   UNL A   1      45.469  29.904  31.580  1.00  0.00     0.074 A 
ATOM     76  C   UNL A   1      46.744  30.121  30.900  1.00  0.00     0.031 C 
ATOM     77  C   UNL A   1      45.016  28.869  32.350  1.00  0.00     0.034 A 
BRANCH  64  78
ATOM     78  C   UNL A   1      49.698  26.511  30.807  1.00  0.00     0.023 A 
ATOM     79  C   UNL A   1      49.976  27.822  30.394  1.00  0.00     0.031 A 
ATOM     80  C   UNL A   1      50.814  25.644  30.915  1.00  0.00     0.131 A 
ATOM     81  C   UNL A   1      51.287  28.203  30.060  1.00  0.00     0.055 A 
ATOM     82  C   UNL A   1      52.124  26.051  30.660  1.00  0.00     0.041 A 
ATOM     83  F   UNL A   1      50.697  24.335  31.171  1.00  0.00    -0.206 F 
ATOM     84  C   UNL A   1      52.365  27.332  30.203  1.00  0.00     0.022 A 
BRANCH  81  85
ATOM     85  S   UNL A   1      51.534  29.808  29.263  1.00  0.00     0.124 S 
ATOM     86  O   UNL A   1      50.171  30.159  28.878  1.00  0.00    -0.237 OA
ATOM     87  O   UNL A   1      52.121  30.591  30.345  1.00  0.00    -0.237 OA
ATOM     88  O   UNL A   1      52.435  29.499  28.155  1.00  0.00    -0.744 OA
ENDBRANCH  81  85
ENDBRANCH  64  78
BRANCH  65  89
ATOM     89  C   UNL A   1      44.619  32.639  27.769  1.00  0.00     0.023 A 
ATOM     90  C   UNL A   1      43.900  33.823  28.024  1.00  0.00     0.031 A 
ATOM     91  C   UNL A   1      45.647  32.720  26.801  1.00  0.00     0.131 A 
ATOM     92  C   UNL A   1      44.212  35.010  27.320  1.00  0.00     0.055 A 
ATOM     93  C   UNL A   1      45.940  33.889  26.097  1.00  0.00     0.041 A 
ATOM     94  F   UNL A   1      46.468  31.685  26.563  1.00  0.00    -0.206 F 
ATOM     95  C   UNL A   1      45.226  35.044  26.360  1.00  0.00     0.022 A 
BRANCH  92  96
ATOM     96  S   UNL A   1      43.359  36.568  27.722  1.00  0.00     0.124 S 
ATOM     97  O   UNL A   1      42.614  36.839  26.498  1.00  0.00    -0.237 OA
ATOM     98  O   UNL A   1      42.574  36.200  28.894  1.00  0.00    -0.237 OA
ATOM     99  O   UNL A   1      44.457  37.498  27.991  1.00  0.00    -0.744 OA
ENDBRANCH  92  96
ENDBRANCH  65  89
BRANCH  77 100
ATOM    100  C   UNL A   1      43.565  28.877  32.804  1.00  0.00     0.023 A 
ATOM    101  C   UNL A   1      43.090  29.500  33.981  1.00  0.00     0.031 A 
ATOM    102  C   UNL A   1      42.606  28.335  31.929  1.00  0.00     0.131 A 
ATOM    103  C   UNL A   1      41.706  29.551  34.247  1.00  0.00     0.055 A 
ATOM    104  C   UNL A   1      41.236  28.408  32.183  1.00  0.00     0.041 A 
ATOM    105  F   UNL A   1      42.985  27.752  30.779  1.00  0.00    -0.206 F 
ATOM    106  C   UNL A   1      40.781  29.012  33.349  1.00  0.00     0.022 A 
BRANCH 103 107
ATOM    107  S   UNL A   1      41.080  30.310  35.782  1.00  0.00     0.124 S 
ATOM    108  O   UNL A   1      39.728  29.778  35.901  1.00  0.00    -0.237 OA
ATOM    109  O   UNL A   1      42.043  29.847  36.778  1.00  0.00    -0.237 OA
ATOM    110  O   UNL A   1      41.144  31.746  35.501  1.00  0.00    -0.744 OA
ENDBRANCH 103 107
ENDBRANCH  77 100
ENDBRANCH  51  52
ENDBRANCH  44  46
ENDBRANCH  43  44
ENDBRANCH  42  43
ENDBRANCH  41  42
ENDBRANCH  40  41
ENDBRANCH  39  40
ENDBRANCH  38  39
ENDBRANCH   1  38
TORSDOF 27
ENDMDL
