MODEL 1
REMARK VINA RESULT:     -12.8      0.000      0.000
REMARK SMILES CC1=C([C@H](NC(=O)c2cccc3ccccc23)C(=O)OCCOCCOCCOCCOC(=O)c2ccc(-c3c4nc(c(-c5cc(S(=O)(=O)[O-])ccc5F)c5ccc([nH]5)c(-c5cc(S(=O)(=O)[O-])ccc5F)c5nc(c(-c6cc(S(=O)(=O)[O-])ccc6F)c6ccc3[nH]6)C=C5)C=C4)cc2)[C@H](C)N=N1
REMARK SMILES IDX 27 1 26 2 25 3 24 4 23 5 22 6 21 7 20 8 18 9 19 10 4 11 3 12
REMARK SMILES IDX 1 13 2 14 101 15 98 16 100 17 99 18 5 19 6 20 7 22 8 23 9 24
REMARK SMILES IDX 17 25 10 26 12 27 16 28 11 29 13 30 15 31 14 32 28 33 29 34
REMARK SMILES IDX 30 35 31 36 32 37 33 38 34 39 35 40 36 41 97 42 37 43 96 44
REMARK SMILES IDX 38 45 39 46 40 47 90 48 41 49 95 50 89 51 91 52 42 53 94 54
REMARK SMILES IDX 88 55 87 56 43 58 75 59 55 60 74 61 56 62 59 63 73 64 92 65
REMARK SMILES IDX 57 66 58 67 72 69 93 70 60 71 44 72 45 73 53 74 46 75 52 76
REMARK SMILES IDX 54 77 51 78 47 79 48 80 49 81 50 82 76 83 77 84 85 85 78 86
REMARK SMILES IDX 84 87 86 88 83 89 79 90 80 91 81 92 82 93 61 94 62 95 70 96
REMARK SMILES IDX 63 97 69 98 71 99 68 100 64 101 65 102 66 103 67 104
REMARK H PARENT 5 21 91 57 59 68
REMARK Flexibility Score: inf
ROOT
ATOM      1  C   UNL A   1      33.781  35.088  30.519  1.00  0.00     0.188 C 
ENDROOT
BRANCH   1   2
ATOM      2  O   UNL A   1      33.262  34.486  29.031  1.00  0.00    -0.377 OA
BRANCH   2   3
ATOM      3  C   UNL A   1      33.734  33.318  28.058  1.00  0.00     0.188 C 
BRANCH   3   4
ATOM      4  C   UNL A   1      35.180  32.345  27.927  1.00  0.00     0.188 C 
BRANCH   4   5
ATOM      5  O   UNL A   1      35.218  30.929  28.110  1.00  0.00    -0.376 OA
BRANCH   5   6
ATOM      6  C   UNL A   1      34.974  29.782  27.280  1.00  0.00     0.202 C 
BRANCH   6   7
ATOM      7  C   UNL A   1      33.593  29.271  26.766  1.00  0.00     0.261 C 
BRANCH   7   8
ATOM      8  O   UNL A   1      33.498  29.135  25.371  1.00  0.00    -0.461 OA
BRANCH   8   9
ATOM      9  C   UNL A   1      32.254  29.393  24.938  1.00  0.00     0.333 C 
ATOM     10  O   UNL A   1      31.512  30.254  25.398  1.00  0.00    -0.249 OA
BRANCH   9  11
ATOM     11  C   UNL A   1      31.896  28.448  23.813  1.00  0.00     0.223 C 
BRANCH  11  12
ATOM     12  C   UNL A   1      30.714  27.611  24.202  1.00  0.00     0.012 C 
ATOM     13  C   UNL A   1      31.389  26.410  26.349  1.00  0.00     0.069 C 
ATOM     14  C   UNL A   1      30.493  26.769  25.218  1.00  0.00     0.064 C 
ATOM     15  N   UNL A   1      29.291  26.116  25.113  1.00  0.00    -0.160 NA
ATOM     16  C   UNL A   1      29.505  27.450  23.309  1.00  0.00     0.156 C 
ATOM     17  N   UNL A   1      28.699  26.444  24.053  1.00  0.00    -0.181 NA
ATOM     18  C   UNL A   1      28.605  28.665  23.084  1.00  0.00     0.040 C 
ENDBRANCH  11  12
BRANCH  11  19
ATOM     19  N   UNL A   1      33.027  27.691  23.199  1.00  0.00    -0.335 N 
ATOM     20  C   UNL A   1      33.300  26.401  22.737  1.00  0.00     0.252 C 
ATOM     21  H   UNL A   1      33.813  28.272  23.088  1.00  0.00     0.165 HD
ATOM     22  O   UNL A   1      33.831  26.370  21.617  1.00  0.00    -0.269 OA
BRANCH  20  23
ATOM     23  C   UNL A   1      33.048  25.018  23.440  1.00  0.00     0.047 A 
ATOM     24  C   UNL A   1      31.798  24.582  22.918  1.00  0.00     0.014 A 
ATOM     25  C   UNL A   1      34.053  23.979  24.134  1.00  0.00    -0.006 A 
ATOM     26  C   UNL A   1      31.198  23.350  23.183  1.00  0.00     0.001 A 
ATOM     27  C   UNL A   1      33.081  22.521  24.418  1.00  0.00    -0.018 A 
ATOM     28  C   UNL A   1      35.938  23.689  24.362  1.00  0.00     0.009 A 
ATOM     29  C   UNL A   1      31.764  22.406  24.023  1.00  0.00     0.009 A 
ATOM     30  C   UNL A   1      33.788  20.995  24.811  1.00  0.00     0.009 A 
ATOM     31  C   UNL A   1      36.558  21.960  24.664  1.00  0.00     0.001 A 
ATOM     32  C   UNL A   1      35.442  20.695  24.912  1.00  0.00     0.001 A 
ENDBRANCH  20  23
ENDBRANCH  11  19
ENDBRANCH   9  11
ENDBRANCH   8   9
ENDBRANCH   7   8
ENDBRANCH   6   7
ENDBRANCH   5   6
ENDBRANCH   4   5
ENDBRANCH   3   4
ENDBRANCH   2   3
ENDBRANCH   1   2
BRANCH   1  33
ATOM     33  C   UNL A   1      34.209  34.036  32.077  1.00  0.00     0.188 C 
BRANCH  33  34
ATOM     34  O   UNL A   1      36.190  33.738  32.455  1.00  0.00    -0.376 OA
BRANCH  34  35
ATOM     35  C   UNL A   1      37.028  32.276  33.072  1.00  0.00     0.202 C 
BRANCH  35  36
ATOM     36  C   UNL A   1      37.163  30.653  32.313  1.00  0.00     0.261 C 
BRANCH  36  37
ATOM     37  O   UNL A   1      37.345  30.425  30.838  1.00  0.00    -0.460 OA
BRANCH  37  38
ATOM     38  C   UNL A   1      37.927  31.379  30.042  1.00  0.00     0.338 C 
ATOM     39  O   UNL A   1      37.576  32.549  30.008  1.00  0.00    -0.246 OA
BRANCH  38  40
ATOM     40  C   UNL A   1      39.260  30.957  29.475  1.00  0.00     0.060 A 
ATOM     41  C   UNL A   1      39.289  29.900  28.532  1.00  0.00     0.016 A 
ATOM     42  C   UNL A   1      40.456  31.440  30.000  1.00  0.00     0.016 A 
ATOM     43  C   UNL A   1      40.441  29.149  28.357  1.00  0.00     0.010 A 
ATOM     44  C   UNL A   1      41.607  30.671  29.851  1.00  0.00     0.010 A 
ATOM     45  C   UNL A   1      41.529  29.453  29.167  1.00  0.00    -0.014 A 
BRANCH  45  46
ATOM     46  C   UNL A   1      42.423  28.356  29.533  1.00  0.00     0.031 A 
ATOM     47  C   UNL A   1      42.928  28.365  30.920  1.00  0.00     0.074 A 
ATOM     48  C   UNL A   1      42.681  27.377  28.632  1.00  0.00     0.049 A 
ATOM     49  N   UNL A   1      44.131  28.619  31.317  1.00  0.00    -0.248 NA
ATOM     50  C   UNL A   1      41.953  28.238  32.011  1.00  0.00     0.031 C 
ATOM     51  C   UNL A   1      42.058  27.205  27.312  1.00  0.00     0.029 A 
ATOM     52  N   UNL A   1      43.473  26.270  28.721  1.00  0.00    -0.354 N 
ATOM     53  C   UNL A   1      44.113  28.413  32.691  1.00  0.00     0.074 A 
ATOM     54  C   UNL A   1      42.728  28.455  33.074  1.00  0.00     0.031 C 
ATOM     55  C   UNL A   1      42.305  25.959  26.850  1.00  0.00     0.029 A 
ATOM     56  C   UNL A   1      43.196  25.279  27.774  1.00  0.00     0.049 A 
ATOM     57  H   UNL A   1      44.182  26.177  29.397  1.00  0.00     0.167 HD
ATOM     58  C   UNL A   1      45.201  27.915  33.343  1.00  0.00     0.034 A 
ATOM     59  C   UNL A   1      43.609  23.978  27.784  1.00  0.00     0.034 A 
ATOM     60  C   UNL A   1      46.388  28.016  32.523  1.00  0.00     0.049 A 
ATOM     61  C   UNL A   1      44.801  23.916  28.667  1.00  0.00     0.074 A 
ATOM     62  C   UNL A   1      47.057  29.058  31.911  1.00  0.00     0.029 A 
ATOM     63  N   UNL A   1      46.858  26.868  31.921  1.00  0.00    -0.354 N 
ATOM     64  N   UNL A   1      45.938  24.482  28.368  1.00  0.00    -0.248 NA
ATOM     65  C   UNL A   1      44.584  23.686  30.088  1.00  0.00     0.031 C 
ATOM     66  C   UNL A   1      47.507  28.529  30.667  1.00  0.00     0.029 A 
ATOM     67  C   UNL A   1      47.178  27.173  30.621  1.00  0.00     0.049 A 
ATOM     68  H   UNL A   1      46.946  25.986  32.348  1.00  0.00     0.167 HD
ATOM     69  C   UNL A   1      46.358  25.085  29.544  1.00  0.00     0.074 A 
ATOM     70  C   UNL A   1      45.534  24.481  30.592  1.00  0.00     0.031 C 
ATOM     71  C   UNL A   1      47.110  26.226  29.523  1.00  0.00     0.034 A 
BRANCH  58  72
ATOM     72  C   UNL A   1      45.136  26.984  34.539  1.00  0.00     0.023 A 
ATOM     73  C   UNL A   1      44.912  25.619  34.273  1.00  0.00     0.031 A 
ATOM     74  C   UNL A   1      44.988  27.374  35.890  1.00  0.00     0.131 A 
ATOM     75  C   UNL A   1      44.455  24.752  35.281  1.00  0.00     0.055 A 
ATOM     76  C   UNL A   1      44.606  26.491  36.903  1.00  0.00     0.041 A 
ATOM     77  F   UNL A   1      45.106  28.641  36.303  1.00  0.00    -0.206 F 
ATOM     78  C   UNL A   1      44.302  25.178  36.596  1.00  0.00     0.022 A 
BRANCH  75  79
ATOM     79  S   UNL A   1      43.891  23.102  34.797  1.00  0.00     0.124 S 
ATOM     80  O   UNL A   1      44.474  22.975  33.467  1.00  0.00    -0.237 OA
ATOM     81  O   UNL A   1      44.474  22.267  35.842  1.00  0.00    -0.237 OA
ATOM     82  O   UNL A   1      42.435  23.220  34.832  1.00  0.00    -0.744 OA
ENDBRANCH  75  79
ENDBRANCH  58  72
BRANCH  59  83
ATOM     83  C   UNL A   1      42.826  22.768  27.372  1.00  0.00     0.023 A 
ATOM     84  C   UNL A   1      43.368  21.708  26.604  1.00  0.00     0.031 A 
ATOM     85  C   UNL A   1      41.560  22.526  27.956  1.00  0.00     0.131 A 
ATOM     86  C   UNL A   1      42.655  20.490  26.454  1.00  0.00     0.055 A 
ATOM     87  C   UNL A   1      40.862  21.326  27.801  1.00  0.00     0.041 A 
ATOM     88  F   UNL A   1      40.990  23.419  28.779  1.00  0.00    -0.206 F 
ATOM     89  C   UNL A   1      41.412  20.297  27.057  1.00  0.00     0.022 A 
BRANCH  86  90
ATOM     90  S   UNL A   1      43.375  19.081  25.540  1.00  0.00     0.124 S 
ATOM     91  O   UNL A   1      43.796  19.701  24.289  1.00  0.00    -0.237 OA
ATOM     92  O   UNL A   1      44.437  18.633  26.434  1.00  0.00    -0.237 OA
ATOM     93  O   UNL A   1      42.255  18.146  25.412  1.00  0.00    -0.744 OA
ENDBRANCH  86  90
ENDBRANCH  59  83
BRANCH  71  94
ATOM     94  C   UNL A   1      47.757  26.645  28.215  1.00  0.00     0.023 A 
ATOM     95  C   UNL A   1      47.067  26.920  27.011  1.00  0.00     0.031 A 
ATOM     96  C   UNL A   1      49.143  26.881  28.237  1.00  0.00     0.131 A 
ATOM     97  C   UNL A   1      47.773  27.400  25.888  1.00  0.00     0.055 A 
ATOM     98  C   UNL A   1      49.832  27.381  27.133  1.00  0.00     0.041 A 
ATOM     99  F   UNL A   1      49.854  26.662  29.355  1.00  0.00    -0.206 F 
ATOM    100  C   UNL A   1      49.149  27.636  25.951  1.00  0.00     0.022 A 
BRANCH  97 101
ATOM    101  S   UNL A   1      46.921  27.704  24.305  1.00  0.00     0.124 S 
ATOM    102  O   UNL A   1      48.014  27.855  23.351  1.00  0.00    -0.237 OA
ATOM    103  O   UNL A   1      46.102  26.504  24.156  1.00  0.00    -0.237 OA
ATOM    104  O   UNL A   1      46.161  28.930  24.561  1.00  0.00    -0.744 OA
ENDBRANCH  97 101
ENDBRANCH  71  94
ENDBRANCH  45  46
ENDBRANCH  38  40
ENDBRANCH  37  38
ENDBRANCH  36  37
ENDBRANCH  35  36
ENDBRANCH  34  35
ENDBRANCH  33  34
ENDBRANCH   1  33
TORSDOF 26
ENDMDL
MODEL 2
REMARK VINA RESULT:     -11.9      2.905      6.510
REMARK SMILES CC1=C([C@H](NC(=O)c2cccc3ccccc23)C(=O)OCCOCCOCCOCCOC(=O)c2ccc(-c3c4nc(c(-c5cc(S(=O)(=O)[O-])ccc5F)c5ccc([nH]5)c(-c5cc(S(=O)(=O)[O-])ccc5F)c5nc(c(-c6cc(S(=O)(=O)[O-])ccc6F)c6ccc3[nH]6)C=C5)C=C4)cc2)[C@H](C)N=N1
REMARK SMILES IDX 27 1 26 2 25 3 24 4 23 5 22 6 21 7 20 8 18 9 19 10 4 11 3 12
REMARK SMILES IDX 1 13 2 14 101 15 98 16 100 17 99 18 5 19 6 20 7 22 8 23 9 24
REMARK SMILES IDX 17 25 10 26 12 27 16 28 11 29 13 30 15 31 14 32 28 33 29 34
REMARK SMILES IDX 30 35 31 36 32 37 33 38 34 39 35 40 36 41 97 42 37 43 96 44
REMARK SMILES IDX 38 45 39 46 40 47 90 48 41 49 95 50 89 51 91 52 42 53 94 54
REMARK SMILES IDX 88 55 87 56 43 58 75 59 55 60 74 61 56 62 59 63 73 64 92 65
REMARK SMILES IDX 57 66 58 67 72 69 93 70 60 71 44 72 45 73 53 74 46 75 52 76
REMARK SMILES IDX 54 77 51 78 47 79 48 80 49 81 50 82 76 83 77 84 85 85 78 86
REMARK SMILES IDX 84 87 86 88 83 89 79 90 80 91 81 92 82 93 61 94 62 95 70 96
REMARK SMILES IDX 63 97 69 98 71 99 68 100 64 101 65 102 66 103 67 104
REMARK H PARENT 5 21 91 57 59 68
REMARK Flexibility Score: inf
ROOT
ATOM      1  C   UNL A   1      33.362  35.236  30.702  1.00  0.00     0.188 C 
ENDROOT
BRANCH   1   2
ATOM      2  O   UNL A   1      32.937  34.698  29.161  1.00  0.00    -0.377 OA
BRANCH   2   3
ATOM      3  C   UNL A   1      33.485  33.585  28.162  1.00  0.00     0.188 C 
BRANCH   3   4
ATOM      4  C   UNL A   1      35.004  32.740  27.988  1.00  0.00     0.188 C 
BRANCH   4   5
ATOM      5  O   UNL A   1      35.163  31.328  28.134  1.00  0.00    -0.376 OA
BRANCH   5   6
ATOM      6  C   UNL A   1      34.957  30.182  27.292  1.00  0.00     0.202 C 
BRANCH   6   7
ATOM      7  C   UNL A   1      33.594  29.513  26.934  1.00  0.00     0.261 C 
BRANCH   7   8
ATOM      8  O   UNL A   1      33.455  29.148  25.585  1.00  0.00    -0.461 OA
BRANCH   8   9
ATOM      9  C   UNL A   1      32.197  29.333  25.155  1.00  0.00     0.333 C 
ATOM     10  O   UNL A   1      31.382  30.093  25.666  1.00  0.00    -0.249 OA
BRANCH   9  11
ATOM     11  C   UNL A   1      31.928  28.447  23.959  1.00  0.00     0.223 C 
BRANCH  11  12
ATOM     12  C   UNL A   1      30.757  27.552  24.237  1.00  0.00     0.012 C 
ATOM     13  C   UNL A   1      31.344  26.282  26.371  1.00  0.00     0.069 C 
ATOM     14  C   UNL A   1      30.506  26.659  25.201  1.00  0.00     0.064 C 
ATOM     15  N   UNL A   1      29.339  25.968  24.993  1.00  0.00    -0.160 NA
ATOM     16  C   UNL A   1      29.613  27.388  23.263  1.00  0.00     0.156 C 
ATOM     17  N   UNL A   1      28.801  26.321  23.912  1.00  0.00    -0.181 NA
ATOM     18  C   UNL A   1      28.682  28.578  23.032  1.00  0.00     0.040 C 
ENDBRANCH  11  12
BRANCH  11  19
ATOM     19  N   UNL A   1      33.112  27.764  23.361  1.00  0.00    -0.335 N 
ATOM     20  C   UNL A   1      33.463  26.502  22.873  1.00  0.00     0.252 C 
ATOM     21  H   UNL A   1      33.871  28.386  23.289  1.00  0.00     0.165 HD
ATOM     22  O   UNL A   1      34.028  26.529  21.769  1.00  0.00    -0.269 OA
BRANCH  20  23
ATOM     23  C   UNL A   1      33.260  25.090  23.532  1.00  0.00     0.047 A 
ATOM     24  C   UNL A   1      32.164  24.526  22.821  1.00  0.00     0.014 A 
ATOM     25  C   UNL A   1      34.254  24.158  24.378  1.00  0.00    -0.006 A 
ATOM     26  C   UNL A   1      31.671  23.231  22.992  1.00  0.00     0.001 A 
ATOM     27  C   UNL A   1      33.418  22.598  24.509  1.00  0.00    -0.018 A 
ATOM     28  C   UNL A   1      36.100  24.076  24.900  1.00  0.00     0.009 A 
ATOM     29  C   UNL A   1      32.200  22.343  23.913  1.00  0.00     0.009 A 
ATOM     30  C   UNL A   1      34.221  21.153  25.013  1.00  0.00     0.009 A 
ATOM     31  C   UNL A   1      36.854  22.421  25.301  1.00  0.00     0.001 A 
ATOM     32  C   UNL A   1      35.861  21.036  25.374  1.00  0.00     0.001 A 
ENDBRANCH  20  23
ENDBRANCH  11  19
ENDBRANCH   9  11
ENDBRANCH   8   9
ENDBRANCH   7   8
ENDBRANCH   6   7
ENDBRANCH   5   6
ENDBRANCH   4   5
ENDBRANCH   3   4
ENDBRANCH   2   3
ENDBRANCH   1   2
BRANCH   1  33
ATOM     33  C   UNL A   1      34.097  34.152  32.117  1.00  0.00     0.188 C 
BRANCH  33  34
ATOM     34  O   UNL A   1      35.734  34.900  33.075  1.00  0.00    -0.376 OA
BRANCH  34  35
ATOM     35  C   UNL A   1      37.090  34.031  33.866  1.00  0.00     0.202 C 
BRANCH  35  36
ATOM     36  C   UNL A   1      38.569  34.712  34.628  1.00  0.00     0.261 C 
BRANCH  36  37
ATOM     37  O   UNL A   1      39.935  34.669  34.002  1.00  0.00    -0.460 OA
BRANCH  37  38
ATOM     38  C   UNL A   1      40.958  33.967  34.586  1.00  0.00     0.338 C 
ATOM     39  O   UNL A   1      41.562  34.337  35.582  1.00  0.00    -0.246 OA
BRANCH  38  40
ATOM     40  C   UNL A   1      41.050  32.536  34.117  1.00  0.00     0.060 A 
ATOM     41  C   UNL A   1      41.756  31.605  34.919  1.00  0.00     0.016 A 
ATOM     42  C   UNL A   1      40.638  32.165  32.839  1.00  0.00     0.016 A 
ATOM     43  C   UNL A   1      42.298  30.462  34.352  1.00  0.00     0.010 A 
ATOM     44  C   UNL A   1      41.206  31.035  32.258  1.00  0.00     0.010 A 
ATOM     45  C   UNL A   1      42.154  30.301  32.980  1.00  0.00    -0.014 A 
BRANCH  45  46
ATOM     46  C   UNL A   1      43.218  29.591  32.270  1.00  0.00     0.031 A 
ATOM     47  C   UNL A   1      44.107  30.421  31.435  1.00  0.00     0.074 A 
ATOM     48  C   UNL A   1      43.373  28.259  32.462  1.00  0.00     0.049 A 
ATOM     49  N   UNL A   1      44.160  30.465  30.144  1.00  0.00    -0.248 NA
ATOM     50  C   UNL A   1      44.922  31.446  32.100  1.00  0.00     0.031 C 
ATOM     51  C   UNL A   1      42.651  27.415  33.425  1.00  0.00     0.029 A 
ATOM     52  N   UNL A   1      44.264  27.378  31.921  1.00  0.00    -0.354 N 
ATOM     53  C   UNL A   1      45.211  31.326  29.850  1.00  0.00     0.074 A 
ATOM     54  C   UNL A   1      45.441  32.083  31.050  1.00  0.00     0.031 C 
ATOM     55  C   UNL A   1      43.295  26.235  33.570  1.00  0.00     0.029 A 
ATOM     56  C   UNL A   1      44.403  26.183  32.633  1.00  0.00     0.049 A 
ATOM     57  H   UNL A   1      44.767  27.570  31.097  1.00  0.00     0.167 HD
ATOM     58  C   UNL A   1      46.002  31.125  28.760  1.00  0.00     0.034 A 
ATOM     59  C   UNL A   1      45.395  25.252  32.511  1.00  0.00     0.034 A 
ATOM     60  C   UNL A   1      45.380  30.209  27.829  1.00  0.00     0.049 A 
ATOM     61  C   UNL A   1      46.004  25.451  31.171  1.00  0.00     0.074 A 
ATOM     62  C   UNL A   1      44.183  30.192  27.139  1.00  0.00     0.029 A 
ATOM     63  N   UNL A   1      45.856  28.916  27.780  1.00  0.00    -0.354 N 
ATOM     64  N   UNL A   1      45.368  25.210  30.057  1.00  0.00    -0.248 NA
ATOM     65  C   UNL A   1      47.105  26.397  31.058  1.00  0.00     0.031 C 
ATOM     66  C   UNL A   1      43.772  28.828  27.145  1.00  0.00     0.029 A 
ATOM     67  C   UNL A   1      44.776  28.068  27.748  1.00  0.00     0.049 A 
ATOM     68  H   UNL A   1      46.803  28.648  27.770  1.00  0.00     0.167 HD
ATOM     69  C   UNL A   1      45.670  26.283  29.234  1.00  0.00     0.074 A 
ATOM     70  C   UNL A   1      46.818  26.932  29.867  1.00  0.00     0.031 C 
ATOM     71  C   UNL A   1      44.782  26.722  28.292  1.00  0.00     0.034 A 
BRANCH  58  72
ATOM     72  C   UNL A   1      47.487  31.428  28.707  1.00  0.00     0.023 A 
ATOM     73  C   UNL A   1      47.896  32.473  27.856  1.00  0.00     0.031 A 
ATOM     74  C   UNL A   1      48.523  30.595  29.192  1.00  0.00     0.131 A 
ATOM     75  C   UNL A   1      49.233  32.582  27.438  1.00  0.00     0.055 A 
ATOM     76  C   UNL A   1      49.863  30.755  28.831  1.00  0.00     0.041 A 
ATOM     77  F   UNL A   1      48.302  29.523  29.960  1.00  0.00    -0.206 F 
ATOM     78  C   UNL A   1      50.222  31.732  27.920  1.00  0.00     0.022 A 
BRANCH  75  79
ATOM     79  S   UNL A   1      49.619  33.747  26.108  1.00  0.00     0.124 S 
ATOM     80  O   UNL A   1      50.520  32.953  25.280  1.00  0.00    -0.237 OA
ATOM     81  O   UNL A   1      48.297  34.016  25.551  1.00  0.00    -0.237 OA
ATOM     82  O   UNL A   1      50.240  34.867  26.810  1.00  0.00    -0.744 OA
ENDBRANCH  75  79
ENDBRANCH  58  72
BRANCH  59  83
ATOM     83  C   UNL A   1      46.053  24.471  33.607  1.00  0.00     0.023 A 
ATOM     84  C   UNL A   1      47.126  24.968  34.388  1.00  0.00     0.031 A 
ATOM     85  C   UNL A   1      45.451  23.277  34.070  1.00  0.00     0.131 A 
ATOM     86  C   UNL A   1      47.542  24.281  35.560  1.00  0.00     0.055 A 
ATOM     87  C   UNL A   1      45.867  22.605  35.222  1.00  0.00     0.041 A 
ATOM     88  F   UNL A   1      44.368  22.763  33.466  1.00  0.00    -0.206 F 
ATOM     89  C   UNL A   1      46.910  23.111  35.979  1.00  0.00     0.022 A 
BRANCH  86  90
ATOM     90  S   UNL A   1      48.865  24.952  36.627  1.00  0.00     0.124 S 
ATOM     91  O   UNL A   1      48.113  25.720  37.613  1.00  0.00    -0.237 OA
ATOM     92  O   UNL A   1      49.526  23.745  37.109  1.00  0.00    -0.237 OA
ATOM     93  O   UNL A   1      49.670  25.760  35.709  1.00  0.00    -0.744 OA
ENDBRANCH  86  90
ENDBRANCH  59  83
BRANCH  71  94
ATOM     94  C   UNL A   1      43.607  25.831  27.931  1.00  0.00     0.023 A 
ATOM     95  C   UNL A   1      43.676  24.674  27.120  1.00  0.00     0.031 A 
ATOM     96  C   UNL A   1      42.374  26.122  28.543  1.00  0.00     0.131 A 
ATOM     97  C   UNL A   1      42.531  23.870  26.940  1.00  0.00     0.055 A 
ATOM     98  C   UNL A   1      41.253  25.310  28.383  1.00  0.00     0.041 A 
ATOM     99  F   UNL A   1      42.248  27.193  29.343  1.00  0.00    -0.206 F 
ATOM    100  C   UNL A   1      41.325  24.184  27.575  1.00  0.00     0.022 A 
BRANCH  97 101
ATOM    101  S   UNL A   1      42.573  22.409  25.851  1.00  0.00     0.124 S 
ATOM    102  O   UNL A   1      43.543  21.530  26.493  1.00  0.00    -0.237 OA
ATOM    103  O   UNL A   1      41.183  21.960  25.879  1.00  0.00    -0.237 OA
ATOM    104  O   UNL A   1      43.007  22.959  24.565  1.00  0.00    -0.744 OA
ENDBRANCH  97 101
ENDBRANCH  71  94
ENDBRANCH  45  46
ENDBRANCH  38  40
ENDBRANCH  37  38
ENDBRANCH  36  37
ENDBRANCH  35  36
ENDBRANCH  34  35
ENDBRANCH  33  34
ENDBRANCH   1  33
TORSDOF 26
ENDMDL
MODEL 3
REMARK VINA RESULT:     -11.3     10.442     15.446
REMARK SMILES CC1=C([C@H](NC(=O)c2cccc3ccccc23)C(=O)OCCOCCOCCOCCOC(=O)c2ccc(-c3c4nc(c(-c5cc(S(=O)(=O)[O-])ccc5F)c5ccc([nH]5)c(-c5cc(S(=O)(=O)[O-])ccc5F)c5nc(c(-c6cc(S(=O)(=O)[O-])ccc6F)c6ccc3[nH]6)C=C5)C=C4)cc2)[C@H](C)N=N1
REMARK SMILES IDX 27 1 26 2 25 3 24 4 23 5 22 6 21 7 20 8 18 9 19 10 4 11 3 12
REMARK SMILES IDX 1 13 2 14 101 15 98 16 100 17 99 18 5 19 6 20 7 22 8 23 9 24
REMARK SMILES IDX 17 25 10 26 12 27 16 28 11 29 13 30 15 31 14 32 28 33 29 34
REMARK SMILES IDX 30 35 31 36 32 37 33 38 34 39 35 40 36 41 97 42 37 43 96 44
REMARK SMILES IDX 38 45 39 46 40 47 90 48 41 49 95 50 89 51 91 52 42 53 94 54
REMARK SMILES IDX 88 55 87 56 43 58 75 59 55 60 74 61 56 62 59 63 73 64 92 65
REMARK SMILES IDX 57 66 58 67 72 69 93 70 60 71 44 72 45 73 53 74 46 75 52 76
REMARK SMILES IDX 54 77 51 78 47 79 48 80 49 81 50 82 76 83 77 84 85 85 78 86
REMARK SMILES IDX 84 87 86 88 83 89 79 90 80 91 81 92 82 93 61 94 62 95 70 96
REMARK SMILES IDX 63 97 69 98 71 99 68 100 64 101 65 102 66 103 67 104
REMARK H PARENT 5 21 91 57 59 68
REMARK Flexibility Score: inf
ROOT
ATOM      1  C   UNL A   1      49.364  42.898  31.773  1.00  0.00     0.188 C 
ENDROOT
BRANCH   1   2
ATOM      2  O   UNL A   1      49.892  44.106  30.721  1.00  0.00    -0.377 OA
BRANCH   2   3
ATOM      3  C   UNL A   1      49.652  44.450  29.185  1.00  0.00     0.188 C 
BRANCH   3   4
ATOM      4  C   UNL A   1      49.440  43.496  27.737  1.00  0.00     0.188 C 
BRANCH   4   5
ATOM      5  O   UNL A   1      48.178  43.235  27.121  1.00  0.00    -0.376 OA
BRANCH   5   6
ATOM      6  C   UNL A   1      47.352  43.906  26.154  1.00  0.00     0.202 C 
BRANCH   6   7
ATOM      7  C   UNL A   1      45.970  43.430  25.609  1.00  0.00     0.261 C 
BRANCH   7   8
ATOM      8  O   UNL A   1      45.532  44.099  24.454  1.00  0.00    -0.461 OA
BRANCH   8   9
ATOM      9  C   UNL A   1      45.351  43.246  23.434  1.00  0.00     0.333 C 
ATOM     10  O   UNL A   1      45.735  42.082  23.412  1.00  0.00    -0.249 OA
BRANCH   9  11
ATOM     11  C   UNL A   1      44.620  43.941  22.306  1.00  0.00     0.223 C 
BRANCH  11  12
ATOM     12  C   UNL A   1      43.227  43.400  22.188  1.00  0.00     0.012 C 
ATOM     13  C   UNL A   1      42.768  43.203  19.686  1.00  0.00     0.069 C 
ATOM     14  C   UNL A   1      42.453  43.106  21.136  1.00  0.00     0.064 C 
ATOM     15  N   UNL A   1      41.181  42.743  21.499  1.00  0.00    -0.160 NA
ATOM     16  C   UNL A   1      42.317  43.234  23.383  1.00  0.00     0.156 C 
ATOM     17  N   UNL A   1      41.039  42.812  22.747  1.00  0.00    -0.181 NA
ATOM     18  C   UNL A   1      42.671  42.170  24.421  1.00  0.00     0.040 C 
ENDBRANCH  11  12
BRANCH  11  19
ATOM     19  N   UNL A   1      45.359  44.063  21.015  1.00  0.00    -0.335 N 
ATOM     20  C   UNL A   1      45.981  45.053  20.249  1.00  0.00     0.252 C 
ATOM     21  H   UNL A   1      45.428  43.188  20.571  1.00  0.00     0.165 HD
ATOM     22  O   UNL A   1      47.115  44.744  19.854  1.00  0.00    -0.269 OA
BRANCH  20  23
ATOM     23  C   UNL A   1      45.439  46.463  19.817  1.00  0.00     0.047 A 
ATOM     24  C   UNL A   1      46.546  47.337  20.003  1.00  0.00     0.014 A 
ATOM     25  C   UNL A   1      44.209  46.888  18.879  1.00  0.00    -0.006 A 
ATOM     26  C   UNL A   1      46.573  48.690  19.662  1.00  0.00     0.001 A 
ATOM     27  C   UNL A   1      44.415  48.630  18.614  1.00  0.00    -0.018 A 
ATOM     28  C   UNL A   1      42.914  46.090  17.706  1.00  0.00     0.009 A 
ATOM     29  C   UNL A   1      45.485  49.346  19.111  1.00  0.00     0.009 A 
ATOM     30  C   UNL A   1      43.561  49.490  17.383  1.00  0.00     0.009 A 
ATOM     31  C   UNL A   1      42.167  47.122  16.348  1.00  0.00     0.001 A 
ATOM     32  C   UNL A   1      42.502  48.793  16.276  1.00  0.00     0.001 A 
ENDBRANCH  20  23
ENDBRANCH  11  19
ENDBRANCH   9  11
ENDBRANCH   8   9
ENDBRANCH   7   8
ENDBRANCH   6   7
ENDBRANCH   5   6
ENDBRANCH   4   5
ENDBRANCH   3   4
ENDBRANCH   2   3
ENDBRANCH   1   2
BRANCH   1  33
ATOM     33  C   UNL A   1      48.020  41.571  31.389  1.00  0.00     0.188 C 
BRANCH  33  34
ATOM     34  O   UNL A   1      47.728  41.117  29.423  1.00  0.00    -0.376 OA
BRANCH  34  35
ATOM     35  C   UNL A   1      46.239  40.567  28.586  1.00  0.00     0.202 C 
BRANCH  35  36
ATOM     36  C   UNL A   1      45.343  39.022  28.786  1.00  0.00     0.261 C 
BRANCH  36  37
ATOM     37  O   UNL A   1      43.985  38.912  29.423  1.00  0.00    -0.460 OA
BRANCH  37  38
ATOM     38  C   UNL A   1      43.039  38.053  28.925  1.00  0.00     0.338 C 
ATOM     39  O   UNL A   1      42.130  38.392  28.181  1.00  0.00    -0.246 OA
BRANCH  38  40
ATOM     40  C   UNL A   1      43.407  36.598  29.077  1.00  0.00     0.060 A 
ATOM     41  C   UNL A   1      43.015  35.691  28.061  1.00  0.00     0.016 A 
ATOM     42  C   UNL A   1      43.935  36.105  30.268  1.00  0.00     0.016 A 
ATOM     43  C   UNL A   1      42.867  34.343  28.345  1.00  0.00     0.010 A 
ATOM     44  C   UNL A   1      43.759  34.758  30.567  1.00  0.00     0.010 A 
ATOM     45  C   UNL A   1      43.076  33.941  29.659  1.00  0.00    -0.014 A 
BRANCH  45  46
ATOM     46  C   UNL A   1      42.300  32.802  30.147  1.00  0.00     0.031 A 
ATOM     47  C   UNL A   1      42.888  31.469  29.918  1.00  0.00     0.074 A 
ATOM     48  C   UNL A   1      41.148  33.024  30.826  1.00  0.00     0.049 A 
ATOM     49  N   UNL A   1      42.484  30.561  29.091  1.00  0.00    -0.248 NA
ATOM     50  C   UNL A   1      44.173  31.161  30.561  1.00  0.00     0.031 C 
ATOM     51  C   UNL A   1      40.612  34.322  31.257  1.00  0.00     0.029 A 
ATOM     52  N   UNL A   1      40.251  32.150  31.367  1.00  0.00    -0.354 N 
ATOM     53  C   UNL A   1      43.311  29.467  29.317  1.00  0.00     0.074 A 
ATOM     54  C   UNL A   1      44.462  29.983  30.006  1.00  0.00     0.031 C 
ATOM     55  C   UNL A   1      39.645  34.133  32.183  1.00  0.00     0.029 A 
ATOM     56  C   UNL A   1      39.405  32.708  32.332  1.00  0.00     0.049 A 
ATOM     57  H   UNL A   1      40.203  31.203  31.101  1.00  0.00     0.167 HD
ATOM     58  C   UNL A   1      42.841  28.194  29.201  1.00  0.00     0.034 A 
ATOM     59  C   UNL A   1      38.620  32.048  33.233  1.00  0.00     0.034 A 
ATOM     60  C   UNL A   1      41.589  28.167  28.478  1.00  0.00     0.049 A 
ATOM     61  C   UNL A   1      38.412  30.679  32.696  1.00  0.00     0.074 A 
ATOM     62  C   UNL A   1      41.185  28.580  27.223  1.00  0.00     0.029 A 
ATOM     63  N   UNL A   1      40.429  27.987  29.201  1.00  0.00    -0.354 N 
ATOM     64  N   UNL A   1      37.721  30.436  31.616  1.00  0.00    -0.248 NA
ATOM     65  C   UNL A   1      39.387  29.656  33.046  1.00  0.00     0.031 C 
ATOM     66  C   UNL A   1      39.869  29.094  27.408  1.00  0.00     0.029 A 
ATOM     67  C   UNL A   1      39.497  28.883  28.738  1.00  0.00     0.049 A 
ATOM     68  H   UNL A   1      40.293  27.332  29.923  1.00  0.00     0.167 HD
ATOM     69  C   UNL A   1      38.468  29.500  30.917  1.00  0.00     0.074 A 
ATOM     70  C   UNL A   1      39.433  28.987  31.889  1.00  0.00     0.031 C 
ATOM     71  C   UNL A   1      38.438  29.450  29.552  1.00  0.00     0.034 A 
BRANCH  58  72
ATOM     72  C   UNL A   1      43.287  27.030  30.066  1.00  0.00     0.023 A 
ATOM     73  C   UNL A   1      43.162  27.187  31.460  1.00  0.00     0.031 A 
ATOM     74  C   UNL A   1      44.073  25.933  29.644  1.00  0.00     0.131 A 
ATOM     75  C   UNL A   1      43.880  26.366  32.346  1.00  0.00     0.055 A 
ATOM     76  C   UNL A   1      44.725  25.074  30.532  1.00  0.00     0.041 A 
ATOM     77  F   UNL A   1      44.342  25.677  28.359  1.00  0.00    -0.206 F 
ATOM     78  C   UNL A   1      44.661  25.309  31.893  1.00  0.00     0.022 A 
BRANCH  75  79
ATOM     79  S   UNL A   1      43.917  26.826  34.096  1.00  0.00     0.124 S 
ATOM     80  O   UNL A   1      42.614  27.462  34.256  1.00  0.00    -0.237 OA
ATOM     81  O   UNL A   1      44.088  25.530  34.744  1.00  0.00    -0.237 OA
ATOM     82  O   UNL A   1      45.066  27.725  34.184  1.00  0.00    -0.744 OA
ENDBRANCH  75  79
ENDBRANCH  58  72
BRANCH  59  83
ATOM     83  C   UNL A   1      38.358  32.422  34.661  1.00  0.00     0.023 A 
ATOM     84  C   UNL A   1      39.370  32.495  35.649  1.00  0.00     0.031 A 
ATOM     85  C   UNL A   1      37.101  32.962  35.019  1.00  0.00     0.131 A 
ATOM     86  C   UNL A   1      39.100  33.084  36.913  1.00  0.00     0.055 A 
ATOM     87  C   UNL A   1      36.841  33.537  36.265  1.00  0.00     0.041 A 
ATOM     88  F   UNL A   1      36.095  33.033  34.134  1.00  0.00    -0.206 F 
ATOM     89  C   UNL A   1      37.844  33.611  37.216  1.00  0.00     0.022 A 
BRANCH  86  90
ATOM     90  S   UNL A   1      40.414  33.267  38.170  1.00  0.00     0.124 S 
ATOM     91  O   UNL A   1      40.338  34.686  38.499  1.00  0.00    -0.237 OA
ATOM     92  O   UNL A   1      39.992  32.334  39.208  1.00  0.00    -0.237 OA
ATOM     93  O   UNL A   1      41.630  32.870  37.455  1.00  0.00    -0.744 OA
ENDBRANCH  86  90
ENDBRANCH  59  83
BRANCH  71  94
ATOM     94  C   UNL A   1      37.339  30.203  28.822  1.00  0.00     0.023 A 
ATOM     95  C   UNL A   1      36.146  29.629  28.323  1.00  0.00     0.031 A 
ATOM     96  C   UNL A   1      37.474  31.600  28.733  1.00  0.00     0.131 A 
ATOM     97  C   UNL A   1      35.154  30.452  27.752  1.00  0.00     0.055 A 
ATOM     98  C   UNL A   1      36.479  32.412  28.192  1.00  0.00     0.041 A 
ATOM     99  F   UNL A   1      38.571  32.209  29.210  1.00  0.00    -0.206 F 
ATOM    100  C   UNL A   1      35.317  31.839  27.692  1.00  0.00     0.022 A 
BRANCH  97 101
ATOM    101  S   UNL A   1      33.634  29.735  27.044  1.00  0.00     0.124 S 
ATOM    102  O   UNL A   1      33.682  28.341  27.469  1.00  0.00    -0.237 OA
ATOM    103  O   UNL A   1      32.590  30.556  27.652  1.00  0.00    -0.237 OA
ATOM    104  O   UNL A   1      33.805  29.939  25.603  1.00  0.00    -0.744 OA
ENDBRANCH  97 101
ENDBRANCH  71  94
ENDBRANCH  45  46
ENDBRANCH  38  40
ENDBRANCH  37  38
ENDBRANCH  36  37
ENDBRANCH  35  36
ENDBRANCH  34  35
ENDBRANCH  33  34
ENDBRANCH   1  33
TORSDOF 26
ENDMDL
