MODEL 1
REMARK VINA RESULT:      -7.6      0.000      0.000
REMARK SMILES CCOc1ccc(-c2cc(Cl)cc3c2O[C@@H](C(F)(F)F)C(C(=O)OCCOCCOCCOCCOC(=O)c2ccc(-c4c5nc(c(-c6cc(S(=O)(=O)[O-])ccc6F)c6ccc([nH]6)c(-c6cc(S(=O)(=O)[O-])ccc6F)c6nc(c(-c7cc(S(=O)(=O)[O-])ccc7F)c7ccc4[nH]7)C=C6)C=C5)cc2)=C3)cc1
REMARK SMILES IDX 30 1 29 2 28 3 27 4 26 5 25 6 24 7 22 8 23 9 21 10 8 11 9 12
REMARK SMILES IDX 14 13 10 14 13 15 15 16 11 17 12 18 102 19 16 20 7 21 4 22
REMARK SMILES IDX 5 23 104 24 6 25 103 26 3 27 2 28 1 29 17 30 18 31 19 32
REMARK SMILES IDX 20 33 31 34 32 35 33 36 34 37 35 38 36 39 37 40 38 41 39 42
REMARK SMILES IDX 40 43 101 44 41 45 100 46 42 47 43 48 44 49 94 50 45 51
REMARK SMILES IDX 99 52 93 53 95 54 46 55 98 56 92 57 91 58 47 60 79 61 59 62
REMARK SMILES IDX 78 63 60 64 63 65 77 66 96 67 61 68 62 69 76 71 97 72 64 73
REMARK SMILES IDX 48 74 49 75 57 76 50 77 56 78 58 79 55 80 51 81 52 82 53 83
REMARK SMILES IDX 54 84 80 85 81 86 89 87 82 88 88 89 90 90 87 91 83 92 84 93
REMARK SMILES IDX 85 94 86 95 65 96 66 97 74 98 67 99 73 100 75 101 72 102
REMARK SMILES IDX 68 103 69 104 70 105 71 106
REMARK H PARENT 95 59 63 70
REMARK Flexibility Score: inf
ROOT
ATOM      1  O   UNL A   1      35.095  32.961  27.791  1.00  0.00    -0.377 OA
ENDROOT
BRANCH   1   2
ATOM      2  C   UNL A   1      33.945  32.163  28.005  1.00  0.00     0.188 C 
BRANCH   2   3
ATOM      3  C   UNL A   1      34.115  30.742  27.452  1.00  0.00     0.188 C 
BRANCH   3   4
ATOM      4  O   UNL A   1      35.468  30.349  27.250  1.00  0.00    -0.376 OA
BRANCH   4   5
ATOM      5  C   UNL A   1      36.165  29.730  28.332  1.00  0.00     0.202 C 
BRANCH   5   6
ATOM      6  C   UNL A   1      37.359  30.463  28.961  1.00  0.00     0.261 C 
BRANCH   6   7
ATOM      7  O   UNL A   1      38.492  30.449  28.064  1.00  0.00    -0.460 OA
BRANCH   7   8
ATOM      8  C   UNL A   1      39.532  29.690  28.444  1.00  0.00     0.338 C 
ATOM      9  O   UNL A   1      40.463  30.073  29.141  1.00  0.00    -0.246 OA
BRANCH   8  10
ATOM     10  C   UNL A   1      39.349  28.260  28.091  1.00  0.00     0.087 C 
ATOM     11  C   UNL A   1      42.847  26.049  27.763  1.00  0.00     0.026 A 
ATOM     12  C   UNL A   1      43.877  26.953  27.420  1.00  0.00     0.033 A 
ATOM     13  C   UNL A   1      41.551  26.598  27.832  1.00  0.00     0.135 A 
ATOM     14  C   UNL A   1      43.582  28.182  26.830  1.00  0.00     0.042 A 
ATOM     15  C   UNL A   1      41.249  27.706  27.028  1.00  0.00     0.019 A 
ATOM     16  O   UNL A   1      40.667  26.229  28.842  1.00  0.00    -0.475 OA
ATOM     17  Cl  UNL A   1      44.858  29.236  26.374  1.00  0.00    -0.084 Cl
ATOM     18  C   UNL A   1      42.267  28.511  26.531  1.00  0.00     0.032 A 
ATOM     19  C   UNL A   1      39.826  28.062  26.849  1.00  0.00     0.027 C 
ATOM     20  C   UNL A   1      39.417  27.038  28.992  1.00  0.00     0.316 C 
BRANCH  11  21
ATOM     21  C   UNL A   1      43.116  24.628  27.347  1.00  0.00    -0.014 A 
ATOM     22  C   UNL A   1      43.915  22.341  25.841  1.00  0.00     0.119 A 
ATOM     23  C   UNL A   1      44.761  22.879  26.808  1.00  0.00     0.047 A 
ATOM     24  C   UNL A   1      42.644  22.874  25.681  1.00  0.00     0.047 A 
ATOM     25  C   UNL A   1      44.365  24.007  27.554  1.00  0.00     0.013 A 
ATOM     26  C   UNL A   1      42.251  24.000  26.425  1.00  0.00     0.013 A 
BRANCH  22  27
ATOM     27  O   UNL A   1      44.337  21.232  25.159  1.00  0.00    -0.494 OA
BRANCH  27  28
ATOM     28  C   UNL A   1      43.726  20.001  25.571  1.00  0.00     0.226 C 
ATOM     29  C   UNL A   1      44.148  18.843  24.679  1.00  0.00     0.049 C 
ENDBRANCH  27  28
ENDBRANCH  22  27
ENDBRANCH  11  21
BRANCH  20  30
ATOM     30  C   UNL A   1      38.863  27.156  30.436  1.00  0.00     0.430 C 
ATOM     31  F   UNL A   1      39.853  27.597  31.260  1.00  0.00    -0.167 F 
ATOM     32  F   UNL A   1      37.872  28.077  30.507  1.00  0.00    -0.167 F 
ATOM     33  F   UNL A   1      38.393  26.029  30.985  1.00  0.00    -0.167 F 
ENDBRANCH  20  30
ENDBRANCH   8  10
ENDBRANCH   7   8
ENDBRANCH   6   7
ENDBRANCH   5   6
ENDBRANCH   4   5
ENDBRANCH   3   4
ENDBRANCH   2   3
ENDBRANCH   1   2
BRANCH   1  34
ATOM     34  C   UNL A   1      35.437  33.878  28.825  1.00  0.00     0.188 C 
BRANCH  34  35
ATOM     35  C   UNL A   1      36.869  33.899  29.401  1.00  0.00     0.188 C 
BRANCH  35  36
ATOM     36  O   UNL A   1      36.939  33.608  30.799  1.00  0.00    -0.376 OA
BRANCH  36  37
ATOM     37  C   UNL A   1      35.749  33.797  31.554  1.00  0.00     0.202 C 
BRANCH  37  38
ATOM     38  C   UNL A   1      35.983  33.958  33.063  1.00  0.00     0.261 C 
BRANCH  38  39
ATOM     39  O   UNL A   1      36.075  32.730  33.799  1.00  0.00    -0.460 OA
BRANCH  39  40
ATOM     40  C   UNL A   1      37.024  32.657  34.758  1.00  0.00     0.338 C 
ATOM     41  O   UNL A   1      36.876  32.865  35.950  1.00  0.00    -0.246 OA
BRANCH  40  42
ATOM     42  C   UNL A   1      38.235  32.071  34.149  1.00  0.00     0.060 A 
ATOM     43  C   UNL A   1      39.487  32.409  34.679  1.00  0.00     0.016 A 
ATOM     44  C   UNL A   1      38.133  31.173  33.083  1.00  0.00     0.016 A 
ATOM     45  C   UNL A   1      40.647  31.882  34.111  1.00  0.00     0.010 A 
ATOM     46  C   UNL A   1      39.295  30.661  32.505  1.00  0.00     0.010 A 
ATOM     47  C   UNL A   1      40.556  31.042  32.993  1.00  0.00    -0.014 A 
BRANCH  47  48
ATOM     48  C   UNL A   1      41.767  30.758  32.188  1.00  0.00     0.031 A 
ATOM     49  C   UNL A   1      42.422  29.416  32.357  1.00  0.00     0.074 A 
ATOM     50  C   UNL A   1      42.272  31.660  31.330  1.00  0.00     0.049 A 
ATOM     51  N   UNL A   1      43.503  28.937  31.800  1.00  0.00    -0.248 NA
ATOM     52  C   UNL A   1      41.764  28.492  33.295  1.00  0.00     0.031 C 
ATOM     53  C   UNL A   1      41.702  32.976  31.052  1.00  0.00     0.029 A 
ATOM     54  N   UNL A   1      43.389  31.600  30.535  1.00  0.00    -0.354 N 
ATOM     55  C   UNL A   1      43.655  27.655  32.318  1.00  0.00     0.074 A 
ATOM     56  C   UNL A   1      42.583  27.455  33.270  1.00  0.00     0.031 C 
ATOM     57  C   UNL A   1      42.477  33.602  30.148  1.00  0.00     0.029 A 
ATOM     58  C   UNL A   1      43.614  32.746  29.811  1.00  0.00     0.049 A 
ATOM     59  H   UNL A   1      43.974  30.809  30.488  1.00  0.00     0.167 HD
ATOM     60  C   UNL A   1      44.597  26.726  32.021  1.00  0.00     0.034 A 
ATOM     61  C   UNL A   1      44.632  33.068  28.988  1.00  0.00     0.034 A 
ATOM     62  C   UNL A   1      45.679  26.954  31.096  1.00  0.00     0.049 A 
ATOM     63  C   UNL A   1      45.735  32.062  28.757  1.00  0.00     0.074 A 
ATOM     64  C   UNL A   1      46.681  26.085  30.706  1.00  0.00     0.029 A 
ATOM     65  N   UNL A   1      45.915  28.154  30.434  1.00  0.00    -0.354 N 
ATOM     66  N   UNL A   1      45.862  30.844  29.234  1.00  0.00    -0.248 NA
ATOM     67  C   UNL A   1      46.834  32.478  27.874  1.00  0.00     0.031 C 
ATOM     68  C   UNL A   1      47.566  26.781  29.873  1.00  0.00     0.029 A 
ATOM     69  C   UNL A   1      47.071  28.061  29.673  1.00  0.00     0.049 A 
ATOM     70  H   UNL A   1      45.344  28.954  30.495  1.00  0.00     0.167 HD
ATOM     71  C   UNL A   1      47.037  30.338  28.680  1.00  0.00     0.074 A 
ATOM     72  C   UNL A   1      47.576  31.381  27.832  1.00  0.00     0.031 C 
ATOM     73  C   UNL A   1      47.610  29.118  28.847  1.00  0.00     0.034 A 
BRANCH  60  74
ATOM     74  C   UNL A   1      44.517  25.414  32.766  1.00  0.00     0.023 A 
ATOM     75  C   UNL A   1      44.877  25.309  34.122  1.00  0.00     0.031 A 
ATOM     76  C   UNL A   1      44.158  24.234  32.089  1.00  0.00     0.131 A 
ATOM     77  C   UNL A   1      44.970  24.047  34.727  1.00  0.00     0.055 A 
ATOM     78  C   UNL A   1      44.164  22.991  32.724  1.00  0.00     0.041 A 
ATOM     79  F   UNL A   1      43.830  24.265  30.788  1.00  0.00    -0.206 F 
ATOM     80  C   UNL A   1      44.593  22.889  34.045  1.00  0.00     0.022 A 
BRANCH  77  81
ATOM     81  S   UNL A   1      45.776  23.922  36.349  1.00  0.00     0.124 S 
ATOM     82  O   UNL A   1      47.032  24.631  36.110  1.00  0.00    -0.237 OA
ATOM     83  O   UNL A   1      44.822  24.590  37.226  1.00  0.00    -0.237 OA
ATOM     84  O   UNL A   1      45.912  22.482  36.554  1.00  0.00    -0.744 OA
ENDBRANCH  77  81
ENDBRANCH  60  74
BRANCH  61  85
ATOM     85  C   UNL A   1      44.678  34.406  28.335  1.00  0.00     0.023 A 
ATOM     86  C   UNL A   1      45.287  35.500  28.970  1.00  0.00     0.031 A 
ATOM     87  C   UNL A   1      44.078  34.620  27.080  1.00  0.00     0.131 A 
ATOM     88  C   UNL A   1      45.254  36.767  28.364  1.00  0.00     0.055 A 
ATOM     89  C   UNL A   1      44.088  35.870  26.462  1.00  0.00     0.041 A 
ATOM     90  F   UNL A   1      43.481  33.607  26.433  1.00  0.00    -0.206 F 
ATOM     91  C   UNL A   1      44.671  36.956  27.109  1.00  0.00     0.022 A 
BRANCH  88  92
ATOM     92  S   UNL A   1      45.941  38.182  29.268  1.00  0.00     0.124 S 
ATOM     93  O   UNL A   1      45.384  37.980  30.601  1.00  0.00    -0.237 OA
ATOM     94  O   UNL A   1      47.378  37.962  29.133  1.00  0.00    -0.237 OA
ATOM     95  O   UNL A   1      45.419  39.337  28.540  1.00  0.00    -0.744 OA
ENDBRANCH  88  92
ENDBRANCH  61  85
BRANCH  73  96
ATOM     96  C   UNL A   1      48.866  28.833  28.058  1.00  0.00     0.023 A 
ATOM     97  C   UNL A   1      48.826  28.224  26.790  1.00  0.00     0.031 A 
ATOM     98  C   UNL A   1      50.124  29.172  28.587  1.00  0.00     0.131 A 
ATOM     99  C   UNL A   1      50.023  27.929  26.119  1.00  0.00     0.055 A 
ATOM    100  C   UNL A   1      51.308  28.931  27.888  1.00  0.00     0.041 A 
ATOM    101  F   UNL A   1      50.224  29.753  29.794  1.00  0.00    -0.206 F 
ATOM    102  C   UNL A   1      51.263  28.294  26.652  1.00  0.00     0.022 A 
BRANCH  99 103
ATOM    103  S   UNL A   1      49.948  26.978  24.576  1.00  0.00     0.124 S 
ATOM    104  O   UNL A   1      49.346  25.725  25.021  1.00  0.00    -0.237 OA
ATOM    105  O   UNL A   1      49.113  27.822  23.728  1.00  0.00    -0.237 OA
ATOM    106  O   UNL A   1      51.348  26.880  24.164  1.00  0.00    -0.744 OA
ENDBRANCH  99 103
ENDBRANCH  73  96
ENDBRANCH  47  48
ENDBRANCH  40  42
ENDBRANCH  39  40
ENDBRANCH  38  39
ENDBRANCH  37  38
ENDBRANCH  36  37
ENDBRANCH  35  36
ENDBRANCH  34  35
ENDBRANCH   1  34
TORSDOF 27
ENDMDL
MODEL 2
REMARK VINA RESULT:      -7.2      5.164      9.351
REMARK SMILES CCOc1ccc(-c2cc(Cl)cc3c2O[C@@H](C(F)(F)F)C(C(=O)OCCOCCOCCOCCOC(=O)c2ccc(-c4c5nc(c(-c6cc(S(=O)(=O)[O-])ccc6F)c6ccc([nH]6)c(-c6cc(S(=O)(=O)[O-])ccc6F)c6nc(c(-c7cc(S(=O)(=O)[O-])ccc7F)c7ccc4[nH]7)C=C6)C=C5)cc2)=C3)cc1
REMARK SMILES IDX 30 1 29 2 28 3 27 4 26 5 25 6 24 7 22 8 23 9 21 10 8 11 9 12
REMARK SMILES IDX 14 13 10 14 13 15 15 16 11 17 12 18 102 19 16 20 7 21 4 22
REMARK SMILES IDX 5 23 104 24 6 25 103 26 3 27 2 28 1 29 17 30 18 31 19 32
REMARK SMILES IDX 20 33 31 34 32 35 33 36 34 37 35 38 36 39 37 40 38 41 39 42
REMARK SMILES IDX 40 43 101 44 41 45 100 46 42 47 43 48 44 49 94 50 45 51
REMARK SMILES IDX 99 52 93 53 95 54 46 55 98 56 92 57 91 58 47 60 79 61 59 62
REMARK SMILES IDX 78 63 60 64 63 65 77 66 96 67 61 68 62 69 76 71 97 72 64 73
REMARK SMILES IDX 48 74 49 75 57 76 50 77 56 78 58 79 55 80 51 81 52 82 53 83
REMARK SMILES IDX 54 84 80 85 81 86 89 87 82 88 88 89 90 90 87 91 83 92 84 93
REMARK SMILES IDX 85 94 86 95 65 96 66 97 74 98 67 99 73 100 75 101 72 102
REMARK SMILES IDX 68 103 69 104 70 105 71 106
REMARK H PARENT 95 59 63 70
REMARK Flexibility Score: inf
ROOT
ATOM      1  O   UNL A   1      37.235  32.372  29.489  1.00  0.00    -0.377 OA
ENDROOT
BRANCH   1   2
ATOM      2  C   UNL A   1      36.967  32.346  28.099  1.00  0.00     0.188 C 
BRANCH   2   3
ATOM      3  C   UNL A   1      35.579  31.773  27.787  1.00  0.00     0.188 C 
BRANCH   3   4
ATOM      4  O   UNL A   1      35.314  30.514  28.398  1.00  0.00    -0.376 OA
BRANCH   4   5
ATOM      5  C   UNL A   1      34.956  29.415  27.561  1.00  0.00     0.202 C 
BRANCH   5   6
ATOM      6  C   UNL A   1      33.798  29.585  26.567  1.00  0.00     0.261 C 
BRANCH   6   7
ATOM      7  O   UNL A   1      32.793  28.568  26.779  1.00  0.00    -0.460 OA
BRANCH   7   8
ATOM      8  C   UNL A   1      32.422  27.874  25.693  1.00  0.00     0.338 C 
ATOM      9  O   UNL A   1      31.424  28.102  25.020  1.00  0.00    -0.246 OA
BRANCH   8  10
ATOM     10  C   UNL A   1      33.456  26.901  25.261  1.00  0.00     0.087 C 
ATOM     11  C   UNL A   1      32.077  23.059  24.507  1.00  0.00     0.026 A 
ATOM     12  C   UNL A   1      30.916  22.874  25.290  1.00  0.00     0.033 A 
ATOM     13  C   UNL A   1      32.752  24.282  24.694  1.00  0.00     0.135 A 
ATOM     14  C   UNL A   1      30.682  23.663  26.417  1.00  0.00     0.042 A 
ATOM     15  C   UNL A   1      32.662  24.912  25.943  1.00  0.00     0.019 A 
ATOM     16  O   UNL A   1      33.282  24.982  23.615  1.00  0.00    -0.475 OA
ATOM     17  Cl  UNL A   1      29.289  23.379  27.380  1.00  0.00    -0.084 Cl
ATOM     18  C   UNL A   1      31.616  24.612  26.808  1.00  0.00     0.032 A 
ATOM     19  C   UNL A   1      33.624  25.993  26.241  1.00  0.00     0.027 C 
ATOM     20  C   UNL A   1      33.754  26.380  23.866  1.00  0.00     0.316 C 
BRANCH  11  21
ATOM     21  C   UNL A   1      32.781  21.779  24.147  1.00  0.00    -0.014 A 
ATOM     22  C   UNL A   1      33.758  19.099  24.219  1.00  0.00     0.119 A 
ATOM     23  C   UNL A   1      32.620  19.416  23.480  1.00  0.00     0.047 A 
ATOM     24  C   UNL A   1      34.463  20.118  24.846  1.00  0.00     0.047 A 
ATOM     25  C   UNL A   1      32.140  20.739  23.442  1.00  0.00     0.013 A 
ATOM     26  C   UNL A   1      33.982  21.437  24.808  1.00  0.00     0.013 A 
BRANCH  22  27
ATOM     27  O   UNL A   1      34.197  17.804  24.206  1.00  0.00    -0.494 OA
BRANCH  27  28
ATOM     28  C   UNL A   1      33.712  16.989  25.282  1.00  0.00     0.226 C 
ATOM     29  C   UNL A   1      33.371  15.584  24.809  1.00  0.00     0.049 C 
ENDBRANCH  27  28
ENDBRANCH  22  27
ENDBRANCH  11  21
BRANCH  20  30
ATOM     30  C   UNL A   1      33.619  27.359  22.670  1.00  0.00     0.430 C 
ATOM     31  F   UNL A   1      33.866  26.688  21.512  1.00  0.00    -0.167 F 
ATOM     32  F   UNL A   1      32.356  27.838  22.569  1.00  0.00    -0.167 F 
ATOM     33  F   UNL A   1      34.441  28.416  22.673  1.00  0.00    -0.167 F 
ENDBRANCH  20  30
ENDBRANCH   8  10
ENDBRANCH   7   8
ENDBRANCH   6   7
ENDBRANCH   5   6
ENDBRANCH   4   5
ENDBRANCH   3   4
ENDBRANCH   2   3
ENDBRANCH   1   2
BRANCH   1  34
ATOM     34  C   UNL A   1      36.773  33.511  30.207  1.00  0.00     0.188 C 
BRANCH  34  35
ATOM     35  C   UNL A   1      37.570  34.040  31.419  1.00  0.00     0.188 C 
BRANCH  35  36
ATOM     36  O   UNL A   1      37.432  33.244  32.599  1.00  0.00    -0.376 OA
BRANCH  36  37
ATOM     37  C   UNL A   1      36.313  32.368  32.655  1.00  0.00     0.202 C 
BRANCH  37  38
ATOM     38  C   UNL A   1      36.666  30.925  33.039  1.00  0.00     0.261 C 
BRANCH  38  39
ATOM     39  O   UNL A   1      36.918  30.045  31.934  1.00  0.00    -0.460 OA
BRANCH  39  40
ATOM     40  C   UNL A   1      37.988  29.225  32.033  1.00  0.00     0.338 C 
ATOM     41  O   UNL A   1      37.977  28.039  32.317  1.00  0.00    -0.246 OA
BRANCH  40  42
ATOM     42  C   UNL A   1      39.166  29.959  31.527  1.00  0.00     0.060 A 
ATOM     43  C   UNL A   1      39.437  29.931  30.153  1.00  0.00     0.016 A 
ATOM     44  C   UNL A   1      39.979  30.690  32.398  1.00  0.00     0.016 A 
ATOM     45  C   UNL A   1      40.552  30.602  29.651  1.00  0.00     0.010 A 
ATOM     46  C   UNL A   1      41.104  31.345  31.897  1.00  0.00     0.010 A 
ATOM     47  C   UNL A   1      41.415  31.272  30.528  1.00  0.00    -0.014 A 
BRANCH  47  48
ATOM     48  C   UNL A   1      42.758  31.688  30.062  1.00  0.00     0.031 A 
ATOM     49  C   UNL A   1      42.927  33.104  29.585  1.00  0.00     0.074 A 
ATOM     50  C   UNL A   1      43.800  30.840  30.063  1.00  0.00     0.049 A 
ATOM     51  N   UNL A   1      43.982  33.702  29.098  1.00  0.00    -0.248 NA
ATOM     52  C   UNL A   1      41.730  33.957  29.662  1.00  0.00     0.031 C 
ATOM     53  C   UNL A   1      43.767  29.459  30.539  1.00  0.00     0.029 A 
ATOM     54  N   UNL A   1      45.092  31.023  29.641  1.00  0.00    -0.354 N 
ATOM     55  C   UNL A   1      43.579  35.002  28.811  1.00  0.00     0.074 A 
ATOM     56  C   UNL A   1      42.170  35.086  29.134  1.00  0.00     0.031 C 
ATOM     57  C   UNL A   1      44.988  28.917  30.380  1.00  0.00     0.029 A 
ATOM     58  C   UNL A   1      45.876  29.900  29.761  1.00  0.00     0.049 A 
ATOM     59  H   UNL A   1      45.427  31.878  29.286  1.00  0.00     0.167 HD
ATOM     60  C   UNL A   1      44.316  36.034  28.333  1.00  0.00     0.034 A 
ATOM     61  C   UNL A   1      47.156  29.691  29.393  1.00  0.00     0.034 A 
ATOM     62  C   UNL A   1      45.711  35.923  27.984  1.00  0.00     0.049 A 
ATOM     63  C   UNL A   1      47.931  30.820  28.754  1.00  0.00     0.074 A 
ATOM     64  C   UNL A   1      46.563  36.902  27.506  1.00  0.00     0.029 A 
ATOM     65  N   UNL A   1      46.454  34.750  28.053  1.00  0.00    -0.354 N 
ATOM     66  N   UNL A   1      47.549  32.052  28.506  1.00  0.00    -0.248 NA
ATOM     67  C   UNL A   1      49.312  30.526  28.347  1.00  0.00     0.031 C 
ATOM     68  C   UNL A   1      47.794  36.305  27.210  1.00  0.00     0.029 A 
ATOM     69  C   UNL A   1      47.740  34.970  27.583  1.00  0.00     0.049 A 
ATOM     70  H   UNL A   1      46.117  33.887  28.387  1.00  0.00     0.167 HD
ATOM     71  C   UNL A   1      48.655  32.689  27.945  1.00  0.00     0.074 A 
ATOM     72  C   UNL A   1      49.717  31.704  27.897  1.00  0.00     0.031 C 
ATOM     73  C   UNL A   1      48.785  33.972  27.521  1.00  0.00     0.034 A 
BRANCH  60  74
ATOM     74  C   UNL A   1      43.592  37.339  28.103  1.00  0.00     0.023 A 
ATOM     75  C   UNL A   1      43.667  38.399  29.025  1.00  0.00     0.031 A 
ATOM     76  C   UNL A   1      42.746  37.496  26.990  1.00  0.00     0.131 A 
ATOM     77  C   UNL A   1      42.836  39.520  28.873  1.00  0.00     0.055 A 
ATOM     78  C   UNL A   1      41.992  38.654  26.796  1.00  0.00     0.041 A 
ATOM     79  F   UNL A   1      42.612  36.510  26.089  1.00  0.00    -0.206 F 
ATOM     80  C   UNL A   1      42.017  39.666  27.753  1.00  0.00     0.022 A 
BRANCH  77  81
ATOM     81  S   UNL A   1      42.698  40.688  30.256  1.00  0.00     0.124 S 
ATOM     82  O   UNL A   1      41.289  41.066  30.184  1.00  0.00    -0.237 OA
ATOM     83  O   UNL A   1      43.083  39.868  31.399  1.00  0.00    -0.237 OA
ATOM     84  O   UNL A   1      43.638  41.749  29.903  1.00  0.00    -0.744 OA
ENDBRANCH  77  81
ENDBRANCH  60  74
BRANCH  61  85
ATOM     85  C   UNL A   1      47.789  28.356  29.593  1.00  0.00     0.023 A 
ATOM     86  C   UNL A   1      47.979  27.477  28.516  1.00  0.00     0.031 A 
ATOM     87  C   UNL A   1      48.178  27.926  30.875  1.00  0.00     0.131 A 
ATOM     88  C   UNL A   1      48.512  26.198  28.742  1.00  0.00     0.055 A 
ATOM     89  C   UNL A   1      48.748  26.671  31.088  1.00  0.00     0.041 A 
ATOM     90  F   UNL A   1      48.014  28.728  31.938  1.00  0.00    -0.206 F 
ATOM     91  C   UNL A   1      48.911  25.795  30.019  1.00  0.00     0.022 A 
BRANCH  88  92
ATOM     92  S   UNL A   1      48.629  25.043  27.348  1.00  0.00     0.124 S 
ATOM     93  O   UNL A   1      48.679  25.955  26.212  1.00  0.00    -0.237 OA
ATOM     94  O   UNL A   1      49.863  24.325  27.650  1.00  0.00    -0.237 OA
ATOM     95  O   UNL A   1      47.406  24.250  27.460  1.00  0.00    -0.744 OA
ENDBRANCH  88  92
ENDBRANCH  61  85
BRANCH  73  96
ATOM     96  C   UNL A   1      50.141  34.396  27.009  1.00  0.00     0.023 A 
ATOM     97  C   UNL A   1      50.654  33.927  25.786  1.00  0.00     0.031 A 
ATOM     98  C   UNL A   1      50.935  35.280  27.762  1.00  0.00     0.131 A 
ATOM     99  C   UNL A   1      51.943  34.305  25.378  1.00  0.00     0.055 A 
ATOM    100  C   UNL A   1      52.192  35.700  27.321  1.00  0.00     0.041 A 
ATOM    101  F   UNL A   1      50.498  35.758  28.938  1.00  0.00    -0.206 F 
ATOM    102  C   UNL A   1      52.708  35.202  26.129  1.00  0.00     0.022 A 
BRANCH  99 103
ATOM    103  S   UNL A   1      52.650  33.539  23.892  1.00  0.00     0.124 S 
ATOM    104  O   UNL A   1      53.968  33.125  24.363  1.00  0.00    -0.237 OA
ATOM    105  O   UNL A   1      51.705  32.464  23.615  1.00  0.00    -0.237 OA
ATOM    106  O   UNL A   1      52.654  34.626  22.915  1.00  0.00    -0.744 OA
ENDBRANCH  99 103
ENDBRANCH  73  96
ENDBRANCH  47  48
ENDBRANCH  40  42
ENDBRANCH  39  40
ENDBRANCH  38  39
ENDBRANCH  37  38
ENDBRANCH  36  37
ENDBRANCH  35  36
ENDBRANCH  34  35
ENDBRANCH   1  34
TORSDOF 27
ENDMDL
MODEL 3
REMARK VINA RESULT:      -7.2      7.550     11.938
REMARK SMILES CCOc1ccc(-c2cc(Cl)cc3c2O[C@@H](C(F)(F)F)C(C(=O)OCCOCCOCCOCCOC(=O)c2ccc(-c4c5nc(c(-c6cc(S(=O)(=O)[O-])ccc6F)c6ccc([nH]6)c(-c6cc(S(=O)(=O)[O-])ccc6F)c6nc(c(-c7cc(S(=O)(=O)[O-])ccc7F)c7ccc4[nH]7)C=C6)C=C5)cc2)=C3)cc1
REMARK SMILES IDX 30 1 29 2 28 3 27 4 26 5 25 6 24 7 22 8 23 9 21 10 8 11 9 12
REMARK SMILES IDX 14 13 10 14 13 15 15 16 11 17 12 18 102 19 16 20 7 21 4 22
REMARK SMILES IDX 5 23 104 24 6 25 103 26 3 27 2 28 1 29 17 30 18 31 19 32
REMARK SMILES IDX 20 33 31 34 32 35 33 36 34 37 35 38 36 39 37 40 38 41 39 42
REMARK SMILES IDX 40 43 101 44 41 45 100 46 42 47 43 48 44 49 94 50 45 51
REMARK SMILES IDX 99 52 93 53 95 54 46 55 98 56 92 57 91 58 47 60 79 61 59 62
REMARK SMILES IDX 78 63 60 64 63 65 77 66 96 67 61 68 62 69 76 71 97 72 64 73
REMARK SMILES IDX 48 74 49 75 57 76 50 77 56 78 58 79 55 80 51 81 52 82 53 83
REMARK SMILES IDX 54 84 80 85 81 86 89 87 82 88 88 89 90 90 87 91 83 92 84 93
REMARK SMILES IDX 85 94 86 95 65 96 66 97 74 98 67 99 73 100 75 101 72 102
REMARK SMILES IDX 68 103 69 104 70 105 71 106
REMARK H PARENT 95 59 63 70
REMARK Flexibility Score: inf
ROOT
ATOM      1  O   UNL A   1      35.221  33.636  27.973  1.00  0.00    -0.377 OA
ENDROOT
BRANCH   1   2
ATOM      2  C   UNL A   1      33.858  34.015  27.997  1.00  0.00     0.188 C 
BRANCH   2   3
ATOM      3  C   UNL A   1      32.931  32.876  27.554  1.00  0.00     0.188 C 
BRANCH   3   4
ATOM      4  O   UNL A   1      33.378  31.578  27.928  1.00  0.00    -0.376 OA
BRANCH   4   5
ATOM      5  C   UNL A   1      33.306  30.529  26.962  1.00  0.00     0.202 C 
BRANCH   5   6
ATOM      6  C   UNL A   1      32.004  30.338  26.171  1.00  0.00     0.261 C 
BRANCH   6   7
ATOM      7  O   UNL A   1      31.467  29.014  26.390  1.00  0.00    -0.460 OA
BRANCH   7   8
ATOM      8  C   UNL A   1      31.593  28.153  25.368  1.00  0.00     0.338 C 
ATOM      9  O   UNL A   1      30.720  27.908  24.545  1.00  0.00    -0.246 OA
BRANCH   8  10
ATOM     10  C   UNL A   1      32.982  27.655  25.213  1.00  0.00     0.087 C 
ATOM     11  C   UNL A   1      33.338  23.600  24.403  1.00  0.00     0.026 A 
ATOM     12  C   UNL A   1      32.193  22.968  24.939  1.00  0.00     0.033 A 
ATOM     13  C   UNL A   1      33.449  24.981  24.658  1.00  0.00     0.135 A 
ATOM     14  C   UNL A   1      31.448  23.578  25.948  1.00  0.00     0.042 A 
ATOM     15  C   UNL A   1      32.867  25.496  25.824  1.00  0.00     0.019 A 
ATOM     16  O   UNL A   1      33.893  25.860  23.674  1.00  0.00    -0.475 OA
ATOM     17  Cl  UNL A   1      30.094  22.762  26.617  1.00  0.00    -0.084 Cl
ATOM     18  C   UNL A   1      31.853  24.799  26.470  1.00  0.00     0.032 A 
ATOM     19  C   UNL A   1      33.267  26.852  26.255  1.00  0.00     0.027 C 
ATOM     20  C   UNL A   1      33.742  27.325  23.940  1.00  0.00     0.316 C 
BRANCH  11  21
ATOM     21  C   UNL A   1      34.530  22.692  24.266  1.00  0.00    -0.014 A 
ATOM     22  C   UNL A   1      37.035  21.406  24.723  1.00  0.00     0.119 A 
ATOM     23  C   UNL A   1      35.851  20.820  25.163  1.00  0.00     0.047 A 
ATOM     24  C   UNL A   1      36.975  22.577  23.981  1.00  0.00     0.047 A 
ATOM     25  C   UNL A   1      34.613  21.452  24.934  1.00  0.00     0.013 A 
ATOM     26  C   UNL A   1      35.740  23.209  23.755  1.00  0.00     0.013 A 
BRANCH  22  27
ATOM     27  O   UNL A   1      38.208  20.740  24.950  1.00  0.00    -0.494 OA
BRANCH  27  28
ATOM     28  C   UNL A   1      39.151  21.439  25.775  1.00  0.00     0.226 C 
ATOM     29  C   UNL A   1      40.209  20.499  26.333  1.00  0.00     0.049 C 
ENDBRANCH  27  28
ENDBRANCH  22  27
ENDBRANCH  11  21
BRANCH  20  30
ATOM     30  C   UNL A   1      33.505  28.213  22.691  1.00  0.00     0.430 C 
ATOM     31  F   UNL A   1      32.519  27.663  21.931  1.00  0.00    -0.167 F 
ATOM     32  F   UNL A   1      33.070  29.447  23.041  1.00  0.00    -0.167 F 
ATOM     33  F   UNL A   1      34.554  28.382  21.876  1.00  0.00    -0.167 F 
ENDBRANCH  20  30
ENDBRANCH   8  10
ENDBRANCH   7   8
ENDBRANCH   6   7
ENDBRANCH   5   6
ENDBRANCH   4   5
ENDBRANCH   3   4
ENDBRANCH   2   3
ENDBRANCH   1   2
BRANCH   1  34
ATOM     34  C   UNL A   1      35.917  33.671  29.215  1.00  0.00     0.188 C 
BRANCH  34  35
ATOM     35  C   UNL A   1      37.444  33.454  29.256  1.00  0.00     0.188 C 
BRANCH  35  36
ATOM     36  O   UNL A   1      37.861  32.165  28.798  1.00  0.00    -0.376 OA
BRANCH  36  37
ATOM     37  C   UNL A   1      37.018  31.066  29.117  1.00  0.00     0.202 C 
BRANCH  37  38
ATOM     38  C   UNL A   1      37.674  30.014  30.021  1.00  0.00     0.261 C 
BRANCH  38  39
ATOM     39  O   UNL A   1      38.917  30.413  30.617  1.00  0.00    -0.460 OA
BRANCH  39  40
ATOM     40  C   UNL A   1      39.380  29.658  31.638  1.00  0.00     0.338 C 
ATOM     41  O   UNL A   1      39.838  28.530  31.563  1.00  0.00    -0.246 OA
BRANCH  40  42
ATOM     42  C   UNL A   1      39.440  30.514  32.840  1.00  0.00     0.060 A 
ATOM     43  C   UNL A   1      39.003  31.841  32.744  1.00  0.00     0.016 A 
ATOM     44  C   UNL A   1      39.897  30.001  34.058  1.00  0.00     0.016 A 
ATOM     45  C   UNL A   1      39.064  32.675  33.861  1.00  0.00     0.010 A 
ATOM     46  C   UNL A   1      39.974  30.841  35.169  1.00  0.00     0.010 A 
ATOM     47  C   UNL A   1      39.593  32.190  35.065  1.00  0.00    -0.014 A 
BRANCH  47  48
ATOM     48  C   UNL A   1      39.975  33.140  36.135  1.00  0.00     0.031 A 
ATOM     49  C   UNL A   1      39.201  33.091  37.423  1.00  0.00     0.074 A 
ATOM     50  C   UNL A   1      40.977  34.020  35.975  1.00  0.00     0.049 A 
ATOM     51  N   UNL A   1      39.313  33.833  38.494  1.00  0.00    -0.248 NA
ATOM     52  C   UNL A   1      38.149  32.066  37.505  1.00  0.00     0.031 C 
ATOM     53  C   UNL A   1      41.823  34.132  34.788  1.00  0.00     0.029 A 
ATOM     54  N   UNL A   1      41.449  34.991  36.821  1.00  0.00    -0.354 N 
ATOM     55  C   UNL A   1      38.347  33.363  39.378  1.00  0.00     0.074 A 
ATOM     56  C   UNL A   1      37.630  32.307  38.696  1.00  0.00     0.031 C 
ATOM     57  C   UNL A   1      42.712  35.123  34.983  1.00  0.00     0.029 A 
ATOM     58  C   UNL A   1      42.475  35.735  36.290  1.00  0.00     0.049 A 
ATOM     59  H   UNL A   1      41.086  35.141  37.723  1.00  0.00     0.167 HD
ATOM     60  C   UNL A   1      38.089  33.768  40.646  1.00  0.00     0.034 A 
ATOM     61  C   UNL A   1      43.131  36.798  36.798  1.00  0.00     0.034 A 
ATOM     62  C   UNL A   1      38.790  34.845  41.298  1.00  0.00     0.049 A 
ATOM     63  C   UNL A   1      42.752  37.309  38.167  1.00  0.00     0.074 A 
ATOM     64  C   UNL A   1      38.626  35.332  42.582  1.00  0.00     0.029 A 
ATOM     65  N   UNL A   1      39.778  35.623  40.703  1.00  0.00    -0.354 N 
ATOM     66  N   UNL A   1      41.852  36.846  39.006  1.00  0.00    -0.248 NA
ATOM     67  C   UNL A   1      43.480  38.487  38.658  1.00  0.00     0.031 C 
ATOM     68  C   UNL A   1      39.453  36.451  42.736  1.00  0.00     0.029 A 
ATOM     69  C   UNL A   1      40.199  36.613  41.578  1.00  0.00     0.049 A 
ATOM     70  H   UNL A   1      40.128  35.490  39.793  1.00  0.00     0.167 HD
ATOM     71  C   UNL A   1      41.932  37.658  40.137  1.00  0.00     0.074 A 
ATOM     72  C   UNL A   1      42.969  38.634  39.872  1.00  0.00     0.031 C 
ATOM     73  C   UNL A   1      41.221  37.594  41.293  1.00  0.00     0.034 A 
BRANCH  60  74
ATOM     74  C   UNL A   1      36.954  33.075  41.364  1.00  0.00     0.023 A 
ATOM     75  C   UNL A   1      35.651  33.605  41.371  1.00  0.00     0.031 A 
ATOM     76  C   UNL A   1      37.195  31.915  42.121  1.00  0.00     0.131 A 
ATOM     77  C   UNL A   1      34.669  33.039  42.199  1.00  0.00     0.055 A 
ATOM     78  C   UNL A   1      36.189  31.302  42.869  1.00  0.00     0.041 A 
ATOM     79  F   UNL A   1      38.424  31.376  42.174  1.00  0.00    -0.206 F 
ATOM     80  C   UNL A   1      34.922  31.877  42.930  1.00  0.00     0.022 A 
BRANCH  77  81
ATOM     81  S   UNL A   1      33.122  33.954  42.457  1.00  0.00     0.124 S 
ATOM     82  O   UNL A   1      33.329  34.515  43.790  1.00  0.00    -0.237 OA
ATOM     83  O   UNL A   1      33.134  34.907  41.354  1.00  0.00    -0.237 OA
ATOM     84  O   UNL A   1      32.095  32.918  42.378  1.00  0.00    -0.744 OA
ENDBRANCH  77  81
ENDBRANCH  60  74
BRANCH  61  85
ATOM     85  C   UNL A   1      44.199  37.472  36.007  1.00  0.00     0.023 A 
ATOM     86  C   UNL A   1      43.884  38.449  35.050  1.00  0.00     0.031 A 
ATOM     87  C   UNL A   1      45.552  37.119  36.170  1.00  0.00     0.131 A 
ATOM     88  C   UNL A   1      44.903  39.018  34.269  1.00  0.00     0.055 A 
ATOM     89  C   UNL A   1      46.565  37.720  35.423  1.00  0.00     0.041 A 
ATOM     90  F   UNL A   1      45.906  36.188  37.070  1.00  0.00    -0.206 F 
ATOM     91  C   UNL A   1      46.242  38.669  34.458  1.00  0.00     0.022 A 
BRANCH  88  92
ATOM     92  S   UNL A   1      44.445  40.185  32.958  1.00  0.00     0.124 S 
ATOM     93  O   UNL A   1      43.057  39.819  32.706  1.00  0.00    -0.237 OA
ATOM     94  O   UNL A   1      44.661  41.474  33.609  1.00  0.00    -0.237 OA
ATOM     95  O   UNL A   1      45.381  39.871  31.880  1.00  0.00    -0.744 OA
ENDBRANCH  88  92
ENDBRANCH  61  85
BRANCH  73  96
ATOM     96  C   UNL A   1      41.578  38.584  42.376  1.00  0.00     0.023 A 
ATOM     97  C   UNL A   1      42.610  38.337  43.299  1.00  0.00     0.031 A 
ATOM     98  C   UNL A   1      40.869  39.794  42.488  1.00  0.00     0.131 A 
ATOM     99  C   UNL A   1      42.869  39.262  44.323  1.00  0.00     0.055 A 
ATOM    100  C   UNL A   1      41.171  40.738  43.472  1.00  0.00     0.041 A 
ATOM    101  F   UNL A   1      39.872  40.083  41.636  1.00  0.00    -0.206 F 
ATOM    102  C   UNL A   1      42.168  40.469  44.404  1.00  0.00     0.022 A 
BRANCH  99 103
ATOM    103  S   UNL A   1      44.076  38.831  45.607  1.00  0.00     0.124 S 
ATOM    104  O   UNL A   1      43.215  38.547  46.750  1.00  0.00    -0.237 OA
ATOM    105  O   UNL A   1      44.759  37.682  45.021  1.00  0.00    -0.237 OA
ATOM    106  O   UNL A   1      44.892  40.038  45.731  1.00  0.00    -0.744 OA
ENDBRANCH  99 103
ENDBRANCH  73  96
ENDBRANCH  47  48
ENDBRANCH  40  42
ENDBRANCH  39  40
ENDBRANCH  38  39
ENDBRANCH  37  38
ENDBRANCH  36  37
ENDBRANCH  35  36
ENDBRANCH  34  35
ENDBRANCH   1  34
TORSDOF 27
ENDMDL
