MODEL 1
REMARK VINA RESULT:      -8.7      0.000      0.000
REMARK SMILES O=C(OCCOCCOCCOCCOC(=O)[C@H](CCc1ccccn1)c1ccccc1Br)c1ccc(-c2c3nc(c(-c4cc(S(=O)(=O)[O-])ccc4F)c4ccc([nH]4)c(-c4cc(S(=O)(=O)[O-])ccc4F)c4nc(c(-c5cc(S(=O)(=O)[O-])ccc5F)c5ccc2[nH]5)C=C4)C=C3)cc1
REMARK SMILES IDX 9 1 8 2 7 3 6 4 5 5 4 6 3 7 2 8 1 9 34 10 35 11 96 12 36 13
REMARK SMILES IDX 95 14 37 15 38 16 39 17 89 18 40 19 94 20 88 21 90 22 41 23
REMARK SMILES IDX 93 24 87 25 86 26 42 28 74 29 54 30 73 31 55 32 58 33 72 34
REMARK SMILES IDX 91 35 56 36 57 37 71 39 92 40 59 41 43 42 44 43 52 44 45 45
REMARK SMILES IDX 51 46 53 47 50 48 46 49 47 50 48 51 49 52 75 53 76 54 84 55
REMARK SMILES IDX 77 56 83 57 85 58 82 59 78 60 79 61 80 62 81 63 60 64 61 65
REMARK SMILES IDX 69 66 62 67 68 68 70 69 67 70 63 71 64 72 65 73 66 74 10 75
REMARK SMILES IDX 11 76 12 77 13 78 14 79 15 80 16 81 17 82 18 83 27 84 28 85
REMARK SMILES IDX 32 86 29 87 31 88 33 89 30 90 19 91 20 92 21 93 22 94 26 95
REMARK SMILES IDX 23 96 25 97 24 98
REMARK H PARENT 90 27 58 38
REMARK Flexibility Score: inf
ROOT
ATOM      1  O   UNL A   1      50.672  19.385  38.739  1.00  0.00    -0.377 OA
ENDROOT
BRANCH   1   2
ATOM      2  C   UNL A   1      49.914  20.246  37.908  1.00  0.00     0.188 C 
BRANCH   2   3
ATOM      3  C   UNL A   1      50.604  21.569  37.604  1.00  0.00     0.188 C 
BRANCH   3   4
ATOM      4  O   UNL A   1      49.832  22.400  36.740  1.00  0.00    -0.376 OA
BRANCH   4   5
ATOM      5  C   UNL A   1      49.000  23.388  37.347  1.00  0.00     0.202 C 
BRANCH   5   6
ATOM      6  C   UNL A   1      47.525  23.006  37.451  1.00  0.00     0.261 C 
BRANCH   6   7
ATOM      7  O   UNL A   1      46.683  23.684  36.506  1.00  0.00    -0.460 OA
BRANCH   7   8
ATOM      8  C   UNL A   1      46.863  24.876  35.885  1.00  0.00     0.338 C 
ATOM      9  O   UNL A   1      48.021  25.273  35.745  1.00  0.00    -0.246 OA
BRANCH   8  10
ATOM     10  C   UNL A   1      45.762  25.775  35.403  1.00  0.00     0.060 A 
ATOM     11  C   UNL A   1      44.421  25.696  35.774  1.00  0.00     0.016 A 
ATOM     12  C   UNL A   1      46.130  26.811  34.524  1.00  0.00     0.016 A 
ATOM     13  C   UNL A   1      43.464  26.552  35.266  1.00  0.00     0.010 A 
ATOM     14  C   UNL A   1      45.169  27.669  33.976  1.00  0.00     0.010 A 
ATOM     15  C   UNL A   1      43.824  27.493  34.314  1.00  0.00    -0.014 A 
BRANCH  15  16
ATOM     16  C   UNL A   1      42.723  27.986  33.471  1.00  0.00     0.031 A 
ATOM     17  C   UNL A   1      41.823  29.020  34.087  1.00  0.00     0.074 A 
ATOM     18  C   UNL A   1      42.710  27.713  32.156  1.00  0.00     0.049 A 
ATOM     19  N   UNL A   1      40.776  29.616  33.592  1.00  0.00    -0.248 NA
ATOM     20  C   UNL A   1      42.173  29.459  35.450  1.00  0.00     0.031 C 
ATOM     21  C   UNL A   1      43.707  26.895  31.457  1.00  0.00     0.029 A 
ATOM     22  N   UNL A   1      41.874  28.141  31.165  1.00  0.00    -0.354 N 
ATOM     23  C   UNL A   1      40.312  30.454  34.603  1.00  0.00     0.074 A 
ATOM     24  C   UNL A   1      41.190  30.293  35.735  1.00  0.00     0.031 C 
ATOM     25  C   UNL A   1      43.432  26.904  30.142  1.00  0.00     0.029 A 
ATOM     26  C   UNL A   1      42.198  27.646  29.924  1.00  0.00     0.049 A 
ATOM     27  H   UNL A   1      41.114  28.745  31.324  1.00  0.00     0.167 HD
ATOM     28  C   UNL A   1      39.232  31.268  34.575  1.00  0.00     0.034 A 
ATOM     29  C   UNL A   1      41.526  27.753  28.762  1.00  0.00     0.034 A 
ATOM     30  C   UNL A   1      38.398  31.382  33.407  1.00  0.00     0.049 A 
ATOM     31  C   UNL A   1      40.243  28.548  28.791  1.00  0.00     0.074 A 
ATOM     32  C   UNL A   1      37.219  32.082  33.243  1.00  0.00     0.029 A 
ATOM     33  N   UNL A   1      38.670  30.760  32.191  1.00  0.00    -0.354 N 
ATOM     34  N   UNL A   1      39.722  29.238  29.784  1.00  0.00    -0.248 NA
ATOM     35  C   UNL A   1      39.454  28.572  27.559  1.00  0.00     0.031 C 
ATOM     36  C   UNL A   1      36.741  31.818  31.954  1.00  0.00     0.029 A 
ATOM     37  C   UNL A   1      37.667  31.033  31.280  1.00  0.00     0.049 A 
ATOM     38  H   UNL A   1      39.464  30.207  32.006  1.00  0.00     0.167 HD
ATOM     39  C   UNL A   1      38.553  29.801  29.285  1.00  0.00     0.074 A 
ATOM     40  C   UNL A   1      38.465  29.386  27.897  1.00  0.00     0.031 C 
ATOM     41  C   UNL A   1      37.633  30.588  29.904  1.00  0.00     0.034 A 
BRANCH  28  42
ATOM     42  C   UNL A   1      38.852  31.942  35.871  1.00  0.00     0.023 A 
ATOM     43  C   UNL A   1      38.253  31.246  36.939  1.00  0.00     0.031 A 
ATOM     44  C   UNL A   1      38.967  33.338  35.985  1.00  0.00     0.131 A 
ATOM     45  C   UNL A   1      37.705  31.959  38.019  1.00  0.00     0.055 A 
ATOM     46  C   UNL A   1      38.503  34.032  37.104  1.00  0.00     0.041 A 
ATOM     47  F   UNL A   1      39.492  34.063  34.984  1.00  0.00    -0.206 F 
ATOM     48  C   UNL A   1      37.849  33.344  38.121  1.00  0.00     0.022 A 
BRANCH  45  49
ATOM     49  S   UNL A   1      36.632  31.077  39.191  1.00  0.00     0.124 S 
ATOM     50  O   UNL A   1      36.411  29.812  38.494  1.00  0.00    -0.237 OA
ATOM     51  O   UNL A   1      37.467  31.004  40.389  1.00  0.00    -0.237 OA
ATOM     52  O   UNL A   1      35.460  31.936  39.300  1.00  0.00    -0.744 OA
ENDBRANCH  45  49
ENDBRANCH  28  42
BRANCH  29  53
ATOM     53  C   UNL A   1      41.988  27.044  27.533  1.00  0.00     0.023 A 
ATOM     54  C   UNL A   1      41.910  25.647  27.422  1.00  0.00     0.031 A 
ATOM     55  C   UNL A   1      42.572  27.751  26.463  1.00  0.00     0.131 A 
ATOM     56  C   UNL A   1      42.448  25.000  26.296  1.00  0.00     0.055 A 
ATOM     57  C   UNL A   1      43.049  27.108  25.318  1.00  0.00     0.041 A 
ATOM     58  F   UNL A   1      42.686  29.087  26.511  1.00  0.00    -0.206 F 
ATOM     59  C   UNL A   1      43.002  25.721  25.237  1.00  0.00     0.022 A 
BRANCH  56  60
ATOM     60  S   UNL A   1      42.503  23.187  26.275  1.00  0.00     0.124 S 
ATOM     61  O   UNL A   1      43.627  22.917  27.173  1.00  0.00    -0.237 OA
ATOM     62  O   UNL A   1      41.181  22.838  26.787  1.00  0.00    -0.237 OA
ATOM     63  O   UNL A   1      42.734  22.866  24.875  1.00  0.00    -0.744 OA
ENDBRANCH  56  60
ENDBRANCH  29  53
BRANCH  41  64
ATOM     64  C   UNL A   1      36.498  31.088  29.049  1.00  0.00     0.023 A 
ATOM     65  C   UNL A   1      35.510  30.221  28.557  1.00  0.00     0.031 A 
ATOM     66  C   UNL A   1      36.420  32.451  28.719  1.00  0.00     0.131 A 
ATOM     67  C   UNL A   1      34.523  30.718  27.696  1.00  0.00     0.055 A 
ATOM     68  C   UNL A   1      35.388  32.953  27.929  1.00  0.00     0.041 A 
ATOM     69  F   UNL A   1      37.343  33.318  29.164  1.00  0.00    -0.206 F 
ATOM     70  C   UNL A   1      34.441  32.081  27.398  1.00  0.00     0.022 A 
BRANCH  67  71
ATOM     71  S   UNL A   1      33.424  29.536  26.873  1.00  0.00     0.124 S 
ATOM     72  O   UNL A   1      34.282  29.015  25.813  1.00  0.00    -0.237 OA
ATOM     73  O   UNL A   1      33.104  28.605  27.950  1.00  0.00    -0.237 OA
ATOM     74  O   UNL A   1      32.310  30.366  26.418  1.00  0.00    -0.744 OA
ENDBRANCH  67  71
ENDBRANCH  41  64
ENDBRANCH  15  16
ENDBRANCH   8  10
ENDBRANCH   7   8
ENDBRANCH   6   7
ENDBRANCH   5   6
ENDBRANCH   4   5
ENDBRANCH   3   4
ENDBRANCH   2   3
ENDBRANCH   1   2
BRANCH   1  75
ATOM     75  C   UNL A   1      50.184  19.251  40.070  1.00  0.00     0.188 C 
BRANCH  75  76
ATOM     76  C   UNL A   1      50.060  20.545  40.944  1.00  0.00     0.188 C 
BRANCH  76  77
ATOM     77  O   UNL A   1      49.764  20.272  42.307  1.00  0.00    -0.376 OA
BRANCH  77  78
ATOM     78  C   UNL A   1      50.403  19.111  42.834  1.00  0.00     0.202 C 
BRANCH  78  79
ATOM     79  C   UNL A   1      49.736  18.492  44.076  1.00  0.00     0.261 C 
BRANCH  79  80
ATOM     80  O   UNL A   1      48.393  18.060  43.718  1.00  0.00    -0.463 OA
BRANCH  80  81
ATOM     81  C   UNL A   1      47.651  17.195  44.421  1.00  0.00     0.313 C 
ATOM     82  O   UNL A   1      48.132  16.464  45.274  1.00  0.00    -0.252 OA
BRANCH  81  83
ATOM     83  C   UNL A   1      46.105  17.246  44.040  1.00  0.00     0.131 C 
BRANCH  83  84
ATOM     84  C   UNL A   1      46.004  17.258  42.533  1.00  0.00    -0.020 A 
ATOM     85  C   UNL A   1      46.701  16.270  41.800  1.00  0.00     0.006 A 
ATOM     86  C   UNL A   1      45.225  18.189  41.832  1.00  0.00     0.022 A 
ATOM     87  C   UNL A   1      46.640  16.228  40.413  1.00  0.00     0.000 A 
ATOM     88  C   UNL A   1      45.124  18.108  40.443  1.00  0.00     0.016 A 
ATOM     89  Br  UNL A   1      44.277  19.603  42.682  1.00  0.00    -0.051 Br
ATOM     90  C   UNL A   1      45.838  17.139  39.736  1.00  0.00     0.001 A 
ENDBRANCH  83  84
BRANCH  83  91
ATOM     91  C   UNL A   1      45.091  16.242  44.708  1.00  0.00     0.026 C 
BRANCH  91  92
ATOM     92  C   UNL A   1      45.408  14.796  45.189  1.00  0.00     0.057 C 
BRANCH  92  93
ATOM     93  C   UNL A   1      44.486  13.692  44.707  1.00  0.00     0.040 A 
ATOM     94  C   UNL A   1      44.598  12.375  45.156  1.00  0.00     0.024 A 
ATOM     95  N   UNL A   1      43.488  14.055  43.884  1.00  0.00    -0.261 NA
ATOM     96  C   UNL A   1      43.662  11.425  44.730  1.00  0.00     0.003 A 
ATOM     97  C   UNL A   1      42.596  13.124  43.483  1.00  0.00     0.111 A 
ATOM     98  C   UNL A   1      42.637  11.806  43.877  1.00  0.00     0.020 A 
ENDBRANCH  92  93
ENDBRANCH  91  92
ENDBRANCH  83  91
ENDBRANCH  81  83
ENDBRANCH  80  81
ENDBRANCH  79  80
ENDBRANCH  78  79
ENDBRANCH  77  78
ENDBRANCH  76  77
ENDBRANCH  75  76
ENDBRANCH   1  75
TORSDOF 27
ENDMDL
MODEL 2
REMARK VINA RESULT:      -8.5      7.695     16.780
REMARK SMILES O=C(OCCOCCOCCOCCOC(=O)[C@H](CCc1ccccn1)c1ccccc1Br)c1ccc(-c2c3nc(c(-c4cc(S(=O)(=O)[O-])ccc4F)c4ccc([nH]4)c(-c4cc(S(=O)(=O)[O-])ccc4F)c4nc(c(-c5cc(S(=O)(=O)[O-])ccc5F)c5ccc2[nH]5)C=C4)C=C3)cc1
REMARK SMILES IDX 9 1 8 2 7 3 6 4 5 5 4 6 3 7 2 8 1 9 34 10 35 11 96 12 36 13
REMARK SMILES IDX 95 14 37 15 38 16 39 17 89 18 40 19 94 20 88 21 90 22 41 23
REMARK SMILES IDX 93 24 87 25 86 26 42 28 74 29 54 30 73 31 55 32 58 33 72 34
REMARK SMILES IDX 91 35 56 36 57 37 71 39 92 40 59 41 43 42 44 43 52 44 45 45
REMARK SMILES IDX 51 46 53 47 50 48 46 49 47 50 48 51 49 52 75 53 76 54 84 55
REMARK SMILES IDX 77 56 83 57 85 58 82 59 78 60 79 61 80 62 81 63 60 64 61 65
REMARK SMILES IDX 69 66 62 67 68 68 70 69 67 70 63 71 64 72 65 73 66 74 10 75
REMARK SMILES IDX 11 76 12 77 13 78 14 79 15 80 16 81 17 82 18 83 27 84 28 85
REMARK SMILES IDX 32 86 29 87 31 88 33 89 30 90 19 91 20 92 21 93 22 94 26 95
REMARK SMILES IDX 23 96 25 97 24 98
REMARK H PARENT 90 27 58 38
REMARK Flexibility Score: inf
ROOT
ATOM      1  O   UNL A   1      32.906  37.286  30.983  1.00  0.00    -0.377 OA
ENDROOT
BRANCH   1   2
ATOM      2  C   UNL A   1      33.348  37.257  32.329  1.00  0.00     0.188 C 
BRANCH   2   3
ATOM      3  C   UNL A   1      33.858  35.894  32.777  1.00  0.00     0.188 C 
BRANCH   3   4
ATOM      4  O   UNL A   1      35.260  35.897  33.036  1.00  0.00    -0.376 OA
BRANCH   4   5
ATOM      5  C   UNL A   1      35.851  34.675  33.476  1.00  0.00     0.202 C 
BRANCH   5   6
ATOM      6  C   UNL A   1      35.538  34.298  34.922  1.00  0.00     0.261 C 
BRANCH   6   7
ATOM      7  O   UNL A   1      36.271  33.158  35.396  1.00  0.00    -0.460 OA
BRANCH   7   8
ATOM      8  C   UNL A   1      37.405  33.106  36.138  1.00  0.00     0.338 C 
ATOM      9  O   UNL A   1      37.410  33.713  37.210  1.00  0.00    -0.246 OA
BRANCH   8  10
ATOM     10  C   UNL A   1      38.673  32.413  35.731  1.00  0.00     0.060 A 
ATOM     11  C   UNL A   1      38.941  31.052  35.870  1.00  0.00     0.016 A 
ATOM     12  C   UNL A   1      39.662  33.208  35.123  1.00  0.00     0.016 A 
ATOM     13  C   UNL A   1      40.145  30.495  35.488  1.00  0.00     0.010 A 
ATOM     14  C   UNL A   1      40.900  32.667  34.757  1.00  0.00     0.010 A 
ATOM     15  C   UNL A   1      41.151  31.312  34.997  1.00  0.00    -0.014 A 
BRANCH  15  16
ATOM     16  C   UNL A   1      42.513  30.764  35.105  1.00  0.00     0.031 A 
ATOM     17  C   UNL A   1      43.186  30.391  33.815  1.00  0.00     0.074 A 
ATOM     18  C   UNL A   1      43.184  30.857  36.265  1.00  0.00     0.049 A 
ATOM     19  N   UNL A   1      44.365  29.877  33.607  1.00  0.00    -0.248 NA
ATOM     20  C   UNL A   1      42.424  30.660  32.581  1.00  0.00     0.031 C 
ATOM     21  C   UNL A   1      42.648  31.433  37.503  1.00  0.00     0.029 A 
ATOM     22  N   UNL A   1      44.472  30.530  36.578  1.00  0.00    -0.354 N 
ATOM     23  C   UNL A   1      44.459  29.709  32.227  1.00  0.00     0.074 A 
ATOM     24  C   UNL A   1      43.224  30.177  31.649  1.00  0.00     0.031 C 
ATOM     25  C   UNL A   1      43.615  31.439  38.434  1.00  0.00     0.029 A 
ATOM     26  C   UNL A   1      44.798  30.787  37.889  1.00  0.00     0.049 A 
ATOM     27  H   UNL A   1      45.104  30.148  35.929  1.00  0.00     0.167 HD
ATOM     28  C   UNL A   1      45.492  29.190  31.524  1.00  0.00     0.034 A 
ATOM     29  C   UNL A   1      45.920  30.475  38.565  1.00  0.00     0.034 A 
ATOM     30  C   UNL A   1      46.700  28.743  32.167  1.00  0.00     0.049 A 
ATOM     31  C   UNL A   1      47.002  29.763  37.790  1.00  0.00     0.074 A 
ATOM     32  C   UNL A   1      47.796  28.108  31.619  1.00  0.00     0.029 A 
ATOM     33  N   UNL A   1      46.958  28.891  33.528  1.00  0.00    -0.354 N 
ATOM     34  N   UNL A   1      47.046  29.476  36.505  1.00  0.00    -0.248 NA
ATOM     35  C   UNL A   1      48.175  29.322  38.547  1.00  0.00     0.031 C 
ATOM     36  C   UNL A   1      48.679  27.803  32.661  1.00  0.00     0.029 A 
ATOM     37  C   UNL A   1      48.182  28.331  33.845  1.00  0.00     0.049 A 
ATOM     38  H   UNL A   1      46.357  29.331  34.172  1.00  0.00     0.167 HD
ATOM     39  C   UNL A   1      48.266  28.844  36.296  1.00  0.00     0.074 A 
ATOM     40  C   UNL A   1      48.932  28.814  37.586  1.00  0.00     0.031 C 
ATOM     41  C   UNL A   1      48.797  28.331  35.154  1.00  0.00     0.034 A 
BRANCH  28  42
ATOM     42  C   UNL A   1      45.266  28.961  30.049  1.00  0.00     0.023 A 
ATOM     43  C   UNL A   1      45.634  29.905  29.071  1.00  0.00     0.031 A 
ATOM     44  C   UNL A   1      44.540  27.834  29.627  1.00  0.00     0.131 A 
ATOM     45  C   UNL A   1      45.188  29.752  27.747  1.00  0.00     0.055 A 
ATOM     46  C   UNL A   1      44.179  27.641  28.292  1.00  0.00     0.041 A 
ATOM     47  F   UNL A   1      44.125  26.917  30.517  1.00  0.00    -0.206 F 
ATOM     48  C   UNL A   1      44.486  28.613  27.346  1.00  0.00     0.022 A 
BRANCH  45  49
ATOM     49  S   UNL A   1      45.368  31.149  26.599  1.00  0.00     0.124 S 
ATOM     50  O   UNL A   1      43.979  31.391  26.210  1.00  0.00    -0.237 OA
ATOM     51  O   UNL A   1      45.978  32.174  27.443  1.00  0.00    -0.237 OA
ATOM     52  O   UNL A   1      46.222  30.621  25.543  1.00  0.00    -0.744 OA
ENDBRANCH  45  49
ENDBRANCH  28  42
BRANCH  29  53
ATOM     53  C   UNL A   1      46.043  30.743  40.028  1.00  0.00     0.023 A 
ATOM     54  C   UNL A   1      45.625  29.801  40.981  1.00  0.00     0.031 A 
ATOM     55  C   UNL A   1      46.530  31.977  40.501  1.00  0.00     0.131 A 
ATOM     56  C   UNL A   1      45.657  30.124  42.349  1.00  0.00     0.055 A 
ATOM     57  C   UNL A   1      46.618  32.270  41.864  1.00  0.00     0.041 A 
ATOM     58  F   UNL A   1      46.935  32.925  39.641  1.00  0.00    -0.206 F 
ATOM     59  C   UNL A   1      46.165  31.345  42.797  1.00  0.00     0.022 A 
BRANCH  56  60
ATOM     60  S   UNL A   1      44.932  28.961  43.537  1.00  0.00     0.124 S 
ATOM     61  O   UNL A   1      46.128  28.384  44.151  1.00  0.00    -0.237 OA
ATOM     62  O   UNL A   1      44.147  29.851  44.389  1.00  0.00    -0.237 OA
ATOM     63  O   UNL A   1      44.159  28.054  42.703  1.00  0.00    -0.744 OA
ENDBRANCH  56  60
ENDBRANCH  29  53
BRANCH  41  64
ATOM     64  C   UNL A   1      50.185  27.760  35.260  1.00  0.00     0.023 A 
ATOM     65  C   UNL A   1      50.405  26.402  35.537  1.00  0.00     0.031 A 
ATOM     66  C   UNL A   1      51.300  28.598  35.091  1.00  0.00     0.131 A 
ATOM     67  C   UNL A   1      51.714  25.935  35.710  1.00  0.00     0.055 A 
ATOM     68  C   UNL A   1      52.602  28.110  35.184  1.00  0.00     0.041 A 
ATOM     69  F   UNL A   1      51.142  29.905  34.827  1.00  0.00    -0.206 F 
ATOM     70  C   UNL A   1      52.814  26.774  35.512  1.00  0.00     0.022 A 
BRANCH  67  71
ATOM     71  S   UNL A   1      51.952  24.246  36.322  1.00  0.00     0.124 S 
ATOM     72  O   UNL A   1      51.041  24.207  37.462  1.00  0.00    -0.237 OA
ATOM     73  O   UNL A   1      51.565  23.439  35.169  1.00  0.00    -0.237 OA
ATOM     74  O   UNL A   1      53.373  24.203  36.660  1.00  0.00    -0.744 OA
ENDBRANCH  67  71
ENDBRANCH  41  64
ENDBRANCH  15  16
ENDBRANCH   8  10
ENDBRANCH   7   8
ENDBRANCH   6   7
ENDBRANCH   5   6
ENDBRANCH   4   5
ENDBRANCH   3   4
ENDBRANCH   2   3
ENDBRANCH   1   2
BRANCH   1  75
ATOM     75  C   UNL A   1      32.909  36.026  30.322  1.00  0.00     0.188 C 
BRANCH  75  76
ATOM     76  C   UNL A   1      33.241  35.995  28.792  1.00  0.00     0.188 C 
BRANCH  76  77
ATOM     77  O   UNL A   1      34.406  35.241  28.487  1.00  0.00    -0.376 OA
BRANCH  77  78
ATOM     78  C   UNL A   1      34.186  33.839  28.341  1.00  0.00     0.202 C 
BRANCH  78  79
ATOM     79  C   UNL A   1      35.131  32.931  29.148  1.00  0.00     0.261 C 
BRANCH  79  80
ATOM     80  O   UNL A   1      36.129  32.376  28.246  1.00  0.00    -0.463 OA
BRANCH  80  81
ATOM     81  C   UNL A   1      36.315  31.070  28.015  1.00  0.00     0.313 C 
ATOM     82  O   UNL A   1      35.468  30.375  27.472  1.00  0.00    -0.252 OA
BRANCH  81  83
ATOM     83  C   UNL A   1      37.740  30.546  28.499  1.00  0.00     0.131 C 
BRANCH  83  84
ATOM     84  C   UNL A   1      37.717  30.481  30.007  1.00  0.00    -0.020 A 
ATOM     85  C   UNL A   1      37.068  29.389  30.628  1.00  0.00     0.006 A 
ATOM     86  C   UNL A   1      38.337  31.442  30.818  1.00  0.00     0.022 A 
ATOM     87  C   UNL A   1      37.021  29.274  32.012  1.00  0.00     0.000 A 
ATOM     88  C   UNL A   1      38.333  31.292  32.204  1.00  0.00     0.016 A 
ATOM     89  Br  UNL A   1      39.201  32.990  30.123  1.00  0.00    -0.051 Br
ATOM     90  C   UNL A   1      37.668  30.219  32.799  1.00  0.00     0.001 A 
ENDBRANCH  83  84
BRANCH  83  91
ATOM     91  C   UNL A   1      38.375  29.261  27.845  1.00  0.00     0.026 C 
BRANCH  91  92
ATOM     92  C   UNL A   1      39.803  29.145  27.237  1.00  0.00     0.057 C 
BRANCH  92  93
ATOM     93  C   UNL A   1      40.382  27.750  27.098  1.00  0.00     0.040 A 
ATOM     94  C   UNL A   1      41.162  27.370  26.006  1.00  0.00     0.024 A 
ATOM     95  N   UNL A   1      40.183  26.909  28.126  1.00  0.00    -0.261 NA
ATOM     96  C   UNL A   1      41.731  26.091  25.982  1.00  0.00     0.003 A 
ATOM     97  C   UNL A   1      40.738  25.678  28.085  1.00  0.00     0.111 A 
ATOM     98  C   UNL A   1      41.517  25.226  27.045  1.00  0.00     0.020 A 
ENDBRANCH  92  93
ENDBRANCH  91  92
ENDBRANCH  83  91
ENDBRANCH  81  83
ENDBRANCH  80  81
ENDBRANCH  79  80
ENDBRANCH  78  79
ENDBRANCH  77  78
ENDBRANCH  76  77
ENDBRANCH  75  76
ENDBRANCH   1  75
TORSDOF 27
ENDMDL
MODEL 3
REMARK VINA RESULT:      -8.5      7.243     13.925
REMARK SMILES O=C(OCCOCCOCCOCCOC(=O)[C@H](CCc1ccccn1)c1ccccc1Br)c1ccc(-c2c3nc(c(-c4cc(S(=O)(=O)[O-])ccc4F)c4ccc([nH]4)c(-c4cc(S(=O)(=O)[O-])ccc4F)c4nc(c(-c5cc(S(=O)(=O)[O-])ccc5F)c5ccc2[nH]5)C=C4)C=C3)cc1
REMARK SMILES IDX 9 1 8 2 7 3 6 4 5 5 4 6 3 7 2 8 1 9 34 10 35 11 96 12 36 13
REMARK SMILES IDX 95 14 37 15 38 16 39 17 89 18 40 19 94 20 88 21 90 22 41 23
REMARK SMILES IDX 93 24 87 25 86 26 42 28 74 29 54 30 73 31 55 32 58 33 72 34
REMARK SMILES IDX 91 35 56 36 57 37 71 39 92 40 59 41 43 42 44 43 52 44 45 45
REMARK SMILES IDX 51 46 53 47 50 48 46 49 47 50 48 51 49 52 75 53 76 54 84 55
REMARK SMILES IDX 77 56 83 57 85 58 82 59 78 60 79 61 80 62 81 63 60 64 61 65
REMARK SMILES IDX 69 66 62 67 68 68 70 69 67 70 63 71 64 72 65 73 66 74 10 75
REMARK SMILES IDX 11 76 12 77 13 78 14 79 15 80 16 81 17 82 18 83 27 84 28 85
REMARK SMILES IDX 32 86 29 87 31 88 33 89 30 90 19 91 20 92 21 93 22 94 26 95
REMARK SMILES IDX 23 96 25 97 24 98
REMARK H PARENT 90 27 58 38
REMARK Flexibility Score: inf
ROOT
ATOM      1  O   UNL A   1      38.175  33.649  40.466  1.00  0.00    -0.377 OA
ENDROOT
BRANCH   1   2
ATOM      2  C   UNL A   1      39.372  33.852  41.196  1.00  0.00     0.188 C 
BRANCH   2   3
ATOM      3  C   UNL A   1      40.236  32.604  41.315  1.00  0.00     0.188 C 
BRANCH   3   4
ATOM      4  O   UNL A   1      41.467  32.725  40.607  1.00  0.00    -0.376 OA
BRANCH   4   5
ATOM      5  C   UNL A   1      41.833  34.023  40.140  1.00  0.00     0.202 C 
BRANCH   5   6
ATOM      6  C   UNL A   1      43.210  34.501  40.593  1.00  0.00     0.261 C 
BRANCH   6   7
ATOM      7  O   UNL A   1      43.747  35.566  39.793  1.00  0.00    -0.460 OA
BRANCH   7   8
ATOM      8  C   UNL A   1      43.225  36.175  38.699  1.00  0.00     0.338 C 
ATOM      9  O   UNL A   1      42.588  37.215  38.879  1.00  0.00    -0.246 OA
BRANCH   8  10
ATOM     10  C   UNL A   1      43.315  35.655  37.295  1.00  0.00     0.060 A 
ATOM     11  C   UNL A   1      42.244  35.233  36.509  1.00  0.00     0.016 A 
ATOM     12  C   UNL A   1      44.596  35.626  36.711  1.00  0.00     0.016 A 
ATOM     13  C   UNL A   1      42.415  34.748  35.228  1.00  0.00     0.010 A 
ATOM     14  C   UNL A   1      44.792  35.110  35.425  1.00  0.00     0.010 A 
ATOM     15  C   UNL A   1      43.695  34.619  34.711  1.00  0.00    -0.014 A 
BRANCH  15  16
ATOM     16  C   UNL A   1      43.833  33.652  33.610  1.00  0.00     0.031 A 
ATOM     17  C   UNL A   1      43.827  34.220  32.219  1.00  0.00     0.074 A 
ATOM     18  C   UNL A   1      44.208  32.388  33.869  1.00  0.00     0.049 A 
ATOM     19  N   UNL A   1      43.914  33.613  31.070  1.00  0.00    -0.248 NA
ATOM     20  C   UNL A   1      43.731  35.688  32.115  1.00  0.00     0.031 C 
ATOM     21  C   UNL A   1      44.458  31.843  35.208  1.00  0.00     0.029 A 
ATOM     22  N   UNL A   1      44.505  31.356  33.027  1.00  0.00    -0.354 N 
ATOM     23  C   UNL A   1      43.826  34.618  30.110  1.00  0.00     0.074 A 
ATOM     24  C   UNL A   1      43.682  35.871  30.808  1.00  0.00     0.031 C 
ATOM     25  C   UNL A   1      44.895  30.579  35.087  1.00  0.00     0.029 A 
ATOM     26  C   UNL A   1      44.867  30.203  33.681  1.00  0.00     0.049 A 
ATOM     27  H   UNL A   1      44.465  31.431  32.046  1.00  0.00     0.167 HD
ATOM     28  C   UNL A   1      43.849  34.484  28.764  1.00  0.00     0.034 A 
ATOM     29  C   UNL A   1      45.096  28.974  33.179  1.00  0.00     0.034 A 
ATOM     30  C   UNL A   1      43.999  33.200  28.131  1.00  0.00     0.049 A 
ATOM     31  C   UNL A   1      44.971  28.819  31.682  1.00  0.00     0.074 A 
ATOM     32  C   UNL A   1      43.946  32.877  26.791  1.00  0.00     0.029 A 
ATOM     33  N   UNL A   1      44.231  32.013  28.823  1.00  0.00    -0.354 N 
ATOM     34  N   UNL A   1      44.753  29.745  30.772  1.00  0.00    -0.248 NA
ATOM     35  C   UNL A   1      45.108  27.464  31.146  1.00  0.00     0.031 C 
ATOM     36  C   UNL A   1      44.066  31.487  26.680  1.00  0.00     0.029 A 
ATOM     37  C   UNL A   1      44.292  30.951  27.941  1.00  0.00     0.049 A 
ATOM     38  H   UNL A   1      44.337  31.941  29.800  1.00  0.00     0.167 HD
ATOM     39  C   UNL A   1      44.754  29.085  29.548  1.00  0.00     0.074 A 
ATOM     40  C   UNL A   1      45.017  27.688  29.843  1.00  0.00     0.031 C 
ATOM     41  C   UNL A   1      44.558  29.574  28.295  1.00  0.00     0.034 A 
BRANCH  28  42
ATOM     42  C   UNL A   1      43.561  35.724  27.951  1.00  0.00     0.023 A 
ATOM     43  C   UNL A   1      44.581  36.560  27.458  1.00  0.00     0.031 A 
ATOM     44  C   UNL A   1      42.231  36.149  27.785  1.00  0.00     0.131 A 
ATOM     45  C   UNL A   1      44.257  37.816  26.918  1.00  0.00     0.055 A 
ATOM     46  C   UNL A   1      41.911  37.357  27.164  1.00  0.00     0.041 A 
ATOM     47  F   UNL A   1      41.215  35.415  28.269  1.00  0.00    -0.206 F 
ATOM     48  C   UNL A   1      42.928  38.209  26.745  1.00  0.00     0.022 A 
BRANCH  45  49
ATOM     49  S   UNL A   1      45.594  39.012  26.626  1.00  0.00     0.124 S 
ATOM     50  O   UNL A   1      46.014  39.322  27.991  1.00  0.00    -0.237 OA
ATOM     51  O   UNL A   1      46.543  38.235  25.831  1.00  0.00    -0.237 OA
ATOM     52  O   UNL A   1      44.934  40.102  25.919  1.00  0.00    -0.744 OA
ENDBRANCH  45  49
ENDBRANCH  28  42
BRANCH  29  53
ATOM     53  C   UNL A   1      45.372  27.811  34.072  1.00  0.00     0.023 A 
ATOM     54  C   UNL A   1      44.353  27.216  34.833  1.00  0.00     0.031 A 
ATOM     55  C   UNL A   1      46.679  27.309  34.227  1.00  0.00     0.131 A 
ATOM     56  C   UNL A   1      44.663  26.191  35.743  1.00  0.00     0.055 A 
ATOM     57  C   UNL A   1      46.972  26.248  35.087  1.00  0.00     0.041 A 
ATOM     58  F   UNL A   1      47.700  27.841  33.537  1.00  0.00    -0.206 F 
ATOM     59  C   UNL A   1      45.962  25.692  35.864  1.00  0.00     0.022 A 
BRANCH  56  60
ATOM     60  S   UNL A   1      43.359  25.578  36.845  1.00  0.00     0.124 S 
ATOM     61  O   UNL A   1      42.576  24.740  35.937  1.00  0.00    -0.237 OA
ATOM     62  O   UNL A   1      44.132  24.867  37.860  1.00  0.00    -0.237 OA
ATOM     63  O   UNL A   1      42.697  26.790  37.301  1.00  0.00    -0.744 OA
ENDBRANCH  56  60
ENDBRANCH  29  53
BRANCH  41  64
ATOM     64  C   UNL A   1      44.687  28.588  27.165  1.00  0.00     0.023 A 
ATOM     65  C   UNL A   1      45.938  28.228  26.641  1.00  0.00     0.031 A 
ATOM     66  C   UNL A   1      43.534  28.013  26.603  1.00  0.00     0.131 A 
ATOM     67  C   UNL A   1      46.003  27.371  25.534  1.00  0.00     0.055 A 
ATOM     68  C   UNL A   1      43.611  27.098  25.555  1.00  0.00     0.041 A 
ATOM     69  F   UNL A   1      42.315  28.328  27.069  1.00  0.00    -0.206 F 
ATOM     70  C   UNL A   1      44.850  26.786  25.003  1.00  0.00     0.022 A 
BRANCH  67  71
ATOM     71  S   UNL A   1      47.605  27.134  24.721  1.00  0.00     0.124 S 
ATOM     72  O   UNL A   1      47.599  28.203  23.727  1.00  0.00    -0.237 OA
ATOM     73  O   UNL A   1      48.543  27.297  25.827  1.00  0.00    -0.237 OA
ATOM     74  O   UNL A   1      47.514  25.780  24.177  1.00  0.00    -0.744 OA
ENDBRANCH  67  71
ENDBRANCH  41  64
ENDBRANCH  15  16
ENDBRANCH   8  10
ENDBRANCH   7   8
ENDBRANCH   6   7
ENDBRANCH   5   6
ENDBRANCH   4   5
ENDBRANCH   3   4
ENDBRANCH   2   3
ENDBRANCH   1   2
BRANCH   1  75
ATOM     75  C   UNL A   1      38.316  32.868  39.284  1.00  0.00     0.188 C 
BRANCH  75  76
ATOM     76  C   UNL A   1      37.186  31.841  38.939  1.00  0.00     0.188 C 
BRANCH  76  77
ATOM     77  O   UNL A   1      37.442  31.105  37.751  1.00  0.00    -0.376 OA
BRANCH  77  78
ATOM     78  C   UNL A   1      38.122  31.837  36.732  1.00  0.00     0.202 C 
BRANCH  78  79
ATOM     79  C   UNL A   1      38.941  30.990  35.740  1.00  0.00     0.261 C 
BRANCH  79  80
ATOM     80  O   UNL A   1      38.042  30.074  35.055  1.00  0.00    -0.463 OA
BRANCH  80  81
ATOM     81  C   UNL A   1      38.033  29.849  33.735  1.00  0.00     0.313 C 
ATOM     82  O   UNL A   1      37.427  28.914  33.235  1.00  0.00    -0.252 OA
BRANCH  81  83
ATOM     83  C   UNL A   1      38.868  30.930  32.913  1.00  0.00     0.131 C 
BRANCH  83  84
ATOM     84  C   UNL A   1      39.576  30.207  31.792  1.00  0.00    -0.020 A 
ATOM     85  C   UNL A   1      39.138  30.422  30.465  1.00  0.00     0.006 A 
ATOM     86  C   UNL A   1      40.667  29.354  32.008  1.00  0.00     0.022 A 
ATOM     87  C   UNL A   1      39.756  29.788  29.393  1.00  0.00     0.000 A 
ATOM     88  C   UNL A   1      41.317  28.764  30.924  1.00  0.00     0.016 A 
ATOM     89  Br  UNL A   1      41.330  28.932  33.742  1.00  0.00    -0.051 Br
ATOM     90  C   UNL A   1      40.856  28.972  29.624  1.00  0.00     0.001 A 
ENDBRANCH  83  84
BRANCH  83  91
ATOM     91  C   UNL A   1      38.181  32.264  32.436  1.00  0.00     0.026 C 
BRANCH  91  92
ATOM     92  C   UNL A   1      36.652  32.506  32.265  1.00  0.00     0.057 C 
BRANCH  92  93
ATOM     93  C   UNL A   1      36.153  32.795  30.862  1.00  0.00     0.040 A 
ATOM     94  C   UNL A   1      34.795  32.806  30.540  1.00  0.00     0.024 A 
ATOM     95  N   UNL A   1      37.078  33.130  29.948  1.00  0.00    -0.261 NA
ATOM     96  C   UNL A   1      34.401  33.160  29.244  1.00  0.00     0.003 A 
ATOM     97  C   UNL A   1      36.680  33.467  28.703  1.00  0.00     0.111 A 
ATOM     98  C   UNL A   1      35.363  33.500  28.304  1.00  0.00     0.020 A 
ENDBRANCH  92  93
ENDBRANCH  91  92
ENDBRANCH  83  91
ENDBRANCH  81  83
ENDBRANCH  80  81
ENDBRANCH  79  80
ENDBRANCH  78  79
ENDBRANCH  77  78
ENDBRANCH  76  77
ENDBRANCH  75  76
ENDBRANCH   1  75
TORSDOF 27
ENDMDL
