MODEL 1
REMARK VINA RESULT:      -8.0      0.000      0.000
REMARK SMILES C[C@H](NC(=O)OC(C)(C)C)C(=O)N[C@@H](C)C(=O)N1CCC[C@H]1C(=O)OCCOCCOCCOCCOC(=O)c1ccc(-c2c3nc(c(-c4cc(S(=O)(=O)[O-])ccc4F)c4ccc([nH]4)c(-c4cc(S(=O)(=O)[O-])ccc4F)c4nc(c(-c5cc(S(=O)(=O)[O-])ccc5F)c5ccc2[nH]5)C=C4)C=C3)cc1
REMARK SMILES IDX 29 1 28 2 27 3 26 4 25 5 23 6 24 7 22 8 18 9 19 10 20 11
REMARK SMILES IDX 21 12 16 13 17 14 14 15 15 16 13 17 11 18 12 19 2 21 1 22
REMARK SMILES IDX 3 23 4 24 5 26 6 27 7 28 8 29 9 30 10 31 30 32 31 33 32 34
REMARK SMILES IDX 33 35 34 36 35 37 36 38 37 39 38 40 39 41 40 42 41 43 102 44
REMARK SMILES IDX 42 45 101 46 43 47 44 48 45 49 95 50 46 51 100 52 94 53
REMARK SMILES IDX 96 54 47 55 99 56 93 57 92 58 48 60 80 61 60 62 79 63 61 64
REMARK SMILES IDX 64 65 78 66 97 67 62 68 63 69 77 71 98 72 65 73 49 74 50 75
REMARK SMILES IDX 58 76 51 77 57 78 59 79 56 80 52 81 53 82 54 83 55 84 81 85
REMARK SMILES IDX 82 86 90 87 83 88 89 89 91 90 88 91 84 92 85 93 86 94 87 95
REMARK SMILES IDX 66 96 67 97 75 98 68 99 74 100 76 101 73 102 69 103 70 104
REMARK SMILES IDX 71 105 72 106
REMARK H PARENT 13 20 3 25 96 59 64 70
REMARK Flexibility Score: inf
ROOT
ATOM      1  C   UNL A   1      35.086  32.074  29.010  1.00  0.00     0.188 C 
ENDROOT
BRANCH   1   2
ATOM      2  O   UNL A   1      35.802  30.856  28.966  1.00  0.00    -0.376 OA
BRANCH   2   3
ATOM      3  C   UNL A   1      35.342  29.681  28.303  1.00  0.00     0.202 C 
BRANCH   3   4
ATOM      4  C   UNL A   1      34.566  29.666  26.981  1.00  0.00     0.261 C 
BRANCH   4   5
ATOM      5  O   UNL A   1      33.712  28.540  26.828  1.00  0.00    -0.462 OA
BRANCH   5   6
ATOM      6  C   UNL A   1      32.379  28.785  26.733  1.00  0.00     0.328 C 
ATOM      7  O   UNL A   1      31.569  28.547  27.625  1.00  0.00    -0.250 OA
BRANCH   6   8
ATOM      8  C   UNL A   1      32.088  29.710  25.541  1.00  0.00     0.195 C 
ATOM      9  N   UNL A   1      31.499  29.213  24.300  1.00  0.00    -0.327 N 
ATOM     10  C   UNL A   1      30.235  29.868  24.052  1.00  0.00     0.120 C 
ATOM     11  C   UNL A   1      30.352  31.206  24.756  1.00  0.00     0.024 C 
ATOM     12  C   UNL A   1      31.224  30.910  25.965  1.00  0.00     0.039 C 
BRANCH   9  13
ATOM     13  C   UNL A   1      32.154  28.307  23.486  1.00  0.00     0.245 C 
ATOM     14  O   UNL A   1      33.376  28.164  23.542  1.00  0.00    -0.272 OA
BRANCH  13  15
ATOM     15  C   UNL A   1      31.336  27.380  22.559  1.00  0.00     0.168 C 
ATOM     16  C   UNL A   1      30.579  26.279  23.291  1.00  0.00     0.041 C 
BRANCH  15  17
ATOM     17  N   UNL A   1      32.184  26.879  21.484  1.00  0.00    -0.343 N 
ATOM     18  C   UNL A   1      32.712  25.631  21.310  1.00  0.00     0.243 C 
ATOM     19  O   UNL A   1      33.071  25.338  20.167  1.00  0.00    -0.273 OA
ATOM     20  H   UNL A   1      32.409  27.534  20.783  1.00  0.00     0.164 HD
BRANCH  18  21
ATOM     21  C   UNL A   1      32.863  24.654  22.489  1.00  0.00     0.171 C 
ATOM     22  C   UNL A   1      34.280  24.660  23.064  1.00  0.00     0.042 C 
BRANCH  21  23
ATOM     23  N   UNL A   1      32.387  23.341  22.037  1.00  0.00    -0.310 N 
ATOM     24  C   UNL A   1      32.465  22.166  22.714  1.00  0.00     0.408 C 
ATOM     25  H   UNL A   1      31.967  23.309  21.148  1.00  0.00     0.167 HD
ATOM     26  O   UNL A   1      32.006  21.128  22.245  1.00  0.00    -0.225 OA
BRANCH  24  27
ATOM     27  O   UNL A   1      33.110  22.294  23.881  1.00  0.00    -0.444 OA
BRANCH  27  28
ATOM     28  C   UNL A   1      32.535  21.937  25.162  1.00  0.00     0.106 C 
ATOM     29  C   UNL A   1      31.147  22.522  25.381  1.00  0.00     0.056 C 
ATOM     30  C   UNL A   1      32.457  20.414  25.354  1.00  0.00     0.056 C 
ATOM     31  C   UNL A   1      33.486  22.635  26.145  1.00  0.00     0.056 C 
ENDBRANCH  27  28
ENDBRANCH  24  27
ENDBRANCH  21  23
ENDBRANCH  18  21
ENDBRANCH  15  17
ENDBRANCH  13  15
ENDBRANCH   9  13
ENDBRANCH   6   8
ENDBRANCH   5   6
ENDBRANCH   4   5
ENDBRANCH   3   4
ENDBRANCH   2   3
ENDBRANCH   1   2
BRANCH   1  32
ATOM     32  C   UNL A   1      34.589  32.673  30.344  1.00  0.00     0.188 C 
BRANCH  32  33
ATOM     33  O   UNL A   1      35.084  32.179  31.566  1.00  0.00    -0.377 OA
BRANCH  33  34
ATOM     34  C   UNL A   1      34.952  32.991  32.727  1.00  0.00     0.188 C 
BRANCH  34  35
ATOM     35  C   UNL A   1      35.623  34.389  32.775  1.00  0.00     0.188 C 
BRANCH  35  36
ATOM     36  O   UNL A   1      36.058  34.835  34.051  1.00  0.00    -0.376 OA
BRANCH  36  37
ATOM     37  C   UNL A   1      36.111  33.920  35.137  1.00  0.00     0.202 C 
BRANCH  37  38
ATOM     38  C   UNL A   1      37.471  33.343  35.542  1.00  0.00     0.261 C 
BRANCH  38  39
ATOM     39  O   UNL A   1      37.433  32.301  36.525  1.00  0.00    -0.460 OA
BRANCH  39  40
ATOM     40  C   UNL A   1      38.243  31.221  36.396  1.00  0.00     0.338 C 
ATOM     41  O   UNL A   1      38.098  30.124  36.898  1.00  0.00    -0.246 OA
BRANCH  40  42
ATOM     42  C   UNL A   1      39.298  31.584  35.422  1.00  0.00     0.060 A 
ATOM     43  C   UNL A   1      39.286  31.247  34.060  1.00  0.00     0.016 A 
ATOM     44  C   UNL A   1      40.362  32.287  35.934  1.00  0.00     0.016 A 
ATOM     45  C   UNL A   1      40.395  31.561  33.233  1.00  0.00     0.010 A 
ATOM     46  C   UNL A   1      41.456  32.540  35.127  1.00  0.00     0.010 A 
ATOM     47  C   UNL A   1      41.529  32.166  33.784  1.00  0.00    -0.014 A 
BRANCH  47  48
ATOM     48  C   UNL A   1      42.849  32.387  33.104  1.00  0.00     0.031 A 
ATOM     49  C   UNL A   1      43.053  33.638  32.262  1.00  0.00     0.074 A 
ATOM     50  C   UNL A   1      43.741  31.385  32.958  1.00  0.00     0.049 A 
ATOM     51  N   UNL A   1      44.020  33.941  31.429  1.00  0.00    -0.248 NA
ATOM     52  C   UNL A   1      41.963  34.624  32.293  1.00  0.00     0.031 C 
ATOM     53  C   UNL A   1      43.608  30.046  33.522  1.00  0.00     0.029 A 
ATOM     54  N   UNL A   1      44.908  31.323  32.225  1.00  0.00    -0.354 N 
ATOM     55  C   UNL A   1      43.638  35.130  30.808  1.00  0.00     0.074 A 
ATOM     56  C   UNL A   1      42.312  35.438  31.307  1.00  0.00     0.031 C 
ATOM     57  C   UNL A   1      44.649  29.294  33.118  1.00  0.00     0.029 A 
ATOM     58  C   UNL A   1      45.526  30.093  32.260  1.00  0.00     0.049 A 
ATOM     59  H   UNL A   1      45.267  32.090  31.723  1.00  0.00     0.167 HD
ATOM     60  C   UNL A   1      44.325  35.906  29.927  1.00  0.00     0.034 A 
ATOM     61  C   UNL A   1      46.665  29.655  31.679  1.00  0.00     0.034 A 
ATOM     62  C   UNL A   1      45.660  35.614  29.455  1.00  0.00     0.049 A 
ATOM     63  C   UNL A   1      47.489  30.578  30.806  1.00  0.00     0.074 A 
ATOM     64  C   UNL A   1      46.514  36.433  28.731  1.00  0.00     0.029 A 
ATOM     65  N   UNL A   1      46.328  34.414  29.634  1.00  0.00    -0.354 N 
ATOM     66  N   UNL A   1      47.212  31.791  30.391  1.00  0.00    -0.248 NA
ATOM     67  C   UNL A   1      48.794  30.077  30.346  1.00  0.00     0.031 C 
ATOM     68  C   UNL A   1      47.664  35.704  28.413  1.00  0.00     0.029 A 
ATOM     69  C   UNL A   1      47.571  34.464  29.016  1.00  0.00     0.049 A 
ATOM     70  H   UNL A   1      45.974  33.640  30.128  1.00  0.00     0.167 HD
ATOM     71  C   UNL A   1      48.331  32.211  29.669  1.00  0.00     0.074 A 
ATOM     72  C   UNL A   1      49.286  31.128  29.707  1.00  0.00     0.031 C 
ATOM     73  C   UNL A   1      48.545  33.397  29.045  1.00  0.00     0.034 A 
BRANCH  60  74
ATOM     74  C   UNL A   1      43.670  37.184  29.443  1.00  0.00     0.023 A 
ATOM     75  C   UNL A   1      43.845  38.396  30.131  1.00  0.00     0.031 A 
ATOM     76  C   UNL A   1      42.888  37.212  28.272  1.00  0.00     0.131 A 
ATOM     77  C   UNL A   1      43.171  39.551  29.713  1.00  0.00     0.055 A 
ATOM     78  C   UNL A   1      42.311  38.394  27.795  1.00  0.00     0.041 A 
ATOM     79  F   UNL A   1      42.672  36.092  27.563  1.00  0.00    -0.206 F 
ATOM     80  C   UNL A   1      42.433  39.570  28.530  1.00  0.00     0.022 A 
BRANCH  77  81
ATOM     81  S   UNL A   1      43.150  40.974  30.834  1.00  0.00     0.124 S 
ATOM     82  O   UNL A   1      41.735  41.042  31.192  1.00  0.00    -0.237 OA
ATOM     83  O   UNL A   1      44.055  40.553  31.897  1.00  0.00    -0.237 OA
ATOM     84  O   UNL A   1      43.630  42.074  30.002  1.00  0.00    -0.744 OA
ENDBRANCH  77  81
ENDBRANCH  60  74
BRANCH  61  85
ATOM     85  C   UNL A   1      47.162  28.274  31.945  1.00  0.00     0.023 A 
ATOM     86  C   UNL A   1      48.020  28.031  33.031  1.00  0.00     0.031 A 
ATOM     87  C   UNL A   1      46.855  27.200  31.094  1.00  0.00     0.131 A 
ATOM     88  C   UNL A   1      48.598  26.766  33.201  1.00  0.00     0.055 A 
ATOM     89  C   UNL A   1      47.385  25.925  31.303  1.00  0.00     0.041 A 
ATOM     90  F   UNL A   1      46.036  27.378  30.046  1.00  0.00    -0.206 F 
ATOM     91  C   UNL A   1      48.276  25.705  32.352  1.00  0.00     0.022 A 
BRANCH  88  92
ATOM     92  S   UNL A   1      49.859  26.560  34.488  1.00  0.00     0.124 S 
ATOM     93  O   UNL A   1      49.897  25.110  34.636  1.00  0.00    -0.237 OA
ATOM     94  O   UNL A   1      51.029  27.172  33.867  1.00  0.00    -0.237 OA
ATOM     95  O   UNL A   1      49.306  27.292  35.626  1.00  0.00    -0.744 OA
ENDBRANCH  88  92
ENDBRANCH  61  85
BRANCH  73  96
ATOM     96  C   UNL A   1      49.900  33.639  28.415  1.00  0.00     0.023 A 
ATOM     97  C   UNL A   1      50.226  33.189  27.122  1.00  0.00     0.031 A 
ATOM     98  C   UNL A   1      50.889  34.342  29.130  1.00  0.00     0.131 A 
ATOM     99  C   UNL A   1      51.518  33.402  26.608  1.00  0.00     0.055 A 
ATOM    100  C   UNL A   1      52.148  34.608  28.589  1.00  0.00     0.041 A 
ATOM    101  F   UNL A   1      50.644  34.792  30.371  1.00  0.00    -0.206 F 
ATOM    102  C   UNL A   1      52.473  34.126  27.326  1.00  0.00     0.022 A 
BRANCH  99 103
ATOM    103  S   UNL A   1      51.968  32.642  25.022  1.00  0.00     0.124 S 
ATOM    104  O   UNL A   1      51.485  33.631  24.064  1.00  0.00    -0.237 OA
ATOM    105  O   UNL A   1      53.418  32.518  25.136  1.00  0.00    -0.237 OA
ATOM    106  O   UNL A   1      51.237  31.376  25.028  1.00  0.00    -0.744 OA
ENDBRANCH  99 103
ENDBRANCH  73  96
ENDBRANCH  47  48
ENDBRANCH  40  42
ENDBRANCH  39  40
ENDBRANCH  38  39
ENDBRANCH  37  38
ENDBRANCH  36  37
ENDBRANCH  35  36
ENDBRANCH  34  35
ENDBRANCH  33  34
ENDBRANCH  32  33
ENDBRANCH   1  32
TORSDOF 30
ENDMDL
MODEL 2
REMARK VINA RESULT:      -8.0      2.155      2.414
REMARK SMILES C[C@H](NC(=O)OC(C)(C)C)C(=O)N[C@@H](C)C(=O)N1CCC[C@H]1C(=O)OCCOCCOCCOCCOC(=O)c1ccc(-c2c3nc(c(-c4cc(S(=O)(=O)[O-])ccc4F)c4ccc([nH]4)c(-c4cc(S(=O)(=O)[O-])ccc4F)c4nc(c(-c5cc(S(=O)(=O)[O-])ccc5F)c5ccc2[nH]5)C=C4)C=C3)cc1
REMARK SMILES IDX 29 1 28 2 27 3 26 4 25 5 23 6 24 7 22 8 18 9 19 10 20 11
REMARK SMILES IDX 21 12 16 13 17 14 14 15 15 16 13 17 11 18 12 19 2 21 1 22
REMARK SMILES IDX 3 23 4 24 5 26 6 27 7 28 8 29 9 30 10 31 30 32 31 33 32 34
REMARK SMILES IDX 33 35 34 36 35 37 36 38 37 39 38 40 39 41 40 42 41 43 102 44
REMARK SMILES IDX 42 45 101 46 43 47 44 48 45 49 95 50 46 51 100 52 94 53
REMARK SMILES IDX 96 54 47 55 99 56 93 57 92 58 48 60 80 61 60 62 79 63 61 64
REMARK SMILES IDX 64 65 78 66 97 67 62 68 63 69 77 71 98 72 65 73 49 74 50 75
REMARK SMILES IDX 58 76 51 77 57 78 59 79 56 80 52 81 53 82 54 83 55 84 81 85
REMARK SMILES IDX 82 86 90 87 83 88 89 89 91 90 88 91 84 92 85 93 86 94 87 95
REMARK SMILES IDX 66 96 67 97 75 98 68 99 74 100 76 101 73 102 69 103 70 104
REMARK SMILES IDX 71 105 72 106
REMARK H PARENT 13 20 3 25 96 59 64 70
REMARK Flexibility Score: inf
ROOT
ATOM      1  C   UNL A   1      35.202  32.111  28.953  1.00  0.00     0.188 C 
ENDROOT
BRANCH   1   2
ATOM      2  O   UNL A   1      35.895  30.908  29.219  1.00  0.00    -0.376 OA
BRANCH   2   3
ATOM      3  C   UNL A   1      35.656  29.679  28.536  1.00  0.00     0.202 C 
BRANCH   3   4
ATOM      4  C   UNL A   1      35.319  29.554  27.046  1.00  0.00     0.261 C 
BRANCH   4   5
ATOM      5  O   UNL A   1      34.517  28.424  26.730  1.00  0.00    -0.462 OA
BRANCH   5   6
ATOM      6  C   UNL A   1      33.169  28.593  26.768  1.00  0.00     0.328 C 
ATOM      7  O   UNL A   1      32.445  28.160  27.660  1.00  0.00    -0.250 OA
BRANCH   6   8
ATOM      8  C   UNL A   1      32.738  29.679  25.770  1.00  0.00     0.195 C 
ATOM      9  N   UNL A   1      31.990  29.364  24.556  1.00  0.00    -0.327 N 
ATOM     10  C   UNL A   1      30.711  30.038  24.570  1.00  0.00     0.120 C 
ATOM     11  C   UNL A   1      30.932  31.260  25.440  1.00  0.00     0.024 C 
ATOM     12  C   UNL A   1      31.949  30.798  26.471  1.00  0.00     0.039 C 
BRANCH   9  13
ATOM     13  C   UNL A   1      32.524  28.591  23.542  1.00  0.00     0.245 C 
ATOM     14  O   UNL A   1      33.739  28.544  23.346  1.00  0.00    -0.272 OA
BRANCH  13  15
ATOM     15  C   UNL A   1      31.598  27.685  22.698  1.00  0.00     0.168 C 
ATOM     16  C   UNL A   1      30.833  26.648  23.512  1.00  0.00     0.041 C 
BRANCH  15  17
ATOM     17  N   UNL A   1      32.345  27.109  21.587  1.00  0.00    -0.343 N 
ATOM     18  C   UNL A   1      32.753  25.820  21.397  1.00  0.00     0.243 C 
ATOM     19  O   UNL A   1      33.027  25.492  20.240  1.00  0.00    -0.273 OA
ATOM     20  H   UNL A   1      32.590  27.739  20.871  1.00  0.00     0.164 HD
BRANCH  18  21
ATOM     21  C   UNL A   1      32.878  24.837  22.575  1.00  0.00     0.171 C 
ATOM     22  C   UNL A   1      34.252  24.911  23.244  1.00  0.00     0.042 C 
BRANCH  21  23
ATOM     23  N   UNL A   1      32.505  23.507  22.081  1.00  0.00    -0.310 N 
ATOM     24  C   UNL A   1      32.419  22.359  22.804  1.00  0.00     0.408 C 
ATOM     25  H   UNL A   1      32.295  23.437  21.121  1.00  0.00     0.167 HD
ATOM     26  O   UNL A   1      32.069  21.303  22.285  1.00  0.00    -0.225 OA
BRANCH  24  27
ATOM     27  O   UNL A   1      32.787  22.536  24.079  1.00  0.00    -0.444 OA
BRANCH  27  28
ATOM     28  C   UNL A   1      33.471  21.529  24.866  1.00  0.00     0.106 C 
ATOM     29  C   UNL A   1      33.294  20.119  24.322  1.00  0.00     0.056 C 
ATOM     30  C   UNL A   1      34.976  21.818  24.987  1.00  0.00     0.056 C 
ATOM     31  C   UNL A   1      32.720  21.602  26.203  1.00  0.00     0.056 C 
ENDBRANCH  27  28
ENDBRANCH  24  27
ENDBRANCH  21  23
ENDBRANCH  18  21
ENDBRANCH  15  17
ENDBRANCH  13  15
ENDBRANCH   9  13
ENDBRANCH   6   8
ENDBRANCH   5   6
ENDBRANCH   4   5
ENDBRANCH   3   4
ENDBRANCH   2   3
ENDBRANCH   1   2
BRANCH   1  32
ATOM     32  C   UNL A   1      34.496  32.902  30.076  1.00  0.00     0.188 C 
BRANCH  32  33
ATOM     33  O   UNL A   1      34.527  32.426  31.400  1.00  0.00    -0.377 OA
BRANCH  33  34
ATOM     34  C   UNL A   1      34.373  33.363  32.460  1.00  0.00     0.188 C 
BRANCH  34  35
ATOM     35  C   UNL A   1      35.295  34.609  32.533  1.00  0.00     0.188 C 
BRANCH  35  36
ATOM     36  O   UNL A   1      35.921  34.856  33.783  1.00  0.00    -0.376 OA
BRANCH  36  37
ATOM     37  C   UNL A   1      36.081  33.793  34.713  1.00  0.00     0.202 C 
BRANCH  37  38
ATOM     38  C   UNL A   1      37.462  33.146  34.855  1.00  0.00     0.261 C 
BRANCH  38  39
ATOM     39  O   UNL A   1      37.577  32.153  35.882  1.00  0.00    -0.460 OA
BRANCH  39  40
ATOM     40  C   UNL A   1      38.439  31.117  35.726  1.00  0.00     0.338 C 
ATOM     41  O   UNL A   1      38.381  30.022  36.248  1.00  0.00    -0.246 OA
BRANCH  40  42
ATOM     42  C   UNL A   1      39.421  31.523  34.695  1.00  0.00     0.060 A 
ATOM     43  C   UNL A   1      39.333  31.207  33.330  1.00  0.00     0.016 A 
ATOM     44  C   UNL A   1      40.498  32.245  35.152  1.00  0.00     0.016 A 
ATOM     45  C   UNL A   1      40.381  31.562  32.442  1.00  0.00     0.010 A 
ATOM     46  C   UNL A   1      41.533  32.537  34.283  1.00  0.00     0.010 A 
ATOM     47  C   UNL A   1      41.531  32.187  32.932  1.00  0.00    -0.014 A 
BRANCH  47  48
ATOM     48  C   UNL A   1      42.800  32.452  32.175  1.00  0.00     0.031 A 
ATOM     49  C   UNL A   1      43.020  33.820  31.544  1.00  0.00     0.074 A 
ATOM     50  C   UNL A   1      43.604  31.445  31.774  1.00  0.00     0.049 A 
ATOM     51  N   UNL A   1      43.931  34.212  30.685  1.00  0.00    -0.248 NA
ATOM     52  C   UNL A   1      42.009  34.843  31.848  1.00  0.00     0.031 C 
ATOM     53  C   UNL A   1      43.425  30.036  32.112  1.00  0.00     0.029 A 
ATOM     54  N   UNL A   1      44.696  31.450  30.932  1.00  0.00    -0.354 N 
ATOM     55  C   UNL A   1      43.582  35.510  30.317  1.00  0.00     0.074 A 
ATOM     56  C   UNL A   1      42.329  35.797  30.987  1.00  0.00     0.031 C 
ATOM     57  C   UNL A   1      44.372  29.312  31.486  1.00  0.00     0.029 A 
ATOM     58  C   UNL A   1      45.226  30.200  30.697  1.00  0.00     0.049 A 
ATOM     59  H   UNL A   1      45.065  32.272  30.537  1.00  0.00     0.167 HD
ATOM     60  C   UNL A   1      44.244  36.392  29.520  1.00  0.00     0.034 A 
ATOM     61  C   UNL A   1      46.278  29.810  29.942  1.00  0.00     0.034 A 
ATOM     62  C   UNL A   1      45.509  36.116  28.878  1.00  0.00     0.049 A 
ATOM     63  C   UNL A   1      47.087  30.827  29.165  1.00  0.00     0.074 A 
ATOM     64  C   UNL A   1      46.354  37.001  28.226  1.00  0.00     0.029 A 
ATOM     65  N   UNL A   1      46.104  34.868  28.784  1.00  0.00    -0.354 N 
ATOM     66  N   UNL A   1      46.862  32.108  28.991  1.00  0.00    -0.248 NA
ATOM     67  C   UNL A   1      48.309  30.345  28.502  1.00  0.00     0.031 C 
ATOM     68  C   UNL A   1      47.418  36.279  27.678  1.00  0.00     0.029 A 
ATOM     69  C   UNL A   1      47.290  34.958  28.066  1.00  0.00     0.049 A 
ATOM     70  H   UNL A   1      45.740  34.039  29.170  1.00  0.00     0.167 HD
ATOM     71  C   UNL A   1      47.942  32.587  28.247  1.00  0.00     0.074 A 
ATOM     72  C   UNL A   1      48.818  31.464  28.006  1.00  0.00     0.031 C 
ATOM     73  C   UNL A   1      48.185  33.851  27.818  1.00  0.00     0.034 A 
BRANCH  60  74
ATOM     74  C   UNL A   1      43.641  37.769  29.327  1.00  0.00     0.023 A 
ATOM     75  C   UNL A   1      43.841  38.788  30.273  1.00  0.00     0.031 A 
ATOM     76  C   UNL A   1      42.887  38.089  28.181  1.00  0.00     0.131 A 
ATOM     77  C   UNL A   1      43.215  40.032  30.117  1.00  0.00     0.055 A 
ATOM     78  C   UNL A   1      42.360  39.368  27.975  1.00  0.00     0.041 A 
ATOM     79  F   UNL A   1      42.650  37.165  27.236  1.00  0.00    -0.206 F 
ATOM     80  C   UNL A   1      42.504  40.343  28.958  1.00  0.00     0.022 A 
BRANCH  77  81
ATOM     81  S   UNL A   1      43.215  41.166  31.530  1.00  0.00     0.124 S 
ATOM     82  O   UNL A   1      41.798  41.187  31.886  1.00  0.00    -0.237 OA
ATOM     83  O   UNL A   1      44.098  40.493  32.475  1.00  0.00    -0.237 OA
ATOM     84  O   UNL A   1      43.730  42.412  30.969  1.00  0.00    -0.744 OA
ENDBRANCH  77  81
ENDBRANCH  60  74
BRANCH  61  85
ATOM     85  C   UNL A   1      46.697  28.379  29.919  1.00  0.00     0.023 A 
ATOM     86  C   UNL A   1      46.108  27.488  29.007  1.00  0.00     0.031 A 
ATOM     87  C   UNL A   1      47.626  27.866  30.839  1.00  0.00     0.131 A 
ATOM     88  C   UNL A   1      46.398  26.118  29.076  1.00  0.00     0.055 A 
ATOM     89  C   UNL A   1      47.958  26.509  30.864  1.00  0.00     0.041 A 
ATOM     90  F   UNL A   1      48.221  28.676  31.726  1.00  0.00    -0.206 F 
ATOM     91  C   UNL A   1      47.331  25.623  29.989  1.00  0.00     0.022 A 
BRANCH  88  92
ATOM     92  S   UNL A   1      45.456  24.983  28.021  1.00  0.00     0.124 S 
ATOM     93  O   UNL A   1      44.328  24.646  28.883  1.00  0.00    -0.237 OA
ATOM     94  O   UNL A   1      45.152  25.824  26.867  1.00  0.00    -0.237 OA
ATOM     95  O   UNL A   1      46.397  23.895  27.766  1.00  0.00    -0.744 OA
ENDBRANCH  88  92
ENDBRANCH  61  85
BRANCH  73  96
ATOM     96  C   UNL A   1      49.495  34.126  27.110  1.00  0.00     0.023 A 
ATOM     97  C   UNL A   1      50.731  34.140  27.782  1.00  0.00     0.031 A 
ATOM     98  C   UNL A   1      49.502  34.378  25.724  1.00  0.00     0.131 A 
ATOM     99  C   UNL A   1      51.910  34.448  27.079  1.00  0.00     0.055 A 
ATOM    100  C   UNL A   1      50.683  34.619  25.020  1.00  0.00     0.041 A 
ATOM    101  F   UNL A   1      48.355  34.387  25.026  1.00  0.00    -0.206 F 
ATOM    102  C   UNL A   1      51.894  34.668  25.700  1.00  0.00     0.022 A 
BRANCH  99 103
ATOM    103  S   UNL A   1      53.458  34.650  28.007  1.00  0.00     0.124 S 
ATOM    104  O   UNL A   1      54.417  34.918  26.940  1.00  0.00    -0.237 OA
ATOM    105  O   UNL A   1      53.150  35.772  28.887  1.00  0.00    -0.237 OA
ATOM    106  O   UNL A   1      53.624  33.363  28.681  1.00  0.00    -0.744 OA
ENDBRANCH  99 103
ENDBRANCH  73  96
ENDBRANCH  47  48
ENDBRANCH  40  42
ENDBRANCH  39  40
ENDBRANCH  38  39
ENDBRANCH  37  38
ENDBRANCH  36  37
ENDBRANCH  35  36
ENDBRANCH  34  35
ENDBRANCH  33  34
ENDBRANCH  32  33
ENDBRANCH   1  32
TORSDOF 30
ENDMDL
MODEL 3
REMARK VINA RESULT:      -7.5      6.635     13.852
REMARK SMILES C[C@H](NC(=O)OC(C)(C)C)C(=O)N[C@@H](C)C(=O)N1CCC[C@H]1C(=O)OCCOCCOCCOCCOC(=O)c1ccc(-c2c3nc(c(-c4cc(S(=O)(=O)[O-])ccc4F)c4ccc([nH]4)c(-c4cc(S(=O)(=O)[O-])ccc4F)c4nc(c(-c5cc(S(=O)(=O)[O-])ccc5F)c5ccc2[nH]5)C=C4)C=C3)cc1
REMARK SMILES IDX 29 1 28 2 27 3 26 4 25 5 23 6 24 7 22 8 18 9 19 10 20 11
REMARK SMILES IDX 21 12 16 13 17 14 14 15 15 16 13 17 11 18 12 19 2 21 1 22
REMARK SMILES IDX 3 23 4 24 5 26 6 27 7 28 8 29 9 30 10 31 30 32 31 33 32 34
REMARK SMILES IDX 33 35 34 36 35 37 36 38 37 39 38 40 39 41 40 42 41 43 102 44
REMARK SMILES IDX 42 45 101 46 43 47 44 48 45 49 95 50 46 51 100 52 94 53
REMARK SMILES IDX 96 54 47 55 99 56 93 57 92 58 48 60 80 61 60 62 79 63 61 64
REMARK SMILES IDX 64 65 78 66 97 67 62 68 63 69 77 71 98 72 65 73 49 74 50 75
REMARK SMILES IDX 58 76 51 77 57 78 59 79 56 80 52 81 53 82 54 83 55 84 81 85
REMARK SMILES IDX 82 86 90 87 83 88 89 89 91 90 88 91 84 92 85 93 86 94 87 95
REMARK SMILES IDX 66 96 67 97 75 98 68 99 74 100 76 101 73 102 69 103 70 104
REMARK SMILES IDX 71 105 72 106
REMARK H PARENT 13 20 3 25 96 59 64 70
REMARK Flexibility Score: inf
ROOT
ATOM      1  C   UNL A   1      52.612  31.314  29.536  1.00  0.00     0.188 C 
ENDROOT
BRANCH   1   2
ATOM      2  O   UNL A   1      51.705  30.409  28.940  1.00  0.00    -0.376 OA
BRANCH   2   3
ATOM      3  C   UNL A   1      50.983  30.674  27.739  1.00  0.00     0.202 C 
BRANCH   3   4
ATOM      4  C   UNL A   1      50.576  29.616  26.708  1.00  0.00     0.261 C 
BRANCH   4   5
ATOM      5  O   UNL A   1      49.184  29.598  26.421  1.00  0.00    -0.462 OA
BRANCH   5   6
ATOM      6  C   UNL A   1      48.489  28.494  26.800  1.00  0.00     0.328 C 
ATOM      7  O   UNL A   1      48.138  28.262  27.952  1.00  0.00    -0.250 OA
BRANCH   6   8
ATOM      8  C   UNL A   1      47.902  27.783  25.569  1.00  0.00     0.195 C 
ATOM      9  N   UNL A   1      48.572  26.650  24.936  1.00  0.00    -0.327 N 
ATOM     10  C   UNL A   1      47.725  25.480  24.984  1.00  0.00     0.120 C 
ATOM     11  C   UNL A   1      46.314  26.032  25.043  1.00  0.00     0.024 C 
ATOM     12  C   UNL A   1      46.457  27.325  25.827  1.00  0.00     0.039 C 
BRANCH   9  13
ATOM     13  C   UNL A   1      49.806  26.773  24.324  1.00  0.00     0.245 C 
ATOM     14  O   UNL A   1      50.813  26.251  24.804  1.00  0.00    -0.272 OA
BRANCH  13  15
ATOM     15  C   UNL A   1      49.917  27.491  22.960  1.00  0.00     0.168 C 
ATOM     16  C   UNL A   1      48.604  27.568  22.189  1.00  0.00     0.041 C 
BRANCH  15  17
ATOM     17  N   UNL A   1      51.008  26.916  22.183  1.00  0.00    -0.343 N 
ATOM     18  C   UNL A   1      52.291  27.360  22.036  1.00  0.00     0.243 C 
ATOM     19  O   UNL A   1      53.121  26.532  21.653  1.00  0.00    -0.273 OA
ATOM     20  H   UNL A   1      50.789  26.089  21.694  1.00  0.00     0.164 HD
BRANCH  18  21
ATOM     21  C   UNL A   1      52.669  28.825  22.319  1.00  0.00     0.171 C 
ATOM     22  C   UNL A   1      53.067  29.046  23.779  1.00  0.00     0.042 C 
BRANCH  21  23
ATOM     23  N   UNL A   1      51.562  29.665  21.848  1.00  0.00    -0.310 N 
ATOM     24  C   UNL A   1      51.541  30.442  20.734  1.00  0.00     0.408 C 
ATOM     25  H   UNL A   1      50.746  29.665  22.399  1.00  0.00     0.167 HD
ATOM     26  O   UNL A   1      50.542  31.086  20.424  1.00  0.00    -0.225 OA
BRANCH  24  27
ATOM     27  O   UNL A   1      52.713  30.432  20.087  1.00  0.00    -0.444 OA
BRANCH  27  28
ATOM     28  C   UNL A   1      52.895  29.878  18.759  1.00  0.00     0.106 C 
ATOM     29  C   UNL A   1      54.313  29.392  18.501  1.00  0.00     0.056 C 
ATOM     30  C   UNL A   1      51.925  28.718  18.483  1.00  0.00     0.056 C 
ATOM     31  C   UNL A   1      52.660  31.104  17.866  1.00  0.00     0.056 C 
ENDBRANCH  27  28
ENDBRANCH  24  27
ENDBRANCH  21  23
ENDBRANCH  18  21
ENDBRANCH  15  17
ENDBRANCH  13  15
ENDBRANCH   9  13
ENDBRANCH   6   8
ENDBRANCH   5   6
ENDBRANCH   4   5
ENDBRANCH   3   4
ENDBRANCH   2   3
ENDBRANCH   1   2
BRANCH   1  32
ATOM     32  C   UNL A   1      53.866  31.815  28.785  1.00  0.00     0.188 C 
BRANCH  32  33
ATOM     33  O   UNL A   1      54.230  31.234  27.556  1.00  0.00    -0.377 OA
BRANCH  33  34
ATOM     34  C   UNL A   1      55.418  31.689  26.918  1.00  0.00     0.188 C 
BRANCH  34  35
ATOM     35  C   UNL A   1      55.411  32.000  25.398  1.00  0.00     0.188 C 
BRANCH  35  36
ATOM     36  O   UNL A   1      54.627  33.109  24.986  1.00  0.00    -0.376 OA
BRANCH  36  37
ATOM     37  C   UNL A   1      53.827  33.012  23.815  1.00  0.00     0.202 C 
BRANCH  37  38
ATOM     38  C   UNL A   1      52.304  32.962  23.972  1.00  0.00     0.261 C 
BRANCH  38  39
ATOM     39  O   UNL A   1      51.638  34.231  23.951  1.00  0.00    -0.460 OA
BRANCH  39  40
ATOM     40  C   UNL A   1      51.414  34.895  25.112  1.00  0.00     0.338 C 
ATOM     41  O   UNL A   1      52.155  35.680  25.670  1.00  0.00    -0.246 OA
BRANCH  40  42
ATOM     42  C   UNL A   1      50.030  34.578  25.533  1.00  0.00     0.060 A 
ATOM     43  C   UNL A   1      48.869  35.074  24.921  1.00  0.00     0.016 A 
ATOM     44  C   UNL A   1      49.916  33.748  26.622  1.00  0.00     0.016 A 
ATOM     45  C   UNL A   1      47.591  34.785  25.465  1.00  0.00     0.010 A 
ATOM     46  C   UNL A   1      48.667  33.519  27.170  1.00  0.00     0.010 A 
ATOM     47  C   UNL A   1      47.485  34.043  26.645  1.00  0.00    -0.014 A 
BRANCH  47  48
ATOM     48  C   UNL A   1      46.240  33.814  27.452  1.00  0.00     0.031 A 
ATOM     49  C   UNL A   1      45.903  34.769  28.588  1.00  0.00     0.074 A 
ATOM     50  C   UNL A   1      45.582  32.637  27.412  1.00  0.00     0.049 A 
ATOM     51  N   UNL A   1      45.005  34.661  29.538  1.00  0.00    -0.248 NA
ATOM     52  C   UNL A   1      46.771  35.949  28.721  1.00  0.00     0.031 C 
ATOM     53  C   UNL A   1      45.901  31.520  26.528  1.00  0.00     0.029 A 
ATOM     54  N   UNL A   1      44.548  32.161  28.190  1.00  0.00    -0.354 N 
ATOM     55  C   UNL A   1      45.224  35.732  30.402  1.00  0.00     0.074 A 
ATOM     56  C   UNL A   1      46.395  36.424  29.900  1.00  0.00     0.031 C 
ATOM     57  C   UNL A   1      45.082  30.490  26.809  1.00  0.00     0.029 A 
ATOM     58  C   UNL A   1      44.179  30.866  27.899  1.00  0.00     0.049 A 
ATOM     59  H   UNL A   1      44.112  32.699  28.890  1.00  0.00     0.167 HD
ATOM     60  C   UNL A   1      44.514  36.123  31.495  1.00  0.00     0.034 A 
ATOM     61  C   UNL A   1      43.225  30.073  28.436  1.00  0.00     0.034 A 
ATOM     62  C   UNL A   1      43.328  35.451  31.977  1.00  0.00     0.049 A 
ATOM     63  C   UNL A   1      42.352  30.575  29.566  1.00  0.00     0.074 A 
ATOM     64  C   UNL A   1      42.427  35.881  32.939  1.00  0.00     0.029 A 
ATOM     65  N   UNL A   1      42.887  34.207  31.557  1.00  0.00    -0.354 N 
ATOM     66  N   UNL A   1      42.439  31.694  30.246  1.00  0.00    -0.248 NA
ATOM     67  C   UNL A   1      41.234  29.714  29.983  1.00  0.00     0.031 C 
ATOM     68  C   UNL A   1      41.487  34.869  33.152  1.00  0.00     0.029 A 
ATOM     69  C   UNL A   1      41.742  33.846  32.257  1.00  0.00     0.049 A 
ATOM     70  H   UNL A   1      43.320  33.659  30.864  1.00  0.00     0.167 HD
ATOM     71  C   UNL A   1      41.357  31.689  31.128  1.00  0.00     0.074 A 
ATOM     72  C   UNL A   1      40.630  30.462  30.895  1.00  0.00     0.031 C 
ATOM     73  C   UNL A   1      40.996  32.629  32.038  1.00  0.00     0.034 A 
BRANCH  60  74
ATOM     74  C   UNL A   1      44.965  37.370  32.229  1.00  0.00     0.023 A 
ATOM     75  C   UNL A   1      44.423  38.629  31.924  1.00  0.00     0.031 A 
ATOM     76  C   UNL A   1      45.919  37.310  33.263  1.00  0.00     0.131 A 
ATOM     77  C   UNL A   1      44.905  39.781  32.559  1.00  0.00     0.055 A 
ATOM     78  C   UNL A   1      46.313  38.449  33.973  1.00  0.00     0.041 A 
ATOM     79  F   UNL A   1      46.485  36.143  33.609  1.00  0.00    -0.206 F 
ATOM     80  C   UNL A   1      45.822  39.698  33.607  1.00  0.00     0.022 A 
BRANCH  77  81
ATOM     81  S   UNL A   1      44.431  41.390  31.874  1.00  0.00     0.124 S 
ATOM     82  O   UNL A   1      45.728  42.054  31.766  1.00  0.00    -0.237 OA
ATOM     83  O   UNL A   1      43.798  41.023  30.614  1.00  0.00    -0.237 OA
ATOM     84  O   UNL A   1      43.536  41.944  32.887  1.00  0.00    -0.744 OA
ENDBRANCH  77  81
ENDBRANCH  60  74
BRANCH  61  85
ATOM     85  C   UNL A   1      42.974  28.713  27.875  1.00  0.00     0.023 A 
ATOM     86  C   UNL A   1      43.548  27.584  28.483  1.00  0.00     0.031 A 
ATOM     87  C   UNL A   1      42.229  28.524  26.700  1.00  0.00     0.131 A 
ATOM     88  C   UNL A   1      43.428  26.325  27.880  1.00  0.00     0.055 A 
ATOM     89  C   UNL A   1      42.061  27.257  26.135  1.00  0.00     0.041 A 
ATOM     90  F   UNL A   1      41.656  29.569  26.084  1.00  0.00    -0.206 F 
ATOM     91  C   UNL A   1      42.677  26.150  26.717  1.00  0.00     0.022 A 
BRANCH  88  92
ATOM     92  S   UNL A   1      44.362  24.939  28.587  1.00  0.00     0.124 S 
ATOM     93  O   UNL A   1      44.110  23.885  27.611  1.00  0.00    -0.237 OA
ATOM     94  O   UNL A   1      45.719  25.473  28.620  1.00  0.00    -0.237 OA
ATOM     95  O   UNL A   1      43.740  24.743  29.895  1.00  0.00    -0.744 OA
ENDBRANCH  88  92
ENDBRANCH  61  85
BRANCH  73  96
ATOM     96  C   UNL A   1      39.707  32.424  32.805  1.00  0.00     0.023 A 
ATOM     97  C   UNL A   1      39.681  32.162  34.187  1.00  0.00     0.031 A 
ATOM     98  C   UNL A   1      38.473  32.496  32.131  1.00  0.00     0.131 A 
ATOM     99  C   UNL A   1      38.454  31.933  34.837  1.00  0.00     0.055 A 
ATOM    100  C   UNL A   1      37.255  32.332  32.793  1.00  0.00     0.041 A 
ATOM    101  F   UNL A   1      38.429  32.735  30.810  1.00  0.00    -0.206 F 
ATOM    102  C   UNL A   1      37.242  32.036  34.151  1.00  0.00     0.022 A 
BRANCH  99 103
ATOM    103  S   UNL A   1      38.466  31.407  36.574  1.00  0.00     0.124 S 
ATOM    104  O   UNL A   1      38.371  29.956  36.452  1.00  0.00    -0.237 OA
ATOM    105  O   UNL A   1      39.743  31.926  37.050  1.00  0.00    -0.237 OA
ATOM    106  O   UNL A   1      37.284  32.060  37.139  1.00  0.00    -0.744 OA
ENDBRANCH  99 103
ENDBRANCH  73  96
ENDBRANCH  47  48
ENDBRANCH  40  42
ENDBRANCH  39  40
ENDBRANCH  38  39
ENDBRANCH  37  38
ENDBRANCH  36  37
ENDBRANCH  35  36
ENDBRANCH  34  35
ENDBRANCH  33  34
ENDBRANCH  32  33
ENDBRANCH   1  32
TORSDOF 30
ENDMDL
