MODEL 1
REMARK VINA RESULT:      -7.3      0.000      0.000
REMARK SMILES O=C(N/N=C/c1ccc(C(=O)OCCOCCOCCOCCOC(=O)c2ccc(-c3c4nc(c(-c5cc(S(=O)(=O)[O-])ccc5F)c5ccc([nH]5)c(-c5cc(S(=O)(=O)[O-])ccc5F)c5nc(c(-c6cc(S(=O)(=O)[O-])ccc6F)c6ccc3[nH]6)C=C5)C=C4)cc2)cc1)C(=O)Nc1ccc2c(c1)OCO2
REMARK SMILES IDX 17 1 16 2 15 3 14 4 13 5 12 6 10 7 11 8 9 9 6 10 7 11 91 12
REMARK SMILES IDX 8 13 90 14 5 15 4 16 3 17 1 18 2 19 92 21 93 22 94 23 95 25
REMARK SMILES IDX 96 26 100 27 97 28 99 29 98 30 101 31 103 32 102 33 18 34
REMARK SMILES IDX 19 35 20 36 21 37 22 38 23 39 24 40 25 41 26 42 27 43 28 44
REMARK SMILES IDX 89 45 29 46 88 47 30 48 31 49 32 50 82 51 33 52 87 53 81 54
REMARK SMILES IDX 83 55 34 56 86 57 80 58 79 59 35 61 67 62 47 63 66 64 48 65
REMARK SMILES IDX 51 66 65 67 84 68 49 69 50 70 64 72 85 73 52 74 36 75 37 76
REMARK SMILES IDX 45 77 38 78 44 79 46 80 43 81 39 82 40 83 41 84 42 85 68 86
REMARK SMILES IDX 69 87 77 88 70 89 76 90 78 91 75 92 71 93 72 94 73 95 74 96
REMARK SMILES IDX 53 97 54 98 62 99 55 100 61 101 63 102 60 103 56 104 57 105
REMARK SMILES IDX 58 106 59 107
REMARK H PARENT 3 20 94 24 83 60 51 71
REMARK Flexibility Score: inf
ROOT
ATOM      1  C   UNL A   1      57.271  28.253  21.237  1.00  0.00     0.188 C 
ENDROOT
BRANCH   1   2
ATOM      2  C   UNL A   1      56.422  29.150  20.320  1.00  0.00     0.188 C 
BRANCH   2   3
ATOM      3  O   UNL A   1      55.655  28.548  19.297  1.00  0.00    -0.376 OA
BRANCH   3   4
ATOM      4  C   UNL A   1      54.235  28.473  19.307  1.00  0.00     0.202 C 
BRANCH   4   5
ATOM      5  C   UNL A   1      53.227  29.621  19.518  1.00  0.00     0.261 C 
BRANCH   5   6
ATOM      6  O   UNL A   1      52.757  29.850  20.837  1.00  0.00    -0.460 OA
BRANCH   6   7
ATOM      7  C   UNL A   1      51.433  30.058  20.952  1.00  0.00     0.338 C 
ATOM      8  O   UNL A   1      50.754  30.880  20.359  1.00  0.00    -0.246 OA
BRANCH   7   9
ATOM      9  C   UNL A   1      50.855  28.989  21.785  1.00  0.00     0.060 A 
ATOM     10  C   UNL A   1      49.285  27.232  23.661  1.00  0.00    -0.005 A 
ATOM     11  C   UNL A   1      49.040  27.450  22.201  1.00  0.00     0.010 A 
ATOM     12  C   UNL A   1      50.746  27.594  23.745  1.00  0.00     0.010 A 
ATOM     13  C   UNL A   1      49.711  28.358  21.353  1.00  0.00     0.016 A 
ATOM     14  C   UNL A   1      51.465  28.479  22.904  1.00  0.00     0.016 A 
BRANCH  10  15
ATOM     15  C   UNL A   1      47.862  26.780  25.202  1.00  0.00     0.141 C 
ATOM     16  N   UNL A   1      46.503  26.589  25.307  1.00  0.00    -0.180 NA
BRANCH  16  17
ATOM     17  N   UNL A   1      46.031  26.903  26.540  1.00  0.00    -0.239 N 
ATOM     18  O   UNL A   1      44.356  27.754  27.829  1.00  0.00    -0.262 OA
ATOM     19  C   UNL A   1      44.709  27.268  26.756  1.00  0.00     0.329 C 
ATOM     20  H   UNL A   1      46.647  26.871  27.307  1.00  0.00     0.194 HD
BRANCH  19  21
ATOM     21  C   UNL A   1      43.629  26.954  25.685  1.00  0.00     0.315 C 
ATOM     22  O   UNL A   1      43.067  27.902  25.135  1.00  0.00    -0.263 OA
ATOM     23  N   UNL A   1      43.344  25.657  25.242  1.00  0.00    -0.318 N 
ATOM     24  H   UNL A   1      43.157  25.511  24.286  1.00  0.00     0.170 HD
BRANCH  23  25
ATOM     25  C   UNL A   1      43.315  24.554  26.113  1.00  0.00     0.045 A 
ATOM     26  C   UNL A   1      42.107  24.624  27.505  1.00  0.00     0.030 A 
ATOM     27  C   UNL A   1      43.785  22.947  25.366  1.00  0.00     0.076 A 
ATOM     28  C   UNL A   1      41.354  23.063  28.119  1.00  0.00     0.053 A 
ATOM     29  C   UNL A   1      42.873  21.465  25.883  1.00  0.00     0.167 A 
ATOM     30  C   UNL A   1      41.691  21.533  27.231  1.00  0.00     0.165 A 
ATOM     31  O   UNL A   1      42.781  20.223  25.352  1.00  0.00    -0.454 OA
ATOM     32  O   UNL A   1      41.135  20.305  27.314  1.00  0.00    -0.454 OA
ATOM     33  C   UNL A   1      41.615  19.666  26.070  1.00  0.00     0.468 C 
ENDBRANCH  23  25
ENDBRANCH  19  21
ENDBRANCH  16  17
ENDBRANCH  10  15
ENDBRANCH   7   9
ENDBRANCH   6   7
ENDBRANCH   5   6
ENDBRANCH   4   5
ENDBRANCH   3   4
ENDBRANCH   2   3
ENDBRANCH   1   2
BRANCH   1  34
ATOM     34  O   UNL A   1      57.157  28.587  22.604  1.00  0.00    -0.377 OA
BRANCH  34  35
ATOM     35  C   UNL A   1      56.181  27.885  23.366  1.00  0.00     0.188 C 
BRANCH  35  36
ATOM     36  C   UNL A   1      56.326  26.364  23.601  1.00  0.00     0.188 C 
BRANCH  36  37
ATOM     37  O   UNL A   1      55.579  25.860  24.706  1.00  0.00    -0.376 OA
BRANCH  37  38
ATOM     38  C   UNL A   1      54.249  26.336  24.862  1.00  0.00     0.202 C 
BRANCH  38  39
ATOM     39  C   UNL A   1      53.980  27.087  26.174  1.00  0.00     0.261 C 
BRANCH  39  40
ATOM     40  O   UNL A   1      53.051  26.450  27.065  1.00  0.00    -0.460 OA
BRANCH  40  41
ATOM     41  C   UNL A   1      53.200  26.690  28.387  1.00  0.00     0.338 C 
ATOM     42  O   UNL A   1      54.243  26.866  28.987  1.00  0.00    -0.246 OA
BRANCH  41  43
ATOM     43  C   UNL A   1      51.854  26.905  28.953  1.00  0.00     0.060 A 
ATOM     44  C   UNL A   1      50.738  26.467  28.229  1.00  0.00     0.016 A 
ATOM     45  C   UNL A   1      51.700  27.525  30.194  1.00  0.00     0.016 A 
ATOM     46  C   UNL A   1      49.455  26.676  28.737  1.00  0.00     0.010 A 
ATOM     47  C   UNL A   1      50.415  27.753  30.691  1.00  0.00     0.010 A 
ATOM     48  C   UNL A   1      49.287  27.355  29.951  1.00  0.00    -0.014 A 
BRANCH  48  49
ATOM     49  C   UNL A   1      47.940  27.826  30.355  1.00  0.00     0.031 A 
ATOM     50  C   UNL A   1      47.217  27.063  31.431  1.00  0.00     0.074 A 
ATOM     51  C   UNL A   1      47.376  28.906  29.787  1.00  0.00     0.049 A 
ATOM     52  N   UNL A   1      46.013  27.236  31.907  1.00  0.00    -0.248 NA
ATOM     53  C   UNL A   1      47.957  25.950  32.047  1.00  0.00     0.031 C 
ATOM     54  C   UNL A   1      48.000  29.749  28.768  1.00  0.00     0.029 A 
ATOM     55  N   UNL A   1      46.140  29.470  29.980  1.00  0.00    -0.354 N 
ATOM     56  C   UNL A   1      45.847  26.254  32.879  1.00  0.00     0.074 A 
ATOM     57  C   UNL A   1      47.063  25.469  32.896  1.00  0.00     0.031 C 
ATOM     58  C   UNL A   1      47.135  30.717  28.416  1.00  0.00     0.029 A 
ATOM     59  C   UNL A   1      45.884  30.539  29.153  1.00  0.00     0.049 A 
ATOM     60  H   UNL A   1      45.496  29.142  30.649  1.00  0.00     0.167 HD
ATOM     61  C   UNL A   1      44.782  26.034  33.686  1.00  0.00     0.034 A 
ATOM     62  C   UNL A   1      44.759  31.265  28.989  1.00  0.00     0.034 A 
ATOM     63  C   UNL A   1      43.570  26.814  33.642  1.00  0.00     0.049 A 
ATOM     64  C   UNL A   1      43.546  30.936  29.831  1.00  0.00     0.074 A 
ATOM     65  C   UNL A   1      42.434  26.684  34.421  1.00  0.00     0.029 A 
ATOM     66  N   UNL A   1      43.328  27.857  32.758  1.00  0.00    -0.354 N 
ATOM     67  N   UNL A   1      43.405  30.015  30.757  1.00  0.00    -0.248 NA
ATOM     68  C   UNL A   1      42.343  31.748  29.608  1.00  0.00     0.031 C 
ATOM     69  C   UNL A   1      41.479  27.596  33.959  1.00  0.00     0.029 A 
ATOM     70  C   UNL A   1      42.048  28.354  32.947  1.00  0.00     0.049 A 
ATOM     71  H   UNL A   1      43.971  28.195  32.095  1.00  0.00     0.167 HD
ATOM     72  C   UNL A   1      42.109  30.163  31.248  1.00  0.00     0.074 A 
ATOM     73  C   UNL A   1      41.516  31.268  30.526  1.00  0.00     0.031 C 
ATOM     74  C   UNL A   1      41.466  29.453  32.211  1.00  0.00     0.034 A 
BRANCH  61  75
ATOM     75  C   UNL A   1      44.867  24.870  34.642  1.00  0.00     0.023 A 
ATOM     76  C   UNL A   1      45.337  25.025  35.959  1.00  0.00     0.031 A 
ATOM     77  C   UNL A   1      44.501  23.580  34.221  1.00  0.00     0.131 A 
ATOM     78  C   UNL A   1      45.488  23.901  36.784  1.00  0.00     0.055 A 
ATOM     79  C   UNL A   1      44.580  22.477  35.072  1.00  0.00     0.041 A 
ATOM     80  F   UNL A   1      44.072  23.367  32.966  1.00  0.00    -0.206 F 
ATOM     81  C   UNL A   1      45.089  22.632  36.359  1.00  0.00     0.022 A 
BRANCH  78  82
ATOM     82  S   UNL A   1      46.342  24.099  38.371  1.00  0.00     0.124 S 
ATOM     83  O   UNL A   1      47.628  23.464  38.096  1.00  0.00    -0.237 OA
ATOM     84  O   UNL A   1      46.368  25.547  38.538  1.00  0.00    -0.237 OA
ATOM     85  O   UNL A   1      45.488  23.377  39.313  1.00  0.00    -0.744 OA
ENDBRANCH  78  82
ENDBRANCH  61  75
BRANCH  62  86
ATOM     86  C   UNL A   1      44.691  32.342  27.958  1.00  0.00     0.023 A 
ATOM     87  C   UNL A   1      44.932  33.685  28.290  1.00  0.00     0.031 A 
ATOM     88  C   UNL A   1      44.305  32.051  26.637  1.00  0.00     0.131 A 
ATOM     89  C   UNL A   1      44.736  34.690  27.329  1.00  0.00     0.055 A 
ATOM     90  C   UNL A   1      44.166  33.049  25.670  1.00  0.00     0.041 A 
ATOM     91  F   UNL A   1      44.055  30.786  26.264  1.00  0.00    -0.206 F 
ATOM     92  C   UNL A   1      44.367  34.381  26.018  1.00  0.00     0.022 A 
BRANCH  89  93
ATOM     93  S   UNL A   1      44.870  36.424  27.846  1.00  0.00     0.124 S 
ATOM     94  O   UNL A   1      46.136  36.818  27.236  1.00  0.00    -0.237 OA
ATOM     95  O   UNL A   1      43.668  37.008  27.260  1.00  0.00    -0.237 OA
ATOM     96  O   UNL A   1      44.876  36.345  29.304  1.00  0.00    -0.744 OA
ENDBRANCH  89  93
ENDBRANCH  62  86
BRANCH  74  97
ATOM     97  C   UNL A   1      40.065  29.887  32.570  1.00  0.00     0.023 A 
ATOM     98  C   UNL A   1      39.819  30.999  33.394  1.00  0.00     0.031 A 
ATOM     99  C   UNL A   1      38.957  29.171  32.079  1.00  0.00     0.131 A 
ATOM    100  C   UNL A   1      38.503  31.331  33.748  1.00  0.00     0.055 A 
ATOM    101  C   UNL A   1      37.647  29.544  32.383  1.00  0.00     0.041 A 
ATOM    102  F   UNL A   1      39.131  28.100  31.289  1.00  0.00    -0.206 F 
ATOM    103  C   UNL A   1      37.414  30.621  33.232  1.00  0.00     0.022 A 
BRANCH 100 104
ATOM    104  S   UNL A   1      38.232  32.647  34.966  1.00  0.00     0.124 S 
ATOM    105  O   UNL A   1      37.322  32.005  35.908  1.00  0.00    -0.237 OA
ATOM    106  O   UNL A   1      39.582  32.903  35.455  1.00  0.00    -0.237 OA
ATOM    107  O   UNL A   1      37.646  33.730  34.176  1.00  0.00    -0.744 OA
ENDBRANCH 100 104
ENDBRANCH  74  97
ENDBRANCH  48  49
ENDBRANCH  41  43
ENDBRANCH  40  41
ENDBRANCH  39  40
ENDBRANCH  38  39
ENDBRANCH  37  38
ENDBRANCH  36  37
ENDBRANCH  35  36
ENDBRANCH  34  35
ENDBRANCH   1  34
TORSDOF 27
ENDMDL
MODEL 2
REMARK VINA RESULT:      -7.1      6.554     13.735
REMARK SMILES O=C(N/N=C/c1ccc(C(=O)OCCOCCOCCOCCOC(=O)c2ccc(-c3c4nc(c(-c5cc(S(=O)(=O)[O-])ccc5F)c5ccc([nH]5)c(-c5cc(S(=O)(=O)[O-])ccc5F)c5nc(c(-c6cc(S(=O)(=O)[O-])ccc6F)c6ccc3[nH]6)C=C5)C=C4)cc2)cc1)C(=O)Nc1ccc2c(c1)OCO2
REMARK SMILES IDX 17 1 16 2 15 3 14 4 13 5 12 6 10 7 11 8 9 9 6 10 7 11 91 12
REMARK SMILES IDX 8 13 90 14 5 15 4 16 3 17 1 18 2 19 92 21 93 22 94 23 95 25
REMARK SMILES IDX 96 26 100 27 97 28 99 29 98 30 101 31 103 32 102 33 18 34
REMARK SMILES IDX 19 35 20 36 21 37 22 38 23 39 24 40 25 41 26 42 27 43 28 44
REMARK SMILES IDX 89 45 29 46 88 47 30 48 31 49 32 50 82 51 33 52 87 53 81 54
REMARK SMILES IDX 83 55 34 56 86 57 80 58 79 59 35 61 67 62 47 63 66 64 48 65
REMARK SMILES IDX 51 66 65 67 84 68 49 69 50 70 64 72 85 73 52 74 36 75 37 76
REMARK SMILES IDX 45 77 38 78 44 79 46 80 43 81 39 82 40 83 41 84 42 85 68 86
REMARK SMILES IDX 69 87 77 88 70 89 76 90 78 91 75 92 71 93 72 94 73 95 74 96
REMARK SMILES IDX 53 97 54 98 62 99 55 100 61 101 63 102 60 103 56 104 57 105
REMARK SMILES IDX 58 106 59 107
REMARK H PARENT 3 20 94 24 83 60 51 71
REMARK Flexibility Score: inf
ROOT
ATOM      1  C   UNL A   1      40.500  27.517  27.698  1.00  0.00     0.188 C 
ENDROOT
BRANCH   1   2
ATOM      2  C   UNL A   1      41.996  27.871  27.733  1.00  0.00     0.188 C 
BRANCH   2   3
ATOM      3  O   UNL A   1      42.383  29.151  28.189  1.00  0.00    -0.376 OA
BRANCH   3   4
ATOM      4  C   UNL A   1      43.500  29.871  27.682  1.00  0.00     0.202 C 
BRANCH   4   5
ATOM      5  C   UNL A   1      43.537  31.324  27.166  1.00  0.00     0.261 C 
BRANCH   5   6
ATOM      6  O   UNL A   1      43.976  32.330  28.065  1.00  0.00    -0.460 OA
BRANCH   6   7
ATOM      7  C   UNL A   1      44.748  33.291  27.526  1.00  0.00     0.338 C 
ATOM      8  O   UNL A   1      45.823  33.155  26.964  1.00  0.00    -0.246 OA
BRANCH   7   9
ATOM      9  C   UNL A   1      44.002  34.561  27.537  1.00  0.00     0.060 A 
ATOM     10  C   UNL A   1      42.954  37.371  27.261  1.00  0.00    -0.005 A 
ATOM     11  C   UNL A   1      42.743  36.226  26.321  1.00  0.00     0.010 A 
ATOM     12  C   UNL A   1      43.253  36.622  28.534  1.00  0.00     0.010 A 
ATOM     13  C   UNL A   1      43.326  34.943  26.400  1.00  0.00     0.016 A 
ATOM     14  C   UNL A   1      43.816  35.327  28.660  1.00  0.00     0.016 A 
BRANCH  10  15
ATOM     15  C   UNL A   1      43.046  39.468  26.814  1.00  0.00     0.141 C 
ATOM     16  N   UNL A   1      43.924  40.342  26.215  1.00  0.00    -0.180 NA
BRANCH  16  17
ATOM     17  N   UNL A   1      43.796  41.608  26.687  1.00  0.00    -0.239 N 
ATOM     18  O   UNL A   1      44.773  43.584  27.262  1.00  0.00    -0.262 OA
ATOM     19  C   UNL A   1      44.836  42.526  26.639  1.00  0.00     0.329 C 
ATOM     20  H   UNL A   1      42.935  41.884  27.078  1.00  0.00     0.194 HD
BRANCH  19  21
ATOM     21  C   UNL A   1      46.047  42.281  25.698  1.00  0.00     0.315 C 
ATOM     22  O   UNL A   1      47.123  41.967  26.210  1.00  0.00    -0.263 OA
ATOM     23  N   UNL A   1      45.947  42.295  24.302  1.00  0.00    -0.318 N 
ATOM     24  H   UNL A   1      46.460  41.635  23.782  1.00  0.00     0.170 HD
BRANCH  23  25
ATOM     25  C   UNL A   1      45.142  43.219  23.615  1.00  0.00     0.045 A 
ATOM     26  C   UNL A   1      46.010  44.584  22.729  1.00  0.00     0.030 A 
ATOM     27  C   UNL A   1      43.551  42.563  22.984  1.00  0.00     0.076 A 
ATOM     28  C   UNL A   1      45.276  45.261  21.184  1.00  0.00     0.053 A 
ATOM     29  C   UNL A   1      42.971  43.137  21.362  1.00  0.00     0.167 A 
ATOM     30  C   UNL A   1      43.821  44.458  20.494  1.00  0.00     0.165 A 
ATOM     31  O   UNL A   1      42.024  42.666  20.517  1.00  0.00    -0.454 OA
ATOM     32  O   UNL A   1      43.200  44.592  19.302  1.00  0.00    -0.454 OA
ATOM     33  C   UNL A   1      42.340  43.390  19.267  1.00  0.00     0.468 C 
ENDBRANCH  23  25
ENDBRANCH  19  21
ENDBRANCH  16  17
ENDBRANCH  10  15
ENDBRANCH   7   9
ENDBRANCH   6   7
ENDBRANCH   5   6
ENDBRANCH   4   5
ENDBRANCH   3   4
ENDBRANCH   2   3
ENDBRANCH   1   2
BRANCH   1  34
ATOM     34  O   UNL A   1      39.660  28.651  27.640  1.00  0.00    -0.377 OA
BRANCH  34  35
ATOM     35  C   UNL A   1      38.638  28.755  28.626  1.00  0.00     0.188 C 
BRANCH  35  36
ATOM     36  C   UNL A   1      37.946  30.112  28.886  1.00  0.00     0.188 C 
BRANCH  36  37
ATOM     37  O   UNL A   1      36.521  30.059  28.898  1.00  0.00    -0.376 OA
BRANCH  37  38
ATOM     38  C   UNL A   1      35.840  30.628  27.787  1.00  0.00     0.202 C 
BRANCH  38  39
ATOM     39  C   UNL A   1      34.904  31.795  28.131  1.00  0.00     0.261 C 
BRANCH  39  40
ATOM     40  O   UNL A   1      35.546  32.948  28.698  1.00  0.00    -0.460 OA
BRANCH  40  41
ATOM     41  C   UNL A   1      35.050  33.418  29.865  1.00  0.00     0.338 C 
ATOM     42  O   UNL A   1      33.926  33.835  30.069  1.00  0.00    -0.246 OA
BRANCH  41  43
ATOM     43  C   UNL A   1      36.056  33.153  30.912  1.00  0.00     0.060 A 
ATOM     44  C   UNL A   1      37.141  34.028  31.045  1.00  0.00     0.016 A 
ATOM     45  C   UNL A   1      35.918  32.054  31.762  1.00  0.00     0.016 A 
ATOM     46  C   UNL A   1      38.113  33.786  32.016  1.00  0.00     0.010 A 
ATOM     47  C   UNL A   1      36.902  31.801  32.719  1.00  0.00     0.010 A 
ATOM     48  C   UNL A   1      38.018  32.650  32.831  1.00  0.00    -0.014 A 
BRANCH  48  49
ATOM     49  C   UNL A   1      39.175  32.237  33.662  1.00  0.00     0.031 A 
ATOM     50  C   UNL A   1      39.200  32.665  35.103  1.00  0.00     0.074 A 
ATOM     51  C   UNL A   1      40.174  31.496  33.152  1.00  0.00     0.049 A 
ATOM     52  N   UNL A   1      40.126  32.487  36.008  1.00  0.00    -0.248 NA
ATOM     53  C   UNL A   1      38.018  33.399  35.584  1.00  0.00     0.031 C 
ATOM     54  C   UNL A   1      40.235  30.985  31.783  1.00  0.00     0.029 A 
ATOM     55  N   UNL A   1      41.339  31.054  33.729  1.00  0.00    -0.354 N 
ATOM     56  C   UNL A   1      39.641  33.087  37.166  1.00  0.00     0.074 A 
ATOM     57  C   UNL A   1      38.356  33.664  36.836  1.00  0.00     0.031 C 
ATOM     58  C   UNL A   1      41.388  30.310  31.623  1.00  0.00     0.029 A 
ATOM     59  C   UNL A   1      42.163  30.375  32.862  1.00  0.00     0.049 A 
ATOM     60  H   UNL A   1      41.564  31.208  34.675  1.00  0.00     0.167 HD
ATOM     61  C   UNL A   1      40.213  33.144  38.393  1.00  0.00     0.034 A 
ATOM     62  C   UNL A   1      43.410  29.892  33.041  1.00  0.00     0.034 A 
ATOM     63  C   UNL A   1      41.505  32.581  38.700  1.00  0.00     0.049 A 
ATOM     64  C   UNL A   1      44.071  30.057  34.392  1.00  0.00     0.074 A 
ATOM     65  C   UNL A   1      42.174  32.572  39.911  1.00  0.00     0.029 A 
ATOM     66  N   UNL A   1      42.332  31.943  37.785  1.00  0.00    -0.354 N 
ATOM     67  N   UNL A   1      43.598  30.613  35.484  1.00  0.00    -0.248 NA
ATOM     68  C   UNL A   1      45.432  29.523  34.534  1.00  0.00     0.031 C 
ATOM     69  C   UNL A   1      43.434  31.999  39.711  1.00  0.00     0.029 A 
ATOM     70  C   UNL A   1      43.520  31.572  38.395  1.00  0.00     0.049 A 
ATOM     71  H   UNL A   1      42.107  31.778  36.841  1.00  0.00     0.167 HD
ATOM     72  C   UNL A   1      44.592  30.464  36.449  1.00  0.00     0.074 A 
ATOM     73  C   UNL A   1      45.683  29.755  35.814  1.00  0.00     0.031 C 
ATOM     74  C   UNL A   1      44.604  30.872  37.744  1.00  0.00     0.034 A 
BRANCH  61  75
ATOM     75  C   UNL A   1      39.466  33.888  39.471  1.00  0.00     0.023 A 
ATOM     76  C   UNL A   1      38.555  33.240  40.325  1.00  0.00     0.031 A 
ATOM     77  C   UNL A   1      39.645  35.274  39.629  1.00  0.00     0.131 A 
ATOM     78  C   UNL A   1      37.812  33.986  41.251  1.00  0.00     0.055 A 
ATOM     79  C   UNL A   1      38.960  35.998  40.605  1.00  0.00     0.041 A 
ATOM     80  F   UNL A   1      40.480  35.951  38.824  1.00  0.00    -0.206 F 
ATOM     81  C   UNL A   1      38.027  35.357  41.415  1.00  0.00     0.022 A 
BRANCH  78  82
ATOM     82  S   UNL A   1      36.464  33.166  42.144  1.00  0.00     0.124 S 
ATOM     83  O   UNL A   1      36.871  33.357  43.534  1.00  0.00    -0.237 OA
ATOM     84  O   UNL A   1      35.293  33.921  41.712  1.00  0.00    -0.237 OA
ATOM     85  O   UNL A   1      36.527  31.786  41.668  1.00  0.00    -0.744 OA
ENDBRANCH  78  82
ENDBRANCH  61  75
BRANCH  62  86
ATOM     86  C   UNL A   1      44.149  29.252  31.914  1.00  0.00     0.023 A 
ATOM     87  C   UNL A   1      43.986  27.889  31.616  1.00  0.00     0.031 A 
ATOM     88  C   UNL A   1      45.090  29.980  31.164  1.00  0.00     0.131 A 
ATOM     89  C   UNL A   1      44.788  27.287  30.633  1.00  0.00     0.055 A 
ATOM     90  C   UNL A   1      45.845  29.389  30.150  1.00  0.00     0.041 A 
ATOM     91  F   UNL A   1      45.293  31.285  31.409  1.00  0.00    -0.206 F 
ATOM     92  C   UNL A   1      45.707  28.030  29.889  1.00  0.00     0.022 A 
BRANCH  89  93
ATOM     93  S   UNL A   1      44.686  25.489  30.410  1.00  0.00     0.124 S 
ATOM     94  O   UNL A   1      45.965  25.196  29.773  1.00  0.00    -0.237 OA
ATOM     95  O   UNL A   1      44.532  25.023  31.784  1.00  0.00    -0.237 OA
ATOM     96  O   UNL A   1      43.510  25.318  29.560  1.00  0.00    -0.744 OA
ENDBRANCH  89  93
ENDBRANCH  62  86
BRANCH  74  97
ATOM     97  C   UNL A   1      45.817  30.515  38.571  1.00  0.00     0.023 A 
ATOM     98  C   UNL A   1      45.883  29.328  39.319  1.00  0.00     0.031 A 
ATOM     99  C   UNL A   1      46.925  31.382  38.610  1.00  0.00     0.131 A 
ATOM    100  C   UNL A   1      47.006  29.065  40.118  1.00  0.00     0.055 A 
ATOM    101  C   UNL A   1      48.066  31.086  39.356  1.00  0.00     0.041 A 
ATOM    102  F   UNL A   1      46.917  32.532  37.915  1.00  0.00    -0.206 F 
ATOM    103  C   UNL A   1      48.106  29.928  40.126  1.00  0.00     0.022 A 
BRANCH 100 104
ATOM    104  S   UNL A   1      46.976  27.624  41.220  1.00  0.00     0.124 S 
ATOM    105  O   UNL A   1      45.931  26.804  40.617  1.00  0.00    -0.237 OA
ATOM    106  O   UNL A   1      48.337  27.112  41.102  1.00  0.00    -0.237 OA
ATOM    107  O   UNL A   1      46.642  28.196  42.524  1.00  0.00    -0.744 OA
ENDBRANCH 100 104
ENDBRANCH  74  97
ENDBRANCH  48  49
ENDBRANCH  41  43
ENDBRANCH  40  41
ENDBRANCH  39  40
ENDBRANCH  38  39
ENDBRANCH  37  38
ENDBRANCH  36  37
ENDBRANCH  35  36
ENDBRANCH  34  35
ENDBRANCH   1  34
TORSDOF 27
ENDMDL
MODEL 3
REMARK VINA RESULT:      -6.9      5.323     11.469
REMARK SMILES O=C(N/N=C/c1ccc(C(=O)OCCOCCOCCOCCOC(=O)c2ccc(-c3c4nc(c(-c5cc(S(=O)(=O)[O-])ccc5F)c5ccc([nH]5)c(-c5cc(S(=O)(=O)[O-])ccc5F)c5nc(c(-c6cc(S(=O)(=O)[O-])ccc6F)c6ccc3[nH]6)C=C5)C=C4)cc2)cc1)C(=O)Nc1ccc2c(c1)OCO2
REMARK SMILES IDX 17 1 16 2 15 3 14 4 13 5 12 6 10 7 11 8 9 9 6 10 7 11 91 12
REMARK SMILES IDX 8 13 90 14 5 15 4 16 3 17 1 18 2 19 92 21 93 22 94 23 95 25
REMARK SMILES IDX 96 26 100 27 97 28 99 29 98 30 101 31 103 32 102 33 18 34
REMARK SMILES IDX 19 35 20 36 21 37 22 38 23 39 24 40 25 41 26 42 27 43 28 44
REMARK SMILES IDX 89 45 29 46 88 47 30 48 31 49 32 50 82 51 33 52 87 53 81 54
REMARK SMILES IDX 83 55 34 56 86 57 80 58 79 59 35 61 67 62 47 63 66 64 48 65
REMARK SMILES IDX 51 66 65 67 84 68 49 69 50 70 64 72 85 73 52 74 36 75 37 76
REMARK SMILES IDX 45 77 38 78 44 79 46 80 43 81 39 82 40 83 41 84 42 85 68 86
REMARK SMILES IDX 69 87 77 88 70 89 76 90 78 91 75 92 71 93 72 94 73 95 74 96
REMARK SMILES IDX 53 97 54 98 62 99 55 100 61 101 63 102 60 103 56 104 57 105
REMARK SMILES IDX 58 106 59 107
REMARK H PARENT 3 20 94 24 83 60 51 71
REMARK Flexibility Score: inf
ROOT
ATOM      1  C   UNL A   1      45.232  27.849  27.957  1.00  0.00     0.188 C 
ENDROOT
BRANCH   1   2
ATOM      2  C   UNL A   1      44.014  28.381  28.729  1.00  0.00     0.188 C 
BRANCH   2   3
ATOM      3  O   UNL A   1      43.145  27.457  29.353  1.00  0.00    -0.376 OA
BRANCH   3   4
ATOM      4  C   UNL A   1      41.728  27.496  29.236  1.00  0.00     0.202 C 
BRANCH   4   5
ATOM      5  C   UNL A   1      40.696  27.855  30.323  1.00  0.00     0.261 C 
BRANCH   5   6
ATOM      6  O   UNL A   1      39.333  27.565  30.057  1.00  0.00    -0.460 OA
BRANCH   6   7
ATOM      7  C   UNL A   1      38.790  28.233  29.024  1.00  0.00     0.338 C 
ATOM      8  O   UNL A   1      38.692  27.861  27.866  1.00  0.00    -0.246 OA
BRANCH   7   9
ATOM      9  C   UNL A   1      38.133  29.448  29.536  1.00  0.00     0.060 A 
ATOM     10  C   UNL A   1      36.317  31.738  30.266  1.00  0.00    -0.005 A 
ATOM     11  C   UNL A   1      36.491  30.445  31.001  1.00  0.00     0.010 A 
ATOM     12  C   UNL A   1      37.628  31.803  29.524  1.00  0.00     0.010 A 
ATOM     13  C   UNL A   1      37.261  29.334  30.594  1.00  0.00     0.016 A 
ATOM     14  C   UNL A   1      38.443  30.718  29.117  1.00  0.00     0.016 A 
BRANCH  10  15
ATOM     15  C   UNL A   1      34.571  32.978  30.139  1.00  0.00     0.141 C 
ATOM     16  N   UNL A   1      34.277  34.323  30.133  1.00  0.00    -0.180 NA
BRANCH  16  17
ATOM     17  N   UNL A   1      33.035  34.582  30.614  1.00  0.00    -0.239 N 
ATOM     18  O   UNL A   1      31.720  35.560  32.196  1.00  0.00    -0.262 OA
ATOM     19  C   UNL A   1      32.810  35.499  31.631  1.00  0.00     0.329 C 
ATOM     20  H   UNL A   1      32.266  34.103  30.227  1.00  0.00     0.194 HD
BRANCH  19  21
ATOM     21  C   UNL A   1      33.899  36.547  31.989  1.00  0.00     0.315 C 
ATOM     22  O   UNL A   1      33.830  37.657  31.460  1.00  0.00    -0.263 OA
ATOM     23  N   UNL A   1      34.886  36.326  32.957  1.00  0.00    -0.318 N 
ATOM     24  H   UNL A   1      35.145  37.068  33.550  1.00  0.00     0.170 HD
BRANCH  23  25
ATOM     25  C   UNL A   1      35.521  35.081  33.114  1.00  0.00     0.045 A 
ATOM     26  C   UNL A   1      37.070  34.810  32.151  1.00  0.00     0.030 A 
ATOM     27  C   UNL A   1      35.281  34.273  34.742  1.00  0.00     0.076 A 
ATOM     28  C   UNL A   1      38.390  33.741  32.857  1.00  0.00     0.053 A 
ATOM     29  C   UNL A   1      36.687  33.385  35.470  1.00  0.00     0.167 A 
ATOM     30  C   UNL A   1      38.199  33.128  34.538  1.00  0.00     0.165 A 
ATOM     31  O   UNL A   1      36.925  32.933  36.724  1.00  0.00    -0.454 OA
ATOM     32  O   UNL A   1      39.064  32.515  35.375  1.00  0.00    -0.454 OA
ATOM     33  C   UNL A   1      38.374  32.643  36.677  1.00  0.00     0.468 C 
ENDBRANCH  23  25
ENDBRANCH  19  21
ENDBRANCH  16  17
ENDBRANCH  10  15
ENDBRANCH   7   9
ENDBRANCH   6   7
ENDBRANCH   5   6
ENDBRANCH   4   5
ENDBRANCH   3   4
ENDBRANCH   2   3
ENDBRANCH   1   2
BRANCH   1  34
ATOM     34  O   UNL A   1      44.931  26.740  27.135  1.00  0.00    -0.377 OA
BRANCH  34  35
ATOM     35  C   UNL A   1      45.528  25.494  27.478  1.00  0.00     0.188 C 
BRANCH  35  36
ATOM     36  C   UNL A   1      46.614  24.878  26.568  1.00  0.00     0.188 C 
BRANCH  36  37
ATOM     37  O   UNL A   1      47.666  24.214  27.265  1.00  0.00    -0.376 OA
BRANCH  37  38
ATOM     38  C   UNL A   1      48.918  24.881  27.341  1.00  0.00     0.202 C 
BRANCH  38  39
ATOM     39  C   UNL A   1      49.087  25.805  28.555  1.00  0.00     0.261 C 
BRANCH  39  40
ATOM     40  O   UNL A   1      50.426  25.913  29.061  1.00  0.00    -0.460 OA
BRANCH  40  41
ATOM     41  C   UNL A   1      51.335  26.530  28.273  1.00  0.00     0.338 C 
ATOM     42  O   UNL A   1      52.189  26.001  27.586  1.00  0.00    -0.246 OA
BRANCH  41  43
ATOM     43  C   UNL A   1      50.985  27.963  28.230  1.00  0.00     0.060 A 
ATOM     44  C   UNL A   1      51.193  28.744  29.373  1.00  0.00     0.016 A 
ATOM     45  C   UNL A   1      50.466  28.529  27.064  1.00  0.00     0.016 A 
ATOM     46  C   UNL A   1      50.852  30.098  29.360  1.00  0.00     0.010 A 
ATOM     47  C   UNL A   1      50.106  29.877  27.059  1.00  0.00     0.010 A 
ATOM     48  C   UNL A   1      50.271  30.660  28.216  1.00  0.00    -0.014 A 
BRANCH  48  49
ATOM     49  C   UNL A   1      49.654  32.007  28.286  1.00  0.00     0.031 A 
ATOM     50  C   UNL A   1      48.246  32.115  28.803  1.00  0.00     0.074 A 
ATOM     51  C   UNL A   1      50.328  33.106  27.904  1.00  0.00     0.049 A 
ATOM     52  N   UNL A   1      47.472  33.164  28.896  1.00  0.00    -0.248 NA
ATOM     53  C   UNL A   1      47.629  30.864  29.275  1.00  0.00     0.031 C 
ATOM     54  C   UNL A   1      51.710  33.128  27.429  1.00  0.00     0.029 A 
ATOM     55  N   UNL A   1      49.930  34.419  27.846  1.00  0.00    -0.354 N 
ATOM     56  C   UNL A   1      46.276  32.703  29.436  1.00  0.00     0.074 A 
ATOM     57  C   UNL A   1      46.417  31.273  29.614  1.00  0.00     0.031 C 
ATOM     58  C   UNL A   1      52.041  34.394  27.114  1.00  0.00     0.029 A 
ATOM     59  C   UNL A   1      50.883  35.263  27.326  1.00  0.00     0.049 A 
ATOM     60  H   UNL A   1      49.046  34.728  28.148  1.00  0.00     0.167 HD
ATOM     61  C   UNL A   1      45.165  33.408  29.759  1.00  0.00     0.034 A 
ATOM     62  C   UNL A   1      50.816  36.577  27.028  1.00  0.00     0.034 A 
ATOM     63  C   UNL A   1      45.033  34.830  29.556  1.00  0.00     0.049 A 
ATOM     64  C   UNL A   1      49.530  37.324  27.303  1.00  0.00     0.074 A 
ATOM     65  C   UNL A   1      43.958  35.646  29.857  1.00  0.00     0.029 A 
ATOM     66  N   UNL A   1      46.001  35.643  28.983  1.00  0.00    -0.354 N 
ATOM     67  N   UNL A   1      48.409  36.881  27.827  1.00  0.00    -0.248 NA
ATOM     68  C   UNL A   1      49.503  38.751  26.951  1.00  0.00     0.031 C 
ATOM     69  C   UNL A   1      44.245  36.936  29.398  1.00  0.00     0.029 A 
ATOM     70  C   UNL A   1      45.534  36.944  28.886  1.00  0.00     0.049 A 
ATOM     71  H   UNL A   1      46.890  35.341  28.689  1.00  0.00     0.167 HD
ATOM     72  C   UNL A   1      47.560  37.983  27.897  1.00  0.00     0.074 A 
ATOM     73  C   UNL A   1      48.301  39.112  27.375  1.00  0.00     0.031 C 
ATOM     74  C   UNL A   1      46.283  38.059  28.354  1.00  0.00     0.034 A 
BRANCH  61  75
ATOM     75  C   UNL A   1      43.992  32.637  30.312  1.00  0.00     0.023 A 
ATOM     76  C   UNL A   1      43.797  32.475  31.696  1.00  0.00     0.031 A 
ATOM     77  C   UNL A   1      43.070  32.030  29.442  1.00  0.00     0.131 A 
ATOM     78  C   UNL A   1      42.747  31.673  32.164  1.00  0.00     0.055 A 
ATOM     79  C   UNL A   1      41.982  31.297  29.916  1.00  0.00     0.041 A 
ATOM     80  F   UNL A   1      43.222  32.127  28.111  1.00  0.00    -0.206 F 
ATOM     81  C   UNL A   1      41.823  31.104  31.285  1.00  0.00     0.022 A 
BRANCH  78  82
ATOM     82  S   UNL A   1      42.685  31.271  33.931  1.00  0.00     0.124 S 
ATOM     83  O   UNL A   1      43.809  30.348  34.064  1.00  0.00    -0.237 OA
ATOM     84  O   UNL A   1      42.853  32.576  34.559  1.00  0.00    -0.237 OA
ATOM     85  O   UNL A   1      41.367  30.663  34.099  1.00  0.00    -0.744 OA
ENDBRANCH  78  82
ENDBRANCH  61  75
BRANCH  62  86
ATOM     86  C   UNL A   1      51.970  37.274  26.387  1.00  0.00     0.023 A 
ATOM     87  C   UNL A   1      52.851  38.067  27.140  1.00  0.00     0.031 A 
ATOM     88  C   UNL A   1      52.163  37.217  24.995  1.00  0.00     0.131 A 
ATOM     89  C   UNL A   1      53.850  38.812  26.492  1.00  0.00     0.055 A 
ATOM     90  C   UNL A   1      53.193  37.915  24.363  1.00  0.00     0.041 A 
ATOM     91  F   UNL A   1      51.348  36.480  24.225  1.00  0.00    -0.206 F 
ATOM     92  C   UNL A   1      54.036  38.731  25.111  1.00  0.00     0.022 A 
BRANCH  89  93
ATOM     93  S   UNL A   1      54.843  39.971  27.473  1.00  0.00     0.124 S 
ATOM     94  O   UNL A   1      53.922  41.093  27.627  1.00  0.00    -0.237 OA
ATOM     95  O   UNL A   1      55.114  39.194  28.677  1.00  0.00    -0.237 OA
ATOM     96  O   UNL A   1      56.004  40.228  26.624  1.00  0.00    -0.744 OA
ENDBRANCH  89  93
ENDBRANCH  62  86
BRANCH  74  97
ATOM     97  C   UNL A   1      45.628  39.421  28.354  1.00  0.00     0.023 A 
ATOM     98  C   UNL A   1      45.650  40.256  29.485  1.00  0.00     0.031 A 
ATOM     99  C   UNL A   1      44.969  39.888  27.202  1.00  0.00     0.131 A 
ATOM    100  C   UNL A   1      44.979  41.488  29.458  1.00  0.00     0.055 A 
ATOM    101  C   UNL A   1      44.358  41.141  27.160  1.00  0.00     0.041 A 
ATOM    102  F   UNL A   1      44.916  39.132  26.092  1.00  0.00    -0.206 F 
ATOM    103  C   UNL A   1      44.349  41.943  28.296  1.00  0.00     0.022 A 
BRANCH 100 104
ATOM    104  S   UNL A   1      44.861  42.451  30.991  1.00  0.00     0.124 S 
ATOM    105  O   UNL A   1      45.029  41.420  32.009  1.00  0.00    -0.237 OA
ATOM    106  O   UNL A   1      45.963  43.397  30.852  1.00  0.00    -0.237 OA
ATOM    107  O   UNL A   1      43.525  43.043  30.922  1.00  0.00    -0.744 OA
ENDBRANCH 100 104
ENDBRANCH  74  97
ENDBRANCH  48  49
ENDBRANCH  41  43
ENDBRANCH  40  41
ENDBRANCH  39  40
ENDBRANCH  38  39
ENDBRANCH  37  38
ENDBRANCH  36  37
ENDBRANCH  35  36
ENDBRANCH  34  35
ENDBRANCH   1  34
TORSDOF 27
ENDMDL
