MODEL 1
REMARK VINA RESULT:      -9.9      0.000      0.000
REMARK SMILES C[C@H]1[C@@H](C(=O)OCCOCCOCCOCCOC(=O)c2ccc(-c3c4nc(c(-c5cc(S(=O)(=O)[O-])ccc5F)c5ccc([nH]5)c(-c5cc(S(=O)(=O)[O-])ccc5F)c5nc(c(-c6cc(S(=O)(=O)[O-])ccc6F)c6ccc3[nH]6)C=C5)C=C4)cc2)CC[N@@H+]1CC1(O)CCCC1
REMARK SMILES IDX 12 1 11 2 10 3 9 4 8 5 7 6 6 7 4 8 5 9 3 10 1 11 2 12 86 13
REMARK SMILES IDX 84 14 85 15 87 17 88 18 90 19 93 20 91 21 92 22 89 23 13 25
REMARK SMILES IDX 14 26 15 27 16 28 17 29 18 30 19 31 20 32 21 33 22 34 83 35
REMARK SMILES IDX 23 36 82 37 24 38 25 39 26 40 76 41 27 42 81 43 75 44 77 45
REMARK SMILES IDX 28 46 80 47 74 48 73 49 29 51 61 52 41 53 60 54 42 55 45 56
REMARK SMILES IDX 59 57 78 58 43 59 44 60 58 62 79 63 46 64 30 65 31 66 39 67
REMARK SMILES IDX 32 68 38 69 40 70 37 71 33 72 34 73 35 74 36 75 62 76 63 77
REMARK SMILES IDX 71 78 64 79 70 80 72 81 69 82 65 83 66 84 67 85 68 86 47 87
REMARK SMILES IDX 48 88 56 89 49 90 55 91 57 92 54 93 50 94 51 95 52 96 53 97
REMARK H PARENT 86 16 89 24 77 50 45 61
REMARK Flexibility Score: inf
ROOT
ATOM      1  O   UNL A   1      35.252  23.279  24.943  1.00  0.00    -0.377 OA
ENDROOT
BRANCH   1   2
ATOM      2  C   UNL A   1      34.935  24.574  25.422  1.00  0.00     0.188 C 
BRANCH   2   3
ATOM      3  C   UNL A   1      34.031  25.567  24.666  1.00  0.00     0.188 C 
BRANCH   3   4
ATOM      4  O   UNL A   1      33.183  26.321  25.501  1.00  0.00    -0.376 OA
BRANCH   4   5
ATOM      5  C   UNL A   1      31.887  26.644  25.046  1.00  0.00     0.202 C 
BRANCH   5   6
ATOM      6  C   UNL A   1      30.624  26.210  25.814  1.00  0.00     0.261 C 
BRANCH   6   7
ATOM      7  O   UNL A   1      30.183  24.849  25.683  1.00  0.00    -0.463 OA
BRANCH   7   8
ATOM      8  C   UNL A   1      30.954  23.892  26.232  1.00  0.00     0.315 C 
ATOM      9  O   UNL A   1      31.389  23.950  27.380  1.00  0.00    -0.252 OA
BRANCH   8  10
ATOM     10  C   UNL A   1      31.182  22.659  25.367  1.00  0.00     0.162 C 
ATOM     11  C   UNL A   1      33.208  21.681  26.767  1.00  0.00     0.076 C 
ATOM     12  C   UNL A   1      32.177  21.517  25.654  1.00  0.00     0.195 C 
ATOM     13  N   UNL A   1      32.839  21.191  24.370  1.00  0.00    -0.330 N 
ATOM     14  C   UNL A   1      31.378  23.012  23.887  1.00  0.00     0.083 C 
ATOM     15  C   UNL A   1      32.636  22.289  23.435  1.00  0.00     0.263 C 
ATOM     16  H   UNL A   1      33.830  21.092  24.589  1.00  0.00     0.348 HD
BRANCH  13  17
ATOM     17  C   UNL A   1      32.546  19.869  23.782  1.00  0.00     0.297 C 
BRANCH  17  18
ATOM     18  C   UNL A   1      33.293  18.609  24.307  1.00  0.00     0.113 C 
ATOM     19  C   UNL A   1      33.304  17.423  23.344  1.00  0.00     0.041 C 
ATOM     20  C   UNL A   1      32.614  17.984  25.529  1.00  0.00     0.041 C 
ATOM     21  C   UNL A   1      33.644  16.213  24.199  1.00  0.00     0.003 C 
ATOM     22  C   UNL A   1      33.257  16.597  25.623  1.00  0.00     0.003 C 
BRANCH  18  23
ATOM     23  O   UNL A   1      34.621  18.953  24.733  1.00  0.00    -0.384 OA
ATOM     24  H   UNL A   1      34.850  18.438  25.523  1.00  0.00     0.211 HD
ENDBRANCH  18  23
ENDBRANCH  17  18
ENDBRANCH  13  17
ENDBRANCH   8  10
ENDBRANCH   7   8
ENDBRANCH   6   7
ENDBRANCH   5   6
ENDBRANCH   4   5
ENDBRANCH   3   4
ENDBRANCH   2   3
ENDBRANCH   1   2
BRANCH   1  25
ATOM     25  C   UNL A   1      36.133  23.152  23.847  1.00  0.00     0.188 C 
BRANCH  25  26
ATOM     26  C   UNL A   1      37.073  21.934  23.858  1.00  0.00     0.188 C 
BRANCH  26  27
ATOM     27  O   UNL A   1      37.844  21.809  25.046  1.00  0.00    -0.376 OA
BRANCH  27  28
ATOM     28  C   UNL A   1      37.974  20.520  25.628  1.00  0.00     0.202 C 
BRANCH  28  29
ATOM     29  C   UNL A   1      39.183  19.630  25.278  1.00  0.00     0.261 C 
BRANCH  29  30
ATOM     30  O   UNL A   1      40.182  19.450  26.288  1.00  0.00    -0.460 OA
BRANCH  30  31
ATOM     31  C   UNL A   1      41.403  19.979  26.041  1.00  0.00     0.338 C 
ATOM     32  O   UNL A   1      42.273  19.505  25.349  1.00  0.00    -0.246 OA
BRANCH  31  33
ATOM     33  C   UNL A   1      41.406  21.349  26.602  1.00  0.00     0.060 A 
ATOM     34  C   UNL A   1      41.103  22.418  25.749  1.00  0.00     0.016 A 
ATOM     35  C   UNL A   1      41.692  21.573  27.951  1.00  0.00     0.016 A 
ATOM     36  C   UNL A   1      41.118  23.721  26.237  1.00  0.00     0.010 A 
ATOM     37  C   UNL A   1      41.749  22.885  28.430  1.00  0.00     0.010 A 
ATOM     38  C   UNL A   1      41.506  23.963  27.560  1.00  0.00    -0.014 A 
BRANCH  38  39
ATOM     39  C   UNL A   1      41.927  25.338  27.914  1.00  0.00     0.031 A 
ATOM     40  C   UNL A   1      43.311  25.765  27.503  1.00  0.00     0.074 A 
ATOM     41  C   UNL A   1      41.079  26.213  28.482  1.00  0.00     0.049 A 
ATOM     42  N   UNL A   1      43.904  26.922  27.641  1.00  0.00    -0.248 NA
ATOM     43  C   UNL A   1      44.138  24.742  26.840  1.00  0.00     0.031 C 
ATOM     44  C   UNL A   1      39.697  25.924  28.860  1.00  0.00     0.029 A 
ATOM     45  N   UNL A   1      41.255  27.529  28.824  1.00  0.00    -0.354 N 
ATOM     46  C   UNL A   1      45.167  26.767  27.079  1.00  0.00     0.074 A 
ATOM     47  C   UNL A   1      45.271  25.392  26.644  1.00  0.00     0.031 C 
ATOM     48  C   UNL A   1      39.149  27.035  29.384  1.00  0.00     0.029 A 
ATOM     49  C   UNL A   1      40.149  28.101  29.406  1.00  0.00     0.049 A 
ATOM     50  H   UNL A   1      42.095  28.018  28.667  1.00  0.00     0.167 HD
ATOM     51  C   UNL A   1      46.146  27.692  26.926  1.00  0.00     0.034 A 
ATOM     52  C   UNL A   1      39.976  29.340  29.912  1.00  0.00     0.034 A 
ATOM     53  C   UNL A   1      46.028  29.053  27.385  1.00  0.00     0.049 A 
ATOM     54  C   UNL A   1      41.118  30.327  29.821  1.00  0.00     0.074 A 
ATOM     55  C   UNL A   1      46.954  30.076  27.294  1.00  0.00     0.029 A 
ATOM     56  N   UNL A   1      44.919  29.580  28.036  1.00  0.00    -0.354 N 
ATOM     57  N   UNL A   1      42.309  30.172  29.287  1.00  0.00    -0.248 NA
ATOM     58  C   UNL A   1      40.885  31.660  30.388  1.00  0.00     0.031 C 
ATOM     59  C   UNL A   1      46.441  31.192  27.962  1.00  0.00     0.029 A 
ATOM     60  C   UNL A   1      45.152  30.901  28.383  1.00  0.00     0.049 A 
ATOM     61  H   UNL A   1      44.087  29.087  28.222  1.00  0.00     0.167 HD
ATOM     62  C   UNL A   1      42.951  31.402  29.420  1.00  0.00     0.074 A 
ATOM     63  C   UNL A   1      42.005  32.289  30.066  1.00  0.00     0.031 C 
ATOM     64  C   UNL A   1      44.202  31.771  29.039  1.00  0.00     0.034 A 
BRANCH  51  65
ATOM     65  C   UNL A   1      47.439  27.233  26.298  1.00  0.00     0.023 A 
ATOM     66  C   UNL A   1      48.467  26.643  27.056  1.00  0.00     0.031 A 
ATOM     67  C   UNL A   1      47.666  27.430  24.924  1.00  0.00     0.131 A 
ATOM     68  C   UNL A   1      49.698  26.340  26.451  1.00  0.00     0.055 A 
ATOM     69  C   UNL A   1      48.860  27.045  24.312  1.00  0.00     0.041 A 
ATOM     70  F   UNL A   1      46.736  28.016  24.155  1.00  0.00    -0.206 F 
ATOM     71  C   UNL A   1      49.890  26.510  25.078  1.00  0.00     0.022 A 
BRANCH  68  72
ATOM     72  S   UNL A   1      51.093  25.866  27.509  1.00  0.00     0.124 S 
ATOM     73  O   UNL A   1      50.406  25.254  28.645  1.00  0.00    -0.237 OA
ATOM     74  O   UNL A   1      51.847  24.959  26.652  1.00  0.00    -0.237 OA
ATOM     75  O   UNL A   1      51.750  27.139  27.801  1.00  0.00    -0.744 OA
ENDBRANCH  68  72
ENDBRANCH  51  65
BRANCH  52  76
ATOM     76  C   UNL A   1      38.696  29.718  30.580  1.00  0.00     0.023 A 
ATOM     77  C   UNL A   1      37.727  30.494  29.924  1.00  0.00     0.031 A 
ATOM     78  C   UNL A   1      38.456  29.364  31.920  1.00  0.00     0.131 A 
ATOM     79  C   UNL A   1      36.592  30.935  30.623  1.00  0.00     0.055 A 
ATOM     80  C   UNL A   1      37.296  29.753  32.593  1.00  0.00     0.041 A 
ATOM     81  F   UNL A   1      39.350  28.629  32.601  1.00  0.00    -0.206 F 
ATOM     82  C   UNL A   1      36.362  30.557  31.948  1.00  0.00     0.022 A 
BRANCH  79  83
ATOM     83  S   UNL A   1      35.464  32.100  29.807  1.00  0.00     0.124 S 
ATOM     84  O   UNL A   1      34.906  31.274  28.743  1.00  0.00    -0.237 OA
ATOM     85  O   UNL A   1      34.555  32.451  30.892  1.00  0.00    -0.237 OA
ATOM     86  O   UNL A   1      36.349  33.175  29.365  1.00  0.00    -0.744 OA
ENDBRANCH  79  83
ENDBRANCH  52  76
BRANCH  64  87
ATOM     87  C   UNL A   1      44.595  33.213  29.266  1.00  0.00     0.023 A 
ATOM     88  C   UNL A   1      44.233  34.234  28.369  1.00  0.00     0.031 A 
ATOM     89  C   UNL A   1      45.371  33.567  30.385  1.00  0.00     0.131 A 
ATOM     90  C   UNL A   1      44.714  35.538  28.561  1.00  0.00     0.055 A 
ATOM     91  C   UNL A   1      45.778  34.882  30.615  1.00  0.00     0.041 A 
ATOM     92  F   UNL A   1      45.751  32.637  31.276  1.00  0.00    -0.206 F 
ATOM     93  C   UNL A   1      45.466  35.873  29.689  1.00  0.00     0.022 A 
BRANCH  90  94
ATOM     94  S   UNL A   1      44.461  36.760  27.244  1.00  0.00     0.124 S 
ATOM     95  O   UNL A   1      43.445  36.112  26.422  1.00  0.00    -0.237 OA
ATOM     96  O   UNL A   1      44.025  37.936  27.990  1.00  0.00    -0.237 OA
ATOM     97  O   UNL A   1      45.781  36.874  26.625  1.00  0.00    -0.744 OA
ENDBRANCH  90  94
ENDBRANCH  64  87
ENDBRANCH  38  39
ENDBRANCH  31  33
ENDBRANCH  30  31
ENDBRANCH  29  30
ENDBRANCH  28  29
ENDBRANCH  27  28
ENDBRANCH  26  27
ENDBRANCH  25  26
ENDBRANCH   1  25
TORSDOF 26
ENDMDL
MODEL 2
REMARK VINA RESULT:      -9.8      2.031      3.019
REMARK SMILES C[C@H]1[C@@H](C(=O)OCCOCCOCCOCCOC(=O)c2ccc(-c3c4nc(c(-c5cc(S(=O)(=O)[O-])ccc5F)c5ccc([nH]5)c(-c5cc(S(=O)(=O)[O-])ccc5F)c5nc(c(-c6cc(S(=O)(=O)[O-])ccc6F)c6ccc3[nH]6)C=C5)C=C4)cc2)CC[N@@H+]1CC1(O)CCCC1
REMARK SMILES IDX 12 1 11 2 10 3 9 4 8 5 7 6 6 7 4 8 5 9 3 10 1 11 2 12 86 13
REMARK SMILES IDX 84 14 85 15 87 17 88 18 90 19 93 20 91 21 92 22 89 23 13 25
REMARK SMILES IDX 14 26 15 27 16 28 17 29 18 30 19 31 20 32 21 33 22 34 83 35
REMARK SMILES IDX 23 36 82 37 24 38 25 39 26 40 76 41 27 42 81 43 75 44 77 45
REMARK SMILES IDX 28 46 80 47 74 48 73 49 29 51 61 52 41 53 60 54 42 55 45 56
REMARK SMILES IDX 59 57 78 58 43 59 44 60 58 62 79 63 46 64 30 65 31 66 39 67
REMARK SMILES IDX 32 68 38 69 40 70 37 71 33 72 34 73 35 74 36 75 62 76 63 77
REMARK SMILES IDX 71 78 64 79 70 80 72 81 69 82 65 83 66 84 67 85 68 86 47 87
REMARK SMILES IDX 48 88 56 89 49 90 55 91 57 92 54 93 50 94 51 95 52 96 53 97
REMARK H PARENT 86 16 89 24 77 50 45 61
REMARK Flexibility Score: inf
ROOT
ATOM      1  O   UNL A   1      33.258  24.111  22.968  1.00  0.00    -0.377 OA
ENDROOT
BRANCH   1   2
ATOM      2  C   UNL A   1      33.466  25.202  22.089  1.00  0.00     0.188 C 
BRANCH   2   3
ATOM      3  C   UNL A   1      32.329  26.083  21.537  1.00  0.00     0.188 C 
BRANCH   3   4
ATOM      4  O   UNL A   1      32.433  27.443  21.892  1.00  0.00    -0.376 OA
BRANCH   4   5
ATOM      5  C   UNL A   1      33.686  27.950  22.295  1.00  0.00     0.202 C 
BRANCH   5   6
ATOM      6  C   UNL A   1      33.808  29.146  23.259  1.00  0.00     0.261 C 
BRANCH   6   7
ATOM      7  O   UNL A   1      32.674  29.479  24.075  1.00  0.00    -0.463 OA
BRANCH   7   8
ATOM      8  C   UNL A   1      32.777  29.256  25.399  1.00  0.00     0.315 C 
ATOM      9  O   UNL A   1      33.328  30.033  26.175  1.00  0.00    -0.252 OA
BRANCH   8  10
ATOM     10  C   UNL A   1      32.070  28.005  25.908  1.00  0.00     0.162 C 
ATOM     11  C   UNL A   1      34.157  26.383  25.713  1.00  0.00     0.076 C 
ATOM     12  C   UNL A   1      32.726  26.637  26.180  1.00  0.00     0.195 C 
ATOM     13  N   UNL A   1      31.809  25.605  25.643  1.00  0.00    -0.330 N 
ATOM     14  C   UNL A   1      30.790  27.697  25.120  1.00  0.00     0.083 C 
ATOM     15  C   UNL A   1      30.873  26.233  24.721  1.00  0.00     0.263 C 
ATOM     16  H   UNL A   1      32.403  24.941  25.146  1.00  0.00     0.348 HD
BRANCH  13  17
ATOM     17  C   UNL A   1      31.151  24.719  26.621  1.00  0.00     0.297 C 
BRANCH  17  18
ATOM     18  C   UNL A   1      31.478  23.197  26.625  1.00  0.00     0.113 C 
ATOM     19  C   UNL A   1      32.931  22.855  26.955  1.00  0.00     0.041 C 
ATOM     20  C   UNL A   1      31.339  22.559  25.240  1.00  0.00     0.041 C 
ATOM     21  C   UNL A   1      33.133  21.434  26.456  1.00  0.00     0.003 C 
ATOM     22  C   UNL A   1      32.064  21.218  25.391  1.00  0.00     0.003 C 
BRANCH  18  23
ATOM     23  O   UNL A   1      30.564  22.488  27.474  1.00  0.00    -0.384 OA
ATOM     24  H   UNL A   1      30.095  21.817  26.954  1.00  0.00     0.211 HD
ENDBRANCH  18  23
ENDBRANCH  17  18
ENDBRANCH  13  17
ENDBRANCH   8  10
ENDBRANCH   7   8
ENDBRANCH   6   7
ENDBRANCH   5   6
ENDBRANCH   4   5
ENDBRANCH   3   4
ENDBRANCH   2   3
ENDBRANCH   1   2
BRANCH   1  25
ATOM     25  C   UNL A   1      34.191  23.051  22.974  1.00  0.00     0.188 C 
BRANCH  25  26
ATOM     26  C   UNL A   1      35.369  23.178  23.956  1.00  0.00     0.188 C 
BRANCH  26  27
ATOM     27  O   UNL A   1      36.321  22.126  23.858  1.00  0.00    -0.376 OA
BRANCH  27  28
ATOM     28  C   UNL A   1      36.336  21.139  24.878  1.00  0.00     0.202 C 
BRANCH  28  29
ATOM     29  C   UNL A   1      37.638  20.380  25.204  1.00  0.00     0.261 C 
BRANCH  29  30
ATOM     30  O   UNL A   1      38.854  21.135  25.213  1.00  0.00    -0.460 OA
BRANCH  30  31
ATOM     31  C   UNL A   1      39.754  20.833  26.178  1.00  0.00     0.338 C 
ATOM     32  O   UNL A   1      40.297  19.768  26.358  1.00  0.00    -0.246 OA
BRANCH  31  33
ATOM     33  C   UNL A   1      40.116  22.102  26.848  1.00  0.00     0.060 A 
ATOM     34  C   UNL A   1      39.396  23.258  26.520  1.00  0.00     0.016 A 
ATOM     35  C   UNL A   1      41.141  22.147  27.796  1.00  0.00     0.016 A 
ATOM     36  C   UNL A   1      39.722  24.472  27.114  1.00  0.00     0.010 A 
ATOM     37  C   UNL A   1      41.497  23.376  28.361  1.00  0.00     0.010 A 
ATOM     38  C   UNL A   1      40.816  24.548  27.985  1.00  0.00    -0.014 A 
BRANCH  38  39
ATOM     39  C   UNL A   1      41.396  25.885  28.249  1.00  0.00     0.031 A 
ATOM     40  C   UNL A   1      42.774  26.160  27.710  1.00  0.00     0.074 A 
ATOM     41  C   UNL A   1      40.687  26.856  28.851  1.00  0.00     0.049 A 
ATOM     42  N   UNL A   1      43.484  27.257  27.753  1.00  0.00    -0.248 NA
ATOM     43  C   UNL A   1      43.439  25.040  27.021  1.00  0.00     0.031 C 
ATOM     44  C   UNL A   1      39.321  26.716  29.353  1.00  0.00     0.029 A 
ATOM     45  N   UNL A   1      41.017  28.158  29.125  1.00  0.00    -0.354 N 
ATOM     46  C   UNL A   1      44.674  26.960  27.095  1.00  0.00     0.074 A 
ATOM     47  C   UNL A   1      44.609  25.569  26.707  1.00  0.00     0.031 C 
ATOM     48  C   UNL A   1      38.929  27.892  29.876  1.00  0.00     0.029 A 
ATOM     49  C   UNL A   1      40.025  28.855  29.775  1.00  0.00     0.049 A 
ATOM     50  H   UNL A   1      41.883  28.557  28.881  1.00  0.00     0.167 HD
ATOM     51  C   UNL A   1      45.720  27.779  26.826  1.00  0.00     0.034 A 
ATOM     52  C   UNL A   1      40.016  30.119  30.244  1.00  0.00     0.034 A 
ATOM     53  C   UNL A   1      45.773  29.159  27.240  1.00  0.00     0.049 A 
ATOM     54  C   UNL A   1      41.235  30.985  30.021  1.00  0.00     0.074 A 
ATOM     55  C   UNL A   1      46.782  30.082  27.033  1.00  0.00     0.029 A 
ATOM     56  N   UNL A   1      44.779  29.812  27.959  1.00  0.00    -0.354 N 
ATOM     57  N   UNL A   1      42.356  30.697  29.397  1.00  0.00    -0.248 NA
ATOM     58  C   UNL A   1      41.180  32.352  30.553  1.00  0.00     0.031 C 
ATOM     59  C   UNL A   1      46.437  31.263  27.698  1.00  0.00     0.029 A 
ATOM     60  C   UNL A   1      45.167  31.114  28.234  1.00  0.00     0.049 A 
ATOM     61  H   UNL A   1      43.924  29.409  28.232  1.00  0.00     0.167 HD
ATOM     62  C   UNL A   1      43.121  31.861  29.429  1.00  0.00     0.074 A 
ATOM     63  C   UNL A   1      42.324  32.857  30.116  1.00  0.00     0.031 C 
ATOM     64  C   UNL A   1      44.365  32.092  28.932  1.00  0.00     0.034 A 
BRANCH  51  65
ATOM     65  C   UNL A   1      46.905  27.175  26.112  1.00  0.00     0.023 A 
ATOM     66  C   UNL A   1      47.937  26.516  26.805  1.00  0.00     0.031 A 
ATOM     67  C   UNL A   1      47.027  27.301  24.717  1.00  0.00     0.131 A 
ATOM     68  C   UNL A   1      49.075  26.075  26.113  1.00  0.00     0.055 A 
ATOM     69  C   UNL A   1      48.122  26.781  24.023  1.00  0.00     0.041 A 
ATOM     70  F   UNL A   1      46.092  27.947  24.004  1.00  0.00    -0.206 F 
ATOM     71  C   UNL A   1      49.161  26.177  24.723  1.00  0.00     0.022 A 
BRANCH  68  72
ATOM     72  S   UNL A   1      50.508  25.506  27.070  1.00  0.00     0.124 S 
ATOM     73  O   UNL A   1      49.955  24.345  27.765  1.00  0.00    -0.237 OA
ATOM     74  O   UNL A   1      51.490  25.221  26.031  1.00  0.00    -0.237 OA
ATOM     75  O   UNL A   1      50.821  26.646  27.929  1.00  0.00    -0.744 OA
ENDBRANCH  68  72
ENDBRANCH  51  65
BRANCH  52  76
ATOM     76  C   UNL A   1      38.840  30.641  31.000  1.00  0.00     0.023 A 
ATOM     77  C   UNL A   1      37.861  31.434  30.379  1.00  0.00     0.031 A 
ATOM     78  C   UNL A   1      38.718  30.412  32.383  1.00  0.00     0.131 A 
ATOM     79  C   UNL A   1      36.836  32.011  31.146  1.00  0.00     0.055 A 
ATOM     80  C   UNL A   1      37.662  30.938  33.131  1.00  0.00     0.041 A 
ATOM     81  F   UNL A   1      39.628  29.669  33.032  1.00  0.00    -0.206 F 
ATOM     82  C   UNL A   1      36.721  31.755  32.515  1.00  0.00     0.022 A 
BRANCH  79  83
ATOM     83  S   UNL A   1      35.708  33.189  30.348  1.00  0.00     0.124 S 
ATOM     84  O   UNL A   1      36.589  33.832  29.381  1.00  0.00    -0.237 OA
ATOM     85  O   UNL A   1      34.687  32.304  29.798  1.00  0.00    -0.237 OA
ATOM     86  O   UNL A   1      35.266  34.037  31.453  1.00  0.00    -0.744 OA
ENDBRANCH  79  83
ENDBRANCH  52  76
BRANCH  64  87
ATOM     87  C   UNL A   1      44.912  33.496  29.069  1.00  0.00     0.023 A 
ATOM     88  C   UNL A   1      45.688  33.888  30.174  1.00  0.00     0.031 A 
ATOM     89  C   UNL A   1      44.627  34.465  28.089  1.00  0.00     0.131 A 
ATOM     90  C   UNL A   1      46.079  35.228  30.315  1.00  0.00     0.055 A 
ATOM     91  C   UNL A   1      45.089  35.777  28.194  1.00  0.00     0.041 A 
ATOM     92  F   UNL A   1      43.889  34.152  27.012  1.00  0.00    -0.206 F 
ATOM     93  C   UNL A   1      45.803  36.171  29.321  1.00  0.00     0.022 A 
BRANCH  90  94
ATOM     94  S   UNL A   1      46.832  35.754  31.879  1.00  0.00     0.124 S 
ATOM     95  O   UNL A   1      47.394  34.504  32.379  1.00  0.00    -0.237 OA
ATOM     96  O   UNL A   1      47.797  36.757  31.439  1.00  0.00    -0.237 OA
ATOM     97  O   UNL A   1      45.702  36.277  32.645  1.00  0.00    -0.744 OA
ENDBRANCH  90  94
ENDBRANCH  64  87
ENDBRANCH  38  39
ENDBRANCH  31  33
ENDBRANCH  30  31
ENDBRANCH  29  30
ENDBRANCH  28  29
ENDBRANCH  27  28
ENDBRANCH  26  27
ENDBRANCH  25  26
ENDBRANCH   1  25
TORSDOF 26
ENDMDL
MODEL 3
REMARK VINA RESULT:      -9.5      2.100      2.565
REMARK SMILES C[C@H]1[C@@H](C(=O)OCCOCCOCCOCCOC(=O)c2ccc(-c3c4nc(c(-c5cc(S(=O)(=O)[O-])ccc5F)c5ccc([nH]5)c(-c5cc(S(=O)(=O)[O-])ccc5F)c5nc(c(-c6cc(S(=O)(=O)[O-])ccc6F)c6ccc3[nH]6)C=C5)C=C4)cc2)CC[N@@H+]1CC1(O)CCCC1
REMARK SMILES IDX 12 1 11 2 10 3 9 4 8 5 7 6 6 7 4 8 5 9 3 10 1 11 2 12 86 13
REMARK SMILES IDX 84 14 85 15 87 17 88 18 90 19 93 20 91 21 92 22 89 23 13 25
REMARK SMILES IDX 14 26 15 27 16 28 17 29 18 30 19 31 20 32 21 33 22 34 83 35
REMARK SMILES IDX 23 36 82 37 24 38 25 39 26 40 76 41 27 42 81 43 75 44 77 45
REMARK SMILES IDX 28 46 80 47 74 48 73 49 29 51 61 52 41 53 60 54 42 55 45 56
REMARK SMILES IDX 59 57 78 58 43 59 44 60 58 62 79 63 46 64 30 65 31 66 39 67
REMARK SMILES IDX 32 68 38 69 40 70 37 71 33 72 34 73 35 74 36 75 62 76 63 77
REMARK SMILES IDX 71 78 64 79 70 80 72 81 69 82 65 83 66 84 67 85 68 86 47 87
REMARK SMILES IDX 48 88 56 89 49 90 55 91 57 92 54 93 50 94 51 95 52 96 53 97
REMARK H PARENT 86 16 89 24 77 50 45 61
REMARK Flexibility Score: inf
ROOT
ATOM      1  O   UNL A   1      35.948  24.004  24.936  1.00  0.00    -0.377 OA
ENDROOT
BRANCH   1   2
ATOM      2  C   UNL A   1      34.603  24.442  25.026  1.00  0.00     0.188 C 
BRANCH   2   3
ATOM      3  C   UNL A   1      34.010  25.562  24.150  1.00  0.00     0.188 C 
BRANCH   3   4
ATOM      4  O   UNL A   1      33.400  26.600  24.882  1.00  0.00    -0.376 OA
BRANCH   4   5
ATOM      5  C   UNL A   1      32.664  26.278  26.042  1.00  0.00     0.202 C 
BRANCH   5   6
ATOM      6  C   UNL A   1      31.128  26.156  26.022  1.00  0.00     0.261 C 
BRANCH   6   7
ATOM      7  O   UNL A   1      30.551  24.867  25.762  1.00  0.00    -0.463 OA
BRANCH   7   8
ATOM      8  C   UNL A   1      31.108  23.805  26.375  1.00  0.00     0.315 C 
ATOM      9  O   UNL A   1      31.395  23.788  27.570  1.00  0.00    -0.252 OA
BRANCH   8  10
ATOM     10  C   UNL A   1      31.274  22.563  25.508  1.00  0.00     0.162 C 
ATOM     11  C   UNL A   1      33.408  21.610  26.758  1.00  0.00     0.076 C 
ATOM     12  C   UNL A   1      32.295  21.428  25.730  1.00  0.00     0.195 C 
ATOM     13  N   UNL A   1      32.857  21.091  24.402  1.00  0.00    -0.330 N 
ATOM     14  C   UNL A   1      31.354  22.900  24.013  1.00  0.00     0.083 C 
ATOM     15  C   UNL A   1      32.577  22.177  23.474  1.00  0.00     0.263 C 
ATOM     16  H   UNL A   1      33.863  20.998  24.545  1.00  0.00     0.348 HD
BRANCH  13  17
ATOM     17  C   UNL A   1      32.526  19.762  23.853  1.00  0.00     0.297 C 
BRANCH  17  18
ATOM     18  C   UNL A   1      33.373  18.524  24.269  1.00  0.00     0.113 C 
ATOM     19  C   UNL A   1      33.540  17.466  23.178  1.00  0.00     0.041 C 
ATOM     20  C   UNL A   1      32.711  17.697  25.374  1.00  0.00     0.041 C 
ATOM     21  C   UNL A   1      33.964  16.201  23.905  1.00  0.00     0.003 C 
ATOM     22  C   UNL A   1      33.484  16.375  25.342  1.00  0.00     0.003 C 
BRANCH  18  23
ATOM     23  O   UNL A   1      34.642  18.937  24.800  1.00  0.00    -0.384 OA
ATOM     24  H   UNL A   1      35.104  18.168  25.167  1.00  0.00     0.211 HD
ENDBRANCH  18  23
ENDBRANCH  17  18
ENDBRANCH  13  17
ENDBRANCH   8  10
ENDBRANCH   7   8
ENDBRANCH   6   7
ENDBRANCH   5   6
ENDBRANCH   4   5
ENDBRANCH   3   4
ENDBRANCH   2   3
ENDBRANCH   1   2
BRANCH   1  25
ATOM     25  C   UNL A   1      36.311  23.124  23.893  1.00  0.00     0.188 C 
BRANCH  25  26
ATOM     26  C   UNL A   1      37.289  21.993  24.257  1.00  0.00     0.188 C 
BRANCH  26  27
ATOM     27  O   UNL A   1      37.654  21.963  25.631  1.00  0.00    -0.376 OA
BRANCH  27  28
ATOM     28  C   UNL A   1      39.009  21.694  25.958  1.00  0.00     0.202 C 
BRANCH  28  29
ATOM     29  C   UNL A   1      39.495  20.239  26.112  1.00  0.00     0.261 C 
BRANCH  29  30
ATOM     30  O   UNL A   1      40.679  19.862  25.400  1.00  0.00    -0.460 OA
BRANCH  30  31
ATOM     31  C   UNL A   1      41.774  19.577  26.142  1.00  0.00     0.338 C 
ATOM     32  O   UNL A   1      42.200  18.479  26.417  1.00  0.00    -0.246 OA
BRANCH  31  33
ATOM     33  C   UNL A   1      42.481  20.855  26.384  1.00  0.00     0.060 A 
ATOM     34  C   UNL A   1      42.695  21.257  27.709  1.00  0.00     0.016 A 
ATOM     35  C   UNL A   1      42.937  21.637  25.320  1.00  0.00     0.016 A 
ATOM     36  C   UNL A   1      43.337  22.462  27.973  1.00  0.00     0.010 A 
ATOM     37  C   UNL A   1      43.542  22.869  25.586  1.00  0.00     0.010 A 
ATOM     38  C   UNL A   1      43.702  23.302  26.915  1.00  0.00    -0.014 A 
BRANCH  38  39
ATOM     39  C   UNL A   1      43.971  24.726  27.225  1.00  0.00     0.031 A 
ATOM     40  C   UNL A   1      45.362  25.239  26.964  1.00  0.00     0.074 A 
ATOM     41  C   UNL A   1      42.993  25.559  27.620  1.00  0.00     0.049 A 
ATOM     42  N   UNL A   1      45.845  26.447  27.096  1.00  0.00    -0.248 NA
ATOM     43  C   UNL A   1      46.341  24.250  26.482  1.00  0.00     0.031 C 
ATOM     44  C   UNL A   1      41.599  25.181  27.840  1.00  0.00     0.029 A 
ATOM     45  N   UNL A   1      43.026  26.903  27.891  1.00  0.00    -0.354 N 
ATOM     46  C   UNL A   1      47.179  26.363  26.711  1.00  0.00     0.074 A 
ATOM     47  C   UNL A   1      47.440  24.978  26.386  1.00  0.00     0.031 C 
ATOM     48  C   UNL A   1      40.907  26.272  28.213  1.00  0.00     0.029 A 
ATOM     49  C   UNL A   1      41.814  27.416  28.289  1.00  0.00     0.049 A 
ATOM     50  H   UNL A   1      43.841  27.449  27.809  1.00  0.00     0.167 HD
ATOM     51  C   UNL A   1      48.098  27.354  26.620  1.00  0.00     0.034 A 
ATOM     52  C   UNL A   1      41.486  28.664  28.683  1.00  0.00     0.034 A 
ATOM     53  C   UNL A   1      47.822  28.725  26.967  1.00  0.00     0.049 A 
ATOM     54  C   UNL A   1      42.555  29.734  28.671  1.00  0.00     0.074 A 
ATOM     55  C   UNL A   1      48.675  29.813  26.924  1.00  0.00     0.029 A 
ATOM     56  N   UNL A   1      46.601  29.197  27.435  1.00  0.00    -0.354 N 
ATOM     57  N   UNL A   1      43.814  29.646  28.303  1.00  0.00    -0.248 NA
ATOM     58  C   UNL A   1      42.152  31.074  29.111  1.00  0.00     0.031 C 
ATOM     59  C   UNL A   1      47.998  30.920  27.445  1.00  0.00     0.029 A 
ATOM     60  C   UNL A   1      46.689  30.550  27.718  1.00  0.00     0.049 A 
ATOM     61  H   UNL A   1      45.791  28.649  27.548  1.00  0.00     0.167 HD
ATOM     62  C   UNL A   1      44.340  30.930  28.432  1.00  0.00     0.074 A 
ATOM     63  C   UNL A   1      43.255  31.773  28.892  1.00  0.00     0.031 C 
ATOM     64  C   UNL A   1      45.601  31.376  28.188  1.00  0.00     0.034 A 
BRANCH  51  65
ATOM     65  C   UNL A   1      49.493  26.966  26.193  1.00  0.00     0.023 A 
ATOM     66  C   UNL A   1      50.534  26.788  27.122  1.00  0.00     0.031 A 
ATOM     67  C   UNL A   1      49.798  26.816  24.829  1.00  0.00     0.131 A 
ATOM     68  C   UNL A   1      51.841  26.544  26.671  1.00  0.00     0.055 A 
ATOM     69  C   UNL A   1      51.082  26.486  24.392  1.00  0.00     0.041 A 
ATOM     70  F   UNL A   1      48.854  27.005  23.893  1.00  0.00    -0.206 F 
ATOM     71  C   UNL A   1      52.116  26.363  25.314  1.00  0.00     0.022 A 
BRANCH  68  72
ATOM     72  S   UNL A   1      53.202  26.619  27.869  1.00  0.00     0.124 S 
ATOM     73  O   UNL A   1      52.525  26.242  29.107  1.00  0.00    -0.237 OA
ATOM     74  O   UNL A   1      54.148  25.647  27.335  1.00  0.00    -0.237 OA
ATOM     75  O   UNL A   1      53.638  28.013  27.805  1.00  0.00    -0.744 OA
ENDBRANCH  68  72
ENDBRANCH  51  65
BRANCH  52  76
ATOM     76  C   UNL A   1      40.105  28.974  29.157  1.00  0.00     0.023 A 
ATOM     77  C   UNL A   1      39.777  28.954  30.522  1.00  0.00     0.031 A 
ATOM     78  C   UNL A   1      39.071  29.225  28.238  1.00  0.00     0.131 A 
ATOM     79  C   UNL A   1      38.443  29.128  30.925  1.00  0.00     0.055 A 
ATOM     80  C   UNL A   1      37.756  29.458  28.647  1.00  0.00     0.041 A 
ATOM     81  F   UNL A   1      39.323  29.247  26.919  1.00  0.00    -0.206 F 
ATOM     82  C   UNL A   1      37.433  29.395  29.998  1.00  0.00     0.022 A 
BRANCH  79  83
ATOM     83  S   UNL A   1      38.024  28.897  32.677  1.00  0.00     0.124 S 
ATOM     84  O   UNL A   1      39.043  29.708  33.333  1.00  0.00    -0.237 OA
ATOM     85  O   UNL A   1      36.660  29.411  32.731  1.00  0.00    -0.237 OA
ATOM     86  O   UNL A   1      38.153  27.454  32.868  1.00  0.00    -0.744 OA
ENDBRANCH  79  83
ENDBRANCH  52  76
BRANCH  64  87
ATOM     87  C   UNL A   1      45.853  32.857  28.364  1.00  0.00     0.023 A 
ATOM     88  C   UNL A   1      46.228  33.407  29.602  1.00  0.00     0.031 A 
ATOM     89  C   UNL A   1      45.687  33.736  27.278  1.00  0.00     0.131 A 
ATOM     90  C   UNL A   1      46.342  34.798  29.745  1.00  0.00     0.055 A 
ATOM     91  C   UNL A   1      45.883  35.112  27.406  1.00  0.00     0.041 A 
ATOM     92  F   UNL A   1      45.327  33.272  26.070  1.00  0.00    -0.206 F 
ATOM     93  C   UNL A   1      46.194  35.653  28.650  1.00  0.00     0.022 A 
BRANCH  90  94
ATOM     94  S   UNL A   1      46.550  35.486  31.411  1.00  0.00     0.124 S 
ATOM     95  O   UNL A   1      45.824  34.521  32.229  1.00  0.00    -0.237 OA
ATOM     96  O   UNL A   1      48.001  35.491  31.567  1.00  0.00    -0.237 OA
ATOM     97  O   UNL A   1      45.934  36.808  31.314  1.00  0.00    -0.744 OA
ENDBRANCH  90  94
ENDBRANCH  64  87
ENDBRANCH  38  39
ENDBRANCH  31  33
ENDBRANCH  30  31
ENDBRANCH  29  30
ENDBRANCH  28  29
ENDBRANCH  27  28
ENDBRANCH  26  27
ENDBRANCH  25  26
ENDBRANCH   1  25
TORSDOF 26
ENDMDL
