MODEL 1
REMARK VINA RESULT:      -8.3      0.000      0.000
REMARK SMILES NS(=O)(=O)c1ccc(-n2nc(C(F)(F)F)cc2-c2ccc(CC(=O)OCCOCCOCCOCCOC(=O)c3ccc(-c4c5nc(c(-c6cc(S(=O)(=O)[O-])ccc6F)c6ccc([nH]6)c(-c6cc(S(=O)(=O)[O-])ccc6F)c6nc(c(-c7cc(S(=O)(=O)[O-])ccc7F)c7ccc4[nH]7)C=C6)C=C5)cc3)cc2)cc1
REMARK SMILES IDX 30 1 29 2 28 3 27 4 26 5 25 6 23 7 24 8 22 9 21 10 18 11
REMARK SMILES IDX 19 12 104 13 20 14 103 15 17 16 9 17 10 18 11 19 16 20 8 21
REMARK SMILES IDX 5 22 6 23 106 24 7 25 105 26 2 27 3 28 4 29 1 30 12 33 13 34
REMARK SMILES IDX 14 35 15 36 31 37 32 38 33 39 34 40 35 41 36 42 37 43 38 44
REMARK SMILES IDX 39 45 40 46 41 47 102 48 42 49 101 50 43 51 44 52 45 53
REMARK SMILES IDX 95 54 46 55 100 56 94 57 96 58 47 59 99 60 93 61 92 62 48 64
REMARK SMILES IDX 80 65 60 66 79 67 61 68 64 69 78 70 97 71 62 72 63 73 77 75
REMARK SMILES IDX 98 76 65 77 49 78 50 79 58 80 51 81 57 82 59 83 56 84 52 85
REMARK SMILES IDX 53 86 54 87 55 88 81 89 82 90 90 91 83 92 89 93 91 94 88 95
REMARK SMILES IDX 84 96 85 97 86 98 87 99 66 100 67 101 75 102 68 103 74 104
REMARK SMILES IDX 76 105 73 106 69 107 70 108 71 109 72 110
REMARK H PARENT 1 31 1 32 96 63 64 74
REMARK Flexibility Score: inf
ROOT
ATOM      1  C   UNL A   1      41.308  31.864  32.094  1.00  0.00     0.188 C 
ENDROOT
BRANCH   1   2
ATOM      2  C   UNL A   1      41.835  30.526  32.616  1.00  0.00     0.188 C 
BRANCH   2   3
ATOM      3  O   UNL A   1      41.891  30.439  34.025  1.00  0.00    -0.376 OA
BRANCH   3   4
ATOM      4  C   UNL A   1      41.048  29.474  34.640  1.00  0.00     0.202 C 
BRANCH   4   5
ATOM      5  C   UNL A   1      41.680  28.211  35.268  1.00  0.00     0.261 C 
BRANCH   5   6
ATOM      6  O   UNL A   1      41.273  26.931  34.722  1.00  0.00    -0.463 OA
BRANCH   6   7
ATOM      7  C   UNL A   1      41.890  25.822  35.171  1.00  0.00     0.310 C 
ATOM      8  O   UNL A   1      41.540  25.229  36.189  1.00  0.00    -0.252 OA
BRANCH   7   9
ATOM      9  C   UNL A   1      43.039  25.309  34.317  1.00  0.00     0.158 C 
BRANCH   9  10
ATOM     10  C   UNL A   1      44.095  24.314  34.801  1.00  0.00    -0.037 A 
ATOM     11  C   UNL A   1      45.818  22.393  36.102  1.00  0.00     0.000 A 
ATOM     12  C   UNL A   1      44.757  21.981  35.288  1.00  0.00     0.010 A 
ATOM     13  C   UNL A   1      46.023  23.781  36.219  1.00  0.00     0.010 A 
ATOM     14  C   UNL A   1      43.908  22.924  34.657  1.00  0.00     0.005 A 
ATOM     15  C   UNL A   1      45.187  24.725  35.572  1.00  0.00     0.005 A 
BRANCH  11  16
ATOM     16  C   UNL A   1      46.579  21.440  36.958  1.00  0.00     0.075 A 
ATOM     17  N   UNL A   1      47.835  20.833  36.750  1.00  0.00    -0.233 N 
ATOM     18  N   UNL A   1      48.049  19.827  37.634  1.00  0.00    -0.163 NA
ATOM     19  C   UNL A   1      47.088  19.926  38.555  1.00  0.00     0.167 A 
ATOM     20  C   UNL A   1      46.123  20.874  38.146  1.00  0.00     0.064 A 
BRANCH  17  21
ATOM     21  C   UNL A   1      48.908  21.135  35.866  1.00  0.00     0.065 A 
ATOM     22  C   UNL A   1      51.109  21.657  34.146  1.00  0.00     0.082 A 
ATOM     23  C   UNL A   1      50.605  22.579  35.046  1.00  0.00     0.024 A 
ATOM     24  C   UNL A   1      50.536  20.399  34.160  1.00  0.00     0.024 A 
ATOM     25  C   UNL A   1      49.498  22.375  35.874  1.00  0.00     0.030 A 
ATOM     26  C   UNL A   1      49.471  20.130  35.042  1.00  0.00     0.030 A 
BRANCH  22  27
ATOM     27  S   UNL A   1      52.430  22.041  33.006  1.00  0.00     0.238 S 
ATOM     28  O   UNL A   1      52.653  23.478  33.108  1.00  0.00    -0.207 OA
ATOM     29  O   UNL A   1      52.217  21.353  31.780  1.00  0.00    -0.207 OA
BRANCH  27  30
ATOM     30  N   UNL A   1      53.861  21.388  33.602  1.00  0.00    -0.225 NA
ATOM     31  H   UNL A   1      54.526  22.139  33.788  1.00  0.00     0.137 HD
ATOM     32  H   UNL A   1      54.255  20.748  32.913  1.00  0.00     0.137 HD
ENDBRANCH  27  30
ENDBRANCH  22  27
ENDBRANCH  17  21
BRANCH  19  33
ATOM     33  C   UNL A   1      47.095  19.093  39.808  1.00  0.00     0.435 C 
ATOM     34  F   UNL A   1      47.741  17.906  39.672  1.00  0.00    -0.164 F 
ATOM     35  F   UNL A   1      47.682  19.751  40.844  1.00  0.00    -0.164 F 
ATOM     36  F   UNL A   1      45.828  18.796  40.215  1.00  0.00    -0.164 F 
ENDBRANCH  19  33
ENDBRANCH  11  16
ENDBRANCH   9  10
ENDBRANCH   7   9
ENDBRANCH   6   7
ENDBRANCH   5   6
ENDBRANCH   4   5
ENDBRANCH   3   4
ENDBRANCH   2   3
ENDBRANCH   1   2
BRANCH   1  37
ATOM     37  O   UNL A   1      40.793  32.825  33.007  1.00  0.00    -0.377 OA
BRANCH  37  38
ATOM     38  C   UNL A   1      39.391  33.068  33.107  1.00  0.00     0.188 C 
BRANCH  38  39
ATOM     39  C   UNL A   1      38.616  33.538  31.875  1.00  0.00     0.188 C 
BRANCH  39  40
ATOM     40  O   UNL A   1      37.714  32.563  31.395  1.00  0.00    -0.376 OA
BRANCH  40  41
ATOM     41  C   UNL A   1      37.359  31.626  32.388  1.00  0.00     0.202 C 
BRANCH  41  42
ATOM     42  C   UNL A   1      36.387  30.481  32.054  1.00  0.00     0.261 C 
BRANCH  42  43
ATOM     43  O   UNL A   1      36.645  29.323  31.208  1.00  0.00    -0.460 OA
BRANCH  43  44
ATOM     44  C   UNL A   1      36.780  29.390  29.855  1.00  0.00     0.338 C 
ATOM     45  O   UNL A   1      35.891  29.818  29.131  1.00  0.00    -0.246 OA
BRANCH  44  46
ATOM     46  C   UNL A   1      38.087  28.901  29.291  1.00  0.00     0.060 A 
ATOM     47  C   UNL A   1      38.929  28.220  30.174  1.00  0.00     0.016 A 
ATOM     48  C   UNL A   1      38.601  29.258  28.040  1.00  0.00     0.016 A 
ATOM     49  C   UNL A   1      40.313  28.206  29.957  1.00  0.00     0.010 A 
ATOM     50  C   UNL A   1      40.000  29.267  27.836  1.00  0.00     0.010 A 
ATOM     51  C   UNL A   1      40.884  28.837  28.839  1.00  0.00    -0.014 A 
BRANCH  51  52
ATOM     52  C   UNL A   1      42.328  28.586  28.578  1.00  0.00     0.031 A 
ATOM     53  C   UNL A   1      42.449  27.208  28.070  1.00  0.00     0.074 A 
ATOM     54  C   UNL A   1      43.462  29.328  28.640  1.00  0.00     0.049 A 
ATOM     55  N   UNL A   1      42.726  26.151  28.758  1.00  0.00    -0.248 NA
ATOM     56  C   UNL A   1      41.903  26.948  26.729  1.00  0.00     0.031 C 
ATOM     57  C   UNL A   1      43.583  30.761  28.854  1.00  0.00     0.029 A 
ATOM     58  N   UNL A   1      44.788  28.953  28.470  1.00  0.00    -0.354 N 
ATOM     59  C   UNL A   1      42.660  25.132  27.824  1.00  0.00     0.074 A 
ATOM     60  C   UNL A   1      41.825  25.619  26.766  1.00  0.00     0.031 C 
ATOM     61  C   UNL A   1      44.850  31.176  28.624  1.00  0.00     0.029 A 
ATOM     62  C   UNL A   1      45.691  30.019  28.367  1.00  0.00     0.049 A 
ATOM     63  H   UNL A   1      45.070  28.010  28.424  1.00  0.00     0.167 HD
ATOM     64  C   UNL A   1      43.638  24.193  27.779  1.00  0.00     0.034 A 
ATOM     65  C   UNL A   1      47.034  29.997  28.118  1.00  0.00     0.034 A 
ATOM     66  C   UNL A   1      44.364  24.139  29.031  1.00  0.00     0.049 A 
ATOM     67  C   UNL A   1      47.557  28.678  28.531  1.00  0.00     0.074 A 
ATOM     68  C   UNL A   1      44.105  23.723  30.319  1.00  0.00     0.029 A 
ATOM     69  N   UNL A   1      45.486  24.927  29.087  1.00  0.00    -0.354 N 
ATOM     70  N   UNL A   1      47.628  28.292  29.773  1.00  0.00    -0.248 NA
ATOM     71  C   UNL A   1      47.766  27.632  27.537  1.00  0.00     0.031 C 
ATOM     72  C   UNL A   1      45.041  24.389  31.165  1.00  0.00     0.029 A 
ATOM     73  C   UNL A   1      45.871  25.183  30.381  1.00  0.00     0.049 A 
ATOM     74  H   UNL A   1      45.959  25.269  28.294  1.00  0.00     0.167 HD
ATOM     75  C   UNL A   1      47.479  26.925  29.717  1.00  0.00     0.074 A 
ATOM     76  C   UNL A   1      47.735  26.559  28.332  1.00  0.00     0.031 C 
ATOM     77  C   UNL A   1      46.794  26.264  30.691  1.00  0.00     0.034 A 
BRANCH  64  78
ATOM     78  C   UNL A   1      44.245  23.687  26.477  1.00  0.00     0.023 A 
ATOM     79  C   UNL A   1      44.031  22.332  26.172  1.00  0.00     0.031 A 
ATOM     80  C   UNL A   1      45.207  24.344  25.664  1.00  0.00     0.131 A 
ATOM     81  C   UNL A   1      44.793  21.683  25.183  1.00  0.00     0.055 A 
ATOM     82  C   UNL A   1      45.931  23.704  24.657  1.00  0.00     0.041 A 
ATOM     83  F   UNL A   1      45.575  25.618  25.825  1.00  0.00    -0.206 F 
ATOM     84  C   UNL A   1      45.747  22.358  24.428  1.00  0.00     0.022 A 
BRANCH  81  85
ATOM     85  S   UNL A   1      44.594  19.901  24.978  1.00  0.00     0.124 S 
ATOM     86  O   UNL A   1      43.391  19.647  25.763  1.00  0.00    -0.237 OA
ATOM     87  O   UNL A   1      44.461  19.783  23.530  1.00  0.00    -0.237 OA
ATOM     88  O   UNL A   1      45.832  19.358  25.534  1.00  0.00    -0.744 OA
ENDBRANCH  81  85
ENDBRANCH  64  78
BRANCH  65  89
ATOM     89  C   UNL A   1      47.926  31.009  27.468  1.00  0.00     0.023 A 
ATOM     90  C   UNL A   1      47.424  32.148  26.788  1.00  0.00     0.031 A 
ATOM     91  C   UNL A   1      49.308  31.008  27.746  1.00  0.00     0.131 A 
ATOM     92  C   UNL A   1      48.283  33.220  26.442  1.00  0.00     0.055 A 
ATOM     93  C   UNL A   1      50.154  32.066  27.396  1.00  0.00     0.041 A 
ATOM     94  F   UNL A   1      49.872  30.016  28.453  1.00  0.00    -0.206 F 
ATOM     95  C   UNL A   1      49.642  33.184  26.755  1.00  0.00     0.022 A 
BRANCH  92  96
ATOM     96  S   UNL A   1      47.620  34.749  25.695  1.00  0.00     0.124 S 
ATOM     97  O   UNL A   1      48.710  35.170  24.823  1.00  0.00    -0.237 OA
ATOM     98  O   UNL A   1      46.404  34.282  25.038  1.00  0.00    -0.237 OA
ATOM     99  O   UNL A   1      47.388  35.620  26.849  1.00  0.00    -0.744 OA
ENDBRANCH  92  96
ENDBRANCH  65  89
BRANCH  77 100
ATOM    100  C   UNL A   1      46.930  26.764  32.111  1.00  0.00     0.023 A 
ATOM    101  C   UNL A   1      46.291  27.897  32.659  1.00  0.00     0.031 A 
ATOM    102  C   UNL A   1      47.784  26.029  32.956  1.00  0.00     0.131 A 
ATOM    103  C   UNL A   1      46.518  28.251  34.006  1.00  0.00     0.055 A 
ATOM    104  C   UNL A   1      47.992  26.371  34.292  1.00  0.00     0.041 A 
ATOM    105  F   UNL A   1      48.438  24.950  32.496  1.00  0.00    -0.206 F 
ATOM    106  C   UNL A   1      47.361  27.489  34.820  1.00  0.00     0.022 A 
BRANCH 103 107
ATOM    107  S   UNL A   1      45.745  29.738  34.723  1.00  0.00     0.124 S 
ATOM    108  O   UNL A   1      45.161  30.410  33.570  1.00  0.00    -0.237 OA
ATOM    109  O   UNL A   1      44.805  29.166  35.682  1.00  0.00    -0.237 OA
ATOM    110  O   UNL A   1      46.874  30.446  35.333  1.00  0.00    -0.744 OA
ENDBRANCH 103 107
ENDBRANCH  77 100
ENDBRANCH  51  52
ENDBRANCH  44  46
ENDBRANCH  43  44
ENDBRANCH  42  43
ENDBRANCH  41  42
ENDBRANCH  40  41
ENDBRANCH  39  40
ENDBRANCH  38  39
ENDBRANCH  37  38
ENDBRANCH   1  37
TORSDOF 29
ENDMDL
MODEL 2
REMARK VINA RESULT:      -8.3      3.334      8.664
REMARK SMILES NS(=O)(=O)c1ccc(-n2nc(C(F)(F)F)cc2-c2ccc(CC(=O)OCCOCCOCCOCCOC(=O)c3ccc(-c4c5nc(c(-c6cc(S(=O)(=O)[O-])ccc6F)c6ccc([nH]6)c(-c6cc(S(=O)(=O)[O-])ccc6F)c6nc(c(-c7cc(S(=O)(=O)[O-])ccc7F)c7ccc4[nH]7)C=C6)C=C5)cc3)cc2)cc1
REMARK SMILES IDX 30 1 29 2 28 3 27 4 26 5 25 6 23 7 24 8 22 9 21 10 18 11
REMARK SMILES IDX 19 12 104 13 20 14 103 15 17 16 9 17 10 18 11 19 16 20 8 21
REMARK SMILES IDX 5 22 6 23 106 24 7 25 105 26 2 27 3 28 4 29 1 30 12 33 13 34
REMARK SMILES IDX 14 35 15 36 31 37 32 38 33 39 34 40 35 41 36 42 37 43 38 44
REMARK SMILES IDX 39 45 40 46 41 47 102 48 42 49 101 50 43 51 44 52 45 53
REMARK SMILES IDX 95 54 46 55 100 56 94 57 96 58 47 59 99 60 93 61 92 62 48 64
REMARK SMILES IDX 80 65 60 66 79 67 61 68 64 69 78 70 97 71 62 72 63 73 77 75
REMARK SMILES IDX 98 76 65 77 49 78 50 79 58 80 51 81 57 82 59 83 56 84 52 85
REMARK SMILES IDX 53 86 54 87 55 88 81 89 82 90 90 91 83 92 89 93 91 94 88 95
REMARK SMILES IDX 84 96 85 97 86 98 87 99 66 100 67 101 75 102 68 103 74 104
REMARK SMILES IDX 76 105 73 106 69 107 70 108 71 109 72 110
REMARK H PARENT 1 31 1 32 96 63 64 74
REMARK Flexibility Score: inf
ROOT
ATOM      1  C   UNL A   1      50.211  27.285  27.882  1.00  0.00     0.188 C 
ENDROOT
BRANCH   1   2
ATOM      2  C   UNL A   1      50.047  26.867  29.345  1.00  0.00     0.188 C 
BRANCH   2   3
ATOM      3  O   UNL A   1      49.236  25.724  29.530  1.00  0.00    -0.376 OA
BRANCH   3   4
ATOM      4  C   UNL A   1      47.903  25.950  29.970  1.00  0.00     0.202 C 
BRANCH   4   5
ATOM      5  C   UNL A   1      47.632  26.161  31.476  1.00  0.00     0.261 C 
BRANCH   5   6
ATOM      6  O   UNL A   1      46.773  25.195  32.133  1.00  0.00    -0.463 OA
BRANCH   6   7
ATOM      7  C   UNL A   1      45.717  25.652  32.832  1.00  0.00     0.310 C 
ATOM      8  O   UNL A   1      45.507  26.849  33.016  1.00  0.00    -0.252 OA
BRANCH   7   9
ATOM      9  C   UNL A   1      44.759  24.594  33.357  1.00  0.00     0.158 C 
BRANCH   9  10
ATOM     10  C   UNL A   1      45.098  23.603  34.470  1.00  0.00    -0.037 A 
ATOM     11  C   UNL A   1      46.189  21.787  36.438  1.00  0.00     0.000 A 
ATOM     12  C   UNL A   1      46.066  23.155  36.702  1.00  0.00     0.010 A 
ATOM     13  C   UNL A   1      45.719  21.342  35.187  1.00  0.00     0.010 A 
ATOM     14  C   UNL A   1      45.538  24.046  35.734  1.00  0.00     0.005 A 
ATOM     15  C   UNL A   1      45.173  22.227  34.226  1.00  0.00     0.005 A 
BRANCH  11  16
ATOM     16  C   UNL A   1      46.946  20.870  37.334  1.00  0.00     0.075 A 
ATOM     17  N   UNL A   1      48.177  20.211  37.133  1.00  0.00    -0.233 N 
ATOM     18  N   UNL A   1      48.388  19.260  38.075  1.00  0.00    -0.163 NA
ATOM     19  C   UNL A   1      47.458  19.449  39.014  1.00  0.00     0.167 A 
ATOM     20  C   UNL A   1      46.509  20.397  38.569  1.00  0.00     0.064 A 
BRANCH  17  21
ATOM     21  C   UNL A   1      49.232  20.421  36.201  1.00  0.00     0.065 A 
ATOM     22  C   UNL A   1      51.320  20.951  34.348  1.00  0.00     0.082 A 
ATOM     23  C   UNL A   1      50.192  20.213  34.039  1.00  0.00     0.024 A 
ATOM     24  C   UNL A   1      51.372  21.508  35.611  1.00  0.00     0.024 A 
ATOM     25  C   UNL A   1      49.168  19.894  34.934  1.00  0.00     0.030 A 
ATOM     26  C   UNL A   1      50.315  21.278  36.516  1.00  0.00     0.030 A 
BRANCH  22  27
ATOM     27  S   UNL A   1      52.665  21.186  33.196  1.00  0.00     0.238 S 
ATOM     28  O   UNL A   1      53.603  22.097  33.841  1.00  0.00    -0.207 OA
ATOM     29  O   UNL A   1      52.145  21.376  31.886  1.00  0.00    -0.207 OA
BRANCH  27  30
ATOM     30  N   UNL A   1      53.538  19.752  33.088  1.00  0.00    -0.225 NA
ATOM     31  H   UNL A   1      53.128  19.158  32.368  1.00  0.00     0.137 HD
ATOM     32  H   UNL A   1      53.508  19.267  33.985  1.00  0.00     0.137 HD
ENDBRANCH  27  30
ENDBRANCH  22  27
ENDBRANCH  17  21
BRANCH  19  33
ATOM     33  C   UNL A   1      47.477  18.700  40.319  1.00  0.00     0.435 C 
ATOM     34  F   UNL A   1      47.494  19.506  41.412  1.00  0.00    -0.164 F 
ATOM     35  F   UNL A   1      46.397  17.883  40.442  1.00  0.00    -0.164 F 
ATOM     36  F   UNL A   1      48.574  17.898  40.416  1.00  0.00    -0.164 F 
ENDBRANCH  19  33
ENDBRANCH  11  16
ENDBRANCH   9  10
ENDBRANCH   7   9
ENDBRANCH   6   7
ENDBRANCH   5   6
ENDBRANCH   4   5
ENDBRANCH   3   4
ENDBRANCH   2   3
ENDBRANCH   1   2
BRANCH   1  37
ATOM     37  O   UNL A   1      49.069  27.650  27.119  1.00  0.00    -0.377 OA
BRANCH  37  38
ATOM     38  C   UNL A   1      48.596  26.822  26.058  1.00  0.00     0.188 C 
BRANCH  38  39
ATOM     39  C   UNL A   1      48.315  25.342  26.322  1.00  0.00     0.188 C 
BRANCH  39  40
ATOM     40  O   UNL A   1      46.988  24.976  26.006  1.00  0.00    -0.376 OA
BRANCH  40  41
ATOM     41  C   UNL A   1      46.436  24.092  26.957  1.00  0.00     0.202 C 
BRANCH  41  42
ATOM     42  C   UNL A   1      45.514  22.947  26.500  1.00  0.00     0.261 C 
BRANCH  42  43
ATOM     43  O   UNL A   1      44.189  22.623  27.014  1.00  0.00    -0.460 OA
BRANCH  43  44
ATOM     44  C   UNL A   1      43.042  23.203  26.567  1.00  0.00     0.338 C 
ATOM     45  O   UNL A   1      42.482  22.837  25.542  1.00  0.00    -0.246 OA
BRANCH  44  46
ATOM     46  C   UNL A   1      42.497  24.331  27.401  1.00  0.00     0.060 A 
ATOM     47  C   UNL A   1      41.510  25.122  26.808  1.00  0.00     0.016 A 
ATOM     48  C   UNL A   1      43.045  24.766  28.612  1.00  0.00     0.016 A 
ATOM     49  C   UNL A   1      41.331  26.450  27.219  1.00  0.00     0.010 A 
ATOM     50  C   UNL A   1      42.882  26.114  29.009  1.00  0.00     0.010 A 
ATOM     51  C   UNL A   1      42.103  27.005  28.253  1.00  0.00    -0.014 A 
BRANCH  51  52
ATOM     52  C   UNL A   1      41.697  28.342  28.765  1.00  0.00     0.031 A 
ATOM     53  C   UNL A   1      42.724  29.308  28.338  1.00  0.00     0.074 A 
ATOM     54  C   UNL A   1      40.623  28.833  29.434  1.00  0.00     0.049 A 
ATOM     55  N   UNL A   1      43.738  29.715  29.027  1.00  0.00    -0.248 NA
ATOM     56  C   UNL A   1      42.797  29.602  26.899  1.00  0.00     0.031 C 
ATOM     57  C   UNL A   1      39.372  28.156  29.738  1.00  0.00     0.029 A 
ATOM     58  N   UNL A   1      40.396  30.098  29.958  1.00  0.00    -0.354 N 
ATOM     59  C   UNL A   1      44.406  30.555  28.153  1.00  0.00     0.074 A 
ATOM     60  C   UNL A   1      44.008  30.152  26.837  1.00  0.00     0.031 C 
ATOM     61  C   UNL A   1      38.456  29.030  30.212  1.00  0.00     0.029 A 
ATOM     62  C   UNL A   1      39.081  30.332  30.381  1.00  0.00     0.049 A 
ATOM     63  H   UNL A   1      41.105  30.778  30.027  1.00  0.00     0.167 HD
ATOM     64  C   UNL A   1      44.844  31.766  28.582  1.00  0.00     0.034 A 
ATOM     65  C   UNL A   1      38.514  31.478  30.860  1.00  0.00     0.034 A 
ATOM     66  C   UNL A   1      44.954  31.795  30.025  1.00  0.00     0.049 A 
ATOM     67  C   UNL A   1      39.588  32.319  31.430  1.00  0.00     0.074 A 
ATOM     68  C   UNL A   1      45.775  31.227  30.976  1.00  0.00     0.029 A 
ATOM     69  N   UNL A   1      43.843  32.257  30.684  1.00  0.00    -0.354 N 
ATOM     70  N   UNL A   1      40.241  32.008  32.514  1.00  0.00    -0.248 NA
ATOM     71  C   UNL A   1      40.157  33.408  30.646  1.00  0.00     0.031 C 
ATOM     72  C   UNL A   1      45.059  31.257  32.211  1.00  0.00     0.029 A 
ATOM     73  C   UNL A   1      43.825  31.863  32.001  1.00  0.00     0.049 A 
ATOM     74  H   UNL A   1      43.142  32.807  30.265  1.00  0.00     0.167 HD
ATOM     75  C   UNL A   1      41.487  32.563  32.333  1.00  0.00     0.074 A 
ATOM     76  C   UNL A   1      41.331  33.540  31.266  1.00  0.00     0.031 C 
ATOM     77  C   UNL A   1      42.601  31.922  32.786  1.00  0.00     0.034 A 
BRANCH  64  78
ATOM     78  C   UNL A   1      44.698  33.041  27.762  1.00  0.00     0.023 A 
ATOM     79  C   UNL A   1      43.804  34.004  28.256  1.00  0.00     0.031 A 
ATOM     80  C   UNL A   1      45.159  33.268  26.438  1.00  0.00     0.131 A 
ATOM     81  C   UNL A   1      43.352  35.059  27.443  1.00  0.00     0.055 A 
ATOM     82  C   UNL A   1      44.738  34.340  25.648  1.00  0.00     0.041 A 
ATOM     83  F   UNL A   1      45.982  32.445  25.782  1.00  0.00    -0.206 F 
ATOM     84  C   UNL A   1      43.807  35.230  26.139  1.00  0.00     0.022 A 
BRANCH  81  85
ATOM     85  S   UNL A   1      42.062  36.147  28.084  1.00  0.00     0.124 S 
ATOM     86  O   UNL A   1      42.037  37.201  27.077  1.00  0.00    -0.237 OA
ATOM     87  O   UNL A   1      40.909  35.252  28.115  1.00  0.00    -0.237 OA
ATOM     88  O   UNL A   1      42.576  36.542  29.393  1.00  0.00    -0.744 OA
ENDBRANCH  81  85
ENDBRANCH  64  78
BRANCH  65  89
ATOM     89  C   UNL A   1      37.100  31.969  30.805  1.00  0.00     0.023 A 
ATOM     90  C   UNL A   1      36.383  32.371  31.962  1.00  0.00     0.031 A 
ATOM     91  C   UNL A   1      36.523  32.310  29.565  1.00  0.00     0.131 A 
ATOM     92  C   UNL A   1      35.170  33.093  31.845  1.00  0.00     0.055 A 
ATOM     93  C   UNL A   1      35.321  33.017  29.455  1.00  0.00     0.041 A 
ATOM     94  F   UNL A   1      37.156  32.047  28.411  1.00  0.00    -0.206 F 
ATOM     95  C   UNL A   1      34.646  33.425  30.595  1.00  0.00     0.022 A 
BRANCH  92  96
ATOM     96  S   UNL A   1      34.315  33.735  33.327  1.00  0.00     0.124 S 
ATOM     97  O   UNL A   1      34.400  35.177  33.137  1.00  0.00    -0.237 OA
ATOM     98  O   UNL A   1      32.989  33.139  33.212  1.00  0.00    -0.237 OA
ATOM     99  O   UNL A   1      35.119  33.215  34.436  1.00  0.00    -0.744 OA
ENDBRANCH  92  96
ENDBRANCH  65  89
BRANCH  77 100
ATOM    100  C   UNL A   1      42.497  31.167  34.091  1.00  0.00     0.023 A 
ATOM    101  C   UNL A   1      42.327  29.773  34.235  1.00  0.00     0.031 A 
ATOM    102  C   UNL A   1      42.569  31.936  35.269  1.00  0.00     0.131 A 
ATOM    103  C   UNL A   1      42.239  29.202  35.522  1.00  0.00     0.055 A 
ATOM    104  C   UNL A   1      42.501  31.366  36.540  1.00  0.00     0.041 A 
ATOM    105  F   UNL A   1      42.714  33.269  35.207  1.00  0.00    -0.206 F 
ATOM    106  C   UNL A   1      42.330  29.995  36.670  1.00  0.00     0.022 A 
BRANCH 103 107
ATOM    107  S   UNL A   1      41.968  27.413  35.733  1.00  0.00     0.124 S 
ATOM    108  O   UNL A   1      41.274  27.320  37.011  1.00  0.00    -0.237 OA
ATOM    109  O   UNL A   1      41.184  27.077  34.548  1.00  0.00    -0.237 OA
ATOM    110  O   UNL A   1      43.325  26.862  35.736  1.00  0.00    -0.744 OA
ENDBRANCH 103 107
ENDBRANCH  77 100
ENDBRANCH  51  52
ENDBRANCH  44  46
ENDBRANCH  43  44
ENDBRANCH  42  43
ENDBRANCH  41  42
ENDBRANCH  40  41
ENDBRANCH  39  40
ENDBRANCH  38  39
ENDBRANCH  37  38
ENDBRANCH   1  37
TORSDOF 29
ENDMDL
MODEL 3
REMARK VINA RESULT:      -8.2      2.292      3.467
REMARK SMILES NS(=O)(=O)c1ccc(-n2nc(C(F)(F)F)cc2-c2ccc(CC(=O)OCCOCCOCCOCCOC(=O)c3ccc(-c4c5nc(c(-c6cc(S(=O)(=O)[O-])ccc6F)c6ccc([nH]6)c(-c6cc(S(=O)(=O)[O-])ccc6F)c6nc(c(-c7cc(S(=O)(=O)[O-])ccc7F)c7ccc4[nH]7)C=C6)C=C5)cc3)cc2)cc1
REMARK SMILES IDX 30 1 29 2 28 3 27 4 26 5 25 6 23 7 24 8 22 9 21 10 18 11
REMARK SMILES IDX 19 12 104 13 20 14 103 15 17 16 9 17 10 18 11 19 16 20 8 21
REMARK SMILES IDX 5 22 6 23 106 24 7 25 105 26 2 27 3 28 4 29 1 30 12 33 13 34
REMARK SMILES IDX 14 35 15 36 31 37 32 38 33 39 34 40 35 41 36 42 37 43 38 44
REMARK SMILES IDX 39 45 40 46 41 47 102 48 42 49 101 50 43 51 44 52 45 53
REMARK SMILES IDX 95 54 46 55 100 56 94 57 96 58 47 59 99 60 93 61 92 62 48 64
REMARK SMILES IDX 80 65 60 66 79 67 61 68 64 69 78 70 97 71 62 72 63 73 77 75
REMARK SMILES IDX 98 76 65 77 49 78 50 79 58 80 51 81 57 82 59 83 56 84 52 85
REMARK SMILES IDX 53 86 54 87 55 88 81 89 82 90 90 91 83 92 89 93 91 94 88 95
REMARK SMILES IDX 84 96 85 97 86 98 87 99 66 100 67 101 75 102 68 103 74 104
REMARK SMILES IDX 76 105 73 106 69 107 70 108 71 109 72 110
REMARK H PARENT 1 31 1 32 96 63 64 74
REMARK Flexibility Score: inf
ROOT
ATOM      1  C   UNL A   1      41.222  32.010  32.129  1.00  0.00     0.188 C 
ENDROOT
BRANCH   1   2
ATOM      2  C   UNL A   1      41.783  30.747  32.785  1.00  0.00     0.188 C 
BRANCH   2   3
ATOM      3  O   UNL A   1      41.354  30.551  34.118  1.00  0.00    -0.376 OA
BRANCH   3   4
ATOM      4  C   UNL A   1      40.660  29.342  34.394  1.00  0.00     0.202 C 
BRANCH   4   5
ATOM      5  C   UNL A   1      41.393  28.205  35.141  1.00  0.00     0.261 C 
BRANCH   5   6
ATOM      6  O   UNL A   1      41.101  26.847  34.724  1.00  0.00    -0.463 OA
BRANCH   6   7
ATOM      7  C   UNL A   1      41.827  25.847  35.257  1.00  0.00     0.310 C 
ATOM      8  O   UNL A   1      41.476  25.228  36.259  1.00  0.00    -0.252 OA
BRANCH   7   9
ATOM      9  C   UNL A   1      43.108  25.489  34.520  1.00  0.00     0.158 C 
BRANCH   9  10
ATOM     10  C   UNL A   1      44.153  24.500  35.037  1.00  0.00    -0.037 A 
ATOM     11  C   UNL A   1      46.318  22.664  35.582  1.00  0.00     0.000 A 
ATOM     12  C   UNL A   1      46.467  24.041  35.779  1.00  0.00     0.010 A 
ATOM     13  C   UNL A   1      45.053  22.222  35.147  1.00  0.00     0.010 A 
ATOM     14  C   UNL A   1      45.408  24.941  35.504  1.00  0.00     0.005 A 
ATOM     15  C   UNL A   1      43.987  23.119  34.890  1.00  0.00     0.005 A 
BRANCH  11  16
ATOM     16  C   UNL A   1      47.471  21.723  35.638  1.00  0.00     0.075 A 
ATOM     17  N   UNL A   1      47.939  20.919  36.698  1.00  0.00    -0.233 N 
ATOM     18  N   UNL A   1      49.169  20.415  36.430  1.00  0.00    -0.163 NA
ATOM     19  C   UNL A   1      49.402  20.663  35.139  1.00  0.00     0.167 A 
ATOM     20  C   UNL A   1      48.405  21.521  34.625  1.00  0.00     0.064 A 
BRANCH  17  21
ATOM     21  C   UNL A   1      47.334  20.493  37.914  1.00  0.00     0.065 A 
ATOM     22  C   UNL A   1      46.051  19.583  40.281  1.00  0.00     0.082 A 
ATOM     23  C   UNL A   1      46.142  20.916  39.923  1.00  0.00     0.024 A 
ATOM     24  C   UNL A   1      46.557  18.663  39.382  1.00  0.00     0.024 A 
ATOM     25  C   UNL A   1      46.803  21.404  38.793  1.00  0.00     0.030 A 
ATOM     26  C   UNL A   1      47.156  19.114  38.189  1.00  0.00     0.030 A 
BRANCH  22  27
ATOM     27  S   UNL A   1      45.327  19.044  41.822  1.00  0.00     0.238 S 
ATOM     28  O   UNL A   1      45.354  17.587  41.800  1.00  0.00    -0.207 OA
ATOM     29  O   UNL A   1      44.164  19.815  42.100  1.00  0.00    -0.207 OA
BRANCH  27  30
ATOM     30  N   UNL A   1      46.383  19.427  43.075  1.00  0.00    -0.225 NA
ATOM     31  H   UNL A   1      47.344  19.284  42.764  1.00  0.00     0.137 HD
ATOM     32  H   UNL A   1      46.192  18.827  43.876  1.00  0.00     0.137 HD
ENDBRANCH  27  30
ENDBRANCH  22  27
ENDBRANCH  17  21
BRANCH  19  33
ATOM     33  C   UNL A   1      50.596  20.094  34.420  1.00  0.00     0.435 C 
ATOM     34  F   UNL A   1      51.686  20.904  34.443  1.00  0.00    -0.164 F 
ATOM     35  F   UNL A   1      50.974  18.899  34.948  1.00  0.00    -0.164 F 
ATOM     36  F   UNL A   1      50.319  19.859  33.107  1.00  0.00    -0.164 F 
ENDBRANCH  19  33
ENDBRANCH  11  16
ENDBRANCH   9  10
ENDBRANCH   7   9
ENDBRANCH   6   7
ENDBRANCH   5   6
ENDBRANCH   4   5
ENDBRANCH   3   4
ENDBRANCH   2   3
ENDBRANCH   1   2
BRANCH   1  37
ATOM     37  O   UNL A   1      40.646  33.029  32.936  1.00  0.00    -0.377 OA
BRANCH  37  38
ATOM     38  C   UNL A   1      39.234  33.225  32.979  1.00  0.00     0.188 C 
BRANCH  38  39
ATOM     39  C   UNL A   1      38.492  33.653  31.711  1.00  0.00     0.188 C 
BRANCH  39  40
ATOM     40  O   UNL A   1      37.592  32.668  31.249  1.00  0.00    -0.376 OA
BRANCH  40  41
ATOM     41  C   UNL A   1      37.206  31.774  32.269  1.00  0.00     0.202 C 
BRANCH  41  42
ATOM     42  C   UNL A   1      36.250  30.610  31.953  1.00  0.00     0.261 C 
BRANCH  42  43
ATOM     43  O   UNL A   1      36.519  29.451  31.111  1.00  0.00    -0.460 OA
BRANCH  43  44
ATOM     44  C   UNL A   1      36.657  29.514  29.758  1.00  0.00     0.338 C 
ATOM     45  O   UNL A   1      35.773  29.946  29.032  1.00  0.00    -0.246 OA
BRANCH  44  46
ATOM     46  C   UNL A   1      37.962  29.014  29.198  1.00  0.00     0.060 A 
ATOM     47  C   UNL A   1      38.815  28.364  30.095  1.00  0.00     0.016 A 
ATOM     48  C   UNL A   1      38.464  29.337  27.933  1.00  0.00     0.016 A 
ATOM     49  C   UNL A   1      40.197  28.351  29.867  1.00  0.00     0.010 A 
ATOM     50  C   UNL A   1      39.862  29.346  27.718  1.00  0.00     0.010 A 
ATOM     51  C   UNL A   1      40.756  28.951  28.726  1.00  0.00    -0.014 A 
BRANCH  51  52
ATOM     52  C   UNL A   1      42.199  28.699  28.461  1.00  0.00     0.031 A 
ATOM     53  C   UNL A   1      42.320  27.316  27.967  1.00  0.00     0.074 A 
ATOM     54  C   UNL A   1      43.333  29.443  28.509  1.00  0.00     0.049 A 
ATOM     55  N   UNL A   1      42.602  26.266  28.666  1.00  0.00    -0.248 NA
ATOM     56  C   UNL A   1      41.768  27.039  26.633  1.00  0.00     0.031 C 
ATOM     57  C   UNL A   1      43.452  30.878  28.707  1.00  0.00     0.029 A 
ATOM     58  N   UNL A   1      44.658  29.067  28.337  1.00  0.00    -0.354 N 
ATOM     59  C   UNL A   1      42.533  25.237  27.744  1.00  0.00     0.074 A 
ATOM     60  C   UNL A   1      41.691  25.711  26.685  1.00  0.00     0.031 C 
ATOM     61  C   UNL A   1      44.718  31.292  28.467  1.00  0.00     0.029 A 
ATOM     62  C   UNL A   1      45.559  30.133  28.219  1.00  0.00     0.049 A 
ATOM     63  H   UNL A   1      44.942  28.125  28.300  1.00  0.00     0.167 HD
ATOM     64  C   UNL A   1      43.512  24.298  27.704  1.00  0.00     0.034 A 
ATOM     65  C   UNL A   1      46.901  30.111  27.963  1.00  0.00     0.034 A 
ATOM     66  C   UNL A   1      44.243  24.260  28.953  1.00  0.00     0.049 A 
ATOM     67  C   UNL A   1      47.428  28.797  28.388  1.00  0.00     0.074 A 
ATOM     68  C   UNL A   1      43.991  23.857  30.247  1.00  0.00     0.029 A 
ATOM     69  N   UNL A   1      45.364  25.050  28.995  1.00  0.00    -0.354 N 
ATOM     70  N   UNL A   1      47.505  28.425  29.634  1.00  0.00    -0.248 NA
ATOM     71  C   UNL A   1      47.634  27.740  27.405  1.00  0.00     0.031 C 
ATOM     72  C   UNL A   1      44.930  24.534  31.082  1.00  0.00     0.029 A 
ATOM     73  C   UNL A   1      45.756  25.320  30.285  1.00  0.00     0.049 A 
ATOM     74  H   UNL A   1      45.834  25.383  28.196  1.00  0.00     0.167 HD
ATOM     75  C   UNL A   1      47.358  27.058  29.593  1.00  0.00     0.074 A 
ATOM     76  C   UNL A   1      47.608  26.677  28.212  1.00  0.00     0.031 C 
ATOM     77  C   UNL A   1      46.678  26.407  30.578  1.00  0.00     0.034 A 
BRANCH  64  78
ATOM     78  C   UNL A   1      44.113  23.779  26.405  1.00  0.00     0.023 A 
ATOM     79  C   UNL A   1      43.880  22.427  26.104  1.00  0.00     0.031 A 
ATOM     80  C   UNL A   1      45.086  24.420  25.592  1.00  0.00     0.131 A 
ATOM     81  C   UNL A   1      44.633  21.763  25.119  1.00  0.00     0.055 A 
ATOM     82  C   UNL A   1      45.803  23.765  24.588  1.00  0.00     0.041 A 
ATOM     83  F   UNL A   1      45.472  25.688  25.749  1.00  0.00    -0.206 F 
ATOM     84  C   UNL A   1      45.598  22.421  24.363  1.00  0.00     0.022 A 
BRANCH  81  85
ATOM     85  S   UNL A   1      44.408  19.983  24.920  1.00  0.00     0.124 S 
ATOM     86  O   UNL A   1      43.074  19.791  25.476  1.00  0.00    -0.237 OA
ATOM     87  O   UNL A   1      44.537  19.829  23.474  1.00  0.00    -0.237 OA
ATOM     88  O   UNL A   1      45.503  19.416  25.705  1.00  0.00    -0.744 OA
ENDBRANCH  81  85
ENDBRANCH  64  78
BRANCH  65  89
ATOM     89  C   UNL A   1      47.789  31.117  27.298  1.00  0.00     0.023 A 
ATOM     90  C   UNL A   1      47.291  32.312  26.718  1.00  0.00     0.031 A 
ATOM     91  C   UNL A   1      49.186  31.041  27.467  1.00  0.00     0.131 A 
ATOM     92  C   UNL A   1      48.172  33.363  26.361  1.00  0.00     0.055 A 
ATOM     93  C   UNL A   1      50.052  32.079  27.106  1.00  0.00     0.041 A 
ATOM     94  F   UNL A   1      49.754  29.989  28.077  1.00  0.00    -0.206 F 
ATOM     95  C   UNL A   1      49.547  33.251  26.565  1.00  0.00     0.022 A 
BRANCH  92  96
ATOM     96  S   UNL A   1      47.527  34.958  25.746  1.00  0.00     0.124 S 
ATOM     97  O   UNL A   1      46.399  34.542  24.921  1.00  0.00    -0.237 OA
ATOM     98  O   UNL A   1      47.206  35.668  26.978  1.00  0.00    -0.237 OA
ATOM     99  O   UNL A   1      48.657  35.517  25.001  1.00  0.00    -0.744 OA
ENDBRANCH  92  96
ENDBRANCH  65  89
BRANCH  77 100
ATOM    100  C   UNL A   1      46.821  26.922  31.992  1.00  0.00     0.023 A 
ATOM    101  C   UNL A   1      47.941  26.747  32.832  1.00  0.00     0.031 A 
ATOM    102  C   UNL A   1      45.724  27.636  32.514  1.00  0.00     0.131 A 
ATOM    103  C   UNL A   1      47.933  27.281  34.139  1.00  0.00     0.055 A 
ATOM    104  C   UNL A   1      45.726  28.177  33.798  1.00  0.00     0.041 A 
ATOM    105  F   UNL A   1      44.619  27.825  31.775  1.00  0.00    -0.206 F 
ATOM    106  C   UNL A   1      46.832  27.997  34.618  1.00  0.00     0.022 A 
BRANCH 103 107
ATOM    107  S   UNL A   1      49.345  27.025  35.261  1.00  0.00     0.124 S 
ATOM    108  O   UNL A   1      49.818  28.376  35.530  1.00  0.00    -0.237 OA
ATOM    109  O   UNL A   1      48.727  26.322  36.381  1.00  0.00    -0.237 OA
ATOM    110  O   UNL A   1      50.265  26.205  34.467  1.00  0.00    -0.744 OA
ENDBRANCH 103 107
ENDBRANCH  77 100
ENDBRANCH  51  52
ENDBRANCH  44  46
ENDBRANCH  43  44
ENDBRANCH  42  43
ENDBRANCH  41  42
ENDBRANCH  40  41
ENDBRANCH  39  40
ENDBRANCH  38  39
ENDBRANCH  37  38
ENDBRANCH   1  37
TORSDOF 29
ENDMDL
