MODEL 1
REMARK VINA RESULT:      -9.3      0.000      0.000
REMARK SMILES COc1cnc(SCC(=O)OCCOCCOCCOCCOC(=O)c2ccc(-c3c4nc(c(-c5cc(S(=O)(=O)[O-])ccc5F)c5ccc([nH]5)c(-c5cc(S(=O)(=O)[O-])ccc5F)c5nc(c(-c6cc(S(=O)(=O)[O-])ccc6F)c6ccc3[nH]6)C=C5)C=C4)cc2)[nH]c1=O
REMARK SMILES IDX 17 1 16 2 15 3 14 4 13 5 12 6 11 7 9 8 10 9 8 10 7 11 6 12
REMARK SMILES IDX 3 13 4 14 90 15 5 16 89 17 91 18 2 20 1 21 18 22 19 23 20 24
REMARK SMILES IDX 21 25 22 26 23 27 24 28 25 29 26 30 27 31 88 32 28 33 87 34
REMARK SMILES IDX 29 35 30 36 31 37 81 38 32 39 86 40 80 41 82 42 33 43 85 44
REMARK SMILES IDX 79 45 78 46 34 48 66 49 46 50 65 51 47 52 50 53 64 54 83 55
REMARK SMILES IDX 48 56 49 57 63 59 84 60 51 61 35 62 36 63 44 64 37 65 43 66
REMARK SMILES IDX 45 67 42 68 38 69 39 70 40 71 41 72 67 73 68 74 76 75 69 76
REMARK SMILES IDX 75 77 77 78 74 79 70 80 71 81 72 82 73 83 52 84 53 85 61 86
REMARK SMILES IDX 54 87 60 88 62 89 59 90 55 91 56 92 57 93 58 94
REMARK H PARENT 89 19 82 47 50 58
REMARK Flexibility Score: inf
ROOT
ATOM      1  O   UNL A   1      34.704  24.530  24.098  1.00  0.00    -0.377 OA
ENDROOT
BRANCH   1   2
ATOM      2  C   UNL A   1      33.720  24.160  23.162  1.00  0.00     0.188 C 
BRANCH   2   3
ATOM      3  C   UNL A   1      33.387  24.734  21.772  1.00  0.00     0.188 C 
BRANCH   3   4
ATOM      4  O   UNL A   1      33.644  26.075  21.450  1.00  0.00    -0.376 OA
BRANCH   4   5
ATOM      5  C   UNL A   1      32.842  27.147  21.890  1.00  0.00     0.202 C 
BRANCH   5   6
ATOM      6  C   UNL A   1      33.317  28.333  22.752  1.00  0.00     0.261 C 
BRANCH   6   7
ATOM      7  O   UNL A   1      32.452  28.819  23.796  1.00  0.00    -0.463 OA
BRANCH   7   8
ATOM      8  C   UNL A   1      31.123  28.837  23.533  1.00  0.00     0.316 C 
ATOM      9  O   UNL A   1      30.634  29.527  22.638  1.00  0.00    -0.251 OA
BRANCH   8  10
ATOM     10  C   UNL A   1      30.222  27.917  24.349  1.00  0.00     0.200 C 
BRANCH  10  11
ATOM     11  S   UNL A   1      29.831  26.230  23.805  1.00  0.00    -0.076 SA
BRANCH  11  12
ATOM     12  C   UNL A   1      30.755  25.225  24.903  1.00  0.00     0.168 A 
ATOM     13  C   UNL A   1      31.854  23.559  26.808  1.00  0.00     0.202 A 
ATOM     14  C   UNL A   1      32.272  24.806  26.538  1.00  0.00     0.166 A 
ATOM     15  C   UNL A   1      30.797  23.031  25.886  1.00  0.00     0.293 A 
ATOM     16  N   UNL A   1      31.767  25.658  25.579  1.00  0.00    -0.229 NA
ATOM     17  N   UNL A   1      30.266  23.957  25.021  1.00  0.00    -0.298 N 
ATOM     18  O   UNL A   1      30.415  21.867  25.889  1.00  0.00    -0.265 OA
ATOM     19  H   UNL A   1      29.500  23.694  24.463  1.00  0.00     0.172 HD
BRANCH  13  20
ATOM     20  O   UNL A   1      32.333  22.930  27.947  1.00  0.00    -0.490 OA
ATOM     21  C   UNL A   1      33.590  22.266  27.919  1.00  0.00     0.278 C 
ENDBRANCH  13  20
ENDBRANCH  11  12
ENDBRANCH  10  11
ENDBRANCH   8  10
ENDBRANCH   7   8
ENDBRANCH   6   7
ENDBRANCH   5   6
ENDBRANCH   4   5
ENDBRANCH   3   4
ENDBRANCH   2   3
ENDBRANCH   1   2
BRANCH   1  22
ATOM     22  C   UNL A   1      35.815  23.700  24.302  1.00  0.00     0.188 C 
BRANCH  22  23
ATOM     23  C   UNL A   1      35.646  22.283  23.754  1.00  0.00     0.188 C 
BRANCH  23  24
ATOM     24  O   UNL A   1      35.064  21.389  24.690  1.00  0.00    -0.376 OA
BRANCH  24  25
ATOM     25  C   UNL A   1      35.900  20.417  25.309  1.00  0.00     0.202 C 
BRANCH  25  26
ATOM     26  C   UNL A   1      37.408  20.358  25.000  1.00  0.00     0.261 C 
BRANCH  26  27
ATOM     27  O   UNL A   1      38.220  21.436  25.465  1.00  0.00    -0.460 OA
BRANCH  27  28
ATOM     28  C   UNL A   1      39.351  21.126  26.120  1.00  0.00     0.338 C 
ATOM     29  O   UNL A   1      39.919  20.046  26.145  1.00  0.00    -0.246 OA
BRANCH  28  30
ATOM     30  C   UNL A   1      39.894  22.404  26.612  1.00  0.00     0.060 A 
ATOM     31  C   UNL A   1      39.343  23.591  26.117  1.00  0.00     0.016 A 
ATOM     32  C   UNL A   1      40.879  22.427  27.605  1.00  0.00     0.016 A 
ATOM     33  C   UNL A   1      39.791  24.813  26.602  1.00  0.00     0.010 A 
ATOM     34  C   UNL A   1      41.354  23.656  28.066  1.00  0.00     0.010 A 
ATOM     35  C   UNL A   1      40.832  24.849  27.538  1.00  0.00    -0.014 A 
BRANCH  35  36
ATOM     36  C   UNL A   1      41.534  26.132  27.747  1.00  0.00     0.031 A 
ATOM     37  C   UNL A   1      40.792  27.209  28.487  1.00  0.00     0.074 A 
ATOM     38  C   UNL A   1      42.812  26.295  27.363  1.00  0.00     0.049 A 
ATOM     39  N   UNL A   1      41.180  28.410  28.818  1.00  0.00    -0.248 NA
ATOM     40  C   UNL A   1      39.421  26.880  28.918  1.00  0.00     0.031 C 
ATOM     41  C   UNL A   1      43.629  25.281  26.697  1.00  0.00     0.029 A 
ATOM     42  N   UNL A   1      43.648  27.374  27.483  1.00  0.00    -0.354 N 
ATOM     43  C   UNL A   1      40.101  28.983  29.483  1.00  0.00     0.074 A 
ATOM     44  C   UNL A   1      39.034  28.009  29.487  1.00  0.00     0.031 C 
ATOM     45  C   UNL A   1      44.852  25.789  26.465  1.00  0.00     0.029 A 
ATOM     46  C   UNL A   1      44.890  27.176  26.926  1.00  0.00     0.049 A 
ATOM     47  H   UNL A   1      43.385  28.212  27.929  1.00  0.00     0.167 HD
ATOM     48  C   UNL A   1      40.017  30.213  30.042  1.00  0.00     0.034 A 
ATOM     49  C   UNL A   1      45.921  28.034  26.785  1.00  0.00     0.034 A 
ATOM     50  C   UNL A   1      41.098  31.164  30.012  1.00  0.00     0.049 A 
ATOM     51  C   UNL A   1      45.766  29.434  27.339  1.00  0.00     0.074 A 
ATOM     52  C   UNL A   1      41.141  32.434  30.555  1.00  0.00     0.029 A 
ATOM     53  N   UNL A   1      42.322  30.954  29.387  1.00  0.00    -0.354 N 
ATOM     54  N   UNL A   1      44.748  29.961  27.985  1.00  0.00    -0.248 NA
ATOM     55  C   UNL A   1      46.899  30.349  27.156  1.00  0.00     0.031 C 
ATOM     56  C   UNL A   1      42.351  33.026  30.179  1.00  0.00     0.029 A 
ATOM     57  C   UNL A   1      43.108  32.089  29.491  1.00  0.00     0.049 A 
ATOM     58  H   UNL A   1      42.590  30.121  28.937  1.00  0.00     0.167 HD
ATOM     59  C   UNL A   1      45.139  31.257  28.317  1.00  0.00     0.074 A 
ATOM     60  C   UNL A   1      46.488  31.422  27.815  1.00  0.00     0.031 C 
ATOM     61  C   UNL A   1      44.451  32.225  28.978  1.00  0.00     0.034 A 
BRANCH  48  62
ATOM     62  C   UNL A   1      38.697  30.619  30.650  1.00  0.00     0.023 A 
ATOM     63  C   UNL A   1      37.756  31.397  29.954  1.00  0.00     0.031 A 
ATOM     64  C   UNL A   1      38.389  30.234  31.967  1.00  0.00     0.131 A 
ATOM     65  C   UNL A   1      36.578  31.809  30.597  1.00  0.00     0.055 A 
ATOM     66  C   UNL A   1      37.181  30.581  32.574  1.00  0.00     0.041 A 
ATOM     67  F   UNL A   1      39.263  29.521  32.693  1.00  0.00    -0.206 F 
ATOM     68  C   UNL A   1      36.271  31.383  31.891  1.00  0.00     0.022 A 
BRANCH  65  69
ATOM     69  S   UNL A   1      35.511  33.020  29.768  1.00  0.00     0.124 S 
ATOM     70  O   UNL A   1      34.227  32.324  29.757  1.00  0.00    -0.237 OA
ATOM     71  O   UNL A   1      35.603  34.177  30.650  1.00  0.00    -0.237 OA
ATOM     72  O   UNL A   1      36.132  33.185  28.456  1.00  0.00    -0.744 OA
ENDBRANCH  65  69
ENDBRANCH  48  62
BRANCH  49  73
ATOM     73  C   UNL A   1      47.161  27.634  26.055  1.00  0.00     0.023 A 
ATOM     74  C   UNL A   1      47.324  27.908  24.688  1.00  0.00     0.031 A 
ATOM     75  C   UNL A   1      48.170  26.892  26.698  1.00  0.00     0.131 A 
ATOM     76  C   UNL A   1      48.431  27.390  23.995  1.00  0.00     0.055 A 
ATOM     77  C   UNL A   1      49.303  26.438  26.020  1.00  0.00     0.041 A 
ATOM     78  F   UNL A   1      48.066  26.592  28.003  1.00  0.00    -0.206 F 
ATOM     79  C   UNL A   1      49.429  26.670  24.655  1.00  0.00     0.022 A 
BRANCH  76  80
ATOM     80  S   UNL A   1      48.480  27.558  22.189  1.00  0.00     0.124 S 
ATOM     81  O   UNL A   1      48.601  26.167  21.766  1.00  0.00    -0.237 OA
ATOM     82  O   UNL A   1      47.202  28.204  21.912  1.00  0.00    -0.237 OA
ATOM     83  O   UNL A   1      49.661  28.387  21.958  1.00  0.00    -0.744 OA
ENDBRANCH  76  80
ENDBRANCH  49  73
BRANCH  61  84
ATOM     84  C   UNL A   1      45.175  33.523  29.243  1.00  0.00     0.023 A 
ATOM     85  C   UNL A   1      45.135  34.594  28.336  1.00  0.00     0.031 A 
ATOM     86  C   UNL A   1      45.921  33.684  30.425  1.00  0.00     0.131 A 
ATOM     87  C   UNL A   1      45.881  35.754  28.593  1.00  0.00     0.055 A 
ATOM     88  C   UNL A   1      46.597  34.868  30.711  1.00  0.00     0.041 A 
ATOM     89  F   UNL A   1      45.997  32.691  31.326  1.00  0.00    -0.206 F 
ATOM     90  C   UNL A   1      46.593  35.907  29.785  1.00  0.00     0.022 A 
BRANCH  87  91
ATOM     91  S   UNL A   1      46.002  37.014  27.295  1.00  0.00     0.124 S 
ATOM     92  O   UNL A   1      44.611  37.433  27.150  1.00  0.00    -0.237 OA
ATOM     93  O   UNL A   1      46.904  37.994  27.893  1.00  0.00    -0.237 OA
ATOM     94  O   UNL A   1      46.550  36.281  26.156  1.00  0.00    -0.744 OA
ENDBRANCH  87  91
ENDBRANCH  61  84
ENDBRANCH  35  36
ENDBRANCH  28  30
ENDBRANCH  27  28
ENDBRANCH  26  27
ENDBRANCH  25  26
ENDBRANCH  24  25
ENDBRANCH  23  24
ENDBRANCH  22  23
ENDBRANCH   1  22
TORSDOF 26
ENDMDL
MODEL 2
REMARK VINA RESULT:      -9.0      2.521      8.235
REMARK SMILES COc1cnc(SCC(=O)OCCOCCOCCOCCOC(=O)c2ccc(-c3c4nc(c(-c5cc(S(=O)(=O)[O-])ccc5F)c5ccc([nH]5)c(-c5cc(S(=O)(=O)[O-])ccc5F)c5nc(c(-c6cc(S(=O)(=O)[O-])ccc6F)c6ccc3[nH]6)C=C5)C=C4)cc2)[nH]c1=O
REMARK SMILES IDX 17 1 16 2 15 3 14 4 13 5 12 6 11 7 9 8 10 9 8 10 7 11 6 12
REMARK SMILES IDX 3 13 4 14 90 15 5 16 89 17 91 18 2 20 1 21 18 22 19 23 20 24
REMARK SMILES IDX 21 25 22 26 23 27 24 28 25 29 26 30 27 31 88 32 28 33 87 34
REMARK SMILES IDX 29 35 30 36 31 37 81 38 32 39 86 40 80 41 82 42 33 43 85 44
REMARK SMILES IDX 79 45 78 46 34 48 66 49 46 50 65 51 47 52 50 53 64 54 83 55
REMARK SMILES IDX 48 56 49 57 63 59 84 60 51 61 35 62 36 63 44 64 37 65 43 66
REMARK SMILES IDX 45 67 42 68 38 69 39 70 40 71 41 72 67 73 68 74 76 75 69 76
REMARK SMILES IDX 75 77 77 78 74 79 70 80 71 81 72 82 73 83 52 84 53 85 61 86
REMARK SMILES IDX 54 87 60 88 62 89 59 90 55 91 56 92 57 93 58 94
REMARK H PARENT 89 19 82 47 50 58
REMARK Flexibility Score: inf
ROOT
ATOM      1  O   UNL A   1      33.477  24.095  23.839  1.00  0.00    -0.377 OA
ENDROOT
BRANCH   1   2
ATOM      2  C   UNL A   1      33.453  24.080  22.432  1.00  0.00     0.188 C 
BRANCH   2   3
ATOM      3  C   UNL A   1      32.618  24.901  21.431  1.00  0.00     0.188 C 
BRANCH   3   4
ATOM      4  O   UNL A   1      32.368  26.268  21.630  1.00  0.00    -0.376 OA
BRANCH   4   5
ATOM      5  C   UNL A   1      31.590  26.768  22.692  1.00  0.00     0.202 C 
BRANCH   5   6
ATOM      6  C   UNL A   1      30.475  26.001  23.432  1.00  0.00     0.261 C 
BRANCH   6   7
ATOM      7  O   UNL A   1      29.893  26.592  24.609  1.00  0.00    -0.463 OA
BRANCH   7   8
ATOM      8  C   UNL A   1      30.655  26.605  25.730  1.00  0.00     0.316 C 
ATOM      9  O   UNL A   1      30.634  25.693  26.557  1.00  0.00    -0.251 OA
BRANCH   8  10
ATOM     10  C   UNL A   1      31.613  27.775  25.927  1.00  0.00     0.200 C 
BRANCH  10  11
ATOM     11  S   UNL A   1      33.350  27.525  26.392  1.00  0.00    -0.076 SA
BRANCH  11  12
ATOM     12  C   UNL A   1      33.874  29.125  26.875  1.00  0.00     0.168 A 
ATOM     13  C   UNL A   1      34.863  31.461  27.962  1.00  0.00     0.202 A 
ATOM     14  C   UNL A   1      33.596  31.271  27.559  1.00  0.00     0.166 A 
ATOM     15  C   UNL A   1      35.802  30.335  27.652  1.00  0.00     0.293 A 
ATOM     16  N   UNL A   1      33.071  30.131  26.989  1.00  0.00    -0.229 NA
ATOM     17  N   UNL A   1      35.203  29.193  27.179  1.00  0.00    -0.298 N 
ATOM     18  O   UNL A   1      37.016  30.403  27.805  1.00  0.00    -0.265 OA
ATOM     19  H   UNL A   1      35.755  28.388  27.054  1.00  0.00     0.172 HD
BRANCH  13  20
ATOM     20  O   UNL A   1      35.161  32.591  28.707  1.00  0.00    -0.490 OA
ATOM     21  C   UNL A   1      34.724  33.871  28.268  1.00  0.00     0.278 C 
ENDBRANCH  13  20
ENDBRANCH  11  12
ENDBRANCH  10  11
ENDBRANCH   8  10
ENDBRANCH   7   8
ENDBRANCH   6   7
ENDBRANCH   5   6
ENDBRANCH   4   5
ENDBRANCH   3   4
ENDBRANCH   2   3
ENDBRANCH   1   2
BRANCH   1  22
ATOM     22  C   UNL A   1      34.671  24.396  24.510  1.00  0.00     0.188 C 
BRANCH  22  23
ATOM     23  C   UNL A   1      35.732  23.300  24.420  1.00  0.00     0.188 C 
BRANCH  23  24
ATOM     24  O   UNL A   1      35.256  22.028  24.834  1.00  0.00    -0.376 OA
BRANCH  24  25
ATOM     25  C   UNL A   1      36.172  21.131  25.452  1.00  0.00     0.202 C 
BRANCH  25  26
ATOM     26  C   UNL A   1      37.666  21.138  25.073  1.00  0.00     0.261 C 
BRANCH  26  27
ATOM     27  O   UNL A   1      38.476  22.187  25.601  1.00  0.00    -0.460 OA
BRANCH  27  28
ATOM     28  C   UNL A   1      39.497  21.843  26.403  1.00  0.00     0.338 C 
ATOM     29  O   UNL A   1      39.994  20.736  26.533  1.00  0.00    -0.246 OA
BRANCH  28  30
ATOM     30  C   UNL A   1      40.048  23.108  26.919  1.00  0.00     0.060 A 
ATOM     31  C   UNL A   1      39.504  24.308  26.447  1.00  0.00     0.016 A 
ATOM     32  C   UNL A   1      41.032  23.107  27.913  1.00  0.00     0.016 A 
ATOM     33  C   UNL A   1      39.959  25.518  26.955  1.00  0.00     0.010 A 
ATOM     34  C   UNL A   1      41.514  24.323  28.397  1.00  0.00     0.010 A 
ATOM     35  C   UNL A   1      40.999  25.529  27.892  1.00  0.00    -0.014 A 
BRANCH  35  36
ATOM     36  C   UNL A   1      41.710  26.804  28.126  1.00  0.00     0.031 A 
ATOM     37  C   UNL A   1      43.093  26.935  27.552  1.00  0.00     0.074 A 
ATOM     38  C   UNL A   1      41.109  27.828  28.755  1.00  0.00     0.049 A 
ATOM     39  N   UNL A   1      43.919  27.945  27.597  1.00  0.00    -0.248 NA
ATOM     40  C   UNL A   1      43.611  25.765  26.823  1.00  0.00     0.031 C 
ATOM     41  C   UNL A   1      39.746  27.810  29.287  1.00  0.00     0.029 A 
ATOM     42  N   UNL A   1      41.567  29.086  29.048  1.00  0.00    -0.354 N 
ATOM     43  C   UNL A   1      45.056  27.527  26.913  1.00  0.00     0.074 A 
ATOM     44  C   UNL A   1      44.826  26.167  26.486  1.00  0.00     0.031 C 
ATOM     45  C   UNL A   1      39.479  29.004  29.845  1.00  0.00     0.029 A 
ATOM     46  C   UNL A   1      40.665  29.854  29.749  1.00  0.00     0.049 A 
ATOM     47  H   UNL A   1      42.457  29.411  28.782  1.00  0.00     0.167 HD
ATOM     48  C   UNL A   1      46.189  28.226  26.664  1.00  0.00     0.034 A 
ATOM     49  C   UNL A   1      40.804  31.089  30.272  1.00  0.00     0.034 A 
ATOM     50  C   UNL A   1      46.391  29.580  27.112  1.00  0.00     0.049 A 
ATOM     51  C   UNL A   1      42.115  31.812  30.056  1.00  0.00     0.074 A 
ATOM     52  C   UNL A   1      47.485  30.398  26.911  1.00  0.00     0.029 A 
ATOM     53  N   UNL A   1      45.481  30.307  27.871  1.00  0.00    -0.354 N 
ATOM     54  N   UNL A   1      43.179  31.418  29.391  1.00  0.00    -0.248 NA
ATOM     55  C   UNL A   1      42.242  33.149  30.651  1.00  0.00     0.031 C 
ATOM     56  C   UNL A   1      47.279  31.582  27.624  1.00  0.00     0.029 A 
ATOM     57  C   UNL A   1      46.011  31.547  28.185  1.00  0.00     0.049 A 
ATOM     58  H   UNL A   1      44.591  29.988  28.145  1.00  0.00     0.167 HD
ATOM     59  C   UNL A   1      44.083  32.476  29.458  1.00  0.00     0.074 A 
ATOM     60  C   UNL A   1      43.432  33.528  30.211  1.00  0.00     0.031 C 
ATOM     61  C   UNL A   1      45.337  32.576  28.942  1.00  0.00     0.034 A 
BRANCH  48  62
ATOM     62  C   UNL A   1      47.311  27.512  25.952  1.00  0.00     0.023 A 
ATOM     63  C   UNL A   1      48.295  26.782  26.641  1.00  0.00     0.031 A 
ATOM     64  C   UNL A   1      47.408  27.587  24.551  1.00  0.00     0.131 A 
ATOM     65  C   UNL A   1      49.359  26.202  25.934  1.00  0.00     0.055 A 
ATOM     66  C   UNL A   1      48.425  26.943  23.846  1.00  0.00     0.041 A 
ATOM     67  F   UNL A   1      46.519  28.300  23.842  1.00  0.00    -0.206 F 
ATOM     68  C   UNL A   1      49.416  26.253  24.539  1.00  0.00     0.022 A 
BRANCH  65  69
ATOM     69  S   UNL A   1      50.743  25.492  26.867  1.00  0.00     0.124 S 
ATOM     70  O   UNL A   1      51.180  26.635  27.665  1.00  0.00    -0.237 OA
ATOM     71  O   UNL A   1      50.105  24.407  27.602  1.00  0.00    -0.237 OA
ATOM     72  O   UNL A   1      51.681  25.074  25.827  1.00  0.00    -0.744 OA
ENDBRANCH  65  69
ENDBRANCH  48  62
BRANCH  49  73
ATOM     73  C   UNL A   1      39.716  31.706  31.087  1.00  0.00     0.023 A 
ATOM     74  C   UNL A   1      39.650  31.521  32.477  1.00  0.00     0.031 A 
ATOM     75  C   UNL A   1      38.671  32.423  30.473  1.00  0.00     0.131 A 
ATOM     76  C   UNL A   1      38.536  31.986  33.196  1.00  0.00     0.055 A 
ATOM     77  C   UNL A   1      37.600  32.944  31.203  1.00  0.00     0.041 A 
ATOM     78  F   UNL A   1      38.675  32.627  29.146  1.00  0.00    -0.206 F 
ATOM     79  C   UNL A   1      37.519  32.710  32.570  1.00  0.00     0.022 A 
BRANCH  76  80
ATOM     80  S   UNL A   1      38.371  31.516  34.941  1.00  0.00     0.124 S 
ATOM     81  O   UNL A   1      39.537  32.163  35.532  1.00  0.00    -0.237 OA
ATOM     82  O   UNL A   1      37.075  32.090  35.286  1.00  0.00    -0.237 OA
ATOM     83  O   UNL A   1      38.417  30.056  34.904  1.00  0.00    -0.744 OA
ENDBRANCH  76  80
ENDBRANCH  49  73
BRANCH  61  84
ATOM     84  C   UNL A   1      46.054  33.891  29.131  1.00  0.00     0.023 A 
ATOM     85  C   UNL A   1      45.988  34.919  28.176  1.00  0.00     0.031 A 
ATOM     86  C   UNL A   1      46.820  34.114  30.290  1.00  0.00     0.131 A 
ATOM     87  C   UNL A   1      46.728  36.095  28.364  1.00  0.00     0.055 A 
ATOM     88  C   UNL A   1      47.490  35.317  30.508  1.00  0.00     0.041 A 
ATOM     89  F   UNL A   1      46.921  33.166  31.236  1.00  0.00    -0.206 F 
ATOM     90  C   UNL A   1      47.460  36.310  29.534  1.00  0.00     0.022 A 
BRANCH  87  91
ATOM     91  S   UNL A   1      46.813  37.293  27.006  1.00  0.00     0.124 S 
ATOM     92  O   UNL A   1      45.676  38.161  27.296  1.00  0.00    -0.237 OA
ATOM     93  O   UNL A   1      48.133  37.888  27.195  1.00  0.00    -0.237 OA
ATOM     94  O   UNL A   1      46.672  36.466  25.810  1.00  0.00    -0.744 OA
ENDBRANCH  87  91
ENDBRANCH  61  84
ENDBRANCH  35  36
ENDBRANCH  28  30
ENDBRANCH  27  28
ENDBRANCH  26  27
ENDBRANCH  25  26
ENDBRANCH  24  25
ENDBRANCH  23  24
ENDBRANCH  22  23
ENDBRANCH   1  22
TORSDOF 26
ENDMDL
MODEL 3
REMARK VINA RESULT:      -8.6      2.002      8.139
REMARK SMILES COc1cnc(SCC(=O)OCCOCCOCCOCCOC(=O)c2ccc(-c3c4nc(c(-c5cc(S(=O)(=O)[O-])ccc5F)c5ccc([nH]5)c(-c5cc(S(=O)(=O)[O-])ccc5F)c5nc(c(-c6cc(S(=O)(=O)[O-])ccc6F)c6ccc3[nH]6)C=C5)C=C4)cc2)[nH]c1=O
REMARK SMILES IDX 17 1 16 2 15 3 14 4 13 5 12 6 11 7 9 8 10 9 8 10 7 11 6 12
REMARK SMILES IDX 3 13 4 14 90 15 5 16 89 17 91 18 2 20 1 21 18 22 19 23 20 24
REMARK SMILES IDX 21 25 22 26 23 27 24 28 25 29 26 30 27 31 88 32 28 33 87 34
REMARK SMILES IDX 29 35 30 36 31 37 81 38 32 39 86 40 80 41 82 42 33 43 85 44
REMARK SMILES IDX 79 45 78 46 34 48 66 49 46 50 65 51 47 52 50 53 64 54 83 55
REMARK SMILES IDX 48 56 49 57 63 59 84 60 51 61 35 62 36 63 44 64 37 65 43 66
REMARK SMILES IDX 45 67 42 68 38 69 39 70 40 71 41 72 67 73 68 74 76 75 69 76
REMARK SMILES IDX 75 77 77 78 74 79 70 80 71 81 72 82 73 83 52 84 53 85 61 86
REMARK SMILES IDX 54 87 60 88 62 89 59 90 55 91 56 92 57 93 58 94
REMARK H PARENT 89 19 82 47 50 58
REMARK Flexibility Score: inf
ROOT
ATOM      1  O   UNL A   1      33.673  20.662  24.939  1.00  0.00    -0.377 OA
ENDROOT
BRANCH   1   2
ATOM      2  C   UNL A   1      33.026  21.620  25.742  1.00  0.00     0.188 C 
BRANCH   2   3
ATOM      3  C   UNL A   1      32.395  22.977  25.377  1.00  0.00     0.188 C 
BRANCH   3   4
ATOM      4  O   UNL A   1      31.139  23.060  24.756  1.00  0.00    -0.376 OA
BRANCH   4   5
ATOM      5  C   UNL A   1      30.934  23.652  23.494  1.00  0.00     0.202 C 
BRANCH   5   6
ATOM      6  C   UNL A   1      30.900  25.166  23.204  1.00  0.00     0.261 C 
BRANCH   6   7
ATOM      7  O   UNL A   1      31.375  25.636  21.928  1.00  0.00    -0.463 OA
BRANCH   7   8
ATOM      8  C   UNL A   1      32.705  25.870  21.817  1.00  0.00     0.316 C 
ATOM      9  O   UNL A   1      33.314  25.744  20.754  1.00  0.00    -0.251 OA
BRANCH   8  10
ATOM     10  C   UNL A   1      33.447  26.364  23.054  1.00  0.00     0.200 C 
BRANCH  10  11
ATOM     11  S   UNL A   1      33.829  28.121  23.306  1.00  0.00    -0.076 SA
BRANCH  11  12
ATOM     12  C   UNL A   1      32.258  28.840  23.595  1.00  0.00     0.168 A 
ATOM     13  C   UNL A   1      29.832  30.152  23.688  1.00  0.00     0.202 A 
ATOM     14  C   UNL A   1      30.761  30.174  24.656  1.00  0.00     0.166 A 
ATOM     15  C   UNL A   1      30.126  29.221  22.550  1.00  0.00     0.293 A 
ATOM     16  N   UNL A   1      31.971  29.513  24.659  1.00  0.00    -0.229 NA
ATOM     17  N   UNL A   1      31.385  28.671  22.560  1.00  0.00    -0.298 N 
ATOM     18  O   UNL A   1      29.321  28.958  21.664  1.00  0.00    -0.265 OA
ATOM     19  H   UNL A   1      31.670  28.133  21.787  1.00  0.00     0.172 HD
BRANCH  13  20
ATOM     20  O   UNL A   1      28.775  31.044  23.760  1.00  0.00    -0.490 OA
ATOM     21  C   UNL A   1      28.955  32.397  23.361  1.00  0.00     0.278 C 
ENDBRANCH  13  20
ENDBRANCH  11  12
ENDBRANCH  10  11
ENDBRANCH   8  10
ENDBRANCH   7   8
ENDBRANCH   6   7
ENDBRANCH   5   6
ENDBRANCH   4   5
ENDBRANCH   3   4
ENDBRANCH   2   3
ENDBRANCH   1   2
BRANCH   1  22
ATOM     22  C   UNL A   1      35.005  20.317  25.208  1.00  0.00     0.188 C 
BRANCH  22  23
ATOM     23  C   UNL A   1      35.845  21.458  25.780  1.00  0.00     0.188 C 
BRANCH  23  24
ATOM     24  O   UNL A   1      37.242  21.220  25.693  1.00  0.00    -0.376 OA
BRANCH  24  25
ATOM     25  C   UNL A   1      37.690  20.073  24.979  1.00  0.00     0.202 C 
BRANCH  25  26
ATOM     26  C   UNL A   1      39.164  19.628  25.040  1.00  0.00     0.261 C 
BRANCH  26  27
ATOM     27  O   UNL A   1      39.827  19.708  26.301  1.00  0.00    -0.460 OA
BRANCH  27  28
ATOM     28  C   UNL A   1      41.145  19.967  26.297  1.00  0.00     0.338 C 
ATOM     29  O   UNL A   1      42.043  19.220  25.945  1.00  0.00    -0.246 OA
BRANCH  28  30
ATOM     30  C   UNL A   1      41.273  21.407  26.580  1.00  0.00     0.060 A 
ATOM     31  C   UNL A   1      41.981  22.200  25.671  1.00  0.00     0.016 A 
ATOM     32  C   UNL A   1      40.636  21.977  27.687  1.00  0.00     0.016 A 
ATOM     33  C   UNL A   1      42.072  23.570  25.876  1.00  0.00     0.010 A 
ATOM     34  C   UNL A   1      40.757  23.349  27.912  1.00  0.00     0.010 A 
ATOM     35  C   UNL A   1      41.506  24.139  27.023  1.00  0.00    -0.014 A 
BRANCH  35  36
ATOM     36  C   UNL A   1      41.932  25.500  27.408  1.00  0.00     0.031 A 
ATOM     37  C   UNL A   1      43.310  25.932  26.991  1.00  0.00     0.074 A 
ATOM     38  C   UNL A   1      41.090  26.341  28.032  1.00  0.00     0.049 A 
ATOM     39  N   UNL A   1      43.918  27.071  27.182  1.00  0.00    -0.248 NA
ATOM     40  C   UNL A   1      44.109  24.941  26.250  1.00  0.00     0.031 C 
ATOM     41  C   UNL A   1      39.713  26.028  28.416  1.00  0.00     0.029 A 
ATOM     42  N   UNL A   1      41.267  27.636  28.447  1.00  0.00    -0.354 N 
ATOM     43  C   UNL A   1      45.172  26.929  26.597  1.00  0.00     0.074 A 
ATOM     44  C   UNL A   1      45.248  25.588  26.067  1.00  0.00     0.031 C 
ATOM     45  C   UNL A   1      39.171  27.103  29.014  1.00  0.00     0.029 A 
ATOM     46  C   UNL A   1      40.175  28.163  29.095  1.00  0.00     0.049 A 
ATOM     47  H   UNL A   1      42.098  28.141  28.295  1.00  0.00     0.167 HD
ATOM     48  C   UNL A   1      46.166  27.844  26.511  1.00  0.00     0.034 A 
ATOM     49  C   UNL A   1      40.024  29.357  29.704  1.00  0.00     0.034 A 
ATOM     50  C   UNL A   1      46.061  29.172  27.060  1.00  0.00     0.049 A 
ATOM     51  C   UNL A   1      41.184  30.327  29.670  1.00  0.00     0.074 A 
ATOM     52  C   UNL A   1      46.990  30.193  27.023  1.00  0.00     0.029 A 
ATOM     53  N   UNL A   1      44.962  29.654  27.762  1.00  0.00    -0.354 N 
ATOM     54  N   UNL A   1      42.361  30.192  29.097  1.00  0.00    -0.248 NA
ATOM     55  C   UNL A   1      40.995  31.612  30.355  1.00  0.00     0.031 C 
ATOM     56  C   UNL A   1      46.495  31.257  27.782  1.00  0.00     0.029 A 
ATOM     57  C   UNL A   1      45.212  30.942  28.204  1.00  0.00     0.049 A 
ATOM     58  H   UNL A   1      44.130  29.154  27.921  1.00  0.00     0.167 HD
ATOM     59  C   UNL A   1      43.033  31.391  29.322  1.00  0.00     0.074 A 
ATOM     60  C   UNL A   1      42.125  32.240  30.066  1.00  0.00     0.031 C 
ATOM     61  C   UNL A   1      44.286  31.764  28.947  1.00  0.00     0.034 A 
BRANCH  48  62
ATOM     62  C   UNL A   1      47.465  27.411  25.879  1.00  0.00     0.023 A 
ATOM     63  C   UNL A   1      47.763  27.658  24.527  1.00  0.00     0.031 A 
ATOM     64  C   UNL A   1      48.417  26.715  26.645  1.00  0.00     0.131 A 
ATOM     65  C   UNL A   1      48.954  27.165  23.972  1.00  0.00     0.055 A 
ATOM     66  C   UNL A   1      49.634  26.296  26.108  1.00  0.00     0.041 A 
ATOM     67  F   UNL A   1      48.173  26.419  27.932  1.00  0.00    -0.206 F 
ATOM     68  C   UNL A   1      49.905  26.511  24.760  1.00  0.00     0.022 A 
BRANCH  65  69
ATOM     69  S   UNL A   1      49.190  27.272  22.176  1.00  0.00     0.124 S 
ATOM     70  O   UNL A   1      48.394  28.450  21.843  1.00  0.00    -0.237 OA
ATOM     71  O   UNL A   1      50.635  27.423  22.056  1.00  0.00    -0.237 OA
ATOM     72  O   UNL A   1      48.652  26.006  21.683  1.00  0.00    -0.744 OA
ENDBRANCH  65  69
ENDBRANCH  48  62
BRANCH  49  73
ATOM     73  C   UNL A   1      38.767  29.694  30.437  1.00  0.00     0.023 A 
ATOM     74  C   UNL A   1      37.748  30.446  29.832  1.00  0.00     0.031 A 
ATOM     75  C   UNL A   1      38.602  29.338  31.789  1.00  0.00     0.131 A 
ATOM     76  C   UNL A   1      36.646  30.875  30.591  1.00  0.00     0.055 A 
ATOM     77  C   UNL A   1      37.471  29.708  32.520  1.00  0.00     0.041 A 
ATOM     78  F   UNL A   1      39.545  28.625  32.424  1.00  0.00    -0.206 F 
ATOM     79  C   UNL A   1      36.493  30.497  31.926  1.00  0.00     0.022 A 
BRANCH  76  80
ATOM     80  S   UNL A   1      35.478  32.045  29.841  1.00  0.00     0.124 S 
ATOM     81  O   UNL A   1      34.525  32.246  30.926  1.00  0.00    -0.237 OA
ATOM     82  O   UNL A   1      36.345  33.176  29.529  1.00  0.00    -0.237 OA
ATOM     83  O   UNL A   1      34.964  31.316  28.684  1.00  0.00    -0.744 OA
ENDBRANCH  76  80
ENDBRANCH  49  73
BRANCH  61  84
ATOM     84  C   UNL A   1      44.715  33.171  29.290  1.00  0.00     0.023 A 
ATOM     85  C   UNL A   1      45.406  33.468  30.476  1.00  0.00     0.031 A 
ATOM     86  C   UNL A   1      44.421  34.229  28.412  1.00  0.00     0.131 A 
ATOM     87  C   UNL A   1      45.722  34.800  30.784  1.00  0.00     0.055 A 
ATOM     88  C   UNL A   1      44.807  35.540  28.687  1.00  0.00     0.041 A 
ATOM     89  F   UNL A   1      43.759  34.003  27.265  1.00  0.00    -0.206 F 
ATOM     90  C   UNL A   1      45.447  35.835  29.886  1.00  0.00     0.022 A 
BRANCH  87  91
ATOM     91  S   UNL A   1      46.394  35.175  32.425  1.00  0.00     0.124 S 
ATOM     92  O   UNL A   1      45.643  34.258  33.277  1.00  0.00    -0.237 OA
ATOM     93  O   UNL A   1      47.813  34.873  32.259  1.00  0.00    -0.237 OA
ATOM     94  O   UNL A   1      46.080  36.590  32.609  1.00  0.00    -0.744 OA
ENDBRANCH  87  91
ENDBRANCH  61  84
ENDBRANCH  35  36
ENDBRANCH  28  30
ENDBRANCH  27  28
ENDBRANCH  26  27
ENDBRANCH  25  26
ENDBRANCH  24  25
ENDBRANCH  23  24
ENDBRANCH  22  23
ENDBRANCH   1  22
TORSDOF 26
ENDMDL
