MODEL 1
REMARK VINA RESULT:      -9.6      0.000      0.000
REMARK SMILES Cn1c(=O)[nH]c(=O)c2c1nc(NC1CCCC1)n2CC(=O)OCCOCCOCCOCCOC(=O)c1ccc(-c2c3nc(c(-c4cc(S(=O)(=O)[O-])ccc4F)c4ccc([nH]4)c(-c4cc(S(=O)(=O)[O-])ccc4F)c4nc(c(-c5cc(S(=O)(=O)[O-])ccc5F)c5ccc2[nH]5)C=C4)C=C3)cc1
REMARK SMILES IDX 28 1 27 2 26 3 25 4 24 5 23 6 22 7 20 8 21 9 19 10 18 11
REMARK SMILES IDX 1 12 2 13 3 14 9 15 4 16 5 17 8 18 10 19 6 20 11 22 7 23
REMARK SMILES IDX 12 24 13 26 14 27 17 28 15 29 16 30 29 31 30 32 31 33 32 34
REMARK SMILES IDX 33 35 34 36 35 37 36 38 37 39 38 40 99 41 39 42 98 43 40 44
REMARK SMILES IDX 41 45 42 46 92 47 43 48 97 49 91 50 93 51 44 52 96 53 90 54
REMARK SMILES IDX 89 55 45 57 77 58 57 59 76 60 58 61 61 62 75 63 94 64 59 65
REMARK SMILES IDX 60 66 74 68 95 69 62 70 46 71 47 72 55 73 48 74 54 75 56 76
REMARK SMILES IDX 53 77 49 78 50 79 51 80 52 81 78 82 79 83 87 84 80 85 86 86
REMARK SMILES IDX 88 87 85 88 81 89 82 90 83 91 84 92 63 93 64 94 72 95 65 96
REMARK SMILES IDX 71 97 73 98 70 99 66 100 67 101 68 102 69 103
REMARK H PARENT 5 21 12 25 93 56 61 67
REMARK Flexibility Score: inf
ROOT
ATOM      1  O   UNL A   1      35.001  19.331  25.056  1.00  0.00    -0.377 OA
ENDROOT
BRANCH   1   2
ATOM      2  C   UNL A   1      33.677  19.567  24.605  1.00  0.00     0.188 C 
BRANCH   2   3
ATOM      3  C   UNL A   1      33.053  20.946  24.958  1.00  0.00     0.188 C 
BRANCH   3   4
ATOM      4  O   UNL A   1      33.158  21.524  26.256  1.00  0.00    -0.376 OA
BRANCH   4   5
ATOM      5  C   UNL A   1      33.619  22.860  26.361  1.00  0.00     0.202 C 
BRANCH   5   6
ATOM      6  C   UNL A   1      32.869  23.921  25.527  1.00  0.00     0.261 C 
BRANCH   6   7
ATOM      7  O   UNL A   1      32.893  25.272  26.064  1.00  0.00    -0.462 OA
BRANCH   7   8
ATOM      8  C   UNL A   1      31.712  25.930  26.143  1.00  0.00     0.326 C 
ATOM      9  O   UNL A   1      31.327  26.499  27.165  1.00  0.00    -0.250 OA
BRANCH   8  10
ATOM     10  C   UNL A   1      30.945  26.101  24.838  1.00  0.00     0.248 C 
BRANCH  10  11
ATOM     11  N   UNL A   1      30.873  27.394  24.157  1.00  0.00    -0.293 N 
ATOM     12  C   UNL A   1      29.513  31.474  22.437  1.00  0.00     0.157 C 
ATOM     13  N   UNL A   1      29.125  30.132  22.834  1.00  0.00    -0.279 N 
ATOM     14  C   UNL A   1      27.798  29.735  22.738  1.00  0.00     0.329 A 
ATOM     15  C   UNL A   1      30.045  29.228  23.309  1.00  0.00     0.170 A 
ATOM     16  O   UNL A   1      26.886  30.469  22.360  1.00  0.00    -0.248 OA
ATOM     17  N   UNL A   1      27.505  28.432  23.107  1.00  0.00    -0.272 N 
ATOM     18  C   UNL A   1      29.712  27.955  23.671  1.00  0.00     0.154 A 
ATOM     19  N   UNL A   1      31.341  29.490  23.555  1.00  0.00    -0.194 NA
ATOM     20  C   UNL A   1      28.383  27.480  23.572  1.00  0.00     0.279 A 
ATOM     21  H   UNL A   1      26.564  28.156  23.028  1.00  0.00     0.175 HD
ATOM     22  C   UNL A   1      31.834  28.416  24.128  1.00  0.00     0.206 A 
ATOM     23  O   UNL A   1      28.020  26.345  23.893  1.00  0.00    -0.267 OA
BRANCH  22  24
ATOM     24  N   UNL A   1      33.092  28.308  24.612  1.00  0.00    -0.353 N 
ATOM     25  H   UNL A   1      33.660  27.579  24.273  1.00  0.00     0.163 HD
BRANCH  24  26
ATOM     26  C   UNL A   1      33.658  29.218  25.617  1.00  0.00     0.082 C 
ATOM     27  C   UNL A   1      32.709  30.038  26.486  1.00  0.00     0.025 C 
ATOM     28  C   UNL A   1      34.538  28.571  26.680  1.00  0.00     0.025 C 
ATOM     29  C   UNL A   1      33.645  30.722  27.473  1.00  0.00     0.002 C 
ATOM     30  C   UNL A   1      34.759  29.697  27.710  1.00  0.00     0.002 C 
ENDBRANCH  24  26
ENDBRANCH  22  24
ENDBRANCH  10  11
ENDBRANCH   8  10
ENDBRANCH   7   8
ENDBRANCH   6   7
ENDBRANCH   5   6
ENDBRANCH   4   5
ENDBRANCH   3   4
ENDBRANCH   2   3
ENDBRANCH   1   2
BRANCH   1  31
ATOM     31  C   UNL A   1      35.983  20.241  24.583  1.00  0.00     0.188 C 
BRANCH  31  32
ATOM     32  C   UNL A   1      36.673  21.089  25.670  1.00  0.00     0.188 C 
BRANCH  32  33
ATOM     33  O   UNL A   1      37.839  21.756  25.204  1.00  0.00    -0.376 OA
BRANCH  33  34
ATOM     34  C   UNL A   1      38.901  22.023  26.104  1.00  0.00     0.202 C 
BRANCH  34  35
ATOM     35  C   UNL A   1      39.055  23.440  26.656  1.00  0.00     0.261 C 
BRANCH  35  36
ATOM     36  O   UNL A   1      39.913  23.584  27.774  1.00  0.00    -0.460 OA
BRANCH  36  37
ATOM     37  C   UNL A   1      41.216  23.664  27.469  1.00  0.00     0.338 C 
ATOM     38  O   UNL A   1      41.966  22.713  27.272  1.00  0.00    -0.246 OA
BRANCH  37  39
ATOM     39  C   UNL A   1      41.636  25.067  27.487  1.00  0.00     0.060 A 
ATOM     40  C   UNL A   1      42.429  25.450  28.564  1.00  0.00     0.016 A 
ATOM     41  C   UNL A   1      41.022  26.011  26.646  1.00  0.00     0.016 A 
ATOM     42  C   UNL A   1      42.372  26.761  28.966  1.00  0.00     0.010 A 
ATOM     43  C   UNL A   1      40.966  27.325  27.048  1.00  0.00     0.010 A 
ATOM     44  C   UNL A   1      41.551  27.652  28.263  1.00  0.00    -0.014 A 
BRANCH  44  45
ATOM     45  C   UNL A   1      41.393  28.976  28.817  1.00  0.00     0.031 A 
ATOM     46  C   UNL A   1      42.494  29.874  28.417  1.00  0.00     0.074 A 
ATOM     47  C   UNL A   1      40.352  29.329  29.592  1.00  0.00     0.049 A 
ATOM     48  N   UNL A   1      43.463  30.293  29.158  1.00  0.00    -0.248 NA
ATOM     49  C   UNL A   1      42.667  30.146  26.981  1.00  0.00     0.031 C 
ATOM     50  C   UNL A   1      39.122  28.589  29.883  1.00  0.00     0.029 A 
ATOM     51  N   UNL A   1      40.153  30.503  30.242  1.00  0.00    -0.354 N 
ATOM     52  C   UNL A   1      44.239  31.088  28.329  1.00  0.00     0.074 A 
ATOM     53  C   UNL A   1      43.835  30.789  26.981  1.00  0.00     0.031 C 
ATOM     54  C   UNL A   1      38.219  29.427  30.444  1.00  0.00     0.029 A 
ATOM     55  C   UNL A   1      38.848  30.719  30.671  1.00  0.00     0.049 A 
ATOM     56  H   UNL A   1      40.877  31.153  30.397  1.00  0.00     0.167 HD
ATOM     57  C   UNL A   1      44.954  32.126  28.832  1.00  0.00     0.034 A 
ATOM     58  C   UNL A   1      38.334  31.904  31.103  1.00  0.00     0.034 A 
ATOM     59  C   UNL A   1      45.164  31.992  30.253  1.00  0.00     0.049 A 
ATOM     60  C   UNL A   1      39.493  32.712  31.569  1.00  0.00     0.074 A 
ATOM     61  C   UNL A   1      45.779  31.044  31.049  1.00  0.00     0.029 A 
ATOM     62  N   UNL A   1      44.346  32.708  31.097  1.00  0.00    -0.354 N 
ATOM     63  N   UNL A   1      40.234  32.371  32.591  1.00  0.00    -0.248 NA
ATOM     64  C   UNL A   1      40.137  33.596  30.606  1.00  0.00     0.031 C 
ATOM     65  C   UNL A   1      44.933  30.916  32.190  1.00  0.00     0.029 A 
ATOM     66  C   UNL A   1      43.895  31.842  32.067  1.00  0.00     0.049 A 
ATOM     67  H   UNL A   1      44.124  33.665  31.021  1.00  0.00     0.167 HD
ATOM     68  C   UNL A   1      41.538  32.633  32.195  1.00  0.00     0.074 A 
ATOM     69  C   UNL A   1      41.410  33.455  30.990  1.00  0.00     0.031 C 
ATOM     70  C   UNL A   1      42.593  31.929  32.701  1.00  0.00     0.034 A 
BRANCH  57  71
ATOM     71  C   UNL A   1      45.121  33.426  28.095  1.00  0.00     0.023 A 
ATOM     72  C   UNL A   1      44.242  34.478  28.396  1.00  0.00     0.031 A 
ATOM     73  C   UNL A   1      45.914  33.587  26.932  1.00  0.00     0.131 A 
ATOM     74  C   UNL A   1      44.144  35.590  27.542  1.00  0.00     0.055 A 
ATOM     75  C   UNL A   1      45.860  34.723  26.125  1.00  0.00     0.041 A 
ATOM     76  F   UNL A   1      46.703  32.615  26.456  1.00  0.00    -0.206 F 
ATOM     77  C   UNL A   1      44.953  35.723  26.415  1.00  0.00     0.022 A 
BRANCH  74  78
ATOM     78  S   UNL A   1      42.836  36.802  27.852  1.00  0.00     0.124 S 
ATOM     79  O   UNL A   1      43.519  37.765  28.709  1.00  0.00    -0.237 OA
ATOM     80  O   UNL A   1      42.519  37.253  26.501  1.00  0.00    -0.237 OA
ATOM     81  O   UNL A   1      41.793  36.014  28.506  1.00  0.00    -0.744 OA
ENDBRANCH  74  78
ENDBRANCH  57  71
BRANCH  58  82
ATOM     82  C   UNL A   1      37.016  32.502  30.722  1.00  0.00     0.023 A 
ATOM     83  C   UNL A   1      36.171  33.130  31.668  1.00  0.00     0.031 A 
ATOM     84  C   UNL A   1      36.682  32.695  29.362  1.00  0.00     0.131 A 
ATOM     85  C   UNL A   1      35.067  33.908  31.241  1.00  0.00     0.055 A 
ATOM     86  C   UNL A   1      35.591  33.464  28.947  1.00  0.00     0.041 A 
ATOM     87  F   UNL A   1      37.457  32.220  28.377  1.00  0.00    -0.206 F 
ATOM     88  C   UNL A   1      34.784  34.085  29.885  1.00  0.00     0.022 A 
BRANCH  85  89
ATOM     89  S   UNL A   1      34.036  34.807  32.446  1.00  0.00     0.124 S 
ATOM     90  O   UNL A   1      34.045  33.904  33.592  1.00  0.00    -0.237 OA
ATOM     91  O   UNL A   1      34.758  36.064  32.608  1.00  0.00    -0.237 OA
ATOM     92  O   UNL A   1      32.745  34.928  31.768  1.00  0.00    -0.744 OA
ENDBRANCH  85  89
ENDBRANCH  58  82
BRANCH  70  93
ATOM     93  C   UNL A   1      42.358  31.026  33.897  1.00  0.00     0.023 A 
ATOM     94  C   UNL A   1      42.004  29.657  33.827  1.00  0.00     0.031 A 
ATOM     95  C   UNL A   1      42.663  31.558  35.161  1.00  0.00     0.131 A 
ATOM     96  C   UNL A   1      41.968  28.880  35.006  1.00  0.00     0.055 A 
ATOM     97  C   UNL A   1      42.645  30.783  36.317  1.00  0.00     0.041 A 
ATOM     98  F   UNL A   1      43.035  32.843  35.282  1.00  0.00    -0.206 F 
ATOM     99  C   UNL A   1      42.297  29.439  36.245  1.00  0.00     0.022 A 
BRANCH  96 100
ATOM    100  S   UNL A   1      41.519  27.111  34.948  1.00  0.00     0.124 S 
ATOM    101  O   UNL A   1      42.738  26.471  34.464  1.00  0.00    -0.237 OA
ATOM    102  O   UNL A   1      41.151  26.827  36.332  1.00  0.00    -0.237 OA
ATOM    103  O   UNL A   1      40.398  27.073  34.006  1.00  0.00    -0.744 OA
ENDBRANCH  96 100
ENDBRANCH  70  93
ENDBRANCH  44  45
ENDBRANCH  37  39
ENDBRANCH  36  37
ENDBRANCH  35  36
ENDBRANCH  34  35
ENDBRANCH  33  34
ENDBRANCH  32  33
ENDBRANCH  31  32
ENDBRANCH   1  31
TORSDOF 26
ENDMDL
MODEL 2
REMARK VINA RESULT:      -9.4      1.822      2.674
REMARK SMILES Cn1c(=O)[nH]c(=O)c2c1nc(NC1CCCC1)n2CC(=O)OCCOCCOCCOCCOC(=O)c1ccc(-c2c3nc(c(-c4cc(S(=O)(=O)[O-])ccc4F)c4ccc([nH]4)c(-c4cc(S(=O)(=O)[O-])ccc4F)c4nc(c(-c5cc(S(=O)(=O)[O-])ccc5F)c5ccc2[nH]5)C=C4)C=C3)cc1
REMARK SMILES IDX 28 1 27 2 26 3 25 4 24 5 23 6 22 7 20 8 21 9 19 10 18 11
REMARK SMILES IDX 1 12 2 13 3 14 9 15 4 16 5 17 8 18 10 19 6 20 11 22 7 23
REMARK SMILES IDX 12 24 13 26 14 27 17 28 15 29 16 30 29 31 30 32 31 33 32 34
REMARK SMILES IDX 33 35 34 36 35 37 36 38 37 39 38 40 99 41 39 42 98 43 40 44
REMARK SMILES IDX 41 45 42 46 92 47 43 48 97 49 91 50 93 51 44 52 96 53 90 54
REMARK SMILES IDX 89 55 45 57 77 58 57 59 76 60 58 61 61 62 75 63 94 64 59 65
REMARK SMILES IDX 60 66 74 68 95 69 62 70 46 71 47 72 55 73 48 74 54 75 56 76
REMARK SMILES IDX 53 77 49 78 50 79 51 80 52 81 78 82 79 83 87 84 80 85 86 86
REMARK SMILES IDX 88 87 85 88 81 89 82 90 83 91 84 92 63 93 64 94 72 95 65 96
REMARK SMILES IDX 71 97 73 98 70 99 66 100 67 101 68 102 69 103
REMARK H PARENT 5 21 12 25 93 56 61 67
REMARK Flexibility Score: inf
ROOT
ATOM      1  O   UNL A   1      34.797  20.595  25.094  1.00  0.00    -0.377 OA
ENDROOT
BRANCH   1   2
ATOM      2  C   UNL A   1      33.995  21.494  24.345  1.00  0.00     0.188 C 
BRANCH   2   3
ATOM      3  C   UNL A   1      34.346  23.004  24.456  1.00  0.00     0.188 C 
BRANCH   3   4
ATOM      4  O   UNL A   1      34.001  23.788  25.595  1.00  0.00    -0.376 OA
BRANCH   4   5
ATOM      5  C   UNL A   1      34.716  24.989  25.826  1.00  0.00     0.202 C 
BRANCH   5   6
ATOM      6  C   UNL A   1      33.923  26.306  25.688  1.00  0.00     0.261 C 
BRANCH   6   7
ATOM      7  O   UNL A   1      33.751  26.794  24.329  1.00  0.00    -0.462 OA
BRANCH   7   8
ATOM      8  C   UNL A   1      33.577  28.127  24.165  1.00  0.00     0.326 C 
ATOM      9  O   UNL A   1      34.369  28.836  23.542  1.00  0.00    -0.250 OA
BRANCH   8  10
ATOM     10  C   UNL A   1      32.245  28.698  24.632  1.00  0.00     0.248 C 
BRANCH  10  11
ATOM     11  N   UNL A   1      31.150  28.951  23.695  1.00  0.00    -0.293 N 
ATOM     12  C   UNL A   1      27.965  30.911  20.960  1.00  0.00     0.157 C 
ATOM     13  N   UNL A   1      28.760  31.019  22.171  1.00  0.00    -0.279 N 
ATOM     14  C   UNL A   1      28.657  32.147  22.972  1.00  0.00     0.329 A 
ATOM     15  C   UNL A   1      29.625  30.021  22.555  1.00  0.00     0.170 A 
ATOM     16  O   UNL A   1      27.944  33.115  22.710  1.00  0.00    -0.248 OA
ATOM     17  N   UNL A   1      29.424  32.169  24.127  1.00  0.00    -0.272 N 
ATOM     18  C   UNL A   1      30.369  30.086  23.697  1.00  0.00     0.154 A 
ATOM     19  N   UNL A   1      29.910  28.918  21.841  1.00  0.00    -0.194 NA
ATOM     20  C   UNL A   1      30.290  31.198  24.570  1.00  0.00     0.279 A 
ATOM     21  H   UNL A   1      29.338  32.970  24.693  1.00  0.00     0.175 HD
ATOM     22  C   UNL A   1      30.875  28.300  22.482  1.00  0.00     0.206 A 
ATOM     23  O   UNL A   1      30.945  31.318  25.610  1.00  0.00    -0.267 OA
BRANCH  22  24
ATOM     24  N   UNL A   1      31.509  27.190  22.041  1.00  0.00    -0.353 N 
ATOM     25  H   UNL A   1      32.288  27.303  21.450  1.00  0.00     0.163 HD
BRANCH  24  26
ATOM     26  C   UNL A   1      31.099  25.825  22.395  1.00  0.00     0.082 C 
ATOM     27  C   UNL A   1      32.106  24.689  22.235  1.00  0.00     0.025 C 
ATOM     28  C   UNL A   1      30.655  25.617  23.838  1.00  0.00     0.025 C 
ATOM     29  C   UNL A   1      31.376  23.492  22.829  1.00  0.00     0.002 C 
ATOM     30  C   UNL A   1      30.546  24.084  23.972  1.00  0.00     0.002 C 
ENDBRANCH  24  26
ENDBRANCH  22  24
ENDBRANCH  10  11
ENDBRANCH   8  10
ENDBRANCH   7   8
ENDBRANCH   6   7
ENDBRANCH   5   6
ENDBRANCH   4   5
ENDBRANCH   3   4
ENDBRANCH   2   3
ENDBRANCH   1   2
BRANCH   1  31
ATOM     31  C   UNL A   1      36.194  20.670  24.853  1.00  0.00     0.188 C 
BRANCH  31  32
ATOM     32  C   UNL A   1      36.998  21.481  25.889  1.00  0.00     0.188 C 
BRANCH  32  33
ATOM     33  O   UNL A   1      38.318  21.788  25.457  1.00  0.00    -0.376 OA
BRANCH  33  34
ATOM     34  C   UNL A   1      39.362  21.891  26.411  1.00  0.00     0.202 C 
BRANCH  34  35
ATOM     35  C   UNL A   1      39.824  23.282  26.843  1.00  0.00     0.261 C 
BRANCH  35  36
ATOM     36  O   UNL A   1      40.752  23.327  27.913  1.00  0.00    -0.460 OA
BRANCH  36  37
ATOM     37  C   UNL A   1      42.031  23.467  27.535  1.00  0.00     0.338 C 
ATOM     38  O   UNL A   1      42.788  22.556  27.214  1.00  0.00    -0.246 OA
BRANCH  37  39
ATOM     39  C   UNL A   1      42.419  24.875  27.642  1.00  0.00     0.060 A 
ATOM     40  C   UNL A   1      42.976  25.261  28.857  1.00  0.00     0.016 A 
ATOM     41  C   UNL A   1      41.974  25.816  26.698  1.00  0.00     0.016 A 
ATOM     42  C   UNL A   1      42.822  26.568  29.243  1.00  0.00     0.010 A 
ATOM     43  C   UNL A   1      41.821  27.126  27.085  1.00  0.00     0.010 A 
ATOM     44  C   UNL A   1      42.146  27.453  28.393  1.00  0.00    -0.014 A 
BRANCH  44  45
ATOM     45  C   UNL A   1      41.863  28.772  28.909  1.00  0.00     0.031 A 
ATOM     46  C   UNL A   1      42.850  29.767  28.446  1.00  0.00     0.074 A 
ATOM     47  C   UNL A   1      40.812  29.039  29.705  1.00  0.00     0.049 A 
ATOM     48  N   UNL A   1      43.788  30.313  29.142  1.00  0.00    -0.248 NA
ATOM     49  C   UNL A   1      42.952  30.005  26.997  1.00  0.00     0.031 C 
ATOM     50  C   UNL A   1      39.678  28.183  30.058  1.00  0.00     0.029 A 
ATOM     51  N   UNL A   1      40.506  30.208  30.323  1.00  0.00    -0.354 N 
ATOM     52  C   UNL A   1      44.450  31.156  28.264  1.00  0.00     0.074 A 
ATOM     53  C   UNL A   1      44.043  30.769  26.940  1.00  0.00     0.031 C 
ATOM     54  C   UNL A   1      38.706  28.940  30.621  1.00  0.00     0.029 A 
ATOM     55  C   UNL A   1      39.198  30.298  30.787  1.00  0.00     0.049 A 
ATOM     56  H   UNL A   1      41.160  30.936  30.435  1.00  0.00     0.167 HD
ATOM     57  C   UNL A   1      45.064  32.282  28.710  1.00  0.00     0.034 A 
ATOM     58  C   UNL A   1      38.572  31.436  31.196  1.00  0.00     0.034 A 
ATOM     59  C   UNL A   1      45.327  32.221  30.127  1.00  0.00     0.049 A 
ATOM     60  C   UNL A   1      39.651  32.379  31.599  1.00  0.00     0.074 A 
ATOM     61  C   UNL A   1      46.062  31.372  30.934  1.00  0.00     0.029 A 
ATOM     62  N   UNL A   1      44.461  32.875  30.974  1.00  0.00    -0.354 N 
ATOM     63  N   UNL A   1      40.452  32.155  32.607  1.00  0.00    -0.248 NA
ATOM     64  C   UNL A   1      40.168  33.293  30.588  1.00  0.00     0.031 C 
ATOM     65  C   UNL A   1      45.267  31.196  32.105  1.00  0.00     0.029 A 
ATOM     66  C   UNL A   1      44.132  32.001  31.984  1.00  0.00     0.049 A 
ATOM     67  H   UNL A   1      44.135  33.800  30.874  1.00  0.00     0.167 HD
ATOM     68  C   UNL A   1      41.708  32.541  32.162  1.00  0.00     0.074 A 
ATOM     69  C   UNL A   1      41.459  33.301  30.936  1.00  0.00     0.031 C 
ATOM     70  C   UNL A   1      42.847  31.972  32.657  1.00  0.00     0.034 A 
BRANCH  57  71
ATOM     71  C   UNL A   1      45.070  33.565  27.927  1.00  0.00     0.023 A 
ATOM     72  C   UNL A   1      46.307  34.092  27.525  1.00  0.00     0.031 A 
ATOM     73  C   UNL A   1      43.952  34.426  27.798  1.00  0.00     0.131 A 
ATOM     74  C   UNL A   1      46.402  35.419  27.071  1.00  0.00     0.055 A 
ATOM     75  C   UNL A   1      44.042  35.719  27.285  1.00  0.00     0.041 A 
ATOM     76  F   UNL A   1      42.735  34.103  28.256  1.00  0.00    -0.206 F 
ATOM     77  C   UNL A   1      45.278  36.232  26.941  1.00  0.00     0.022 A 
BRANCH  74  78
ATOM     78  S   UNL A   1      48.048  36.117  26.786  1.00  0.00     0.124 S 
ATOM     79  O   UNL A   1      48.573  36.204  28.145  1.00  0.00    -0.237 OA
ATOM     80  O   UNL A   1      48.655  35.109  25.924  1.00  0.00    -0.237 OA
ATOM     81  O   UNL A   1      47.765  37.398  26.143  1.00  0.00    -0.744 OA
ENDBRANCH  74  78
ENDBRANCH  57  71
BRANCH  58  82
ATOM     82  C   UNL A   1      37.188  31.877  30.838  1.00  0.00     0.023 A 
ATOM     83  C   UNL A   1      36.338  32.525  31.767  1.00  0.00     0.031 A 
ATOM     84  C   UNL A   1      36.768  31.898  29.489  1.00  0.00     0.131 A 
ATOM     85  C   UNL A   1      35.148  33.158  31.332  1.00  0.00     0.055 A 
ATOM     86  C   UNL A   1      35.592  32.524  29.066  1.00  0.00     0.041 A 
ATOM     87  F   UNL A   1      37.531  31.391  28.510  1.00  0.00    -0.206 F 
ATOM     88  C   UNL A   1      34.780  33.168  29.985  1.00  0.00     0.022 A 
BRANCH  85  89
ATOM     89  S   UNL A   1      34.103  34.087  32.502  1.00  0.00     0.124 S 
ATOM     90  O   UNL A   1      33.298  34.910  31.607  1.00  0.00    -0.237 OA
ATOM     91  O   UNL A   1      33.399  33.025  33.213  1.00  0.00    -0.237 OA
ATOM     92  O   UNL A   1      35.072  34.824  33.313  1.00  0.00    -0.744 OA
ENDBRANCH  85  89
ENDBRANCH  58  82
BRANCH  70  93
ATOM     93  C   UNL A   1      42.744  31.091  33.887  1.00  0.00     0.023 A 
ATOM     94  C   UNL A   1      42.284  29.752  33.896  1.00  0.00     0.031 A 
ATOM     95  C   UNL A   1      43.289  31.602  35.078  1.00  0.00     0.131 A 
ATOM     96  C   UNL A   1      42.384  28.983  35.076  1.00  0.00     0.055 A 
ATOM     97  C   UNL A   1      43.402  30.833  36.233  1.00  0.00     0.041 A 
ATOM     98  F   UNL A   1      43.768  32.856  35.119  1.00  0.00    -0.206 F 
ATOM     99  C   UNL A   1      42.950  29.519  36.238  1.00  0.00     0.022 A 
BRANCH  96 100
ATOM    100  S   UNL A   1      41.804  27.252  35.117  1.00  0.00     0.124 S 
ATOM    101  O   UNL A   1      41.283  27.105  36.473  1.00  0.00    -0.237 OA
ATOM    102  O   UNL A   1      40.815  27.218  34.043  1.00  0.00    -0.237 OA
ATOM    103  O   UNL A   1      43.017  26.477  34.846  1.00  0.00    -0.744 OA
ENDBRANCH  96 100
ENDBRANCH  70  93
ENDBRANCH  44  45
ENDBRANCH  37  39
ENDBRANCH  36  37
ENDBRANCH  35  36
ENDBRANCH  34  35
ENDBRANCH  33  34
ENDBRANCH  32  33
ENDBRANCH  31  32
ENDBRANCH   1  31
TORSDOF 26
ENDMDL
MODEL 3
REMARK VINA RESULT:      -8.6      3.418      8.994
REMARK SMILES Cn1c(=O)[nH]c(=O)c2c1nc(NC1CCCC1)n2CC(=O)OCCOCCOCCOCCOC(=O)c1ccc(-c2c3nc(c(-c4cc(S(=O)(=O)[O-])ccc4F)c4ccc([nH]4)c(-c4cc(S(=O)(=O)[O-])ccc4F)c4nc(c(-c5cc(S(=O)(=O)[O-])ccc5F)c5ccc2[nH]5)C=C4)C=C3)cc1
REMARK SMILES IDX 28 1 27 2 26 3 25 4 24 5 23 6 22 7 20 8 21 9 19 10 18 11
REMARK SMILES IDX 1 12 2 13 3 14 9 15 4 16 5 17 8 18 10 19 6 20 11 22 7 23
REMARK SMILES IDX 12 24 13 26 14 27 17 28 15 29 16 30 29 31 30 32 31 33 32 34
REMARK SMILES IDX 33 35 34 36 35 37 36 38 37 39 38 40 99 41 39 42 98 43 40 44
REMARK SMILES IDX 41 45 42 46 92 47 43 48 97 49 91 50 93 51 44 52 96 53 90 54
REMARK SMILES IDX 89 55 45 57 77 58 57 59 76 60 58 61 61 62 75 63 94 64 59 65
REMARK SMILES IDX 60 66 74 68 95 69 62 70 46 71 47 72 55 73 48 74 54 75 56 76
REMARK SMILES IDX 53 77 49 78 50 79 51 80 52 81 78 82 79 83 87 84 80 85 86 86
REMARK SMILES IDX 88 87 85 88 81 89 82 90 83 91 84 92 63 93 64 94 72 95 65 96
REMARK SMILES IDX 71 97 73 98 70 99 66 100 67 101 68 102 69 103
REMARK H PARENT 5 21 12 25 93 56 61 67
REMARK Flexibility Score: inf
ROOT
ATOM      1  O   UNL A   1      34.523  24.205  25.933  1.00  0.00    -0.377 OA
ENDROOT
BRANCH   1   2
ATOM      2  C   UNL A   1      34.037  25.111  24.956  1.00  0.00     0.188 C 
BRANCH   2   3
ATOM      3  C   UNL A   1      33.679  26.542  25.444  1.00  0.00     0.188 C 
BRANCH   3   4
ATOM      4  O   UNL A   1      32.334  26.974  25.627  1.00  0.00    -0.376 OA
BRANCH   4   5
ATOM      5  C   UNL A   1      32.110  28.239  26.225  1.00  0.00     0.202 C 
BRANCH   5   6
ATOM      6  C   UNL A   1      33.161  28.718  27.251  1.00  0.00     0.261 C 
BRANCH   6   7
ATOM      7  O   UNL A   1      33.504  30.130  27.182  1.00  0.00    -0.462 OA
BRANCH   7   8
ATOM      8  C   UNL A   1      34.728  30.494  27.634  1.00  0.00     0.326 C 
ATOM      9  O   UNL A   1      35.614  29.682  27.901  1.00  0.00    -0.250 OA
BRANCH   8  10
ATOM     10  C   UNL A   1      35.034  31.986  27.628  1.00  0.00     0.248 C 
BRANCH  10  11
ATOM     11  N   UNL A   1      35.392  32.698  28.855  1.00  0.00    -0.293 N 
ATOM     12  C   UNL A   1      35.319  35.006  32.871  1.00  0.00     0.157 C 
ATOM     13  N   UNL A   1      34.647  34.735  31.612  1.00  0.00    -0.279 N 
ATOM     14  C   UNL A   1      33.427  35.335  31.332  1.00  0.00     0.329 A 
ATOM     15  C   UNL A   1      35.191  33.890  30.674  1.00  0.00     0.170 A 
ATOM     16  O   UNL A   1      32.832  36.080  32.110  1.00  0.00    -0.248 OA
ATOM     17  N   UNL A   1      32.858  35.053  30.100  1.00  0.00    -0.272 N 
ATOM     18  C   UNL A   1      34.592  33.633  29.475  1.00  0.00     0.154 A 
ATOM     19  N   UNL A   1      36.308  33.160  30.836  1.00  0.00    -0.194 NA
ATOM     20  C   UNL A   1      33.360  34.233  29.118  1.00  0.00     0.279 A 
ATOM     21  H   UNL A   1      31.997  35.490  29.907  1.00  0.00     0.175 HD
ATOM     22  C   UNL A   1      36.404  32.389  29.778  1.00  0.00     0.206 A 
ATOM     23  O   UNL A   1      32.767  34.031  28.055  1.00  0.00    -0.267 OA
BRANCH  22  24
ATOM     24  N   UNL A   1      37.348  31.437  29.598  1.00  0.00    -0.353 N 
ATOM     25  H   UNL A   1      37.800  31.390  28.725  1.00  0.00     0.163 HD
BRANCH  24  26
ATOM     26  C   UNL A   1      37.736  30.470  30.633  1.00  0.00     0.082 C 
ATOM     27  C   UNL A   1      36.687  30.011  31.642  1.00  0.00     0.025 C 
ATOM     28  C   UNL A   1      38.259  29.130  30.129  1.00  0.00     0.025 C 
ATOM     29  C   UNL A   1      37.414  28.930  32.431  1.00  0.00     0.002 C 
ATOM     30  C   UNL A   1      38.329  28.260  31.400  1.00  0.00     0.002 C 
ENDBRANCH  24  26
ENDBRANCH  22  24
ENDBRANCH  10  11
ENDBRANCH   8  10
ENDBRANCH   7   8
ENDBRANCH   6   7
ENDBRANCH   5   6
ENDBRANCH   4   5
ENDBRANCH   3   4
ENDBRANCH   2   3
ENDBRANCH   1   2
BRANCH   1  31
ATOM     31  C   UNL A   1      35.693  23.483  25.574  1.00  0.00     0.188 C 
BRANCH  31  32
ATOM     32  C   UNL A   1      37.010  24.035  26.154  1.00  0.00     0.188 C 
BRANCH  32  33
ATOM     33  O   UNL A   1      38.167  23.482  25.538  1.00  0.00    -0.376 OA
BRANCH  33  34
ATOM     34  C   UNL A   1      39.125  22.800  26.330  1.00  0.00     0.202 C 
BRANCH  34  35
ATOM     35  C   UNL A   1      40.162  23.622  27.095  1.00  0.00     0.261 C 
BRANCH  35  36
ATOM     36  O   UNL A   1      40.352  24.955  26.653  1.00  0.00    -0.460 OA
BRANCH  36  37
ATOM     37  C   UNL A   1      39.918  25.892  27.507  1.00  0.00     0.338 C 
ATOM     38  O   UNL A   1      38.825  25.904  28.065  1.00  0.00    -0.246 OA
BRANCH  37  39
ATOM     39  C   UNL A   1      40.921  26.955  27.616  1.00  0.00     0.060 A 
ATOM     40  C   UNL A   1      42.048  26.650  28.371  1.00  0.00     0.016 A 
ATOM     41  C   UNL A   1      40.612  28.274  27.243  1.00  0.00     0.016 A 
ATOM     42  C   UNL A   1      42.701  27.686  28.990  1.00  0.00     0.010 A 
ATOM     43  C   UNL A   1      41.267  29.312  27.862  1.00  0.00     0.010 A 
ATOM     44  C   UNL A   1      42.227  28.992  28.810  1.00  0.00    -0.014 A 
BRANCH  44  45
ATOM     45  C   UNL A   1      42.841  30.028  29.608  1.00  0.00     0.031 A 
ATOM     46  C   UNL A   1      42.095  30.274  30.858  1.00  0.00     0.074 A 
ATOM     47  C   UNL A   1      43.966  30.669  29.241  1.00  0.00     0.049 A 
ATOM     48  N   UNL A   1      41.350  31.291  31.130  1.00  0.00    -0.248 NA
ATOM     49  C   UNL A   1      41.975  29.161  31.813  1.00  0.00     0.031 C 
ATOM     50  C   UNL A   1      44.882  30.371  28.139  1.00  0.00     0.029 A 
ATOM     51  N   UNL A   1      44.571  31.716  29.857  1.00  0.00    -0.354 N 
ATOM     52  C   UNL A   1      40.861  31.054  32.405  1.00  0.00     0.074 A 
ATOM     53  C   UNL A   1      41.094  29.661  32.680  1.00  0.00     0.031 C 
ATOM     54  C   UNL A   1      46.034  31.061  28.318  1.00  0.00     0.029 A 
ATOM     55  C   UNL A   1      45.885  31.942  29.465  1.00  0.00     0.049 A 
ATOM     56  H   UNL A   1      44.114  32.271  30.530  1.00  0.00     0.167 HD
ATOM     57  C   UNL A   1      40.555  32.083  33.236  1.00  0.00     0.034 A 
ATOM     58  C   UNL A   1      46.784  32.741  30.104  1.00  0.00     0.034 A 
ATOM     59  C   UNL A   1      40.360  33.314  32.510  1.00  0.00     0.049 A 
ATOM     60  C   UNL A   1      45.981  33.722  30.885  1.00  0.00     0.074 A 
ATOM     61  C   UNL A   1      39.488  33.718  31.515  1.00  0.00     0.029 A 
ATOM     62  N   UNL A   1      41.399  34.216  32.477  1.00  0.00    -0.354 N 
ATOM     63  N   UNL A   1      45.204  34.612  30.326  1.00  0.00    -0.248 NA
ATOM     64  C   UNL A   1      45.642  33.381  32.261  1.00  0.00     0.031 C 
ATOM     65  C   UNL A   1      40.279  34.507  30.630  1.00  0.00     0.029 A 
ATOM     66  C   UNL A   1      41.564  34.608  31.168  1.00  0.00     0.049 A 
ATOM     67  H   UNL A   1      41.929  34.525  33.248  1.00  0.00     0.167 HD
ATOM     68  C   UNL A   1      44.053  34.622  31.101  1.00  0.00     0.074 A 
ATOM     69  C   UNL A   1      44.410  33.897  32.321  1.00  0.00     0.031 C 
ATOM     70  C   UNL A   1      42.839  34.959  30.572  1.00  0.00     0.034 A 
BRANCH  57  71
ATOM     71  C   UNL A   1      40.812  32.032  34.716  1.00  0.00     0.023 A 
ATOM     72  C   UNL A   1      39.716  32.156  35.584  1.00  0.00     0.031 A 
ATOM     73  C   UNL A   1      42.094  32.144  35.307  1.00  0.00     0.131 A 
ATOM     74  C   UNL A   1      39.917  32.424  36.949  1.00  0.00     0.055 A 
ATOM     75  C   UNL A   1      42.288  32.345  36.673  1.00  0.00     0.041 A 
ATOM     76  F   UNL A   1      43.222  32.171  34.585  1.00  0.00    -0.206 F 
ATOM     77  C   UNL A   1      41.194  32.511  37.500  1.00  0.00     0.022 A 
BRANCH  74  78
ATOM     78  S   UNL A   1      38.473  32.802  37.975  1.00  0.00     0.124 S 
ATOM     79  O   UNL A   1      38.934  32.395  39.298  1.00  0.00    -0.237 OA
ATOM     80  O   UNL A   1      38.319  34.236  37.759  1.00  0.00    -0.237 OA
ATOM     81  O   UNL A   1      37.421  31.969  37.396  1.00  0.00    -0.744 OA
ENDBRANCH  74  78
ENDBRANCH  57  71
BRANCH  58  82
ATOM     82  C   UNL A   1      48.212  32.420  30.411  1.00  0.00     0.023 A 
ATOM     83  C   UNL A   1      48.589  31.250  31.112  1.00  0.00     0.031 A 
ATOM     84  C   UNL A   1      49.259  33.137  29.787  1.00  0.00     0.131 A 
ATOM     85  C   UNL A   1      49.946  30.845  31.158  1.00  0.00     0.055 A 
ATOM     86  C   UNL A   1      50.595  32.733  29.836  1.00  0.00     0.041 A 
ATOM     87  F   UNL A   1      49.013  34.212  29.025  1.00  0.00    -0.206 F 
ATOM     88  C   UNL A   1      50.945  31.576  30.513  1.00  0.00     0.022 A 
BRANCH  85  89
ATOM     89  S   UNL A   1      50.427  29.283  31.967  1.00  0.00     0.124 S 
ATOM     90  O   UNL A   1      49.633  29.315  33.190  1.00  0.00    -0.237 OA
ATOM     91  O   UNL A   1      50.051  28.282  30.977  1.00  0.00    -0.237 OA
ATOM     92  O   UNL A   1      51.869  29.433  32.166  1.00  0.00    -0.744 OA
ENDBRANCH  85  89
ENDBRANCH  58  82
BRANCH  70  93
ATOM     93  C   UNL A   1      42.796  35.574  29.186  1.00  0.00     0.023 A 
ATOM     94  C   UNL A   1      42.751  36.962  28.911  1.00  0.00     0.031 A 
ATOM     95  C   UNL A   1      42.963  34.697  28.101  1.00  0.00     0.131 A 
ATOM     96  C   UNL A   1      42.874  37.418  27.579  1.00  0.00     0.055 A 
ATOM     97  C   UNL A   1      43.104  35.154  26.792  1.00  0.00     0.041 A 
ATOM     98  F   UNL A   1      43.044  33.372  28.306  1.00  0.00    -0.206 F 
ATOM     99  C   UNL A   1      43.059  36.517  26.526  1.00  0.00     0.022 A 
BRANCH  96 100
ATOM    100  S   UNL A   1      42.824  39.202  27.193  1.00  0.00     0.124 S 
ATOM    101  O   UNL A   1      43.974  39.387  26.314  1.00  0.00    -0.237 OA
ATOM    102  O   UNL A   1      41.512  39.360  26.573  1.00  0.00    -0.237 OA
ATOM    103  O   UNL A   1      42.954  39.841  28.504  1.00  0.00    -0.744 OA
ENDBRANCH  96 100
ENDBRANCH  70  93
ENDBRANCH  44  45
ENDBRANCH  37  39
ENDBRANCH  36  37
ENDBRANCH  35  36
ENDBRANCH  34  35
ENDBRANCH  33  34
ENDBRANCH  32  33
ENDBRANCH  31  32
ENDBRANCH   1  31
TORSDOF 26
ENDMDL
