MODEL 1
REMARK VINA RESULT:      -9.5      0.000      0.000
REMARK SMILES CCc1cc(OC(F)(F)F)cc2c1O[C@@H](C(F)(F)F)C(C(=O)OCCOCCOCCOCCOC(=O)c1ccc(-c3c4nc(c(-c5cc(S(=O)(=O)[O-])ccc5F)c5ccc([nH]5)c(-c5cc(S(=O)(=O)[O-])ccc5F)c5nc(c(-c6cc(S(=O)(=O)[O-])ccc6F)c6ccc3[nH]6)C=C5)C=C4)cc1)=C2
REMARK SMILES IDX 30 1 29 2 28 3 27 4 26 5 25 6 24 7 23 8 21 9 22 10 20 11
REMARK SMILES IDX 3 12 4 13 13 14 5 15 12 16 14 17 11 18 101 19 15 20 2 21
REMARK SMILES IDX 1 22 6 23 7 24 8 25 9 26 10 27 16 28 17 29 18 30 19 31 31 32
REMARK SMILES IDX 32 33 33 34 34 35 35 36 36 37 37 38 38 39 39 40 100 41 40 42
REMARK SMILES IDX 99 43 41 44 42 45 43 46 93 47 44 48 98 49 92 50 94 51 45 52
REMARK SMILES IDX 97 53 91 54 90 55 46 57 78 58 58 59 77 60 59 61 62 62 76 63
REMARK SMILES IDX 95 64 60 65 61 66 75 68 96 69 63 70 47 71 48 72 56 73 49 74
REMARK SMILES IDX 55 75 57 76 54 77 50 78 51 79 52 80 53 81 79 82 80 83 88 84
REMARK SMILES IDX 81 85 87 86 89 87 86 88 82 89 83 90 84 91 85 92 64 93 65 94
REMARK SMILES IDX 73 95 66 96 72 97 74 98 71 99 67 100 68 101 69 102 70 103
REMARK H PARENT 94 56 62 67
REMARK Flexibility Score: inf
ROOT
ATOM      1  C   UNL A   1      45.808  41.382  24.667  1.00  0.00     0.188 C 
ENDROOT
BRANCH   1   2
ATOM      2  O   UNL A   1      46.062  41.797  23.331  1.00  0.00    -0.377 OA
BRANCH   2   3
ATOM      3  C   UNL A   1      45.810  43.135  22.952  1.00  0.00     0.188 C 
BRANCH   3   4
ATOM      4  C   UNL A   1      46.956  44.157  23.024  1.00  0.00     0.188 C 
BRANCH   4   5
ATOM      5  O   UNL A   1      47.370  44.686  21.769  1.00  0.00    -0.376 OA
BRANCH   5   6
ATOM      6  C   UNL A   1      48.770  44.889  21.615  1.00  0.00     0.202 C 
BRANCH   6   7
ATOM      7  C   UNL A   1      49.148  45.408  20.226  1.00  0.00     0.261 C 
BRANCH   7   8
ATOM      8  O   UNL A   1      48.494  44.698  19.159  1.00  0.00    -0.460 OA
BRANCH   8   9
ATOM      9  C   UNL A   1      48.488  45.288  17.947  1.00  0.00     0.338 C 
ATOM     10  O   UNL A   1      49.284  45.105  17.043  1.00  0.00    -0.246 OA
BRANCH   9  11
ATOM     11  C   UNL A   1      47.272  46.107  17.815  1.00  0.00     0.087 C 
ATOM     12  C   UNL A   1      43.920  48.595  17.908  1.00  0.00    -0.002 A 
ATOM     13  C   UNL A   1      42.641  48.017  17.825  1.00  0.00     0.054 A 
ATOM     14  C   UNL A   1      45.039  47.754  17.898  1.00  0.00     0.131 A 
ATOM     15  C   UNL A   1      42.483  46.630  17.751  1.00  0.00     0.130 A 
ATOM     16  C   UNL A   1      44.891  46.362  17.822  1.00  0.00     0.021 A 
ATOM     17  O   UNL A   1      46.276  48.333  18.041  1.00  0.00    -0.475 OA
ATOM     18  C   UNL A   1      43.613  45.808  17.728  1.00  0.00     0.058 A 
ATOM     19  C   UNL A   1      46.072  45.514  17.936  1.00  0.00     0.027 C 
ATOM     20  C   UNL A   1      47.378  47.573  17.476  1.00  0.00     0.316 C 
BRANCH  12  21
ATOM     21  C   UNL A   1      44.052  50.093  18.041  1.00  0.00     0.036 C 
ATOM     22  C   UNL A   1      43.413  50.602  19.325  1.00  0.00     0.009 C 
ENDBRANCH  12  21
BRANCH  15  23
ATOM     23  O   UNL A   1      41.290  45.965  17.696  1.00  0.00    -0.406 OA
BRANCH  23  24
ATOM     24  C   UNL A   1      41.284  44.707  17.043  1.00  0.00     0.573 C 
ATOM     25  F   UNL A   1      41.808  44.790  15.800  1.00  0.00    -0.132 F 
ATOM     26  F   UNL A   1      41.972  43.789  17.757  1.00  0.00    -0.132 F 
ATOM     27  F   UNL A   1      40.008  44.276  16.931  1.00  0.00    -0.132 F 
ENDBRANCH  23  24
ENDBRANCH  15  23
BRANCH  20  28
ATOM     28  C   UNL A   1      48.682  48.314  17.811  1.00  0.00     0.430 C 
ATOM     29  F   UNL A   1      49.749  47.763  17.189  1.00  0.00    -0.167 F 
ATOM     30  F   UNL A   1      48.617  49.596  17.355  1.00  0.00    -0.167 F 
ATOM     31  F   UNL A   1      48.934  48.381  19.133  1.00  0.00    -0.167 F 
ENDBRANCH  20  28
ENDBRANCH   9  11
ENDBRANCH   8   9
ENDBRANCH   7   8
ENDBRANCH   6   7
ENDBRANCH   5   6
ENDBRANCH   4   5
ENDBRANCH   3   4
ENDBRANCH   2   3
ENDBRANCH   1   2
BRANCH   1  32
ATOM     32  C   UNL A   1      46.933  40.786  25.535  1.00  0.00     0.188 C 
BRANCH  32  33
ATOM     33  O   UNL A   1      46.568  40.535  26.890  1.00  0.00    -0.376 OA
BRANCH  33  34
ATOM     34  C   UNL A   1      45.732  39.404  27.100  1.00  0.00     0.202 C 
BRANCH  34  35
ATOM     35  C   UNL A   1      45.451  39.136  28.581  1.00  0.00     0.261 C 
BRANCH  35  36
ATOM     36  O   UNL A   1      45.237  37.757  28.909  1.00  0.00    -0.460 OA
BRANCH  36  37
ATOM     37  C   UNL A   1      46.323  36.951  28.947  1.00  0.00     0.338 C 
ATOM     38  O   UNL A   1      47.474  37.276  29.173  1.00  0.00    -0.246 OA
BRANCH  37  39
ATOM     39  C   UNL A   1      45.834  35.564  28.847  1.00  0.00     0.060 A 
ATOM     40  C   UNL A   1      45.560  35.024  27.584  1.00  0.00     0.016 A 
ATOM     41  C   UNL A   1      45.706  34.785  30.000  1.00  0.00     0.016 A 
ATOM     42  C   UNL A   1      45.157  33.693  27.474  1.00  0.00     0.010 A 
ATOM     43  C   UNL A   1      45.282  33.463  29.888  1.00  0.00     0.010 A 
ATOM     44  C   UNL A   1      44.995  32.913  28.628  1.00  0.00    -0.014 A 
BRANCH  44  45
ATOM     45  C   UNL A   1      44.388  31.564  28.555  1.00  0.00     0.031 A 
ATOM     46  C   UNL A   1      45.079  30.516  27.731  1.00  0.00     0.074 A 
ATOM     47  C   UNL A   1      43.221  31.295  29.168  1.00  0.00     0.049 A 
ATOM     48  N   UNL A   1      44.681  29.312  27.418  1.00  0.00    -0.248 NA
ATOM     49  C   UNL A   1      46.393  30.884  27.182  1.00  0.00     0.031 C 
ATOM     50  C   UNL A   1      42.482  32.223  30.021  1.00  0.00     0.029 A 
ATOM     51  N   UNL A   1      42.443  30.165  29.143  1.00  0.00    -0.354 N 
ATOM     52  C   UNL A   1      45.697  28.773  26.636  1.00  0.00     0.074 A 
ATOM     53  C   UNL A   1      46.714  29.795  26.501  1.00  0.00     0.031 C 
ATOM     54  C   UNL A   1      41.340  31.631  30.419  1.00  0.00     0.029 A 
ATOM     55  C   UNL A   1      41.249  30.304  29.813  1.00  0.00     0.049 A 
ATOM     56  H   UNL A   1      42.713  29.334  28.689  1.00  0.00     0.167 HD
ATOM     57  C   UNL A   1      45.775  27.537  26.088  1.00  0.00     0.034 A 
ATOM     58  C   UNL A   1      40.193  29.470  29.892  1.00  0.00     0.034 A 
ATOM     59  C   UNL A   1      44.739  26.542  26.202  1.00  0.00     0.049 A 
ATOM     60  C   UNL A   1      40.249  28.145  29.165  1.00  0.00     0.074 A 
ATOM     61  C   UNL A   1      44.723  25.251  25.705  1.00  0.00     0.029 A 
ATOM     62  N   UNL A   1      43.519  26.738  26.837  1.00  0.00    -0.354 N 
ATOM     63  N   UNL A   1      41.224  27.635  28.447  1.00  0.00    -0.248 NA
ATOM     64  C   UNL A   1      39.058  27.290  29.252  1.00  0.00     0.031 C 
ATOM     65  C   UNL A   1      43.469  24.693  25.977  1.00  0.00     0.029 A 
ATOM     66  C   UNL A   1      42.726  25.609  26.705  1.00  0.00     0.049 A 
ATOM     67  H   UNL A   1      43.257  27.559  27.313  1.00  0.00     0.167 HD
ATOM     68  C   UNL A   1      40.768  26.392  28.015  1.00  0.00     0.074 A 
ATOM     69  C   UNL A   1      39.440  26.223  28.565  1.00  0.00     0.031 C 
ATOM     70  C   UNL A   1      41.391  25.469  27.238  1.00  0.00     0.034 A 
BRANCH  57  71
ATOM     71  C   UNL A   1      47.002  27.225  25.271  1.00  0.00     0.023 A 
ATOM     72  C   UNL A   1      47.171  27.741  23.973  1.00  0.00     0.031 A 
ATOM     73  C   UNL A   1      47.996  26.371  25.778  1.00  0.00     0.131 A 
ATOM     74  C   UNL A   1      48.276  27.346  23.204  1.00  0.00     0.055 A 
ATOM     75  C   UNL A   1      49.128  26.038  25.033  1.00  0.00     0.041 A 
ATOM     76  F   UNL A   1      47.871  25.830  27.000  1.00  0.00    -0.206 F 
ATOM     77  C   UNL A   1      49.266  26.515  23.733  1.00  0.00     0.022 A 
BRANCH  74  78
ATOM     78  S   UNL A   1      48.331  27.829  21.457  1.00  0.00     0.124 S 
ATOM     79  O   UNL A   1      49.371  28.855  21.465  1.00  0.00    -0.237 OA
ATOM     80  O   UNL A   1      48.674  26.577  20.794  1.00  0.00    -0.237 OA
ATOM     81  O   UNL A   1      46.981  28.324  21.195  1.00  0.00    -0.744 OA
ENDBRANCH  74  78
ENDBRANCH  57  71
BRANCH  58  82
ATOM     82  C   UNL A   1      38.958  29.874  30.621  1.00  0.00     0.023 A 
ATOM     83  C   UNL A   1      38.068  30.813  30.076  1.00  0.00     0.031 A 
ATOM     84  C   UNL A   1      38.687  29.380  31.910  1.00  0.00     0.131 A 
ATOM     85  C   UNL A   1      36.974  31.261  30.834  1.00  0.00     0.055 A 
ATOM     86  C   UNL A   1      37.571  29.792  32.639  1.00  0.00     0.041 A 
ATOM     87  F   UNL A   1      39.509  28.483  32.480  1.00  0.00    -0.206 F 
ATOM     88  C   UNL A   1      36.713  30.748  32.107  1.00  0.00     0.022 A 
BRANCH  85  89
ATOM     89  S   UNL A   1      35.938  32.590  30.163  1.00  0.00     0.124 S 
ATOM     90  O   UNL A   1      36.531  32.794  28.846  1.00  0.00    -0.237 OA
ATOM     91  O   UNL A   1      34.612  31.980  30.184  1.00  0.00    -0.237 OA
ATOM     92  O   UNL A   1      36.132  33.685  31.112  1.00  0.00    -0.744 OA
ENDBRANCH  85  89
ENDBRANCH  58  82
BRANCH  70  93
ATOM     93  C   UNL A   1      40.644  24.189  26.960  1.00  0.00     0.023 A 
ATOM     94  C   UNL A   1      41.249  22.932  27.137  1.00  0.00     0.031 A 
ATOM     95  C   UNL A   1      39.313  24.227  26.511  1.00  0.00     0.131 A 
ATOM     96  C   UNL A   1      40.535  21.765  26.825  1.00  0.00     0.055 A 
ATOM     97  C   UNL A   1      38.591  23.061  26.254  1.00  0.00     0.041 A 
ATOM     98  F   UNL A   1      38.689  25.402  26.325  1.00  0.00    -0.206 F 
ATOM     99  C   UNL A   1      39.205  21.821  26.400  1.00  0.00     0.022 A 
BRANCH  96 100
ATOM    100  S   UNL A   1      41.391  20.168  26.917  1.00  0.00     0.124 S 
ATOM    101  O   UNL A   1      40.981  19.679  28.229  1.00  0.00    -0.237 OA
ATOM    102  O   UNL A   1      40.843  19.452  25.770  1.00  0.00    -0.237 OA
ATOM    103  O   UNL A   1      42.803  20.528  26.802  1.00  0.00    -0.744 OA
ENDBRANCH  96 100
ENDBRANCH  70  93
ENDBRANCH  44  45
ENDBRANCH  37  39
ENDBRANCH  36  37
ENDBRANCH  35  36
ENDBRANCH  34  35
ENDBRANCH  33  34
ENDBRANCH  32  33
ENDBRANCH   1  32
TORSDOF 27
ENDMDL
MODEL 2
REMARK VINA RESULT:      -9.3      9.450     14.942
REMARK SMILES CCc1cc(OC(F)(F)F)cc2c1O[C@@H](C(F)(F)F)C(C(=O)OCCOCCOCCOCCOC(=O)c1ccc(-c3c4nc(c(-c5cc(S(=O)(=O)[O-])ccc5F)c5ccc([nH]5)c(-c5cc(S(=O)(=O)[O-])ccc5F)c5nc(c(-c6cc(S(=O)(=O)[O-])ccc6F)c6ccc3[nH]6)C=C5)C=C4)cc1)=C2
REMARK SMILES IDX 30 1 29 2 28 3 27 4 26 5 25 6 24 7 23 8 21 9 22 10 20 11
REMARK SMILES IDX 3 12 4 13 13 14 5 15 12 16 14 17 11 18 101 19 15 20 2 21
REMARK SMILES IDX 1 22 6 23 7 24 8 25 9 26 10 27 16 28 17 29 18 30 19 31 31 32
REMARK SMILES IDX 32 33 33 34 34 35 35 36 36 37 37 38 38 39 39 40 100 41 40 42
REMARK SMILES IDX 99 43 41 44 42 45 43 46 93 47 44 48 98 49 92 50 94 51 45 52
REMARK SMILES IDX 97 53 91 54 90 55 46 57 78 58 58 59 77 60 59 61 62 62 76 63
REMARK SMILES IDX 95 64 60 65 61 66 75 68 96 69 63 70 47 71 48 72 56 73 49 74
REMARK SMILES IDX 55 75 57 76 54 77 50 78 51 79 52 80 53 81 79 82 80 83 88 84
REMARK SMILES IDX 81 85 87 86 89 87 86 88 82 89 83 90 84 91 85 92 64 93 65 94
REMARK SMILES IDX 73 95 66 96 72 97 74 98 71 99 67 100 68 101 69 102 70 103
REMARK H PARENT 94 56 62 67
REMARK Flexibility Score: inf
ROOT
ATOM      1  C   UNL A   1      37.961  34.468  41.576  1.00  0.00     0.188 C 
ENDROOT
BRANCH   1   2
ATOM      2  O   UNL A   1      36.733  33.824  41.261  1.00  0.00    -0.377 OA
BRANCH   2   3
ATOM      3  C   UNL A   1      36.510  32.494  41.685  1.00  0.00     0.188 C 
BRANCH   3   4
ATOM      4  C   UNL A   1      37.026  31.338  40.812  1.00  0.00     0.188 C 
BRANCH   4   5
ATOM      5  O   UNL A   1      36.691  31.431  39.431  1.00  0.00    -0.376 OA
BRANCH   5   6
ATOM      6  C   UNL A   1      37.750  31.814  38.562  1.00  0.00     0.202 C 
BRANCH   6   7
ATOM      7  C   UNL A   1      37.623  31.208  37.163  1.00  0.00     0.261 C 
BRANCH   7   8
ATOM      8  O   UNL A   1      38.891  30.874  36.572  1.00  0.00    -0.460 OA
BRANCH   8   9
ATOM      9  C   UNL A   1      39.523  31.851  35.890  1.00  0.00     0.338 C 
ATOM     10  O   UNL A   1      40.467  32.517  36.276  1.00  0.00    -0.246 OA
BRANCH   9  11
ATOM     11  C   UNL A   1      38.983  31.911  34.522  1.00  0.00     0.087 C 
ATOM     12  C   UNL A   1      36.994  32.093  30.855  1.00  0.00    -0.002 A 
ATOM     13  C   UNL A   1      37.115  31.014  29.962  1.00  0.00     0.054 A 
ATOM     14  C   UNL A   1      37.645  32.016  32.092  1.00  0.00     0.131 A 
ATOM     15  C   UNL A   1      37.855  29.878  30.302  1.00  0.00     0.130 A 
ATOM     16  C   UNL A   1      38.392  30.882  32.442  1.00  0.00     0.021 A 
ATOM     17  O   UNL A   1      37.465  33.053  32.974  1.00  0.00    -0.475 OA
ATOM     18  C   UNL A   1      38.509  29.827  31.536  1.00  0.00     0.058 A 
ATOM     19  C   UNL A   1      38.955  30.788  33.784  1.00  0.00     0.027 C 
ATOM     20  C   UNL A   1      38.539  33.229  33.939  1.00  0.00     0.316 C 
BRANCH  12  21
ATOM     21  C   UNL A   1      36.142  33.280  30.477  1.00  0.00     0.036 C 
ATOM     22  C   UNL A   1      34.679  32.894  30.313  1.00  0.00     0.009 C 
ENDBRANCH  12  21
BRANCH  15  23
ATOM     23  O   UNL A   1      38.013  28.766  29.524  1.00  0.00    -0.406 OA
BRANCH  23  24
ATOM     24  C   UNL A   1      38.694  28.933  28.292  1.00  0.00     0.573 C 
ATOM     25  F   UNL A   1      39.649  29.886  28.379  1.00  0.00    -0.132 F 
ATOM     26  F   UNL A   1      39.258  27.773  27.890  1.00  0.00    -0.132 F 
ATOM     27  F   UNL A   1      37.807  29.315  27.347  1.00  0.00    -0.132 F 
ENDBRANCH  23  24
ENDBRANCH  15  23
BRANCH  20  28
ATOM     28  C   UNL A   1      38.128  34.358  34.898  1.00  0.00     0.430 C 
ATOM     29  F   UNL A   1      38.985  35.403  34.843  1.00  0.00    -0.167 F 
ATOM     30  F   UNL A   1      36.917  34.861  34.529  1.00  0.00    -0.167 F 
ATOM     31  F   UNL A   1      38.012  33.956  36.178  1.00  0.00    -0.167 F 
ENDBRANCH  20  28
ENDBRANCH   9  11
ENDBRANCH   8   9
ENDBRANCH   7   8
ENDBRANCH   6   7
ENDBRANCH   5   6
ENDBRANCH   4   5
ENDBRANCH   3   4
ENDBRANCH   2   3
ENDBRANCH   1   2
BRANCH   1  32
ATOM     32  C   UNL A   1      39.002  34.763  40.478  1.00  0.00     0.188 C 
BRANCH  32  33
ATOM     33  O   UNL A   1      40.044  33.797  40.373  1.00  0.00    -0.376 OA
BRANCH  33  34
ATOM     34  C   UNL A   1      41.089  34.119  39.464  1.00  0.00     0.202 C 
BRANCH  34  35
ATOM     35  C   UNL A   1      42.438  34.331  40.156  1.00  0.00     0.261 C 
BRANCH  35  36
ATOM     36  O   UNL A   1      43.112  33.122  40.534  1.00  0.00    -0.460 OA
BRANCH  36  37
ATOM     37  C   UNL A   1      44.400  32.982  40.145  1.00  0.00     0.338 C 
ATOM     38  O   UNL A   1      45.398  33.231  40.796  1.00  0.00    -0.246 OA
BRANCH  37  39
ATOM     39  C   UNL A   1      44.384  32.290  38.843  1.00  0.00     0.060 A 
ATOM     40  C   UNL A   1      43.329  31.420  38.543  1.00  0.00     0.016 A 
ATOM     41  C   UNL A   1      45.383  32.553  37.903  1.00  0.00     0.016 A 
ATOM     42  C   UNL A   1      43.271  30.810  37.290  1.00  0.00     0.010 A 
ATOM     43  C   UNL A   1      45.335  31.925  36.660  1.00  0.00     0.010 A 
ATOM     44  C   UNL A   1      44.286  31.042  36.350  1.00  0.00    -0.014 A 
BRANCH  44  45
ATOM     45  C   UNL A   1      44.351  30.264  35.092  1.00  0.00     0.031 A 
ATOM     46  C   UNL A   1      43.924  30.933  33.818  1.00  0.00     0.074 A 
ATOM     47  C   UNL A   1      44.735  28.974  35.095  1.00  0.00     0.049 A 
ATOM     48  N   UNL A   1      43.775  30.425  32.624  1.00  0.00    -0.248 NA
ATOM     49  C   UNL A   1      43.613  32.368  33.911  1.00  0.00     0.031 C 
ATOM     50  C   UNL A   1      45.205  28.235  36.264  1.00  0.00     0.029 A 
ATOM     51  N   UNL A   1      44.765  28.054  34.077  1.00  0.00    -0.354 N 
ATOM     52  C   UNL A   1      43.358  31.478  31.818  1.00  0.00     0.074 A 
ATOM     53  C   UNL A   1      43.248  32.644  32.669  1.00  0.00     0.031 C 
ATOM     54  C   UNL A   1      45.451  26.962  35.903  1.00  0.00     0.029 A 
ATOM     55  C   UNL A   1      45.116  26.789  34.490  1.00  0.00     0.049 A 
ATOM     56  H   UNL A   1      44.554  28.277  33.142  1.00  0.00     0.167 HD
ATOM     57  C   UNL A   1      43.097  31.472  30.489  1.00  0.00     0.034 A 
ATOM     58  C   UNL A   1      45.125  25.623  33.812  1.00  0.00     0.034 A 
ATOM     59  C   UNL A   1      43.175  30.294  29.662  1.00  0.00     0.049 A 
ATOM     60  C   UNL A   1      44.706  25.616  32.360  1.00  0.00     0.074 A 
ATOM     61  C   UNL A   1      42.953  30.179  28.301  1.00  0.00     0.029 A 
ATOM     62  N   UNL A   1      43.477  29.020  30.124  1.00  0.00    -0.354 N 
ATOM     63  N   UNL A   1      44.334  26.622  31.601  1.00  0.00    -0.248 NA
ATOM     64  C   UNL A   1      44.698  24.315  31.678  1.00  0.00     0.031 C 
ATOM     65  C   UNL A   1      43.049  28.826  27.955  1.00  0.00     0.029 A 
ATOM     66  C   UNL A   1      43.400  28.105  29.086  1.00  0.00     0.049 A 
ATOM     67  H   UNL A   1      43.711  28.799  31.055  1.00  0.00     0.167 HD
ATOM     68  C   UNL A   1      44.068  26.074  30.348  1.00  0.00     0.074 A 
ATOM     69  C   UNL A   1      44.336  24.655  30.450  1.00  0.00     0.031 C 
ATOM     70  C   UNL A   1      43.645  26.688  29.213  1.00  0.00     0.034 A 
BRANCH  57  71
ATOM     71  C   UNL A   1      42.645  32.770  29.872  1.00  0.00     0.023 A 
ATOM     72  C   UNL A   1      43.526  33.577  29.131  1.00  0.00     0.031 A 
ATOM     73  C   UNL A   1      41.330  33.227  30.061  1.00  0.00     0.131 A 
ATOM     74  C   UNL A   1      43.099  34.828  28.659  1.00  0.00     0.055 A 
ATOM     75  C   UNL A   1      40.890  34.440  29.530  1.00  0.00     0.041 A 
ATOM     76  F   UNL A   1      40.455  32.508  30.783  1.00  0.00    -0.206 F 
ATOM     77  C   UNL A   1      41.780  35.254  28.836  1.00  0.00     0.022 A 
BRANCH  74  78
ATOM     78  S   UNL A   1      44.326  35.944  27.928  1.00  0.00     0.124 S 
ATOM     79  O   UNL A   1      44.380  37.016  28.919  1.00  0.00    -0.237 OA
ATOM     80  O   UNL A   1      45.509  35.097  27.839  1.00  0.00    -0.237 OA
ATOM     81  O   UNL A   1      43.729  36.319  26.648  1.00  0.00    -0.744 OA
ENDBRANCH  74  78
ENDBRANCH  57  71
BRANCH  58  82
ATOM     82  C   UNL A   1      45.472  24.347  34.500  1.00  0.00     0.023 A 
ATOM     83  C   UNL A   1      46.809  23.955  34.671  1.00  0.00     0.031 A 
ATOM     84  C   UNL A   1      44.465  23.464  34.932  1.00  0.00     0.131 A 
ATOM     85  C   UNL A   1      47.103  22.696  35.219  1.00  0.00     0.055 A 
ATOM     86  C   UNL A   1      44.764  22.235  35.521  1.00  0.00     0.041 A 
ATOM     87  F   UNL A   1      43.170  23.789  34.787  1.00  0.00    -0.206 F 
ATOM     88  C   UNL A   1      46.091  21.838  35.656  1.00  0.00     0.022 A 
BRANCH  85  89
ATOM     89  S   UNL A   1      48.834  22.156  35.277  1.00  0.00     0.124 S 
ATOM     90  O   UNL A   1      48.695  20.705  35.231  1.00  0.00    -0.237 OA
ATOM     91  O   UNL A   1      49.387  22.787  34.083  1.00  0.00    -0.237 OA
ATOM     92  O   UNL A   1      49.317  22.698  36.545  1.00  0.00    -0.744 OA
ENDBRANCH  85  89
ENDBRANCH  58  82
BRANCH  70  93
ATOM     93  C   UNL A   1      43.470  25.822  27.989  1.00  0.00     0.023 A 
ATOM     94  C   UNL A   1      44.572  25.388  27.233  1.00  0.00     0.031 A 
ATOM     95  C   UNL A   1      42.185  25.431  27.575  1.00  0.00     0.131 A 
ATOM     96  C   UNL A   1      44.365  24.622  26.076  1.00  0.00     0.055 A 
ATOM     97  C   UNL A   1      41.989  24.625  26.454  1.00  0.00     0.041 A 
ATOM     98  F   UNL A   1      41.098  25.820  28.261  1.00  0.00    -0.206 F 
ATOM     99  C   UNL A   1      43.082  24.224  25.691  1.00  0.00     0.022 A 
BRANCH  96 100
ATOM    100  S   UNL A   1      45.793  24.206  25.037  1.00  0.00     0.124 S 
ATOM    101  O   UNL A   1      46.603  23.399  25.944  1.00  0.00    -0.237 OA
ATOM    102  O   UNL A   1      45.176  23.491  23.926  1.00  0.00    -0.237 OA
ATOM    103  O   UNL A   1      46.359  25.509  24.694  1.00  0.00    -0.744 OA
ENDBRANCH  96 100
ENDBRANCH  70  93
ENDBRANCH  44  45
ENDBRANCH  37  39
ENDBRANCH  36  37
ENDBRANCH  35  36
ENDBRANCH  34  35
ENDBRANCH  33  34
ENDBRANCH  32  33
ENDBRANCH   1  32
TORSDOF 27
ENDMDL
MODEL 3
REMARK VINA RESULT:      -9.2      9.708     15.903
REMARK SMILES CCc1cc(OC(F)(F)F)cc2c1O[C@@H](C(F)(F)F)C(C(=O)OCCOCCOCCOCCOC(=O)c1ccc(-c3c4nc(c(-c5cc(S(=O)(=O)[O-])ccc5F)c5ccc([nH]5)c(-c5cc(S(=O)(=O)[O-])ccc5F)c5nc(c(-c6cc(S(=O)(=O)[O-])ccc6F)c6ccc3[nH]6)C=C5)C=C4)cc1)=C2
REMARK SMILES IDX 30 1 29 2 28 3 27 4 26 5 25 6 24 7 23 8 21 9 22 10 20 11
REMARK SMILES IDX 3 12 4 13 13 14 5 15 12 16 14 17 11 18 101 19 15 20 2 21
REMARK SMILES IDX 1 22 6 23 7 24 8 25 9 26 10 27 16 28 17 29 18 30 19 31 31 32
REMARK SMILES IDX 32 33 33 34 34 35 35 36 36 37 37 38 38 39 39 40 100 41 40 42
REMARK SMILES IDX 99 43 41 44 42 45 43 46 93 47 44 48 98 49 92 50 94 51 45 52
REMARK SMILES IDX 97 53 91 54 90 55 46 57 78 58 58 59 77 60 59 61 62 62 76 63
REMARK SMILES IDX 95 64 60 65 61 66 75 68 96 69 63 70 47 71 48 72 56 73 49 74
REMARK SMILES IDX 55 75 57 76 54 77 50 78 51 79 52 80 53 81 79 82 80 83 88 84
REMARK SMILES IDX 81 85 87 86 89 87 86 88 82 89 83 90 84 91 85 92 64 93 65 94
REMARK SMILES IDX 73 95 66 96 72 97 74 98 71 99 67 100 68 101 69 102 70 103
REMARK H PARENT 94 56 62 67
REMARK Flexibility Score: inf
ROOT
ATOM      1  C   UNL A   1      42.736  35.414  33.388  1.00  0.00     0.188 C 
ENDROOT
BRANCH   1   2
ATOM      2  O   UNL A   1      43.232  34.315  34.142  1.00  0.00    -0.377 OA
BRANCH   2   3
ATOM      3  C   UNL A   1      43.020  34.271  35.539  1.00  0.00     0.188 C 
BRANCH   3   4
ATOM      4  C   UNL A   1      42.797  32.909  36.216  1.00  0.00     0.188 C 
BRANCH   4   5
ATOM      5  O   UNL A   1      43.300  31.789  35.495  1.00  0.00    -0.376 OA
BRANCH   5   6
ATOM      6  C   UNL A   1      43.300  30.551  36.196  1.00  0.00     0.202 C 
BRANCH   6   7
ATOM      7  C   UNL A   1      44.698  30.117  36.639  1.00  0.00     0.261 C 
BRANCH   7   8
ATOM      8  O   UNL A   1      44.897  28.694  36.573  1.00  0.00    -0.460 OA
BRANCH   8   9
ATOM      9  C   UNL A   1      46.056  28.263  36.033  1.00  0.00     0.338 C 
ATOM     10  O   UNL A   1      47.179  28.615  36.344  1.00  0.00    -0.246 OA
BRANCH   9  11
ATOM     11  C   UNL A   1      45.770  27.178  35.081  1.00  0.00     0.087 C 
ATOM     12  C   UNL A   1      44.521  24.333  32.291  1.00  0.00    -0.002 A 
ATOM     13  C   UNL A   1      44.319  23.008  32.715  1.00  0.00     0.054 A 
ATOM     14  C   UNL A   1      44.919  25.287  33.235  1.00  0.00     0.131 A 
ATOM     15  C   UNL A   1      44.493  22.647  34.054  1.00  0.00     0.130 A 
ATOM     16  C   UNL A   1      45.099  24.935  34.581  1.00  0.00     0.021 A 
ATOM     17  O   UNL A   1      45.052  26.587  32.814  1.00  0.00    -0.475 OA
ATOM     18  C   UNL A   1      44.904  23.610  34.979  1.00  0.00     0.058 A 
ATOM     19  C   UNL A   1      45.395  25.978  35.556  1.00  0.00     0.027 C 
ATOM     20  C   UNL A   1      45.969  27.394  33.601  1.00  0.00     0.316 C 
BRANCH  12  21
ATOM     21  C   UNL A   1      44.271  24.699  30.848  1.00  0.00     0.036 C 
ATOM     22  C   UNL A   1      44.151  23.464  29.966  1.00  0.00     0.009 C 
ENDBRANCH  12  21
BRANCH  15  23
ATOM     23  O   UNL A   1      44.297  21.399  34.576  1.00  0.00    -0.406 OA
BRANCH  23  24
ATOM     24  C   UNL A   1      45.450  20.679  34.977  1.00  0.00     0.573 C 
ATOM     25  F   UNL A   1      46.444  20.789  34.067  1.00  0.00    -0.132 F 
ATOM     26  F   UNL A   1      45.896  21.111  36.177  1.00  0.00    -0.132 F 
ATOM     27  F   UNL A   1      45.134  19.371  35.095  1.00  0.00    -0.132 F 
ENDBRANCH  23  24
ENDBRANCH  15  23
BRANCH  20  28
ATOM     28  C   UNL A   1      45.919  28.830  33.054  1.00  0.00     0.430 C 
ATOM     29  F   UNL A   1      46.739  29.659  33.740  1.00  0.00    -0.167 F 
ATOM     30  F   UNL A   1      46.370  28.852  31.770  1.00  0.00    -0.167 F 
ATOM     31  F   UNL A   1      44.678  29.355  33.043  1.00  0.00    -0.167 F 
ENDBRANCH  20  28
ENDBRANCH   9  11
ENDBRANCH   8   9
ENDBRANCH   7   8
ENDBRANCH   6   7
ENDBRANCH   5   6
ENDBRANCH   4   5
ENDBRANCH   3   4
ENDBRANCH   2   3
ENDBRANCH   1   2
BRANCH   1  32
ATOM     32  C   UNL A   1      43.328  35.754  32.006  1.00  0.00     0.188 C 
BRANCH  32  33
ATOM     33  O   UNL A   1      43.640  37.131  31.817  1.00  0.00    -0.376 OA
BRANCH  33  34
ATOM     34  C   UNL A   1      45.010  37.421  31.569  1.00  0.00     0.202 C 
BRANCH  34  35
ATOM     35  C   UNL A   1      45.949  36.813  32.614  1.00  0.00     0.261 C 
BRANCH  35  36
ATOM     36  O   UNL A   1      47.335  36.815  32.247  1.00  0.00    -0.460 OA
BRANCH  36  37
ATOM     37  C   UNL A   1      48.045  35.690  32.494  1.00  0.00     0.338 C 
ATOM     38  O   UNL A   1      48.996  35.569  33.243  1.00  0.00    -0.246 OA
BRANCH  37  39
ATOM     39  C   UNL A   1      47.339  34.580  31.827  1.00  0.00     0.060 A 
ATOM     40  C   UNL A   1      46.961  34.717  30.486  1.00  0.00     0.016 A 
ATOM     41  C   UNL A   1      47.107  33.388  32.517  1.00  0.00     0.016 A 
ATOM     42  C   UNL A   1      46.349  33.650  29.827  1.00  0.00     0.010 A 
ATOM     43  C   UNL A   1      46.476  32.332  31.863  1.00  0.00     0.010 A 
ATOM     44  C   UNL A   1      46.083  32.460  30.520  1.00  0.00    -0.014 A 
BRANCH  44  45
ATOM     45  C   UNL A   1      45.268  31.387  29.905  1.00  0.00     0.031 A 
ATOM     46  C   UNL A   1      43.887  31.146  30.442  1.00  0.00     0.074 A 
ATOM     47  C   UNL A   1      45.768  30.614  28.925  1.00  0.00     0.049 A 
ATOM     48  N   UNL A   1      43.041  30.194  30.155  1.00  0.00    -0.248 NA
ATOM     49  C   UNL A   1      43.404  32.105  31.447  1.00  0.00     0.031 C 
ATOM     50  C   UNL A   1      47.080  30.781  28.302  1.00  0.00     0.029 A 
ATOM     51  N   UNL A   1      45.234  29.516  28.299  1.00  0.00    -0.354 N 
ATOM     52  C   UNL A   1      41.919  30.440  30.939  1.00  0.00     0.074 A 
ATOM     53  C   UNL A   1      42.209  31.613  31.735  1.00  0.00     0.031 C 
ATOM     54  C   UNL A   1      47.259  29.799  27.399  1.00  0.00     0.029 A 
ATOM     55  C   UNL A   1      46.096  28.914  27.411  1.00  0.00     0.049 A 
ATOM     56  H   UNL A   1      44.320  29.189  28.469  1.00  0.00     0.167 HD
ATOM     57  C   UNL A   1      40.753  29.752  30.984  1.00  0.00     0.034 A 
ATOM     58  C   UNL A   1      45.973  27.761  26.724  1.00  0.00     0.034 A 
ATOM     59  C   UNL A   1      40.492  28.564  30.211  1.00  0.00     0.049 A 
ATOM     60  C   UNL A   1      44.713  26.941  26.887  1.00  0.00     0.074 A 
ATOM     61  C   UNL A   1      39.339  27.801  30.164  1.00  0.00     0.029 A 
ATOM     62  N   UNL A   1      41.409  27.950  29.369  1.00  0.00    -0.354 N 
ATOM     63  N   UNL A   1      43.649  27.194  27.615  1.00  0.00    -0.248 NA
ATOM     64  C   UNL A   1      44.645  25.675  26.144  1.00  0.00     0.031 C 
ATOM     65  C   UNL A   1      39.583  26.689  29.351  1.00  0.00     0.029 A 
ATOM     66  C   UNL A   1      40.865  26.793  28.833  1.00  0.00     0.049 A 
ATOM     67  H   UNL A   1      42.314  28.288  29.179  1.00  0.00     0.167 HD
ATOM     68  C   UNL A   1      42.779  26.128  27.399  1.00  0.00     0.074 A 
ATOM     69  C   UNL A   1      43.435  25.239  26.464  1.00  0.00     0.031 C 
ATOM     70  C   UNL A   1      41.546  25.904  27.923  1.00  0.00     0.034 A 
BRANCH  57  71
ATOM     71  C   UNL A   1      39.704  30.244  31.947  1.00  0.00     0.023 A 
ATOM     72  C   UNL A   1      38.646  31.068  31.523  1.00  0.00     0.031 A 
ATOM     73  C   UNL A   1      39.783  29.918  33.312  1.00  0.00     0.131 A 
ATOM     74  C   UNL A   1      37.747  31.590  32.466  1.00  0.00     0.055 A 
ATOM     75  C   UNL A   1      38.845  30.385  34.234  1.00  0.00     0.041 A 
ATOM     76  F   UNL A   1      40.788  29.157  33.774  1.00  0.00    -0.206 F 
ATOM     77  C   UNL A   1      37.827  31.236  33.815  1.00  0.00     0.022 A 
BRANCH  74  78
ATOM     78  S   UNL A   1      36.553  32.842  31.923  1.00  0.00     0.124 S 
ATOM     79  O   UNL A   1      35.289  32.263  32.373  1.00  0.00    -0.237 OA
ATOM     80  O   UNL A   1      37.000  34.033  32.634  1.00  0.00    -0.237 OA
ATOM     81  O   UNL A   1      36.730  32.878  30.472  1.00  0.00    -0.744 OA
ENDBRANCH  74  78
ENDBRANCH  57  71
BRANCH  58  82
ATOM     82  C   UNL A   1      47.089  27.261  25.871  1.00  0.00     0.023 A 
ATOM     83  C   UNL A   1      47.270  27.736  24.562  1.00  0.00     0.031 A 
ATOM     84  C   UNL A   1      47.948  26.246  26.329  1.00  0.00     0.131 A 
ATOM     85  C   UNL A   1      48.258  27.166  23.743  1.00  0.00     0.055 A 
ATOM     86  C   UNL A   1      48.959  25.717  25.527  1.00  0.00     0.041 A 
ATOM     87  F   UNL A   1      47.813  25.753  27.571  1.00  0.00    -0.206 F 
ATOM     88  C   UNL A   1      49.111  26.168  24.219  1.00  0.00     0.022 A 
BRANCH  85  89
ATOM     89  S   UNL A   1      48.358  27.691  22.009  1.00  0.00     0.124 S 
ATOM     90  O   UNL A   1      49.489  28.613  22.043  1.00  0.00    -0.237 OA
ATOM     91  O   UNL A   1      48.584  26.423  21.322  1.00  0.00    -0.237 OA
ATOM     92  O   UNL A   1      47.057  28.307  21.764  1.00  0.00    -0.744 OA
ENDBRANCH  85  89
ENDBRANCH  58  82
BRANCH  70  93
ATOM     93  C   UNL A   1      40.825  24.657  27.472  1.00  0.00     0.023 A 
ATOM     94  C   UNL A   1      41.398  23.383  27.620  1.00  0.00     0.031 A 
ATOM     95  C   UNL A   1      39.551  24.748  26.885  1.00  0.00     0.131 A 
ATOM     96  C   UNL A   1      40.715  22.252  27.148  1.00  0.00     0.055 A 
ATOM     97  C   UNL A   1      38.854  23.615  26.465  1.00  0.00     0.041 A 
ATOM     98  F   UNL A   1      38.959  25.942  26.719  1.00  0.00    -0.206 F 
ATOM     99  C   UNL A   1      39.440  22.358  26.586  1.00  0.00     0.022 A 
BRANCH  96 100
ATOM    100  S   UNL A   1      41.545  20.640  27.214  1.00  0.00     0.124 S 
ATOM    101  O   UNL A   1      41.410  20.173  25.838  1.00  0.00    -0.237 OA
ATOM    102  O   UNL A   1      42.895  20.999  27.635  1.00  0.00    -0.237 OA
ATOM    103  O   UNL A   1      40.768  19.894  28.201  1.00  0.00    -0.744 OA
ENDBRANCH  96 100
ENDBRANCH  70  93
ENDBRANCH  44  45
ENDBRANCH  37  39
ENDBRANCH  36  37
ENDBRANCH  35  36
ENDBRANCH  34  35
ENDBRANCH  33  34
ENDBRANCH  32  33
ENDBRANCH   1  32
TORSDOF 27
ENDMDL
