MODEL 1
REMARK VINA RESULT:      -8.3      0.000      0.000
REMARK SMILES O=C(OCCOCCOCCOCCOC(=O)c1ccc(-c2c3nc(c(-c4cc(S(=O)(=O)[O-])ccc4F)c4ccc([nH]4)c(-c4cc(S(=O)(=O)[O-])ccc4F)c4nc(c(-c5cc(S(=O)(=O)[O-])ccc5F)c5ccc2[nH]5)C=C4)C=C3)cc1)C1=Cc2cc(Cl)cc(C#Cc3ccccc3)c2O[C@@H]1C(F)(F)F
REMARK SMILES IDX 10 1 9 2 8 3 7 4 6 5 5 6 4 7 3 8 2 9 1 10 81 11 82 12 99 13
REMARK SMILES IDX 83 14 98 15 84 16 97 17 85 18 88 19 86 20 87 21 100 22
REMARK SMILES IDX 101 23 102 24 103 25 89 26 90 27 91 28 92 29 96 30 93 31
REMARK SMILES IDX 95 32 94 33 11 34 12 35 13 36 14 37 15 38 16 39 17 40 18 41
REMARK SMILES IDX 19 42 80 43 20 44 79 45 21 46 22 47 23 48 73 49 24 50 78 51
REMARK SMILES IDX 72 52 74 53 25 54 77 55 71 56 70 57 26 59 58 60 38 61 57 62
REMARK SMILES IDX 39 63 42 64 56 65 75 66 40 67 41 68 55 70 76 71 43 72 27 73
REMARK SMILES IDX 28 74 36 75 29 76 35 77 37 78 34 79 30 80 31 81 32 82 33 83
REMARK SMILES IDX 59 84 60 85 68 86 61 87 67 88 69 89 66 90 62 91 63 92 64 93
REMARK SMILES IDX 65 94 44 95 45 96 53 97 46 98 52 99 54 100 51 101 47 102
REMARK SMILES IDX 48 103 49 104 50 105
REMARK H PARENT 74 58 42 69
REMARK Flexibility Score: inf
ROOT
ATOM      1  C   UNL A   1      38.658  21.026  25.390  1.00  0.00     0.188 C 
ENDROOT
BRANCH   1   2
ATOM      2  O   UNL A   1      38.303  22.061  26.300  1.00  0.00    -0.377 OA
BRANCH   2   3
ATOM      3  C   UNL A   1      39.307  23.043  26.529  1.00  0.00     0.188 C 
BRANCH   3   4
ATOM      4  C   UNL A   1      38.676  24.406  26.776  1.00  0.00     0.188 C 
BRANCH   4   5
ATOM      5  O   UNL A   1      39.638  25.423  26.945  1.00  0.00    -0.376 OA
BRANCH   5   6
ATOM      6  C   UNL A   1      40.282  25.510  28.202  1.00  0.00     0.202 C 
BRANCH   6   7
ATOM      7  C   UNL A   1      40.212  26.861  28.913  1.00  0.00     0.261 C 
BRANCH   7   8
ATOM      8  O   UNL A   1      39.118  27.685  28.471  1.00  0.00    -0.460 OA
BRANCH   8   9
ATOM      9  C   UNL A   1      39.318  29.031  28.448  1.00  0.00     0.338 C 
ATOM     10  O   UNL A   1      40.145  29.556  27.717  1.00  0.00    -0.246 OA
BRANCH   9  11
ATOM     11  C   UNL A   1      38.612  29.783  29.530  1.00  0.00     0.087 C 
ATOM     12  C   UNL A   1      38.401  31.091  29.296  1.00  0.00     0.027 C 
ATOM     13  C   UNL A   1      37.567  29.022  30.278  1.00  0.00     0.316 C 
ATOM     14  C   UNL A   1      36.989  31.425  29.010  1.00  0.00     0.020 A 
ATOM     15  O   UNL A   1      36.218  29.293  29.776  1.00  0.00    -0.474 OA
ATOM     16  C   UNL A   1      36.642  32.714  28.615  1.00  0.00     0.032 A 
ATOM     17  C   UNL A   1      36.032  30.396  28.959  1.00  0.00     0.143 A 
ATOM     18  C   UNL A   1      35.379  32.937  28.073  1.00  0.00     0.043 A 
ATOM     19  C   UNL A   1      34.875  30.559  28.150  1.00  0.00     0.069 A 
ATOM     20  Cl  UNL A   1      34.898  34.544  27.694  1.00  0.00    -0.084 Cl
ATOM     21  C   UNL A   1      34.537  31.864  27.767  1.00  0.00     0.041 A 
BRANCH  13  22
ATOM     22  C   UNL A   1      37.813  29.041  31.794  1.00  0.00     0.430 C 
ATOM     23  F   UNL A   1      38.955  29.692  32.115  1.00  0.00    -0.167 F 
ATOM     24  F   UNL A   1      36.809  29.727  32.415  1.00  0.00    -0.167 F 
ATOM     25  F   UNL A   1      37.852  27.817  32.356  1.00  0.00    -0.167 F 
ENDBRANCH  13  22
BRANCH  19  26
ATOM     26  C   UNL A   1      34.156  29.478  27.448  1.00  0.00    -0.058 C 
ATOM     27  C   UNL A   1      33.658  28.479  26.979  1.00  0.00    -0.062 C 
BRANCH  27  28
ATOM     28  C   UNL A   1      33.034  27.278  26.405  1.00  0.00     0.025 A 
ATOM     29  C   UNL A   1      33.830  26.281  25.839  1.00  0.00     0.017 A 
ATOM     30  C   UNL A   1      31.670  27.000  26.475  1.00  0.00     0.017 A 
ATOM     31  C   UNL A   1      33.327  25.060  25.362  1.00  0.00     0.001 A 
ATOM     32  C   UNL A   1      31.181  25.724  26.110  1.00  0.00     0.001 A 
ATOM     33  C   UNL A   1      32.001  24.751  25.560  1.00  0.00     0.000 A 
ENDBRANCH  27  28
ENDBRANCH  19  26
ENDBRANCH   9  11
ENDBRANCH   8   9
ENDBRANCH   7   8
ENDBRANCH   6   7
ENDBRANCH   5   6
ENDBRANCH   4   5
ENDBRANCH   3   4
ENDBRANCH   2   3
ENDBRANCH   1   2
BRANCH   1  34
ATOM     34  C   UNL A   1      39.753  20.040  25.842  1.00  0.00     0.188 C 
BRANCH  34  35
ATOM     35  O   UNL A   1      40.833  20.471  26.663  1.00  0.00    -0.376 OA
BRANCH  35  36
ATOM     36  C   UNL A   1      42.131  20.436  26.110  1.00  0.00     0.202 C 
BRANCH  36  37
ATOM     37  C   UNL A   1      42.701  21.800  25.668  1.00  0.00     0.261 C 
BRANCH  37  38
ATOM     38  O   UNL A   1      43.708  22.416  26.512  1.00  0.00    -0.460 OA
BRANCH  38  39
ATOM     39  C   UNL A   1      43.304  23.279  27.484  1.00  0.00     0.338 C 
ATOM     40  O   UNL A   1      42.556  23.015  28.408  1.00  0.00    -0.246 OA
BRANCH  39  41
ATOM     41  C   UNL A   1      44.011  24.597  27.332  1.00  0.00     0.060 A 
ATOM     42  C   UNL A   1      44.524  25.260  28.462  1.00  0.00     0.016 A 
ATOM     43  C   UNL A   1      44.188  25.199  26.087  1.00  0.00     0.016 A 
ATOM     44  C   UNL A   1      45.222  26.496  28.355  1.00  0.00     0.010 A 
ATOM     45  C   UNL A   1      44.879  26.431  25.990  1.00  0.00     0.010 A 
ATOM     46  C   UNL A   1      45.418  27.116  27.115  1.00  0.00    -0.014 A 
BRANCH  46  47
ATOM     47  C   UNL A   1      46.044  28.493  26.903  1.00  0.00     0.031 A 
ATOM     48  C   UNL A   1      47.548  28.536  26.712  1.00  0.00     0.074 A 
ATOM     49  C   UNL A   1      45.414  29.698  26.914  1.00  0.00     0.049 A 
ATOM     50  N   UNL A   1      48.383  29.538  26.814  1.00  0.00    -0.248 NA
ATOM     51  C   UNL A   1      48.184  27.261  26.344  1.00  0.00     0.031 C 
ATOM     52  C   UNL A   1      43.978  29.936  26.855  1.00  0.00     0.029 A 
ATOM     53  N   UNL A   1      45.925  30.987  27.053  1.00  0.00    -0.354 N 
ATOM     54  C   UNL A   1      49.637  29.013  26.526  1.00  0.00     0.074 A 
ATOM     55  C   UNL A   1      49.466  27.587  26.352  1.00  0.00     0.031 C 
ATOM     56  C   UNL A   1      43.716  31.232  27.124  1.00  0.00     0.029 A 
ATOM     57  C   UNL A   1      44.965  31.941  27.369  1.00  0.00     0.049 A 
ATOM     58  H   UNL A   1      46.879  31.202  26.939  1.00  0.00     0.167 HD
ATOM     59  C   UNL A   1      50.817  29.657  26.356  1.00  0.00     0.034 A 
ATOM     60  C   UNL A   1      45.067  33.213  27.834  1.00  0.00     0.034 A 
ATOM     61  C   UNL A   1      50.991  31.081  26.447  1.00  0.00     0.049 A 
ATOM     62  C   UNL A   1      46.429  33.870  27.876  1.00  0.00     0.074 A 
ATOM     63  C   UNL A   1      52.126  31.824  26.169  1.00  0.00     0.029 A 
ATOM     64  N   UNL A   1      50.017  31.980  26.850  1.00  0.00    -0.354 N 
ATOM     65  N   UNL A   1      47.595  33.365  27.552  1.00  0.00    -0.248 NA
ATOM     66  C   UNL A   1      46.483  35.287  28.272  1.00  0.00     0.031 C 
ATOM     67  C   UNL A   1      51.867  33.158  26.492  1.00  0.00     0.029 A 
ATOM     68  C   UNL A   1      50.545  33.261  26.891  1.00  0.00     0.049 A 
ATOM     69  H   UNL A   1      49.088  31.745  27.076  1.00  0.00     0.167 HD
ATOM     70  C   UNL A   1      48.496  34.427  27.610  1.00  0.00     0.074 A 
ATOM     71  C   UNL A   1      47.751  35.590  28.035  1.00  0.00     0.031 C 
ATOM     72  C   UNL A   1      49.815  34.436  27.295  1.00  0.00     0.034 A 
BRANCH  59  73
ATOM     73  C   UNL A   1      52.027  28.817  26.040  1.00  0.00     0.023 A 
ATOM     74  C   UNL A   1      52.438  28.585  24.718  1.00  0.00     0.031 A 
ATOM     75  C   UNL A   1      52.781  28.248  27.080  1.00  0.00     0.131 A 
ATOM     76  C   UNL A   1      53.530  27.744  24.466  1.00  0.00     0.055 A 
ATOM     77  C   UNL A   1      53.919  27.483  26.825  1.00  0.00     0.041 A 
ATOM     78  F   UNL A   1      52.422  28.425  28.361  1.00  0.00    -0.206 F 
ATOM     79  C   UNL A   1      54.291  27.216  25.510  1.00  0.00     0.022 A 
BRANCH  76  80
ATOM     80  S   UNL A   1      53.857  27.249  22.754  1.00  0.00     0.124 S 
ATOM     81  O   UNL A   1      55.093  26.484  22.902  1.00  0.00    -0.237 OA
ATOM     82  O   UNL A   1      52.667  26.479  22.413  1.00  0.00    -0.237 OA
ATOM     83  O   UNL A   1      54.001  28.522  22.051  1.00  0.00    -0.744 OA
ENDBRANCH  76  80
ENDBRANCH  59  73
BRANCH  60  84
ATOM     84  C   UNL A   1      43.888  33.994  28.358  1.00  0.00     0.023 A 
ATOM     85  C   UNL A   1      43.293  33.720  29.600  1.00  0.00     0.031 A 
ATOM     86  C   UNL A   1      43.195  34.881  27.512  1.00  0.00     0.131 A 
ATOM     87  C   UNL A   1      42.041  34.286  29.925  1.00  0.00     0.055 A 
ATOM     88  C   UNL A   1      42.000  35.510  27.871  1.00  0.00     0.041 A 
ATOM     89  F   UNL A   1      43.613  35.076  26.260  1.00  0.00    -0.206 F 
ATOM     90  C   UNL A   1      41.404  35.198  29.082  1.00  0.00     0.022 A 
BRANCH  87  91
ATOM     91  S   UNL A   1      41.160  33.679  31.393  1.00  0.00     0.124 S 
ATOM     92  O   UNL A   1      39.872  34.350  31.258  1.00  0.00    -0.237 OA
ATOM     93  O   UNL A   1      41.165  32.238  31.168  1.00  0.00    -0.237 OA
ATOM     94  O   UNL A   1      41.991  34.140  32.504  1.00  0.00    -0.744 OA
ENDBRANCH  87  91
ENDBRANCH  60  84
BRANCH  72  95
ATOM     95  C   UNL A   1      50.537  35.759  27.306  1.00  0.00     0.023 A 
ATOM     96  C   UNL A   1      51.168  36.256  28.457  1.00  0.00     0.031 A 
ATOM     97  C   UNL A   1      50.614  36.527  26.128  1.00  0.00     0.131 A 
ATOM     98  C   UNL A   1      51.818  37.500  28.416  1.00  0.00     0.055 A 
ATOM     99  C   UNL A   1      51.316  37.732  26.076  1.00  0.00     0.041 A 
ATOM    100  F   UNL A   1      50.022  36.107  24.998  1.00  0.00    -0.206 F 
ATOM    101  C   UNL A   1      51.915  38.229  27.228  1.00  0.00     0.022 A 
BRANCH  98 102
ATOM    102  S   UNL A   1      52.476  38.189  29.960  1.00  0.00     0.124 S 
ATOM    103  O   UNL A   1      51.993  39.564  29.908  1.00  0.00    -0.237 OA
ATOM    104  O   UNL A   1      51.860  37.335  30.970  1.00  0.00    -0.237 OA
ATOM    105  O   UNL A   1      53.923  38.032  29.816  1.00  0.00    -0.744 OA
ENDBRANCH  98 102
ENDBRANCH  72  95
ENDBRANCH  46  47
ENDBRANCH  39  41
ENDBRANCH  38  39
ENDBRANCH  37  38
ENDBRANCH  36  37
ENDBRANCH  35  36
ENDBRANCH  34  35
ENDBRANCH   1  34
TORSDOF 26
ENDMDL
MODEL 2
REMARK VINA RESULT:      -8.3      4.513      8.279
REMARK SMILES O=C(OCCOCCOCCOCCOC(=O)c1ccc(-c2c3nc(c(-c4cc(S(=O)(=O)[O-])ccc4F)c4ccc([nH]4)c(-c4cc(S(=O)(=O)[O-])ccc4F)c4nc(c(-c5cc(S(=O)(=O)[O-])ccc5F)c5ccc2[nH]5)C=C4)C=C3)cc1)C1=Cc2cc(Cl)cc(C#Cc3ccccc3)c2O[C@@H]1C(F)(F)F
REMARK SMILES IDX 10 1 9 2 8 3 7 4 6 5 5 6 4 7 3 8 2 9 1 10 81 11 82 12 99 13
REMARK SMILES IDX 83 14 98 15 84 16 97 17 85 18 88 19 86 20 87 21 100 22
REMARK SMILES IDX 101 23 102 24 103 25 89 26 90 27 91 28 92 29 96 30 93 31
REMARK SMILES IDX 95 32 94 33 11 34 12 35 13 36 14 37 15 38 16 39 17 40 18 41
REMARK SMILES IDX 19 42 80 43 20 44 79 45 21 46 22 47 23 48 73 49 24 50 78 51
REMARK SMILES IDX 72 52 74 53 25 54 77 55 71 56 70 57 26 59 58 60 38 61 57 62
REMARK SMILES IDX 39 63 42 64 56 65 75 66 40 67 41 68 55 70 76 71 43 72 27 73
REMARK SMILES IDX 28 74 36 75 29 76 35 77 37 78 34 79 30 80 31 81 32 82 33 83
REMARK SMILES IDX 59 84 60 85 68 86 61 87 67 88 69 89 66 90 62 91 63 92 64 93
REMARK SMILES IDX 65 94 44 95 45 96 53 97 46 98 52 99 54 100 51 101 47 102
REMARK SMILES IDX 48 103 49 104 50 105
REMARK H PARENT 74 58 42 69
REMARK Flexibility Score: inf
ROOT
ATOM      1  C   UNL A   1      41.329  30.239  33.024  1.00  0.00     0.188 C 
ENDROOT
BRANCH   1   2
ATOM      2  O   UNL A   1      42.654  29.868  33.384  1.00  0.00    -0.377 OA
BRANCH   2   3
ATOM      3  C   UNL A   1      43.005  28.516  33.112  1.00  0.00     0.188 C 
BRANCH   3   4
ATOM      4  C   UNL A   1      43.134  28.286  31.614  1.00  0.00     0.188 C 
BRANCH   4   5
ATOM      5  O   UNL A   1      43.399  26.938  31.296  1.00  0.00    -0.376 OA
BRANCH   5   6
ATOM      6  C   UNL A   1      44.615  26.649  30.632  1.00  0.00     0.202 C 
BRANCH   6   7
ATOM      7  C   UNL A   1      45.027  25.179  30.571  1.00  0.00     0.261 C 
BRANCH   7   8
ATOM      8  O   UNL A   1      45.143  24.672  29.228  1.00  0.00    -0.460 OA
BRANCH   8   9
ATOM      9  C   UNL A   1      44.312  23.655  28.870  1.00  0.00     0.338 C 
ATOM     10  O   UNL A   1      43.950  22.798  29.663  1.00  0.00    -0.246 OA
BRANCH   9  11
ATOM     11  C   UNL A   1      44.060  23.545  27.402  1.00  0.00     0.087 C 
ATOM     12  C   UNL A   1      43.303  22.503  27.010  1.00  0.00     0.027 C 
ATOM     13  C   UNL A   1      43.915  24.838  26.667  1.00  0.00     0.316 C 
ATOM     14  C   UNL A   1      41.942  22.884  26.577  1.00  0.00     0.020 A 
ATOM     15  O   UNL A   1      42.512  25.206  26.463  1.00  0.00    -0.474 OA
ATOM     16  C   UNL A   1      41.003  21.901  26.277  1.00  0.00     0.032 A 
ATOM     17  C   UNL A   1      41.546  24.232  26.650  1.00  0.00     0.143 A 
ATOM     18  C   UNL A   1      39.664  22.260  26.158  1.00  0.00     0.043 A 
ATOM     19  C   UNL A   1      40.169  24.545  26.820  1.00  0.00     0.069 A 
ATOM     20  Cl  UNL A   1      38.516  21.077  25.669  1.00  0.00    -0.084 Cl
ATOM     21  C   UNL A   1      39.239  23.546  26.506  1.00  0.00     0.041 A 
BRANCH  13  22
ATOM     22  C   UNL A   1      44.889  24.942  25.483  1.00  0.00     0.430 C 
ATOM     23  F   UNL A   1      44.954  26.200  24.989  1.00  0.00    -0.167 F 
ATOM     24  F   UNL A   1      46.155  24.642  25.901  1.00  0.00    -0.167 F 
ATOM     25  F   UNL A   1      44.607  24.103  24.468  1.00  0.00    -0.167 F 
ENDBRANCH  13  22
BRANCH  19  26
ATOM     26  C   UNL A   1      39.636  25.712  27.550  1.00  0.00    -0.058 C 
ATOM     27  C   UNL A   1      39.370  26.724  28.157  1.00  0.00    -0.062 C 
BRANCH  27  28
ATOM     28  C   UNL A   1      39.025  27.955  28.884  1.00  0.00     0.025 A 
ATOM     29  C   UNL A   1      38.960  29.172  28.204  1.00  0.00     0.017 A 
ATOM     30  C   UNL A   1      38.646  27.986  30.225  1.00  0.00     0.017 A 
ATOM     31  C   UNL A   1      38.539  30.374  28.797  1.00  0.00     0.001 A 
ATOM     32  C   UNL A   1      38.106  29.168  30.787  1.00  0.00     0.001 A 
ATOM     33  C   UNL A   1      38.045  30.358  30.081  1.00  0.00     0.000 A 
ENDBRANCH  27  28
ENDBRANCH  19  26
ENDBRANCH   9  11
ENDBRANCH   8   9
ENDBRANCH   7   8
ENDBRANCH   6   7
ENDBRANCH   5   6
ENDBRANCH   4   5
ENDBRANCH   3   4
ENDBRANCH   2   3
ENDBRANCH   1   2
BRANCH   1  34
ATOM     34  C   UNL A   1      40.178  29.549  33.783  1.00  0.00     0.188 C 
BRANCH  34  35
ATOM     35  O   UNL A   1      39.264  30.303  34.571  1.00  0.00    -0.376 OA
BRANCH  35  36
ATOM     36  C   UNL A   1      37.923  30.367  34.138  1.00  0.00     0.202 C 
BRANCH  36  37
ATOM     37  C   UNL A   1      37.460  31.743  33.614  1.00  0.00     0.261 C 
BRANCH  37  38
ATOM     38  O   UNL A   1      38.481  32.724  33.300  1.00  0.00    -0.460 OA
BRANCH  38  39
ATOM     39  C   UNL A   1      38.155  33.765  32.486  1.00  0.00     0.338 C 
ATOM     40  O   UNL A   1      37.110  34.391  32.511  1.00  0.00    -0.246 OA
BRANCH  39  41
ATOM     41  C   UNL A   1      39.326  34.129  31.616  1.00  0.00     0.060 A 
ATOM     42  C   UNL A   1      39.142  34.356  30.240  1.00  0.00     0.016 A 
ATOM     43  C   UNL A   1      40.614  34.257  32.131  1.00  0.00     0.016 A 
ATOM     44  C   UNL A   1      40.221  34.727  29.389  1.00  0.00     0.010 A 
ATOM     45  C   UNL A   1      41.684  34.621  31.277  1.00  0.00     0.010 A 
ATOM     46  C   UNL A   1      41.523  34.868  29.885  1.00  0.00    -0.014 A 
BRANCH  46  47
ATOM     47  C   UNL A   1      42.766  35.144  29.042  1.00  0.00     0.031 A 
ATOM     48  C   UNL A   1      43.736  33.993  28.860  1.00  0.00     0.074 A 
ATOM     49  C   UNL A   1      43.134  36.323  28.473  1.00  0.00     0.049 A 
ATOM     50  N   UNL A   1      44.986  33.995  28.473  1.00  0.00    -0.248 NA
ATOM     51  C   UNL A   1      43.202  32.652  29.150  1.00  0.00     0.031 C 
ATOM     52  C   UNL A   1      42.304  37.509  28.300  1.00  0.00     0.029 A 
ATOM     53  N   UNL A   1      44.366  36.746  27.980  1.00  0.00    -0.354 N 
ATOM     54  C   UNL A   1      45.384  32.664  28.477  1.00  0.00     0.074 A 
ATOM     55  C   UNL A   1      44.277  31.896  29.006  1.00  0.00     0.031 C 
ATOM     56  C   UNL A   1      43.069  38.552  27.915  1.00  0.00     0.029 A 
ATOM     57  C   UNL A   1      44.456  38.121  27.796  1.00  0.00     0.049 A 
ATOM     58  H   UNL A   1      45.106  36.129  27.781  1.00  0.00     0.167 HD
ATOM     59  C   UNL A   1      46.535  32.112  28.025  1.00  0.00     0.034 A 
ATOM     60  C   UNL A   1      45.518  38.944  27.595  1.00  0.00     0.034 A 
ATOM     61  C   UNL A   1      47.613  32.849  27.423  1.00  0.00     0.049 A 
ATOM     62  C   UNL A   1      46.875  38.333  27.324  1.00  0.00     0.074 A 
ATOM     63  C   UNL A   1      48.761  32.354  26.828  1.00  0.00     0.029 A 
ATOM     64  N   UNL A   1      47.688  34.230  27.343  1.00  0.00    -0.354 N 
ATOM     65  N   UNL A   1      47.214  37.067  27.286  1.00  0.00    -0.248 NA
ATOM     66  C   UNL A   1      47.976  39.254  26.994  1.00  0.00     0.031 C 
ATOM     67  C   UNL A   1      49.572  33.434  26.472  1.00  0.00     0.029 A 
ATOM     68  C   UNL A   1      48.893  34.604  26.767  1.00  0.00     0.049 A 
ATOM     69  H   UNL A   1      46.991  34.854  27.650  1.00  0.00     0.167 HD
ATOM     70  C   UNL A   1      48.532  37.042  26.832  1.00  0.00     0.074 A 
ATOM     71  C   UNL A   1      48.940  38.415  26.645  1.00  0.00     0.031 C 
ATOM     72  C   UNL A   1      49.311  35.967  26.557  1.00  0.00     0.034 A 
BRANCH  59  73
ATOM     73  C   UNL A   1      46.688  30.619  28.154  1.00  0.00     0.023 A 
ATOM     74  C   UNL A   1      47.315  30.036  29.268  1.00  0.00     0.031 A 
ATOM     75  C   UNL A   1      46.192  29.769  27.150  1.00  0.00     0.131 A 
ATOM     76  C   UNL A   1      47.495  28.647  29.317  1.00  0.00     0.055 A 
ATOM     77  C   UNL A   1      46.297  28.382  27.248  1.00  0.00     0.041 A 
ATOM     78  F   UNL A   1      45.600  30.276  26.058  1.00  0.00    -0.206 F 
ATOM     79  C   UNL A   1      46.964  27.814  28.330  1.00  0.00     0.022 A 
BRANCH  76  80
ATOM     80  S   UNL A   1      48.546  27.962  30.625  1.00  0.00     0.124 S 
ATOM     81  O   UNL A   1      49.866  28.436  30.217  1.00  0.00    -0.237 OA
ATOM     82  O   UNL A   1      47.992  28.572  31.828  1.00  0.00    -0.237 OA
ATOM     83  O   UNL A   1      48.344  26.520  30.504  1.00  0.00    -0.744 OA
ENDBRANCH  76  80
ENDBRANCH  59  73
BRANCH  60  84
ATOM     84  C   UNL A   1      45.421  40.447  27.677  1.00  0.00     0.023 A 
ATOM     85  C   UNL A   1      45.370  41.135  28.900  1.00  0.00     0.031 A 
ATOM     86  C   UNL A   1      45.145  41.201  26.521  1.00  0.00     0.131 A 
ATOM     87  C   UNL A   1      45.011  42.500  28.930  1.00  0.00     0.055 A 
ATOM     88  C   UNL A   1      44.876  42.572  26.543  1.00  0.00     0.041 A 
ATOM     89  F   UNL A   1      45.024  40.594  25.338  1.00  0.00    -0.206 F 
ATOM     90  C   UNL A   1      44.788  43.228  27.760  1.00  0.00     0.022 A 
BRANCH  87  91
ATOM     91  S   UNL A   1      44.659  43.277  30.533  1.00  0.00     0.124 S 
ATOM     92  O   UNL A   1      44.603  44.688  30.165  1.00  0.00    -0.237 OA
ATOM     93  O   UNL A   1      43.391  42.653  30.894  1.00  0.00    -0.237 OA
ATOM     94  O   UNL A   1      45.802  42.891  31.358  1.00  0.00    -0.744 OA
ENDBRANCH  87  91
ENDBRANCH  60  84
BRANCH  72  95
ATOM     95  C   UNL A   1      50.663  36.213  25.936  1.00  0.00     0.023 A 
ATOM     96  C   UNL A   1      51.843  36.223  26.696  1.00  0.00     0.031 A 
ATOM     97  C   UNL A   1      50.772  36.416  24.547  1.00  0.00     0.131 A 
ATOM     98  C   UNL A   1      53.076  36.468  26.070  1.00  0.00     0.055 A 
ATOM     99  C   UNL A   1      52.005  36.594  23.920  1.00  0.00     0.041 A 
ATOM    100  F   UNL A   1      49.675  36.426  23.770  1.00  0.00    -0.206 F 
ATOM    101  C   UNL A   1      53.166  36.630  24.685  1.00  0.00     0.022 A 
BRANCH  98 102
ATOM    102  S   UNL A   1      54.557  36.642  27.102  1.00  0.00     0.124 S 
ATOM    103  O   UNL A   1      55.439  35.625  26.539  1.00  0.00    -0.237 OA
ATOM    104  O   UNL A   1      54.946  38.027  26.859  1.00  0.00    -0.237 OA
ATOM    105  O   UNL A   1      54.069  36.364  28.452  1.00  0.00    -0.744 OA
ENDBRANCH  98 102
ENDBRANCH  72  95
ENDBRANCH  46  47
ENDBRANCH  39  41
ENDBRANCH  38  39
ENDBRANCH  37  38
ENDBRANCH  36  37
ENDBRANCH  35  36
ENDBRANCH  34  35
ENDBRANCH   1  34
TORSDOF 26
ENDMDL
MODEL 3
REMARK VINA RESULT:      -8.1      8.119     17.250
REMARK SMILES O=C(OCCOCCOCCOCCOC(=O)c1ccc(-c2c3nc(c(-c4cc(S(=O)(=O)[O-])ccc4F)c4ccc([nH]4)c(-c4cc(S(=O)(=O)[O-])ccc4F)c4nc(c(-c5cc(S(=O)(=O)[O-])ccc5F)c5ccc2[nH]5)C=C4)C=C3)cc1)C1=Cc2cc(Cl)cc(C#Cc3ccccc3)c2O[C@@H]1C(F)(F)F
REMARK SMILES IDX 10 1 9 2 8 3 7 4 6 5 5 6 4 7 3 8 2 9 1 10 81 11 82 12 99 13
REMARK SMILES IDX 83 14 98 15 84 16 97 17 85 18 88 19 86 20 87 21 100 22
REMARK SMILES IDX 101 23 102 24 103 25 89 26 90 27 91 28 92 29 96 30 93 31
REMARK SMILES IDX 95 32 94 33 11 34 12 35 13 36 14 37 15 38 16 39 17 40 18 41
REMARK SMILES IDX 19 42 80 43 20 44 79 45 21 46 22 47 23 48 73 49 24 50 78 51
REMARK SMILES IDX 72 52 74 53 25 54 77 55 71 56 70 57 26 59 58 60 38 61 57 62
REMARK SMILES IDX 39 63 42 64 56 65 75 66 40 67 41 68 55 70 76 71 43 72 27 73
REMARK SMILES IDX 28 74 36 75 29 76 35 77 37 78 34 79 30 80 31 81 32 82 33 83
REMARK SMILES IDX 59 84 60 85 68 86 61 87 67 88 69 89 66 90 62 91 63 92 64 93
REMARK SMILES IDX 65 94 44 95 45 96 53 97 46 98 52 99 54 100 51 101 47 102
REMARK SMILES IDX 48 103 49 104 50 105
REMARK H PARENT 74 58 42 69
REMARK Flexibility Score: inf
ROOT
ATOM      1  C   UNL A   1      41.959  43.562  22.503  1.00  0.00     0.188 C 
ENDROOT
BRANCH   1   2
ATOM      2  O   UNL A   1      41.202  43.105  21.389  1.00  0.00    -0.377 OA
BRANCH   2   3
ATOM      3  C   UNL A   1      41.869  43.158  20.134  1.00  0.00     0.188 C 
BRANCH   3   4
ATOM      4  C   UNL A   1      40.954  43.737  19.065  1.00  0.00     0.188 C 
BRANCH   4   5
ATOM      5  O   UNL A   1      41.664  44.181  17.931  1.00  0.00    -0.376 OA
BRANCH   5   6
ATOM      6  C   UNL A   1      41.653  45.569  17.655  1.00  0.00     0.202 C 
BRANCH   6   7
ATOM      7  C   UNL A   1      42.970  46.317  17.865  1.00  0.00     0.261 C 
BRANCH   7   8
ATOM      8  O   UNL A   1      44.135  45.510  17.608  1.00  0.00    -0.460 OA
BRANCH   8   9
ATOM      9  C   UNL A   1      44.871  45.116  18.682  1.00  0.00     0.338 C 
ATOM     10  O   UNL A   1      45.016  43.938  18.978  1.00  0.00    -0.246 OA
BRANCH   9  11
ATOM     11  C   UNL A   1      45.299  46.226  19.585  1.00  0.00     0.087 C 
ATOM     12  C   UNL A   1      45.213  45.979  20.905  1.00  0.00     0.027 C 
ATOM     13  C   UNL A   1      46.439  47.060  19.097  1.00  0.00     0.316 C 
ATOM     14  C   UNL A   1      46.522  45.784  21.563  1.00  0.00     0.020 A 
ATOM     15  O   UNL A   1      47.718  46.647  19.678  1.00  0.00    -0.474 OA
ATOM     16  C   UNL A   1      46.583  45.386  22.895  1.00  0.00     0.032 A 
ATOM     17  C   UNL A   1      47.696  45.821  20.789  1.00  0.00     0.143 A 
ATOM     18  C   UNL A   1      47.792  44.927  23.408  1.00  0.00     0.043 A 
ATOM     19  C   UNL A   1      48.837  45.089  21.218  1.00  0.00     0.069 A 
ATOM     20  Cl  UNL A   1      47.906  44.548  25.082  1.00  0.00    -0.084 Cl
ATOM     21  C   UNL A   1      48.884  44.702  22.564  1.00  0.00     0.041 A 
BRANCH  13  22
ATOM     22  C   UNL A   1      46.087  48.556  19.063  1.00  0.00     0.430 C 
ATOM     23  F   UNL A   1      46.279  49.149  20.265  1.00  0.00    -0.167 F 
ATOM     24  F   UNL A   1      46.917  49.204  18.194  1.00  0.00    -0.167 F 
ATOM     25  F   UNL A   1      44.827  48.812  18.662  1.00  0.00    -0.167 F 
ENDBRANCH  13  22
BRANCH  19  26
ATOM     26  C   UNL A   1      49.839  44.461  20.335  1.00  0.00    -0.058 C 
ATOM     27  C   UNL A   1      50.701  43.843  19.753  1.00  0.00    -0.062 C 
BRANCH  27  28
ATOM     28  C   UNL A   1      51.737  43.095  19.024  1.00  0.00     0.025 A 
ATOM     29  C   UNL A   1      51.823  43.196  17.635  1.00  0.00     0.017 A 
ATOM     30  C   UNL A   1      52.739  42.350  19.643  1.00  0.00     0.017 A 
ATOM     31  C   UNL A   1      52.840  42.600  16.872  1.00  0.00     0.001 A 
ATOM     32  C   UNL A   1      53.830  41.856  18.890  1.00  0.00     0.001 A 
ATOM     33  C   UNL A   1      53.890  41.981  17.511  1.00  0.00     0.000 A 
ENDBRANCH  27  28
ENDBRANCH  19  26
ENDBRANCH   9  11
ENDBRANCH   8   9
ENDBRANCH   7   8
ENDBRANCH   6   7
ENDBRANCH   5   6
ENDBRANCH   4   5
ENDBRANCH   3   4
ENDBRANCH   2   3
ENDBRANCH   1   2
BRANCH   1  34
ATOM     34  C   UNL A   1      43.487  43.372  22.437  1.00  0.00     0.188 C 
BRANCH  34  35
ATOM     35  O   UNL A   1      44.125  42.308  23.135  1.00  0.00    -0.376 OA
BRANCH  35  36
ATOM     36  C   UNL A   1      44.649  42.585  24.415  1.00  0.00     0.202 C 
BRANCH  36  37
ATOM     37  C   UNL A   1      43.679  42.349  25.593  1.00  0.00     0.261 C 
BRANCH  37  38
ATOM     38  O   UNL A   1      43.578  41.003  26.125  1.00  0.00    -0.460 OA
BRANCH  38  39
ATOM     39  C   UNL A   1      42.364  40.562  26.553  1.00  0.00     0.338 C 
ATOM     40  O   UNL A   1      41.299  41.130  26.389  1.00  0.00    -0.246 OA
BRANCH  39  41
ATOM     41  C   UNL A   1      42.496  39.194  27.163  1.00  0.00     0.060 A 
ATOM     42  C   UNL A   1      43.101  39.035  28.423  1.00  0.00     0.016 A 
ATOM     43  C   UNL A   1      42.028  38.051  26.516  1.00  0.00     0.016 A 
ATOM     44  C   UNL A   1      43.221  37.760  29.043  1.00  0.00     0.010 A 
ATOM     45  C   UNL A   1      42.156  36.786  27.137  1.00  0.00     0.010 A 
ATOM     46  C   UNL A   1      42.752  36.599  28.416  1.00  0.00    -0.014 A 
BRANCH  46  47
ATOM     47  C   UNL A   1      42.937  35.175  28.937  1.00  0.00     0.031 A 
ATOM     48  C   UNL A   1      41.710  34.495  29.514  1.00  0.00     0.074 A 
ATOM     49  C   UNL A   1      44.090  34.458  28.990  1.00  0.00     0.049 A 
ATOM     50  N   UNL A   1      41.613  33.444  30.287  1.00  0.00    -0.248 NA
ATOM     51  C   UNL A   1      40.415  35.092  29.148  1.00  0.00     0.031 C 
ATOM     52  C   UNL A   1      45.346  34.768  28.318  1.00  0.00     0.029 A 
ATOM     53  N   UNL A   1      44.417  33.318  29.721  1.00  0.00    -0.354 N 
ATOM     54  C   UNL A   1      40.253  33.259  30.501  1.00  0.00     0.074 A 
ATOM     55  C   UNL A   1      39.572  34.367  29.864  1.00  0.00     0.031 C 
ATOM     56  C   UNL A   1      46.328  33.969  28.788  1.00  0.00     0.029 A 
ATOM     57  C   UNL A   1      45.782  33.068  29.795  1.00  0.00     0.049 A 
ATOM     58  H   UNL A   1      43.742  32.741  30.146  1.00  0.00     0.167 HD
ATOM     59  C   UNL A   1      39.613  32.233  31.112  1.00  0.00     0.034 A 
ATOM     60  C   UNL A   1      46.514  32.250  30.595  1.00  0.00     0.034 A 
ATOM     61  C   UNL A   1      40.267  31.086  31.680  1.00  0.00     0.049 A 
ATOM     62  C   UNL A   1      45.794  31.250  31.473  1.00  0.00     0.074 A 
ATOM     63  C   UNL A   1      39.687  29.945  32.209  1.00  0.00     0.029 A 
ATOM     64  N   UNL A   1      41.638  30.928  31.805  1.00  0.00    -0.354 N 
ATOM     65  N   UNL A   1      44.505  31.064  31.620  1.00  0.00    -0.248 NA
ATOM     66  C   UNL A   1      46.624  30.301  32.235  1.00  0.00     0.031 C 
ATOM     67  C   UNL A   1      40.700  29.141  32.736  1.00  0.00     0.029 A 
ATOM     68  C   UNL A   1      41.918  29.739  32.461  1.00  0.00     0.049 A 
ATOM     69  H   UNL A   1      42.312  31.566  31.478  1.00  0.00     0.167 HD
ATOM     70  C   UNL A   1      44.377  29.920  32.406  1.00  0.00     0.074 A 
ATOM     71  C   UNL A   1      45.713  29.480  32.734  1.00  0.00     0.031 C 
ATOM     72  C   UNL A   1      43.244  29.275  32.782  1.00  0.00     0.034 A 
BRANCH  59  73
ATOM     73  C   UNL A   1      38.110  32.300  31.191  1.00  0.00     0.023 A 
ATOM     74  C   UNL A   1      37.456  33.188  32.060  1.00  0.00     0.031 A 
ATOM     75  C   UNL A   1      37.324  31.465  30.378  1.00  0.00     0.131 A 
ATOM     76  C   UNL A   1      36.058  33.171  32.150  1.00  0.00     0.055 A 
ATOM     77  C   UNL A   1      35.931  31.515  30.409  1.00  0.00     0.041 A 
ATOM     78  F   UNL A   1      37.899  30.586  29.542  1.00  0.00    -0.206 F 
ATOM     79  C   UNL A   1      35.290  32.362  31.309  1.00  0.00     0.022 A 
BRANCH  76  80
ATOM     80  S   UNL A   1      35.269  34.126  33.472  1.00  0.00     0.124 S 
ATOM     81  O   UNL A   1      36.375  34.965  33.927  1.00  0.00    -0.237 OA
ATOM     82  O   UNL A   1      34.194  34.814  32.767  1.00  0.00    -0.237 OA
ATOM     83  O   UNL A   1      34.840  33.103  34.423  1.00  0.00    -0.744 OA
ENDBRANCH  76  80
ENDBRANCH  59  73
BRANCH  60  84
ATOM     84  C   UNL A   1      48.018  32.320  30.686  1.00  0.00     0.023 A 
ATOM     85  C   UNL A   1      48.861  31.573  29.848  1.00  0.00     0.031 A 
ATOM     86  C   UNL A   1      48.630  32.968  31.776  1.00  0.00     0.131 A 
ATOM     87  C   UNL A   1      50.237  31.463  30.144  1.00  0.00     0.055 A 
ATOM     88  C   UNL A   1      50.006  32.931  32.018  1.00  0.00     0.041 A 
ATOM     89  F   UNL A   1      47.882  33.571  32.702  1.00  0.00    -0.206 F 
ATOM     90  C   UNL A   1      50.819  32.157  31.207  1.00  0.00     0.022 A 
BRANCH  87  91
ATOM     91  S   UNL A   1      51.236  30.255  29.228  1.00  0.00     0.124 S 
ATOM     92  O   UNL A   1      52.042  29.674  30.296  1.00  0.00    -0.237 OA
ATOM     93  O   UNL A   1      50.209  29.395  28.653  1.00  0.00    -0.237 OA
ATOM     94  O   UNL A   1      51.970  31.077  28.268  1.00  0.00    -0.744 OA
ENDBRANCH  87  91
ENDBRANCH  60  84
BRANCH  72  95
ATOM     95  C   UNL A   1      43.385  27.967  33.518  1.00  0.00     0.023 A 
ATOM     96  C   UNL A   1      43.134  27.854  34.895  1.00  0.00     0.031 A 
ATOM     97  C   UNL A   1      43.755  26.802  32.818  1.00  0.00     0.131 A 
ATOM     98  C   UNL A   1      43.291  26.614  35.535  1.00  0.00     0.055 A 
ATOM     99  C   UNL A   1      43.847  25.560  33.446  1.00  0.00     0.041 A 
ATOM    100  F   UNL A   1      44.017  26.852  31.501  1.00  0.00    -0.206 F 
ATOM    101  C   UNL A   1      43.623  25.463  34.815  1.00  0.00     0.022 A 
BRANCH  98 102
ATOM    102  S   UNL A   1      43.123  26.539  37.339  1.00  0.00     0.124 S 
ATOM    103  O   UNL A   1      43.923  27.682  37.765  1.00  0.00    -0.237 OA
ATOM    104  O   UNL A   1      41.681  26.665  37.524  1.00  0.00    -0.237 OA
ATOM    105  O   UNL A   1      43.678  25.230  37.680  1.00  0.00    -0.744 OA
ENDBRANCH  98 102
ENDBRANCH  72  95
ENDBRANCH  46  47
ENDBRANCH  39  41
ENDBRANCH  38  39
ENDBRANCH  37  38
ENDBRANCH  36  37
ENDBRANCH  35  36
ENDBRANCH  34  35
ENDBRANCH   1  34
TORSDOF 26
ENDMDL
