MODEL 1
REMARK VINA RESULT:      -9.5      0.000      0.000
REMARK SMILES O=C(/C=C\C(F)(C(F)(F)F)C(F)(F)F)OCCOCCOCCOCCOC(=O)c1ccc(-c2c3nc(c(-c4cc(S(=O)(=O)[O-])ccc4F)c4ccc([nH]4)c(-c4cc(S(=O)(=O)[O-])ccc4F)c4nc(c(-c5cc(S(=O)(=O)[O-])ccc5F)c5ccc2[nH]5)C=C4)C=C3)cc1
REMARK SMILES IDX 22 1 21 2 20 3 19 4 18 5 17 6 16 7 15 8 2 9 1 10 3 11 4 12
REMARK SMILES IDX 5 13 6 14 7 15 8 16 9 17 10 18 11 19 12 20 13 21 14 22 23 23
REMARK SMILES IDX 24 24 25 25 26 26 27 27 28 28 29 29 30 30 31 31 92 32 32 33
REMARK SMILES IDX 91 34 33 35 34 36 35 37 85 38 36 39 90 40 84 41 86 42 37 43
REMARK SMILES IDX 89 44 83 45 82 46 38 48 70 49 50 50 69 51 51 52 54 53 68 54
REMARK SMILES IDX 87 55 52 56 53 57 67 59 88 60 55 61 39 62 40 63 48 64 41 65
REMARK SMILES IDX 47 66 49 67 46 68 42 69 43 70 44 71 45 72 71 73 72 74 80 75
REMARK SMILES IDX 73 76 79 77 81 78 78 79 74 80 75 81 76 82 77 83 56 84 57 85
REMARK SMILES IDX 65 86 58 87 64 88 66 89 63 90 59 91 60 92 61 93 62 94
REMARK H PARENT 86 47 54 58
REMARK Flexibility Score: inf
ROOT
ATOM      1  C   UNL A   1      35.617  21.804  26.013  1.00  0.00     0.188 C 
ENDROOT
BRANCH   1   2
ATOM      2  O   UNL A   1      34.614  20.987  25.434  1.00  0.00    -0.377 OA
BRANCH   2   3
ATOM      3  C   UNL A   1      33.306  20.981  25.970  1.00  0.00     0.188 C 
BRANCH   3   4
ATOM      4  C   UNL A   1      32.209  20.746  24.937  1.00  0.00     0.188 C 
BRANCH   4   5
ATOM      5  O   UNL A   1      32.548  20.750  23.555  1.00  0.00    -0.376 OA
BRANCH   5   6
ATOM      6  C   UNL A   1      32.155  21.819  22.717  1.00  0.00     0.202 C 
BRANCH   6   7
ATOM      7  C   UNL A   1      33.050  23.052  22.739  1.00  0.00     0.261 C 
BRANCH   7   8
ATOM      8  O   UNL A   1      32.489  24.369  22.960  1.00  0.00    -0.460 OA
BRANCH   8   9
ATOM      9  C   UNL A   1      31.445  24.854  23.634  1.00  0.00     0.330 C 
ATOM     10  O   UNL A   1      30.883  24.145  24.472  1.00  0.00    -0.247 OA
BRANCH   9  11
ATOM     11  C   UNL A   1      30.868  26.193  23.430  1.00  0.00     0.093 C 
ATOM     12  C   UNL A   1      30.930  27.434  23.943  1.00  0.00     0.040 C 
BRANCH  12  13
ATOM     13  C   UNL A   1      31.682  28.114  25.086  1.00  0.00     0.317 C 
ATOM     14  F   UNL A   1      31.086  29.330  25.301  1.00  0.00    -0.219 F 
BRANCH  13  15
ATOM     15  C   UNL A   1      31.519  27.344  26.391  1.00  0.00     0.435 C 
ATOM     16  F   UNL A   1      30.334  26.699  26.474  1.00  0.00    -0.167 F 
ATOM     17  F   UNL A   1      32.497  26.435  26.588  1.00  0.00    -0.167 F 
ATOM     18  F   UNL A   1      31.564  28.190  27.457  1.00  0.00    -0.167 F 
ENDBRANCH  13  15
BRANCH  13  19
ATOM     19  C   UNL A   1      33.179  28.303  24.937  1.00  0.00     0.435 C 
ATOM     20  F   UNL A   1      33.483  29.305  24.083  1.00  0.00    -0.167 F 
ATOM     21  F   UNL A   1      33.777  28.605  26.106  1.00  0.00    -0.167 F 
ATOM     22  F   UNL A   1      33.782  27.183  24.481  1.00  0.00    -0.167 F 
ENDBRANCH  13  19
ENDBRANCH  12  13
ENDBRANCH   9  11
ENDBRANCH   8   9
ENDBRANCH   7   8
ENDBRANCH   6   7
ENDBRANCH   5   6
ENDBRANCH   4   5
ENDBRANCH   3   4
ENDBRANCH   2   3
ENDBRANCH   1   2
BRANCH   1  23
ATOM     23  C   UNL A   1      36.889  22.146  25.203  1.00  0.00     0.188 C 
BRANCH  23  24
ATOM     24  O   UNL A   1      38.072  21.389  25.458  1.00  0.00    -0.376 OA
BRANCH  24  25
ATOM     25  C   UNL A   1      38.092  20.015  25.098  1.00  0.00     0.202 C 
BRANCH  25  26
ATOM     26  C   UNL A   1      39.205  19.133  25.686  1.00  0.00     0.261 C 
BRANCH  26  27
ATOM     27  O   UNL A   1      40.494  19.776  25.708  1.00  0.00    -0.460 OA
BRANCH  27  28
ATOM     28  C   UNL A   1      41.071  19.928  26.926  1.00  0.00     0.338 C 
ATOM     29  O   UNL A   1      41.597  19.044  27.589  1.00  0.00    -0.246 OA
BRANCH  28  30
ATOM     30  C   UNL A   1      41.201  21.376  27.248  1.00  0.00     0.060 A 
ATOM     31  C   UNL A   1      40.497  22.297  26.454  1.00  0.00     0.016 A 
ATOM     32  C   UNL A   1      41.963  21.834  28.325  1.00  0.00     0.016 A 
ATOM     33  C   UNL A   1      40.578  23.670  26.711  1.00  0.00     0.010 A 
ATOM     34  C   UNL A   1      42.066  23.213  28.564  1.00  0.00     0.010 A 
ATOM     35  C   UNL A   1      41.400  24.140  27.741  1.00  0.00    -0.014 A 
BRANCH  35  36
ATOM     36  C   UNL A   1      41.763  25.583  27.820  1.00  0.00     0.031 A 
ATOM     37  C   UNL A   1      43.106  25.993  27.274  1.00  0.00     0.074 A 
ATOM     38  C   UNL A   1      40.955  26.506  28.376  1.00  0.00     0.049 A 
ATOM     39  N   UNL A   1      43.722  27.143  27.353  1.00  0.00    -0.248 NA
ATOM     40  C   UNL A   1      43.857  24.956  26.547  1.00  0.00     0.031 C 
ATOM     41  C   UNL A   1      39.606  26.258  28.882  1.00  0.00     0.029 A 
ATOM     42  N   UNL A   1      41.168  27.841  28.632  1.00  0.00    -0.354 N 
ATOM     43  C   UNL A   1      44.942  26.963  26.711  1.00  0.00     0.074 A 
ATOM     44  C   UNL A   1      44.980  25.592  26.251  1.00  0.00     0.031 C 
ATOM     45  C   UNL A   1      39.126  27.396  29.418  1.00  0.00     0.029 A 
ATOM     46  C   UNL A   1      40.150  28.440  29.343  1.00  0.00     0.049 A 
ATOM     47  H   UNL A   1      41.972  28.325  28.335  1.00  0.00     0.167 HD
ATOM     48  C   UNL A   1      45.945  27.855  26.529  1.00  0.00     0.034 A 
ATOM     49  C   UNL A   1      40.077  29.665  29.909  1.00  0.00     0.034 A 
ATOM     50  C   UNL A   1      45.900  29.219  26.990  1.00  0.00     0.049 A 
ATOM     51  C   UNL A   1      41.256  30.612  29.780  1.00  0.00     0.074 A 
ATOM     52  C   UNL A   1      46.844  30.215  26.810  1.00  0.00     0.029 A 
ATOM     53  N   UNL A   1      44.874  29.772  27.741  1.00  0.00    -0.354 N 
ATOM     54  N   UNL A   1      42.391  30.439  29.142  1.00  0.00    -0.248 NA
ATOM     55  C   UNL A   1      41.145  31.915  30.455  1.00  0.00     0.031 C 
ATOM     56  C   UNL A   1      46.430  31.342  27.527  1.00  0.00     0.029 A 
ATOM     57  C   UNL A   1      45.187  31.078  28.081  1.00  0.00     0.049 A 
ATOM     58  H   UNL A   1      44.045  29.305  27.995  1.00  0.00     0.167 HD
ATOM     59  C   UNL A   1      43.111  31.620  29.318  1.00  0.00     0.074 A 
ATOM     60  C   UNL A   1      42.280  32.503  30.104  1.00  0.00     0.031 C 
ATOM     61  C   UNL A   1      44.350  31.948  28.871  1.00  0.00     0.034 A 
BRANCH  48  62
ATOM     62  C   UNL A   1      47.207  27.366  25.868  1.00  0.00     0.023 A 
ATOM     63  C   UNL A   1      48.201  26.671  26.576  1.00  0.00     0.031 A 
ATOM     64  C   UNL A   1      47.409  27.599  24.495  1.00  0.00     0.131 A 
ATOM     65  C   UNL A   1      49.374  26.273  25.917  1.00  0.00     0.055 A 
ATOM     66  C   UNL A   1      48.546  27.140  23.832  1.00  0.00     0.041 A 
ATOM     67  F   UNL A   1      46.503  28.282  23.779  1.00  0.00    -0.206 F 
ATOM     68  C   UNL A   1      49.541  26.479  24.545  1.00  0.00     0.022 A 
BRANCH  65  69
ATOM     69  S   UNL A   1      50.728  25.574  26.900  1.00  0.00     0.124 S 
ATOM     70  O   UNL A   1      50.045  24.506  27.626  1.00  0.00    -0.237 OA
ATOM     71  O   UNL A   1      51.674  25.146  25.876  1.00  0.00    -0.237 OA
ATOM     72  O   UNL A   1      51.168  26.697  27.726  1.00  0.00    -0.744 OA
ENDBRANCH  65  69
ENDBRANCH  48  62
BRANCH  49  73
ATOM     73  C   UNL A   1      38.898  30.061  30.741  1.00  0.00     0.023 A 
ATOM     74  C   UNL A   1      37.798  30.732  30.179  1.00  0.00     0.031 A 
ATOM     75  C   UNL A   1      38.908  29.879  32.136  1.00  0.00     0.131 A 
ATOM     76  C   UNL A   1      36.791  31.251  31.011  1.00  0.00     0.055 A 
ATOM     77  C   UNL A   1      37.871  30.339  32.953  1.00  0.00     0.041 A 
ATOM     78  F   UNL A   1      39.939  29.261  32.734  1.00  0.00    -0.206 F 
ATOM     79  C   UNL A   1      36.813  31.046  32.393  1.00  0.00     0.022 A 
BRANCH  76  80
ATOM     80  S   UNL A   1      35.519  32.318  30.277  1.00  0.00     0.124 S 
ATOM     81  O   UNL A   1      35.176  31.580  29.068  1.00  0.00    -0.237 OA
ATOM     82  O   UNL A   1      34.504  32.342  31.325  1.00  0.00    -0.237 OA
ATOM     83  O   UNL A   1      36.220  33.583  30.060  1.00  0.00    -0.744 OA
ENDBRANCH  76  80
ENDBRANCH  49  73
BRANCH  61  84
ATOM     84  C   UNL A   1      44.865  33.333  29.182  1.00  0.00     0.023 A 
ATOM     85  C   UNL A   1      44.452  34.460  28.450  1.00  0.00     0.031 A 
ATOM     86  C   UNL A   1      45.764  33.530  30.246  1.00  0.00     0.131 A 
ATOM     87  C   UNL A   1      44.965  35.727  28.768  1.00  0.00     0.055 A 
ATOM     88  C   UNL A   1      46.227  34.800  30.595  1.00  0.00     0.041 A 
ATOM     89  F   UNL A   1      46.192  32.490  30.980  1.00  0.00    -0.206 F 
ATOM     90  C   UNL A   1      45.834  35.907  29.848  1.00  0.00     0.022 A 
BRANCH  87  91
ATOM     91  S   UNL A   1      44.529  37.138  27.714  1.00  0.00     0.124 S 
ATOM     92  O   UNL A   1      43.841  38.017  28.654  1.00  0.00    -0.237 OA
ATOM     93  O   UNL A   1      45.834  37.598  27.250  1.00  0.00    -0.237 OA
ATOM     94  O   UNL A   1      43.679  36.548  26.682  1.00  0.00    -0.744 OA
ENDBRANCH  87  91
ENDBRANCH  61  84
ENDBRANCH  35  36
ENDBRANCH  28  30
ENDBRANCH  27  28
ENDBRANCH  26  27
ENDBRANCH  25  26
ENDBRANCH  24  25
ENDBRANCH  23  24
ENDBRANCH   1  23
TORSDOF 26
ENDMDL
MODEL 2
REMARK VINA RESULT:      -9.3      3.452      4.671
REMARK SMILES O=C(/C=C\C(F)(C(F)(F)F)C(F)(F)F)OCCOCCOCCOCCOC(=O)c1ccc(-c2c3nc(c(-c4cc(S(=O)(=O)[O-])ccc4F)c4ccc([nH]4)c(-c4cc(S(=O)(=O)[O-])ccc4F)c4nc(c(-c5cc(S(=O)(=O)[O-])ccc5F)c5ccc2[nH]5)C=C4)C=C3)cc1
REMARK SMILES IDX 22 1 21 2 20 3 19 4 18 5 17 6 16 7 15 8 2 9 1 10 3 11 4 12
REMARK SMILES IDX 5 13 6 14 7 15 8 16 9 17 10 18 11 19 12 20 13 21 14 22 23 23
REMARK SMILES IDX 24 24 25 25 26 26 27 27 28 28 29 29 30 30 31 31 92 32 32 33
REMARK SMILES IDX 91 34 33 35 34 36 35 37 85 38 36 39 90 40 84 41 86 42 37 43
REMARK SMILES IDX 89 44 83 45 82 46 38 48 70 49 50 50 69 51 51 52 54 53 68 54
REMARK SMILES IDX 87 55 52 56 53 57 67 59 88 60 55 61 39 62 40 63 48 64 41 65
REMARK SMILES IDX 47 66 49 67 46 68 42 69 43 70 44 71 45 72 71 73 72 74 80 75
REMARK SMILES IDX 73 76 79 77 81 78 78 79 74 80 75 81 76 82 77 83 56 84 57 85
REMARK SMILES IDX 65 86 58 87 64 88 66 89 63 90 59 91 60 92 61 93 62 94
REMARK H PARENT 86 47 54 58
REMARK Flexibility Score: inf
ROOT
ATOM      1  C   UNL A   1      35.842  21.881  26.258  1.00  0.00     0.188 C 
ENDROOT
BRANCH   1   2
ATOM      2  O   UNL A   1      35.070  23.069  26.205  1.00  0.00    -0.377 OA
BRANCH   2   3
ATOM      3  C   UNL A   1      35.529  24.182  25.465  1.00  0.00     0.188 C 
BRANCH   3   4
ATOM      4  C   UNL A   1      34.538  24.689  24.422  1.00  0.00     0.188 C 
BRANCH   4   5
ATOM      5  O   UNL A   1      33.159  24.769  24.759  1.00  0.00    -0.376 OA
BRANCH   5   6
ATOM      6  C   UNL A   1      32.160  24.563  23.779  1.00  0.00     0.202 C 
BRANCH   6   7
ATOM      7  C   UNL A   1      32.610  23.869  22.499  1.00  0.00     0.261 C 
BRANCH   7   8
ATOM      8  O   UNL A   1      32.740  22.428  22.446  1.00  0.00    -0.460 OA
BRANCH   8   9
ATOM      9  C   UNL A   1      32.500  21.423  23.290  1.00  0.00     0.330 C 
ATOM     10  O   UNL A   1      32.581  21.619  24.504  1.00  0.00    -0.247 OA
BRANCH   9  11
ATOM     11  C   UNL A   1      32.170  20.048  22.879  1.00  0.00     0.093 C 
ATOM     12  C   UNL A   1      32.506  18.777  23.159  1.00  0.00     0.040 C 
BRANCH  12  13
ATOM     13  C   UNL A   1      33.478  18.081  24.110  1.00  0.00     0.317 C 
ATOM     14  F   UNL A   1      34.465  18.983  24.418  1.00  0.00    -0.219 F 
BRANCH  13  15
ATOM     15  C   UNL A   1      32.809  17.742  25.436  1.00  0.00     0.435 C 
ATOM     16  F   UNL A   1      32.679  18.816  26.247  1.00  0.00    -0.167 F 
ATOM     17  F   UNL A   1      31.584  17.195  25.279  1.00  0.00    -0.167 F 
ATOM     18  F   UNL A   1      33.546  16.832  26.129  1.00  0.00    -0.167 F 
ENDBRANCH  13  15
BRANCH  13  19
ATOM     19  C   UNL A   1      34.108  16.779  23.655  1.00  0.00     0.435 C 
ATOM     20  F   UNL A   1      35.212  16.470  24.369  1.00  0.00    -0.167 F 
ATOM     21  F   UNL A   1      33.269  15.732  23.779  1.00  0.00    -0.167 F 
ATOM     22  F   UNL A   1      34.466  16.825  22.352  1.00  0.00    -0.167 F 
ENDBRANCH  13  19
ENDBRANCH  12  13
ENDBRANCH   9  11
ENDBRANCH   8   9
ENDBRANCH   7   8
ENDBRANCH   6   7
ENDBRANCH   5   6
ENDBRANCH   4   5
ENDBRANCH   3   4
ENDBRANCH   2   3
ENDBRANCH   1   2
BRANCH   1  23
ATOM     23  C   UNL A   1      36.718  21.482  25.048  1.00  0.00     0.188 C 
BRANCH  23  24
ATOM     24  O   UNL A   1      37.182  20.134  24.970  1.00  0.00    -0.376 OA
BRANCH  24  25
ATOM     25  C   UNL A   1      38.577  19.899  24.856  1.00  0.00     0.202 C 
BRANCH  25  26
ATOM     26  C   UNL A   1      39.503  20.534  25.907  1.00  0.00     0.261 C 
BRANCH  26  27
ATOM     27  O   UNL A   1      40.359  19.581  26.566  1.00  0.00    -0.460 OA
BRANCH  27  28
ATOM     28  C   UNL A   1      41.655  19.557  26.163  1.00  0.00     0.338 C 
ATOM     29  O   UNL A   1      42.208  18.639  25.574  1.00  0.00    -0.246 OA
BRANCH  28  30
ATOM     30  C   UNL A   1      42.257  20.910  26.315  1.00  0.00     0.060 A 
ATOM     31  C   UNL A   1      42.468  21.399  27.615  1.00  0.00     0.016 A 
ATOM     32  C   UNL A   1      42.648  21.680  25.216  1.00  0.00     0.016 A 
ATOM     33  C   UNL A   1      43.034  22.663  27.819  1.00  0.00     0.010 A 
ATOM     34  C   UNL A   1      43.189  22.957  25.422  1.00  0.00     0.010 A 
ATOM     35  C   UNL A   1      43.357  23.469  26.723  1.00  0.00    -0.014 A 
BRANCH  35  36
ATOM     36  C   UNL A   1      43.640  24.920  26.908  1.00  0.00     0.031 A 
ATOM     37  C   UNL A   1      45.056  25.386  26.693  1.00  0.00     0.074 A 
ATOM     38  C   UNL A   1      42.693  25.802  27.282  1.00  0.00     0.049 A 
ATOM     39  N   UNL A   1      45.597  26.552  26.932  1.00  0.00    -0.248 NA
ATOM     40  C   UNL A   1      45.991  24.392  26.138  1.00  0.00     0.031 C 
ATOM     41  C   UNL A   1      41.274  25.500  27.459  1.00  0.00     0.029 A 
ATOM     42  N   UNL A   1      42.794  27.137  27.603  1.00  0.00    -0.354 N 
ATOM     43  C   UNL A   1      46.937  26.426  26.583  1.00  0.00     0.074 A 
ATOM     44  C   UNL A   1      47.128  25.069  26.120  1.00  0.00     0.031 C 
ATOM     45  C   UNL A   1      40.644  26.608  27.892  1.00  0.00     0.029 A 
ATOM     46  C   UNL A   1      41.619  27.684  28.073  1.00  0.00     0.049 A 
ATOM     47  H   UNL A   1      43.627  27.652  27.507  1.00  0.00     0.167 HD
ATOM     48  C   UNL A   1      47.921  27.354  26.653  1.00  0.00     0.034 A 
ATOM     49  C   UNL A   1      41.375  28.892  28.630  1.00  0.00     0.034 A 
ATOM     50  C   UNL A   1      47.723  28.703  27.116  1.00  0.00     0.049 A 
ATOM     51  C   UNL A   1      42.517  29.878  28.792  1.00  0.00     0.074 A 
ATOM     52  C   UNL A   1      48.646  29.732  27.175  1.00  0.00     0.029 A 
ATOM     53  N   UNL A   1      46.533  29.204  27.621  1.00  0.00    -0.354 N 
ATOM     54  N   UNL A   1      43.773  29.757  28.428  1.00  0.00    -0.248 NA
ATOM     55  C   UNL A   1      42.208  31.159  29.446  1.00  0.00     0.031 C 
ATOM     56  C   UNL A   1      48.039  30.826  27.798  1.00  0.00     0.029 A 
ATOM     57  C   UNL A   1      46.713  30.509  28.048  1.00  0.00     0.049 A 
ATOM     58  H   UNL A   1      45.685  28.705  27.670  1.00  0.00     0.167 HD
ATOM     59  C   UNL A   1      44.391  30.955  28.786  1.00  0.00     0.074 A 
ATOM     60  C   UNL A   1      43.371  31.791  29.376  1.00  0.00     0.031 C 
ATOM     61  C   UNL A   1      45.687  31.333  28.640  1.00  0.00     0.034 A 
BRANCH  48  62
ATOM     62  C   UNL A   1      49.318  26.921  26.289  1.00  0.00     0.023 A 
ATOM     63  C   UNL A   1      49.925  27.294  25.078  1.00  0.00     0.031 A 
ATOM     64  C   UNL A   1      50.055  26.123  27.183  1.00  0.00     0.131 A 
ATOM     65  C   UNL A   1      51.213  26.831  24.775  1.00  0.00     0.055 A 
ATOM     66  C   UNL A   1      51.361  25.723  26.905  1.00  0.00     0.041 A 
ATOM     67  F   UNL A   1      49.512  25.717  28.340  1.00  0.00    -0.206 F 
ATOM     68  C   UNL A   1      51.945  26.070  25.690  1.00  0.00     0.022 A 
BRANCH  65  69
ATOM     69  S   UNL A   1      51.883  27.146  23.120  1.00  0.00     0.124 S 
ATOM     70  O   UNL A   1      52.179  28.576  23.188  1.00  0.00    -0.237 OA
ATOM     71  O   UNL A   1      53.038  26.257  23.071  1.00  0.00    -0.237 OA
ATOM     72  O   UNL A   1      50.781  26.787  22.229  1.00  0.00    -0.744 OA
ENDBRANCH  65  69
ENDBRANCH  48  62
BRANCH  49  73
ATOM     73  C   UNL A   1      40.023  29.229  29.176  1.00  0.00     0.023 A 
ATOM     74  C   UNL A   1      39.736  29.106  30.546  1.00  0.00     0.031 A 
ATOM     75  C   UNL A   1      38.963  29.566  28.314  1.00  0.00     0.131 A 
ATOM     76  C   UNL A   1      38.414  29.253  31.003  1.00  0.00     0.055 A 
ATOM     77  C   UNL A   1      37.663  29.777  28.783  1.00  0.00     0.041 A 
ATOM     78  F   UNL A   1      39.171  29.681  26.993  1.00  0.00    -0.206 F 
ATOM     79  C   UNL A   1      37.380  29.603  30.133  1.00  0.00     0.022 A 
BRANCH  76  80
ATOM     80  S   UNL A   1      38.041  28.848  32.733  1.00  0.00     0.124 S 
ATOM     81  O   UNL A   1      39.102  29.558  33.438  1.00  0.00    -0.237 OA
ATOM     82  O   UNL A   1      36.695  29.388  32.886  1.00  0.00    -0.237 OA
ATOM     83  O   UNL A   1      38.136  27.389  32.769  1.00  0.00    -0.744 OA
ENDBRANCH  76  80
ENDBRANCH  49  73
BRANCH  61  84
ATOM     84  C   UNL A   1      46.067  32.724  29.086  1.00  0.00     0.023 A 
ATOM     85  C   UNL A   1      45.738  33.862  28.328  1.00  0.00     0.031 A 
ATOM     86  C   UNL A   1      46.746  32.916  30.304  1.00  0.00     0.131 A 
ATOM     87  C   UNL A   1      46.120  35.136  28.777  1.00  0.00     0.055 A 
ATOM     88  C   UNL A   1      47.073  34.188  30.773  1.00  0.00     0.041 A 
ATOM     89  F   UNL A   1      47.085  31.865  31.069  1.00  0.00    -0.206 F 
ATOM     90  C   UNL A   1      46.768  35.308  30.004  1.00  0.00     0.022 A 
BRANCH  87  91
ATOM     91  S   UNL A   1      45.814  36.569  27.709  1.00  0.00     0.124 S 
ATOM     92  O   UNL A   1      47.166  36.940  27.305  1.00  0.00    -0.237 OA
ATOM     93  O   UNL A   1      44.968  36.005  26.662  1.00  0.00    -0.237 OA
ATOM     94  O   UNL A   1      45.148  37.523  28.594  1.00  0.00    -0.744 OA
ENDBRANCH  87  91
ENDBRANCH  61  84
ENDBRANCH  35  36
ENDBRANCH  28  30
ENDBRANCH  27  28
ENDBRANCH  26  27
ENDBRANCH  25  26
ENDBRANCH  24  25
ENDBRANCH  23  24
ENDBRANCH   1  23
TORSDOF 26
ENDMDL
MODEL 3
REMARK VINA RESULT:      -9.3      1.545      2.100
REMARK SMILES O=C(/C=C\C(F)(C(F)(F)F)C(F)(F)F)OCCOCCOCCOCCOC(=O)c1ccc(-c2c3nc(c(-c4cc(S(=O)(=O)[O-])ccc4F)c4ccc([nH]4)c(-c4cc(S(=O)(=O)[O-])ccc4F)c4nc(c(-c5cc(S(=O)(=O)[O-])ccc5F)c5ccc2[nH]5)C=C4)C=C3)cc1
REMARK SMILES IDX 22 1 21 2 20 3 19 4 18 5 17 6 16 7 15 8 2 9 1 10 3 11 4 12
REMARK SMILES IDX 5 13 6 14 7 15 8 16 9 17 10 18 11 19 12 20 13 21 14 22 23 23
REMARK SMILES IDX 24 24 25 25 26 26 27 27 28 28 29 29 30 30 31 31 92 32 32 33
REMARK SMILES IDX 91 34 33 35 34 36 35 37 85 38 36 39 90 40 84 41 86 42 37 43
REMARK SMILES IDX 89 44 83 45 82 46 38 48 70 49 50 50 69 51 51 52 54 53 68 54
REMARK SMILES IDX 87 55 52 56 53 57 67 59 88 60 55 61 39 62 40 63 48 64 41 65
REMARK SMILES IDX 47 66 49 67 46 68 42 69 43 70 44 71 45 72 71 73 72 74 80 75
REMARK SMILES IDX 73 76 79 77 81 78 78 79 74 80 75 81 76 82 77 83 56 84 57 85
REMARK SMILES IDX 65 86 58 87 64 88 66 89 63 90 59 91 60 92 61 93 62 94
REMARK H PARENT 86 47 54 58
REMARK Flexibility Score: inf
ROOT
ATOM      1  C   UNL A   1      35.788  21.735  25.842  1.00  0.00     0.188 C 
ENDROOT
BRANCH   1   2
ATOM      2  O   UNL A   1      34.920  20.758  25.293  1.00  0.00    -0.377 OA
BRANCH   2   3
ATOM      3  C   UNL A   1      33.580  20.669  25.736  1.00  0.00     0.188 C 
BRANCH   3   4
ATOM      4  C   UNL A   1      32.567  20.449  24.617  1.00  0.00     0.188 C 
BRANCH   4   5
ATOM      5  O   UNL A   1      32.145  21.561  23.837  1.00  0.00    -0.376 OA
BRANCH   5   6
ATOM      6  C   UNL A   1      32.906  22.753  23.804  1.00  0.00     0.202 C 
BRANCH   6   7
ATOM      7  C   UNL A   1      33.144  23.359  22.427  1.00  0.00     0.261 C 
BRANCH   7   8
ATOM      8  O   UNL A   1      32.552  24.631  22.067  1.00  0.00    -0.460 OA
BRANCH   8   9
ATOM      9  C   UNL A   1      33.008  25.781  21.569  1.00  0.00     0.330 C 
ATOM     10  O   UNL A   1      33.111  25.914  20.347  1.00  0.00    -0.247 OA
BRANCH   9  11
ATOM     11  C   UNL A   1      33.446  26.928  22.382  1.00  0.00     0.093 C 
ATOM     12  C   UNL A   1      33.299  27.434  23.618  1.00  0.00     0.040 C 
BRANCH  12  13
ATOM     13  C   UNL A   1      32.538  27.040  24.883  1.00  0.00     0.317 C 
ATOM     14  F   UNL A   1      33.187  25.964  25.432  1.00  0.00    -0.219 F 
BRANCH  13  15
ATOM     15  C   UNL A   1      32.608  28.139  25.937  1.00  0.00     0.435 C 
ATOM     16  F   UNL A   1      33.664  28.963  25.763  1.00  0.00    -0.167 F 
ATOM     17  F   UNL A   1      31.494  28.900  25.974  1.00  0.00    -0.167 F 
ATOM     18  F   UNL A   1      32.746  27.604  27.181  1.00  0.00    -0.167 F 
ENDBRANCH  13  15
BRANCH  13  19
ATOM     19  C   UNL A   1      31.060  26.727  24.754  1.00  0.00     0.435 C 
ATOM     20  F   UNL A   1      30.416  27.622  23.972  1.00  0.00    -0.167 F 
ATOM     21  F   UNL A   1      30.837  25.516  24.207  1.00  0.00    -0.167 F 
ATOM     22  F   UNL A   1      30.442  26.719  25.956  1.00  0.00    -0.167 F 
ENDBRANCH  13  19
ENDBRANCH  12  13
ENDBRANCH   9  11
ENDBRANCH   8   9
ENDBRANCH   7   8
ENDBRANCH   6   7
ENDBRANCH   5   6
ENDBRANCH   4   5
ENDBRANCH   3   4
ENDBRANCH   2   3
ENDBRANCH   1   2
BRANCH   1  23
ATOM     23  C   UNL A   1      37.079  22.125  25.085  1.00  0.00     0.188 C 
BRANCH  23  24
ATOM     24  O   UNL A   1      38.242  21.321  25.285  1.00  0.00    -0.376 OA
BRANCH  24  25
ATOM     25  C   UNL A   1      38.162  19.929  25.018  1.00  0.00     0.202 C 
BRANCH  25  26
ATOM     26  C   UNL A   1      39.183  19.005  25.703  1.00  0.00     0.261 C 
BRANCH  26  27
ATOM     27  O   UNL A   1      40.486  19.603  25.851  1.00  0.00    -0.460 OA
BRANCH  27  28
ATOM     28  C   UNL A   1      40.851  19.944  27.113  1.00  0.00     0.338 C 
ATOM     29  O   UNL A   1      40.943  19.181  28.066  1.00  0.00    -0.246 OA
BRANCH  28  30
ATOM     30  C   UNL A   1      41.370  21.338  27.130  1.00  0.00     0.060 A 
ATOM     31  C   UNL A   1      41.860  21.848  28.344  1.00  0.00     0.016 A 
ATOM     32  C   UNL A   1      41.419  22.130  25.979  1.00  0.00     0.016 A 
ATOM     33  C   UNL A   1      42.364  23.151  28.420  1.00  0.00     0.010 A 
ATOM     34  C   UNL A   1      41.899  23.445  26.063  1.00  0.00     0.010 A 
ATOM     35  C   UNL A   1      42.345  23.975  27.288  1.00  0.00    -0.014 A 
BRANCH  35  36
ATOM     36  C   UNL A   1      42.557  25.443  27.418  1.00  0.00     0.031 A 
ATOM     37  C   UNL A   1      43.874  26.001  26.943  1.00  0.00     0.074 A 
ATOM     38  C   UNL A   1      41.638  26.264  27.961  1.00  0.00     0.049 A 
ATOM     39  N   UNL A   1      44.367  27.204  27.078  1.00  0.00    -0.248 NA
ATOM     40  C   UNL A   1      44.755  25.066  26.224  1.00  0.00     0.031 C 
ATOM     41  C   UNL A   1      40.301  25.869  28.400  1.00  0.00     0.029 A 
ATOM     42  N   UNL A   1      41.705  27.606  28.259  1.00  0.00    -0.354 N 
ATOM     43  C   UNL A   1      45.625  27.164  26.486  1.00  0.00     0.074 A 
ATOM     44  C   UNL A   1      45.820  25.818  25.995  1.00  0.00     0.031 C 
ATOM     45  C   UNL A   1      39.687  26.937  28.942  1.00  0.00     0.029 A 
ATOM     46  C   UNL A   1      40.603  28.079  28.939  1.00  0.00     0.049 A 
ATOM     47  H   UNL A   1      42.468  28.176  28.010  1.00  0.00     0.167 HD
ATOM     48  C   UNL A   1      46.539  28.157  26.371  1.00  0.00     0.034 A 
ATOM     49  C   UNL A   1      40.383  29.274  29.532  1.00  0.00     0.034 A 
ATOM     50  C   UNL A   1      46.339  29.496  26.863  1.00  0.00     0.049 A 
ATOM     51  C   UNL A   1      41.465  30.337  29.479  1.00  0.00     0.074 A 
ATOM     52  C   UNL A   1      47.183  30.585  26.750  1.00  0.00     0.029 A 
ATOM     53  N   UNL A   1      45.231  29.921  27.582  1.00  0.00    -0.354 N 
ATOM     54  N   UNL A   1      42.637  30.297  28.887  1.00  0.00    -0.248 NA
ATOM     55  C   UNL A   1      41.196  31.603  30.180  1.00  0.00     0.031 C 
ATOM     56  C   UNL A   1      46.629  31.644  27.476  1.00  0.00     0.029 A 
ATOM     57  C   UNL A   1      45.397  31.242  27.968  1.00  0.00     0.049 A 
ATOM     58  H   UNL A   1      44.444  29.367  27.787  1.00  0.00     0.167 HD
ATOM     59  C   UNL A   1      43.227  31.538  29.125  1.00  0.00     0.074 A 
ATOM     60  C   UNL A   1      42.279  32.311  29.894  1.00  0.00     0.031 C 
ATOM     61  C   UNL A   1      44.445  32.001  28.741  1.00  0.00     0.034 A 
BRANCH  48  62
ATOM     62  C   UNL A   1      47.870  27.816  25.754  1.00  0.00     0.023 A 
ATOM     63  C   UNL A   1      48.075  27.827  24.364  1.00  0.00     0.031 A 
ATOM     64  C   UNL A   1      48.956  27.479  26.582  1.00  0.00     0.131 A 
ATOM     65  C   UNL A   1      49.325  27.462  23.843  1.00  0.00     0.055 A 
ATOM     66  C   UNL A   1      50.215  27.184  26.060  1.00  0.00     0.041 A 
ATOM     67  F   UNL A   1      48.806  27.426  27.915  1.00  0.00    -0.206 F 
ATOM     68  C   UNL A   1      50.403  27.167  24.682  1.00  0.00     0.022 A 
BRANCH  65  69
ATOM     69  S   UNL A   1      49.497  27.276  22.048  1.00  0.00     0.124 S 
ATOM     70  O   UNL A   1      49.008  28.567  21.568  1.00  0.00    -0.237 OA
ATOM     71  O   UNL A   1      50.927  27.037  21.890  1.00  0.00    -0.237 OA
ATOM     72  O   UNL A   1      48.636  26.136  21.737  1.00  0.00    -0.744 OA
ENDBRANCH  65  69
ENDBRANCH  48  62
BRANCH  49  73
ATOM     73  C   UNL A   1      39.137  29.527  30.320  1.00  0.00     0.023 A 
ATOM     74  C   UNL A   1      38.098  30.325  29.811  1.00  0.00     0.031 A 
ATOM     75  C   UNL A   1      39.019  29.069  31.645  1.00  0.00     0.131 A 
ATOM     76  C   UNL A   1      37.024  30.693  30.640  1.00  0.00     0.055 A 
ATOM     77  C   UNL A   1      37.916  29.383  32.444  1.00  0.00     0.041 A 
ATOM     78  F   UNL A   1      39.986  28.318  32.194  1.00  0.00    -0.206 F 
ATOM     79  C   UNL A   1      36.918  30.215  31.947  1.00  0.00     0.022 A 
BRANCH  76  80
ATOM     80  S   UNL A   1      35.832  31.919  30.027  1.00  0.00     0.124 S 
ATOM     81  O   UNL A   1      35.287  31.242  28.857  1.00  0.00    -0.237 OA
ATOM     82  O   UNL A   1      34.931  32.058  31.166  1.00  0.00    -0.237 OA
ATOM     83  O   UNL A   1      36.662  33.088  29.742  1.00  0.00    -0.744 OA
ENDBRANCH  76  80
ENDBRANCH  49  73
BRANCH  61  84
ATOM     84  C   UNL A   1      44.804  33.420  29.108  1.00  0.00     0.023 A 
ATOM     85  C   UNL A   1      44.511  34.503  28.261  1.00  0.00     0.031 A 
ATOM     86  C   UNL A   1      45.425  33.696  30.340  1.00  0.00     0.131 A 
ATOM     87  C   UNL A   1      44.873  35.806  28.639  1.00  0.00     0.055 A 
ATOM     88  C   UNL A   1      45.731  34.998  30.737  1.00  0.00     0.041 A 
ATOM     89  F   UNL A   1      45.728  32.700  31.190  1.00  0.00    -0.206 F 
ATOM     90  C   UNL A   1      45.464  36.062  29.881  1.00  0.00     0.022 A 
BRANCH  87  91
ATOM     91  S   UNL A   1      44.618  37.163  27.463  1.00  0.00     0.124 S 
ATOM     92  O   UNL A   1      43.317  36.828  26.892  1.00  0.00    -0.237 OA
ATOM     93  O   UNL A   1      44.651  38.337  28.327  1.00  0.00    -0.237 OA
ATOM     94  O   UNL A   1      45.748  37.039  26.544  1.00  0.00    -0.744 OA
ENDBRANCH  87  91
ENDBRANCH  61  84
ENDBRANCH  35  36
ENDBRANCH  28  30
ENDBRANCH  27  28
ENDBRANCH  26  27
ENDBRANCH  25  26
ENDBRANCH  24  25
ENDBRANCH  23  24
ENDBRANCH   1  23
TORSDOF 26
ENDMDL
