MODEL 1
REMARK VINA RESULT:     -10.5      0.000      0.000
REMARK SMILES CC(=O)Nc1cnc(N2CC=C(c3ccccc3C)CC2)c(C(=O)OCCOCCOCCOCCOC(=O)c2ccc(-c3c4nc(c(-c5cc(S(=O)(=O)[O-])ccc5F)c5ccc([nH]5)c(-c5cc(S(=O)(=O)[O-])ccc5F)c5nc(c(-c6cc(S(=O)(=O)[O-])ccc6F)c6ccc3[nH]6)C=C5)C=C4)cc2)c1
REMARK SMILES IDX 32 1 31 2 30 3 29 4 28 5 27 6 26 7 25 8 23 9 24 10 22 11
REMARK SMILES IDX 5 12 6 13 103 14 7 15 8 16 4 17 1 18 2 19 3 20 9 22 10 23
REMARK SMILES IDX 21 24 11 25 20 26 12 27 13 28 14 29 18 30 15 31 17 32 19 33
REMARK SMILES IDX 16 34 33 35 34 36 35 37 36 38 37 39 38 40 39 41 40 42 41 43
REMARK SMILES IDX 102 44 42 45 101 46 43 47 44 48 45 49 95 50 46 51 100 52
REMARK SMILES IDX 94 53 96 54 47 55 99 56 93 57 92 58 48 60 80 61 60 62 79 63
REMARK SMILES IDX 61 64 64 65 78 66 97 67 62 68 63 69 77 71 98 72 65 73 49 74
REMARK SMILES IDX 50 75 58 76 51 77 57 78 59 79 56 80 52 81 53 82 54 83 55 84
REMARK SMILES IDX 81 85 82 86 90 87 83 88 89 89 91 90 88 91 84 92 85 93 86 94
REMARK SMILES IDX 87 95 66 96 67 97 75 98 68 99 74 100 76 101 73 102 69 103
REMARK SMILES IDX 70 104 71 105 72 106
REMARK H PARENT 4 21 96 59 64 70
REMARK Flexibility Score: inf
ROOT
ATOM      1  C   UNL A   1      36.906  21.550  25.034  1.00  0.00     0.188 C 
ENDROOT
BRANCH   1   2
ATOM      2  O   UNL A   1      36.962  22.812  24.381  1.00  0.00    -0.377 OA
BRANCH   2   3
ATOM      3  C   UNL A   1      35.679  23.379  24.396  1.00  0.00     0.188 C 
BRANCH   3   4
ATOM      4  C   UNL A   1      35.126  23.762  25.753  1.00  0.00     0.188 C 
BRANCH   4   5
ATOM      5  O   UNL A   1      34.137  24.727  26.093  1.00  0.00    -0.376 OA
BRANCH   5   6
ATOM      6  C   UNL A   1      34.162  25.963  25.396  1.00  0.00     0.202 C 
BRANCH   6   7
ATOM      7  C   UNL A   1      33.914  27.292  26.148  1.00  0.00     0.261 C 
BRANCH   7   8
ATOM      8  O   UNL A   1      33.236  28.235  25.329  1.00  0.00    -0.460 OA
BRANCH   8   9
ATOM      9  C   UNL A   1      31.900  28.299  25.509  1.00  0.00     0.342 C 
ATOM     10  O   UNL A   1      31.270  28.314  26.519  1.00  0.00    -0.246 OA
BRANCH   9  11
ATOM     11  C   UNL A   1      31.386  28.656  24.192  1.00  0.00     0.104 A 
ATOM     12  C   UNL A   1      30.114  30.270  22.930  1.00  0.00     0.060 A 
ATOM     13  C   UNL A   1      29.984  29.239  22.001  1.00  0.00     0.139 A 
ATOM     14  C   UNL A   1      30.838  29.954  24.057  1.00  0.00     0.047 A 
ATOM     15  N   UNL A   1      30.489  27.970  22.121  1.00  0.00    -0.236 NA
ATOM     16  C   UNL A   1      31.188  27.640  23.236  1.00  0.00     0.143 A 
BRANCH  12  17
ATOM     17  N   UNL A   1      29.457  31.494  22.696  1.00  0.00    -0.325 N 
ATOM     18  C   UNL A   1      27.197  31.116  23.713  1.00  0.00     0.114 C 
ATOM     19  C   UNL A   1      28.188  31.940  22.941  1.00  0.00     0.221 C 
ATOM     20  O   UNL A   1      27.903  33.091  22.590  1.00  0.00    -0.275 OA
ATOM     21  H   UNL A   1      30.031  32.169  22.268  1.00  0.00     0.169 HD
ENDBRANCH  12  17
BRANCH  16  22
ATOM     22  N   UNL A   1      31.286  26.254  23.502  1.00  0.00    -0.352 N 
ATOM     23  C   UNL A   1      30.169  25.467  24.039  1.00  0.00     0.146 C 
ATOM     24  C   UNL A   1      32.022  25.624  22.420  1.00  0.00     0.123 C 
ATOM     25  C   UNL A   1      30.451  23.973  23.964  1.00  0.00    -0.002 C 
ATOM     26  C   UNL A   1      32.505  24.219  22.611  1.00  0.00     0.057 C 
ATOM     27  C   UNL A   1      31.512  23.403  23.360  1.00  0.00    -0.041 C 
BRANCH  27  28
ATOM     28  C   UNL A   1      31.835  21.972  23.467  1.00  0.00    -0.020 A 
ATOM     29  C   UNL A   1      31.985  21.190  22.312  1.00  0.00     0.008 A 
ATOM     30  C   UNL A   1      32.027  21.385  24.739  1.00  0.00    -0.044 A 
ATOM     31  C   UNL A   1      32.298  19.833  22.417  1.00  0.00     0.001 A 
ATOM     32  C   UNL A   1      32.353  20.026  24.822  1.00  0.00     0.004 A 
ATOM     33  C   UNL A   1      31.955  22.178  26.017  1.00  0.00     0.045 C 
ATOM     34  C   UNL A   1      32.473  19.251  23.670  1.00  0.00     0.000 A 
ENDBRANCH  27  28
ENDBRANCH  16  22
ENDBRANCH   9  11
ENDBRANCH   8   9
ENDBRANCH   7   8
ENDBRANCH   6   7
ENDBRANCH   5   6
ENDBRANCH   4   5
ENDBRANCH   3   4
ENDBRANCH   2   3
ENDBRANCH   1   2
BRANCH   1  35
ATOM     35  C   UNL A   1      38.277  20.925  25.012  1.00  0.00     0.188 C 
BRANCH  35  36
ATOM     36  O   UNL A   1      39.049  21.065  26.194  1.00  0.00    -0.376 OA
BRANCH  36  37
ATOM     37  C   UNL A   1      39.535  22.334  26.587  1.00  0.00     0.202 C 
BRANCH  37  38
ATOM     38  C   UNL A   1      40.641  22.363  27.651  1.00  0.00     0.261 C 
BRANCH  38  39
ATOM     39  O   UNL A   1      41.529  21.240  27.441  1.00  0.00    -0.460 OA
BRANCH  39  40
ATOM     40  C   UNL A   1      42.515  21.378  26.505  1.00  0.00     0.338 C 
ATOM     41  O   UNL A   1      42.692  20.635  25.556  1.00  0.00    -0.246 OA
BRANCH  40  42
ATOM     42  C   UNL A   1      43.505  22.409  26.977  1.00  0.00     0.060 A 
ATOM     43  C   UNL A   1      43.643  22.687  28.354  1.00  0.00     0.016 A 
ATOM     44  C   UNL A   1      43.968  23.340  26.057  1.00  0.00     0.016 A 
ATOM     45  C   UNL A   1      44.044  23.971  28.799  1.00  0.00     0.010 A 
ATOM     46  C   UNL A   1      44.273  24.616  26.508  1.00  0.00     0.010 A 
ATOM     47  C   UNL A   1      44.256  24.990  27.872  1.00  0.00    -0.014 A 
BRANCH  47  48
ATOM     48  C   UNL A   1      44.254  26.473  28.140  1.00  0.00     0.031 A 
ATOM     49  C   UNL A   1      42.917  27.184  27.959  1.00  0.00     0.074 A 
ATOM     50  C   UNL A   1      45.260  26.983  28.921  1.00  0.00     0.049 A 
ATOM     51  N   UNL A   1      42.607  28.367  28.366  1.00  0.00    -0.248 NA
ATOM     52  C   UNL A   1      41.763  26.558  27.299  1.00  0.00     0.031 C 
ATOM     53  C   UNL A   1      45.212  27.934  30.037  1.00  0.00     0.029 A 
ATOM     54  N   UNL A   1      46.611  26.645  28.972  1.00  0.00    -0.354 N 
ATOM     55  C   UNL A   1      41.214  28.536  28.332  1.00  0.00     0.074 A 
ATOM     56  C   UNL A   1      40.753  27.379  27.612  1.00  0.00     0.031 C 
ATOM     57  C   UNL A   1      46.409  28.286  30.500  1.00  0.00     0.029 A 
ATOM     58  C   UNL A   1      47.320  27.724  29.587  1.00  0.00     0.049 A 
ATOM     59  H   UNL A   1      47.009  25.807  28.641  1.00  0.00     0.167 HD
ATOM     60  C   UNL A   1      40.628  29.589  29.006  1.00  0.00     0.034 A 
ATOM     61  C   UNL A   1      48.222  28.467  28.907  1.00  0.00     0.034 A 
ATOM     62  C   UNL A   1      41.657  30.543  29.492  1.00  0.00     0.049 A 
ATOM     63  C   UNL A   1      47.562  29.811  28.475  1.00  0.00     0.074 A 
ATOM     64  C   UNL A   1      41.889  31.302  30.625  1.00  0.00     0.029 A 
ATOM     65  N   UNL A   1      42.792  30.752  28.715  1.00  0.00    -0.354 N 
ATOM     66  N   UNL A   1      46.323  30.168  28.787  1.00  0.00    -0.248 NA
ATOM     67  C   UNL A   1      48.215  30.885  27.732  1.00  0.00     0.031 C 
ATOM     68  C   UNL A   1      43.219  31.828  30.570  1.00  0.00     0.029 A 
ATOM     69  C   UNL A   1      43.750  31.510  29.334  1.00  0.00     0.049 A 
ATOM     70  H   UNL A   1      42.897  30.390  27.805  1.00  0.00     0.167 HD
ATOM     71  C   UNL A   1      46.006  31.415  28.312  1.00  0.00     0.074 A 
ATOM     72  C   UNL A   1      47.231  31.803  27.619  1.00  0.00     0.031 C 
ATOM     73  C   UNL A   1      44.803  32.062  28.503  1.00  0.00     0.034 A 
BRANCH  60  74
ATOM     74  C   UNL A   1      39.124  29.762  29.385  1.00  0.00     0.023 A 
ATOM     75  C   UNL A   1      38.466  30.995  29.120  1.00  0.00     0.031 A 
ATOM     76  C   UNL A   1      38.300  28.835  30.065  1.00  0.00     0.131 A 
ATOM     77  C   UNL A   1      37.148  31.286  29.555  1.00  0.00     0.055 A 
ATOM     78  C   UNL A   1      36.962  29.097  30.443  1.00  0.00     0.041 A 
ATOM     79  F   UNL A   1      38.728  27.624  30.429  1.00  0.00    -0.206 F 
ATOM     80  C   UNL A   1      36.382  30.330  30.203  1.00  0.00     0.022 A 
BRANCH  77  81
ATOM     81  S   UNL A   1      36.445  32.945  29.281  1.00  0.00     0.124 S 
ATOM     82  O   UNL A   1      37.586  33.812  29.555  1.00  0.00    -0.237 OA
ATOM     83  O   UNL A   1      35.999  32.877  27.895  1.00  0.00    -0.237 OA
ATOM     84  O   UNL A   1      35.366  33.024  30.267  1.00  0.00    -0.744 OA
ENDBRANCH  77  81
ENDBRANCH  60  74
BRANCH  61  85
ATOM     85  C   UNL A   1      49.205  27.424  28.402  1.00  0.00     0.023 A 
ATOM     86  C   UNL A   1      49.333  27.423  26.958  1.00  0.00     0.031 A 
ATOM     87  C   UNL A   1      50.394  27.219  29.125  1.00  0.00     0.131 A 
ATOM     88  C   UNL A   1      50.601  27.553  26.340  1.00  0.00     0.055 A 
ATOM     89  C   UNL A   1      51.652  27.295  28.489  1.00  0.00     0.041 A 
ATOM     90  F   UNL A   1      50.375  27.235  30.466  1.00  0.00    -0.206 F 
ATOM     91  C   UNL A   1      51.760  27.536  27.114  1.00  0.00     0.022 A 
BRANCH  88  92
ATOM     92  S   UNL A   1      50.732  28.102  24.584  1.00  0.00     0.124 S 
ATOM     93  O   UNL A   1      51.279  29.447  24.718  1.00  0.00    -0.237 OA
ATOM     94  O   UNL A   1      51.617  27.106  23.990  1.00  0.00    -0.237 OA
ATOM     95  O   UNL A   1      49.350  28.037  24.104  1.00  0.00    -0.744 OA
ENDBRANCH  88  92
ENDBRANCH  61  85
BRANCH  73  96
ATOM     96  C   UNL A   1      44.417  33.353  27.819  1.00  0.00     0.023 A 
ATOM     97  C   UNL A   1      44.439  34.554  28.508  1.00  0.00     0.031 A 
ATOM     98  C   UNL A   1      44.009  33.415  26.455  1.00  0.00     0.131 A 
ATOM     99  C   UNL A   1      44.314  35.758  27.808  1.00  0.00     0.055 A 
ATOM    100  C   UNL A   1      43.734  34.613  25.799  1.00  0.00     0.041 A 
ATOM    101  F   UNL A   1      43.915  32.329  25.675  1.00  0.00    -0.206 F 
ATOM    102  C   UNL A   1      43.944  35.804  26.463  1.00  0.00     0.022 A 
BRANCH  99 103
ATOM    103  S   UNL A   1      44.883  37.239  28.660  1.00  0.00     0.124 S 
ATOM    104  O   UNL A   1      44.393  37.028  30.018  1.00  0.00    -0.237 OA
ATOM    105  O   UNL A   1      46.331  37.130  28.488  1.00  0.00    -0.237 OA
ATOM    106  O   UNL A   1      44.250  38.326  27.921  1.00  0.00    -0.744 OA
ENDBRANCH  99 103
ENDBRANCH  73  96
ENDBRANCH  47  48
ENDBRANCH  40  42
ENDBRANCH  39  40
ENDBRANCH  38  39
ENDBRANCH  37  38
ENDBRANCH  36  37
ENDBRANCH  35  36
ENDBRANCH   1  35
TORSDOF 26
ENDMDL
MODEL 2
REMARK VINA RESULT:      -9.7      5.192      8.595
REMARK SMILES CC(=O)Nc1cnc(N2CC=C(c3ccccc3C)CC2)c(C(=O)OCCOCCOCCOCCOC(=O)c2ccc(-c3c4nc(c(-c5cc(S(=O)(=O)[O-])ccc5F)c5ccc([nH]5)c(-c5cc(S(=O)(=O)[O-])ccc5F)c5nc(c(-c6cc(S(=O)(=O)[O-])ccc6F)c6ccc3[nH]6)C=C5)C=C4)cc2)c1
REMARK SMILES IDX 32 1 31 2 30 3 29 4 28 5 27 6 26 7 25 8 23 9 24 10 22 11
REMARK SMILES IDX 5 12 6 13 103 14 7 15 8 16 4 17 1 18 2 19 3 20 9 22 10 23
REMARK SMILES IDX 21 24 11 25 20 26 12 27 13 28 14 29 18 30 15 31 17 32 19 33
REMARK SMILES IDX 16 34 33 35 34 36 35 37 36 38 37 39 38 40 39 41 40 42 41 43
REMARK SMILES IDX 102 44 42 45 101 46 43 47 44 48 45 49 95 50 46 51 100 52
REMARK SMILES IDX 94 53 96 54 47 55 99 56 93 57 92 58 48 60 80 61 60 62 79 63
REMARK SMILES IDX 61 64 64 65 78 66 97 67 62 68 63 69 77 71 98 72 65 73 49 74
REMARK SMILES IDX 50 75 58 76 51 77 57 78 59 79 56 80 52 81 53 82 54 83 55 84
REMARK SMILES IDX 81 85 82 86 90 87 83 88 89 89 91 90 88 91 84 92 85 93 86 94
REMARK SMILES IDX 87 95 66 96 67 97 75 98 68 99 74 100 76 101 73 102 69 103
REMARK SMILES IDX 70 104 71 105 72 106
REMARK H PARENT 4 21 96 59 64 70
REMARK Flexibility Score: inf
ROOT
ATOM      1  C   UNL A   1      40.677  24.557  27.226  1.00  0.00     0.188 C 
ENDROOT
BRANCH   1   2
ATOM      2  O   UNL A   1      41.066  23.222  27.524  1.00  0.00    -0.377 OA
BRANCH   2   3
ATOM      3  C   UNL A   1      41.069  22.482  26.332  1.00  0.00     0.188 C 
BRANCH   3   4
ATOM      4  C   UNL A   1      39.928  21.502  26.143  1.00  0.00     0.188 C 
BRANCH   4   5
ATOM      5  O   UNL A   1      38.524  21.733  26.125  1.00  0.00    -0.376 OA
BRANCH   5   6
ATOM      6  C   UNL A   1      38.083  23.078  26.031  1.00  0.00     0.202 C 
BRANCH   6   7
ATOM      7  C   UNL A   1      36.749  23.418  25.328  1.00  0.00     0.261 C 
BRANCH   7   8
ATOM      8  O   UNL A   1      36.401  22.433  24.363  1.00  0.00    -0.460 OA
BRANCH   8   9
ATOM      9  C   UNL A   1      35.195  22.597  23.782  1.00  0.00     0.342 C 
ATOM     10  O   UNL A   1      34.911  23.137  22.759  1.00  0.00    -0.246 OA
BRANCH   9  11
ATOM     11  C   UNL A   1      34.323  21.698  24.528  1.00  0.00     0.104 A 
ATOM     12  C   UNL A   1      33.810  19.395  25.030  1.00  0.00     0.060 A 
ATOM     13  C   UNL A   1      32.572  19.899  25.426  1.00  0.00     0.139 A 
ATOM     14  C   UNL A   1      34.702  20.334  24.566  1.00  0.00     0.047 A 
ATOM     15  N   UNL A   1      32.176  21.210  25.379  1.00  0.00    -0.236 NA
ATOM     16  C   UNL A   1      33.040  22.144  24.906  1.00  0.00     0.143 A 
BRANCH  12  17
ATOM     17  N   UNL A   1      34.028  18.003  25.059  1.00  0.00    -0.325 N 
ATOM     18  C   UNL A   1      33.587  17.322  22.686  1.00  0.00     0.114 C 
ATOM     19  C   UNL A   1      33.904  17.014  24.122  1.00  0.00     0.221 C 
ATOM     20  O   UNL A   1      34.157  15.856  24.470  1.00  0.00    -0.275 OA
ATOM     21  H   UNL A   1      34.333  17.674  25.934  1.00  0.00     0.169 HD
ENDBRANCH  12  17
BRANCH  16  22
ATOM     22  N   UNL A   1      32.448  23.352  24.470  1.00  0.00    -0.352 N 
ATOM     23  C   UNL A   1      31.196  23.392  23.703  1.00  0.00     0.146 C 
ATOM     24  C   UNL A   1      32.549  24.331  25.539  1.00  0.00     0.123 C 
ATOM     25  C   UNL A   1      30.642  24.807  23.611  1.00  0.00    -0.002 C 
ATOM     26  C   UNL A   1      32.256  25.765  25.219  1.00  0.00     0.057 C 
ATOM     27  C   UNL A   1      31.130  25.885  24.255  1.00  0.00    -0.041 C 
BRANCH  27  28
ATOM     28  C   UNL A   1      30.675  27.260  23.997  1.00  0.00    -0.020 A 
ATOM     29  C   UNL A   1      29.641  27.505  23.081  1.00  0.00     0.008 A 
ATOM     30  C   UNL A   1      31.259  28.340  24.698  1.00  0.00    -0.044 A 
ATOM     31  C   UNL A   1      29.208  28.812  22.842  1.00  0.00     0.001 A 
ATOM     32  C   UNL A   1      30.801  29.641  24.455  1.00  0.00     0.004 A 
ATOM     33  C   UNL A   1      32.320  28.144  25.749  1.00  0.00     0.045 C 
ATOM     34  C   UNL A   1      29.793  29.877  23.522  1.00  0.00     0.000 A 
ENDBRANCH  27  28
ENDBRANCH  16  22
ENDBRANCH   9  11
ENDBRANCH   8   9
ENDBRANCH   7   8
ENDBRANCH   6   7
ENDBRANCH   5   6
ENDBRANCH   4   5
ENDBRANCH   3   4
ENDBRANCH   2   3
ENDBRANCH   1   2
BRANCH   1  35
ATOM     35  C   UNL A   1      41.565  25.507  27.987  1.00  0.00     0.188 C 
BRANCH  35  36
ATOM     36  O   UNL A   1      42.832  25.781  27.410  1.00  0.00    -0.376 OA
BRANCH  36  37
ATOM     37  C   UNL A   1      42.947  26.047  26.025  1.00  0.00     0.202 C 
BRANCH  37  38
ATOM     38  C   UNL A   1      44.153  26.877  25.568  1.00  0.00     0.261 C 
BRANCH  38  39
ATOM     39  O   UNL A   1      43.919  28.269  25.888  1.00  0.00    -0.460 OA
BRANCH  39  40
ATOM     40  C   UNL A   1      44.424  28.741  27.067  1.00  0.00     0.338 C 
ATOM     41  O   UNL A   1      45.352  28.247  27.682  1.00  0.00    -0.246 OA
BRANCH  40  42
ATOM     42  C   UNL A   1      43.490  29.782  27.624  1.00  0.00     0.060 A 
ATOM     43  C   UNL A   1      43.999  30.993  28.140  1.00  0.00     0.016 A 
ATOM     44  C   UNL A   1      42.212  29.384  27.990  1.00  0.00     0.016 A 
ATOM     45  C   UNL A   1      43.320  31.685  29.173  1.00  0.00     0.010 A 
ATOM     46  C   UNL A   1      41.604  30.023  29.061  1.00  0.00     0.010 A 
ATOM     47  C   UNL A   1      42.162  31.141  29.725  1.00  0.00    -0.014 A 
BRANCH  47  48
ATOM     48  C   UNL A   1      41.557  31.468  31.067  1.00  0.00     0.031 A 
ATOM     49  C   UNL A   1      40.454  32.521  31.065  1.00  0.00     0.074 A 
ATOM     50  C   UNL A   1      41.691  30.542  32.070  1.00  0.00     0.049 A 
ATOM     51  N   UNL A   1      39.626  32.778  32.019  1.00  0.00    -0.248 NA
ATOM     52  C   UNL A   1      40.172  33.381  29.907  1.00  0.00     0.031 C 
ATOM     53  C   UNL A   1      40.707  30.025  33.027  1.00  0.00     0.029 A 
ATOM     54  N   UNL A   1      42.770  29.721  32.391  1.00  0.00    -0.354 N 
ATOM     55  C   UNL A   1      38.556  33.544  31.533  1.00  0.00     0.074 A 
ATOM     56  C   UNL A   1      38.986  33.921  30.212  1.00  0.00     0.031 C 
ATOM     57  C   UNL A   1      41.220  29.201  33.939  1.00  0.00     0.029 A 
ATOM     58  C   UNL A   1      42.611  29.279  33.741  1.00  0.00     0.049 A 
ATOM     59  H   UNL A   1      43.515  29.487  31.791  1.00  0.00     0.167 HD
ATOM     60  C   UNL A   1      37.403  33.676  32.280  1.00  0.00     0.034 A 
ATOM     61  C   UNL A   1      43.466  29.650  34.721  1.00  0.00     0.034 A 
ATOM     62  C   UNL A   1      37.596  33.135  33.649  1.00  0.00     0.049 A 
ATOM     63  C   UNL A   1      42.827  30.802  35.554  1.00  0.00     0.074 A 
ATOM     64  C   UNL A   1      36.869  32.397  34.566  1.00  0.00     0.029 A 
ATOM     65  N   UNL A   1      38.843  33.276  34.252  1.00  0.00    -0.354 N 
ATOM     66  N   UNL A   1      41.610  31.287  35.346  1.00  0.00    -0.248 NA
ATOM     67  C   UNL A   1      43.435  31.464  36.706  1.00  0.00     0.031 C 
ATOM     68  C   UNL A   1      37.737  31.985  35.626  1.00  0.00     0.029 A 
ATOM     69  C   UNL A   1      38.963  32.592  35.432  1.00  0.00     0.049 A 
ATOM     70  H   UNL A   1      39.570  33.816  33.866  1.00  0.00     0.167 HD
ATOM     71  C   UNL A   1      41.283  32.271  36.244  1.00  0.00     0.074 A 
ATOM     72  C   UNL A   1      42.493  32.366  37.055  1.00  0.00     0.031 C 
ATOM     73  C   UNL A   1      40.077  32.940  36.292  1.00  0.00     0.034 A 
BRANCH  60  74
ATOM     74  C   UNL A   1      36.003  34.170  31.797  1.00  0.00     0.023 A 
ATOM     75  C   UNL A   1      35.510  33.764  30.526  1.00  0.00     0.031 A 
ATOM     76  C   UNL A   1      35.143  35.079  32.455  1.00  0.00     0.131 A 
ATOM     77  C   UNL A   1      34.318  34.273  29.952  1.00  0.00     0.055 A 
ATOM     78  C   UNL A   1      33.919  35.540  31.914  1.00  0.00     0.041 A 
ATOM     79  F   UNL A   1      35.426  35.601  33.650  1.00  0.00    -0.206 F 
ATOM     80  C   UNL A   1      33.506  35.151  30.653  1.00  0.00     0.022 A 
BRANCH  77  81
ATOM     81  S   UNL A   1      33.844  33.791  28.260  1.00  0.00     0.124 S 
ATOM     82  O   UNL A   1      32.451  34.217  28.197  1.00  0.00    -0.237 OA
ATOM     83  O   UNL A   1      34.790  34.538  27.439  1.00  0.00    -0.237 OA
ATOM     84  O   UNL A   1      34.041  32.340  28.252  1.00  0.00    -0.744 OA
ENDBRANCH  77  81
ENDBRANCH  60  74
BRANCH  61  85
ATOM     85  C   UNL A   1      44.812  29.193  34.183  1.00  0.00     0.023 A 
ATOM     86  C   UNL A   1      45.859  30.178  34.378  1.00  0.00     0.031 A 
ATOM     87  C   UNL A   1      45.187  27.851  34.370  1.00  0.00     0.131 A 
ATOM     88  C   UNL A   1      47.065  29.836  35.039  1.00  0.00     0.055 A 
ATOM     89  C   UNL A   1      46.417  27.519  34.980  1.00  0.00     0.041 A 
ATOM     90  F   UNL A   1      44.276  26.875  34.242  1.00  0.00    -0.206 F 
ATOM     91  C   UNL A   1      47.321  28.510  35.382  1.00  0.00     0.022 A 
BRANCH  88  92
ATOM     92  S   UNL A   1      48.131  31.150  35.773  1.00  0.00     0.124 S 
ATOM     93  O   UNL A   1      49.359  30.424  36.071  1.00  0.00    -0.237 OA
ATOM     94  O   UNL A   1      48.216  32.141  34.707  1.00  0.00    -0.237 OA
ATOM     95  O   UNL A   1      47.370  31.593  36.942  1.00  0.00    -0.744 OA
ENDBRANCH  88  92
ENDBRANCH  61  85
BRANCH  73  96
ATOM     96  C   UNL A   1      39.809  34.140  37.171  1.00  0.00     0.023 A 
ATOM     97  C   UNL A   1      39.149  33.999  38.381  1.00  0.00     0.031 A 
ATOM     98  C   UNL A   1      40.204  35.462  36.818  1.00  0.00     0.131 A 
ATOM     99  C   UNL A   1      39.121  35.066  39.284  1.00  0.00     0.055 A 
ATOM    100  C   UNL A   1      40.033  36.557  37.662  1.00  0.00     0.041 A 
ATOM    101  F   UNL A   1      40.826  35.751  35.666  1.00  0.00    -0.206 F 
ATOM    102  C   UNL A   1      39.539  36.350  38.935  1.00  0.00     0.022 A 
BRANCH  99 103
ATOM    103  S   UNL A   1      38.740  34.652  40.995  1.00  0.00     0.124 S 
ATOM    104  O   UNL A   1      40.061  34.626  41.613  1.00  0.00    -0.237 OA
ATOM    105  O   UNL A   1      37.886  35.775  41.378  1.00  0.00    -0.237 OA
ATOM    106  O   UNL A   1      38.064  33.363  40.895  1.00  0.00    -0.744 OA
ENDBRANCH  99 103
ENDBRANCH  73  96
ENDBRANCH  47  48
ENDBRANCH  40  42
ENDBRANCH  39  40
ENDBRANCH  38  39
ENDBRANCH  37  38
ENDBRANCH  36  37
ENDBRANCH  35  36
ENDBRANCH   1  35
TORSDOF 26
ENDMDL
MODEL 3
REMARK VINA RESULT:      -9.4      2.544      7.504
REMARK SMILES CC(=O)Nc1cnc(N2CC=C(c3ccccc3C)CC2)c(C(=O)OCCOCCOCCOCCOC(=O)c2ccc(-c3c4nc(c(-c5cc(S(=O)(=O)[O-])ccc5F)c5ccc([nH]5)c(-c5cc(S(=O)(=O)[O-])ccc5F)c5nc(c(-c6cc(S(=O)(=O)[O-])ccc6F)c6ccc3[nH]6)C=C5)C=C4)cc2)c1
REMARK SMILES IDX 32 1 31 2 30 3 29 4 28 5 27 6 26 7 25 8 23 9 24 10 22 11
REMARK SMILES IDX 5 12 6 13 103 14 7 15 8 16 4 17 1 18 2 19 3 20 9 22 10 23
REMARK SMILES IDX 21 24 11 25 20 26 12 27 13 28 14 29 18 30 15 31 17 32 19 33
REMARK SMILES IDX 16 34 33 35 34 36 35 37 36 38 37 39 38 40 39 41 40 42 41 43
REMARK SMILES IDX 102 44 42 45 101 46 43 47 44 48 45 49 95 50 46 51 100 52
REMARK SMILES IDX 94 53 96 54 47 55 99 56 93 57 92 58 48 60 80 61 60 62 79 63
REMARK SMILES IDX 61 64 64 65 78 66 97 67 62 68 63 69 77 71 98 72 65 73 49 74
REMARK SMILES IDX 50 75 58 76 51 77 57 78 59 79 56 80 52 81 53 82 54 83 55 84
REMARK SMILES IDX 81 85 82 86 90 87 83 88 89 89 91 90 88 91 84 92 85 93 86 94
REMARK SMILES IDX 87 95 66 96 67 97 75 98 68 99 74 100 76 101 73 102 69 103
REMARK SMILES IDX 70 104 71 105 72 106
REMARK H PARENT 4 21 96 59 64 70
REMARK Flexibility Score: inf
ROOT
ATOM      1  C   UNL A   1      37.308  21.891  25.693  1.00  0.00     0.188 C 
ENDROOT
BRANCH   1   2
ATOM      2  O   UNL A   1      37.132  23.109  24.982  1.00  0.00    -0.377 OA
BRANCH   2   3
ATOM      3  C   UNL A   1      35.761  23.302  24.759  1.00  0.00     0.188 C 
BRANCH   3   4
ATOM      4  C   UNL A   1      34.917  23.617  25.978  1.00  0.00     0.188 C 
BRANCH   4   5
ATOM      5  O   UNL A   1      34.000  24.682  26.198  1.00  0.00    -0.376 OA
BRANCH   5   6
ATOM      6  C   UNL A   1      34.282  25.927  25.578  1.00  0.00     0.202 C 
BRANCH   6   7
ATOM      7  C   UNL A   1      33.943  27.255  26.295  1.00  0.00     0.261 C 
BRANCH   7   8
ATOM      8  O   UNL A   1      33.243  28.147  25.437  1.00  0.00    -0.460 OA
BRANCH   8   9
ATOM      9  C   UNL A   1      31.900  28.133  25.564  1.00  0.00     0.342 C 
ATOM     10  O   UNL A   1      31.229  28.169  26.548  1.00  0.00    -0.246 OA
BRANCH   9  11
ATOM     11  C   UNL A   1      31.418  28.372  24.209  1.00  0.00     0.104 A 
ATOM     12  C   UNL A   1      30.126  29.836  22.793  1.00  0.00     0.060 A 
ATOM     13  C   UNL A   1      30.070  28.736  21.938  1.00  0.00     0.139 A 
ATOM     14  C   UNL A   1      30.823  29.633  23.962  1.00  0.00     0.047 A 
ATOM     15  N   UNL A   1      30.620  27.502  22.166  1.00  0.00    -0.236 NA
ATOM     16  C   UNL A   1      31.293  27.282  23.324  1.00  0.00     0.143 A 
BRANCH  12  17
ATOM     17  N   UNL A   1      29.430  31.011  22.449  1.00  0.00    -0.325 N 
ATOM     18  C   UNL A   1      27.265  30.757  23.687  1.00  0.00     0.114 C 
ATOM     19  C   UNL A   1      28.175  31.476  22.733  1.00  0.00     0.221 C 
ATOM     20  O   UNL A   1      27.842  32.566  22.254  1.00  0.00    -0.275 OA
ATOM     21  H   UNL A   1      29.955  31.627  21.888  1.00  0.00     0.169 HD
ENDBRANCH  12  17
BRANCH  16  22
ATOM     22  N   UNL A   1      31.438  25.925  23.694  1.00  0.00    -0.352 N 
ATOM     23  C   UNL A   1      30.345  25.142  24.286  1.00  0.00     0.146 C 
ATOM     24  C   UNL A   1      32.200  25.241  22.664  1.00  0.00     0.123 C 
ATOM     25  C   UNL A   1      30.678  23.657  24.324  1.00  0.00    -0.002 C 
ATOM     26  C   UNL A   1      32.730  23.872  22.962  1.00  0.00     0.057 C 
ATOM     27  C   UNL A   1      31.761  23.080  23.768  1.00  0.00    -0.041 C 
BRANCH  27  28
ATOM     28  C   UNL A   1      32.132  21.674  23.982  1.00  0.00    -0.020 A 
ATOM     29  C   UNL A   1      32.449  21.211  25.268  1.00  0.00     0.008 A 
ATOM     30  C   UNL A   1      32.140  20.772  22.893  1.00  0.00    -0.044 A 
ATOM     31  C   UNL A   1      32.796  19.873  25.469  1.00  0.00     0.001 A 
ATOM     32  C   UNL A   1      32.478  19.432  23.118  1.00  0.00     0.004 A 
ATOM     33  C   UNL A   1      31.740  21.180  21.499  1.00  0.00     0.045 C 
ATOM     34  C   UNL A   1      32.818  18.988  24.394  1.00  0.00     0.000 A 
ENDBRANCH  27  28
ENDBRANCH  16  22
ENDBRANCH   9  11
ENDBRANCH   8   9
ENDBRANCH   7   8
ENDBRANCH   6   7
ENDBRANCH   5   6
ENDBRANCH   4   5
ENDBRANCH   3   4
ENDBRANCH   2   3
ENDBRANCH   1   2
BRANCH   1  35
ATOM     35  C   UNL A   1      38.768  21.518  25.674  1.00  0.00     0.188 C 
BRANCH  35  36
ATOM     36  O   UNL A   1      39.538  21.945  26.786  1.00  0.00    -0.376 OA
BRANCH  36  37
ATOM     37  C   UNL A   1      39.983  23.284  26.879  1.00  0.00     0.202 C 
BRANCH  37  38
ATOM     38  C   UNL A   1      41.107  23.583  27.881  1.00  0.00     0.261 C 
BRANCH  38  39
ATOM     39  O   UNL A   1      41.924  22.400  28.042  1.00  0.00    -0.460 OA
BRANCH  39  40
ATOM     40  C   UNL A   1      42.963  22.225  27.172  1.00  0.00     0.338 C 
ATOM     41  O   UNL A   1      43.063  21.312  26.371  1.00  0.00    -0.246 OA
BRANCH  40  42
ATOM     42  C   UNL A   1      44.084  23.158  27.544  1.00  0.00     0.060 A 
ATOM     43  C   UNL A   1      44.314  23.493  28.895  1.00  0.00     0.016 A 
ATOM     44  C   UNL A   1      44.607  23.979  26.554  1.00  0.00     0.016 A 
ATOM     45  C   UNL A   1      44.877  24.745  29.248  1.00  0.00     0.010 A 
ATOM     46  C   UNL A   1      45.074  25.234  26.916  1.00  0.00     0.010 A 
ATOM     47  C   UNL A   1      45.161  25.680  28.256  1.00  0.00    -0.014 A 
BRANCH  47  48
ATOM     48  C   UNL A   1      45.338  27.167  28.435  1.00  0.00     0.031 A 
ATOM     49  C   UNL A   1      46.762  27.645  28.693  1.00  0.00     0.074 A 
ATOM     50  C   UNL A   1      44.363  27.991  27.931  1.00  0.00     0.049 A 
ATOM     51  N   UNL A   1      47.198  28.856  28.623  1.00  0.00    -0.248 NA
ATOM     52  C   UNL A   1      47.862  26.731  29.034  1.00  0.00     0.031 C 
ATOM     53  C   UNL A   1      44.471  29.223  27.143  1.00  0.00     0.029 A 
ATOM     54  N   UNL A   1      42.980  27.829  27.907  1.00  0.00    -0.354 N 
ATOM     55  C   UNL A   1      48.601  28.859  28.579  1.00  0.00     0.074 A 
ATOM     56  C   UNL A   1      48.950  27.497  28.883  1.00  0.00     0.031 C 
ATOM     57  C   UNL A   1      43.305  29.823  26.914  1.00  0.00     0.029 A 
ATOM     58  C   UNL A   1      42.382  29.111  27.702  1.00  0.00     0.049 A 
ATOM     59  H   UNL A   1      42.497  26.977  28.013  1.00  0.00     0.167 HD
ATOM     60  C   UNL A   1      49.279  29.998  28.191  1.00  0.00     0.034 A 
ATOM     61  C   UNL A   1      41.621  29.706  28.648  1.00  0.00     0.034 A 
ATOM     62  C   UNL A   1      48.355  31.157  28.101  1.00  0.00     0.049 A 
ATOM     63  C   UNL A   1      42.471  30.780  29.393  1.00  0.00     0.074 A 
ATOM     64  C   UNL A   1      48.159  32.242  27.265  1.00  0.00     0.029 A 
ATOM     65  N   UNL A   1      47.300  31.241  29.005  1.00  0.00    -0.354 N 
ATOM     66  N   UNL A   1      43.726  31.082  29.086  1.00  0.00    -0.248 NA
ATOM     67  C   UNL A   1      42.002  31.643  30.473  1.00  0.00     0.031 C 
ATOM     68  C   UNL A   1      46.913  32.864  27.593  1.00  0.00     0.029 A 
ATOM     69  C   UNL A   1      46.415  32.247  28.725  1.00  0.00     0.049 A 
ATOM     70  H   UNL A   1      47.201  30.635  29.775  1.00  0.00     0.167 HD
ATOM     71  C   UNL A   1      44.225  32.087  29.875  1.00  0.00     0.074 A 
ATOM     72  C   UNL A   1      43.100  32.375  30.759  1.00  0.00     0.031 C 
ATOM     73  C   UNL A   1      45.489  32.630  29.773  1.00  0.00     0.034 A 
BRANCH  60  74
ATOM     74  C   UNL A   1      50.770  30.117  27.744  1.00  0.00     0.023 A 
ATOM     75  C   UNL A   1      51.087  30.190  26.359  1.00  0.00     0.031 A 
ATOM     76  C   UNL A   1      51.916  30.082  28.569  1.00  0.00     0.131 A 
ATOM     77  C   UNL A   1      52.414  30.160  25.860  1.00  0.00     0.055 A 
ATOM     78  C   UNL A   1      53.243  30.118  28.079  1.00  0.00     0.041 A 
ATOM     79  F   UNL A   1      51.843  29.992  29.899  1.00  0.00    -0.206 F 
ATOM     80  C   UNL A   1      53.501  30.143  26.720  1.00  0.00     0.022 A 
BRANCH  77  81
ATOM     81  S   UNL A   1      52.710  30.124  24.062  1.00  0.00     0.124 S 
ATOM     82  O   UNL A   1      53.928  29.326  23.967  1.00  0.00    -0.237 OA
ATOM     83  O   UNL A   1      51.490  29.511  23.551  1.00  0.00    -0.237 OA
ATOM     84  O   UNL A   1      52.876  31.536  23.716  1.00  0.00    -0.744 OA
ENDBRANCH  77  81
ENDBRANCH  60  74
BRANCH  61  85
ATOM     85  C   UNL A   1      40.542  28.669  28.913  1.00  0.00     0.023 A 
ATOM     86  C   UNL A   1      40.349  28.406  30.326  1.00  0.00     0.031 A 
ATOM     87  C   UNL A   1      39.375  28.701  28.128  1.00  0.00     0.131 A 
ATOM     88  C   UNL A   1      39.067  28.519  30.918  1.00  0.00     0.055 A 
ATOM     89  C   UNL A   1      38.099  28.758  28.728  1.00  0.00     0.041 A 
ATOM     90  F   UNL A   1      39.456  28.969  26.817  1.00  0.00    -0.206 F 
ATOM     91  C   UNL A   1      37.947  28.742  30.120  1.00  0.00     0.022 A 
BRANCH  88  92
ATOM     92  S   UNL A   1      38.897  28.735  32.742  1.00  0.00     0.124 S 
ATOM     93  O   UNL A   1      37.561  28.212  32.995  1.00  0.00    -0.237 OA
ATOM     94  O   UNL A   1      40.005  27.949  33.273  1.00  0.00    -0.237 OA
ATOM     95  O   UNL A   1      39.046  30.180  32.929  1.00  0.00    -0.744 OA
ENDBRANCH  88  92
ENDBRANCH  61  85
BRANCH  73  96
ATOM     96  C   UNL A   1      46.074  33.608  30.766  1.00  0.00     0.023 A 
ATOM     97  C   UNL A   1      46.636  33.162  31.951  1.00  0.00     0.031 A 
ATOM     98  C   UNL A   1      46.080  35.016  30.555  1.00  0.00     0.131 A 
ATOM     99  C   UNL A   1      47.380  34.044  32.740  1.00  0.00     0.055 A 
ATOM    100  C   UNL A   1      46.692  35.912  31.428  1.00  0.00     0.041 A 
ATOM    101  F   UNL A   1      45.547  35.590  29.467  1.00  0.00    -0.206 F 
ATOM    102  C   UNL A   1      47.402  35.420  32.505  1.00  0.00     0.022 A 
BRANCH  99 103
ATOM    103  S   UNL A   1      48.500  33.295  33.935  1.00  0.00     0.124 S 
ATOM    104  O   UNL A   1      49.746  34.011  33.690  1.00  0.00    -0.237 OA
ATOM    105  O   UNL A   1      47.828  33.610  35.194  1.00  0.00    -0.237 OA
ATOM    106  O   UNL A   1      48.500  31.882  33.567  1.00  0.00    -0.744 OA
ENDBRANCH  99 103
ENDBRANCH  73  96
ENDBRANCH  47  48
ENDBRANCH  40  42
ENDBRANCH  39  40
ENDBRANCH  38  39
ENDBRANCH  37  38
ENDBRANCH  36  37
ENDBRANCH  35  36
ENDBRANCH   1  35
TORSDOF 26
ENDMDL
