MODEL 1
REMARK VINA RESULT:      -8.2      0.000      0.000
REMARK SMILES CN(C(=O)N[C@@H]1C=C[C@@H](C(=O)OCCOCCOCCOCCOC(=O)c2ccc(-c3c4nc(c(-c5cc(S(=O)(=O)[O-])ccc5F)c5ccc([nH]5)c(-c5cc(S(=O)(=O)[O-])ccc5F)c5nc(c(-c6cc(S(=O)(=O)[O-])ccc6F)c6ccc3[nH]6)C=C5)C=C4)cc2)C1)[C@H]1CCS(=O)(=O)C1
REMARK SMILES IDX 18 1 17 2 16 3 15 4 14 5 13 6 12 7 10 8 11 9 9 10 6 11 7 12
REMARK SMILES IDX 90 13 8 14 5 15 3 16 4 17 2 19 1 20 91 21 92 22 97 23 93 24
REMARK SMILES IDX 94 25 95 26 96 27 19 28 20 29 21 30 22 31 23 32 24 33 25 34
REMARK SMILES IDX 26 35 27 36 28 37 89 38 29 39 88 40 30 41 31 42 32 43 82 44
REMARK SMILES IDX 33 45 87 46 81 47 83 48 34 49 86 50 80 51 79 52 35 54 67 55
REMARK SMILES IDX 47 56 66 57 48 58 51 59 65 60 84 61 49 62 50 63 64 65 85 66
REMARK SMILES IDX 52 67 36 68 37 69 45 70 38 71 44 72 46 73 43 74 39 75 40 76
REMARK SMILES IDX 41 77 42 78 68 79 69 80 77 81 70 82 76 83 78 84 75 85 71 86
REMARK SMILES IDX 72 87 73 88 74 89 53 90 54 91 62 92 55 93 61 94 63 95 60 96
REMARK SMILES IDX 56 97 57 98 58 99 59 100
REMARK H PARENT 5 18 83 53 51 64
REMARK Flexibility Score: inf
ROOT
ATOM      1  O   UNL A   1      40.080  27.262  28.523  1.00  0.00    -0.377 OA
ENDROOT
BRANCH   1   2
ATOM      2  C   UNL A   1      39.092  28.085  29.103  1.00  0.00     0.188 C 
BRANCH   2   3
ATOM      3  C   UNL A   1      38.608  29.239  28.215  1.00  0.00     0.188 C 
BRANCH   3   4
ATOM      4  O   UNL A   1      37.327  29.822  28.395  1.00  0.00    -0.376 OA
BRANCH   4   5
ATOM      5  C   UNL A   1      37.143  31.231  28.393  1.00  0.00     0.202 C 
BRANCH   5   6
ATOM      6  C   UNL A   1      35.770  31.883  28.622  1.00  0.00     0.261 C 
BRANCH   6   7
ATOM      7  O   UNL A   1      34.631  31.009  28.617  1.00  0.00    -0.463 OA
BRANCH   7   8
ATOM      8  C   UNL A   1      33.716  31.237  27.647  1.00  0.00     0.312 C 
ATOM      9  O   UNL A   1      33.086  32.284  27.516  1.00  0.00    -0.252 OA
BRANCH   8  10
ATOM     10  C   UNL A   1      33.445  30.034  26.759  1.00  0.00     0.124 C 
ATOM     11  C   UNL A   1      33.393  27.635  26.437  1.00  0.00     0.107 C 
ATOM     12  C   UNL A   1      32.048  28.153  26.780  1.00  0.00    -0.006 C 
ATOM     13  C   UNL A   1      34.301  28.779  26.884  1.00  0.00     0.048 C 
ATOM     14  C   UNL A   1      32.072  29.476  26.998  1.00  0.00    -0.014 C 
BRANCH  11  15
ATOM     15  N   UNL A   1      33.626  27.181  25.062  1.00  0.00    -0.332 N 
ATOM     16  C   UNL A   1      33.667  26.095  24.274  1.00  0.00     0.317 C 
ATOM     17  O   UNL A   1      33.375  26.334  23.097  1.00  0.00    -0.249 OA
ATOM     18  H   UNL A   1      33.828  27.970  24.509  1.00  0.00     0.165 HD
BRANCH  16  19
ATOM     19  N   UNL A   1      34.038  24.842  24.673  1.00  0.00    -0.324 N 
ATOM     20  C   UNL A   1      35.225  24.163  24.193  1.00  0.00     0.149 C 
BRANCH  19  21
ATOM     21  C   UNL A   1      33.096  23.928  25.358  1.00  0.00     0.102 C 
ATOM     22  C   UNL A   1      33.508  23.644  26.819  1.00  0.00     0.042 C 
ATOM     23  C   UNL A   1      31.602  24.253  25.454  1.00  0.00     0.162 C 
ATOM     24  C   UNL A   1      32.517  22.613  27.348  1.00  0.00     0.139 C 
ATOM     25  S   UNL A   1      30.978  22.952  26.511  1.00  0.00     0.152 S 
ATOM     26  O   UNL A   1      30.656  21.800  25.691  1.00  0.00    -0.229 OA
ATOM     27  O   UNL A   1      30.037  23.502  27.462  1.00  0.00    -0.229 OA
ENDBRANCH  19  21
ENDBRANCH  16  19
ENDBRANCH  11  15
ENDBRANCH   8  10
ENDBRANCH   7   8
ENDBRANCH   6   7
ENDBRANCH   5   6
ENDBRANCH   4   5
ENDBRANCH   3   4
ENDBRANCH   2   3
ENDBRANCH   1   2
BRANCH   1  28
ATOM     28  C   UNL A   1      39.664  26.369  27.493  1.00  0.00     0.188 C 
BRANCH  28  29
ATOM     29  C   UNL A   1      39.405  24.892  27.858  1.00  0.00     0.188 C 
BRANCH  29  30
ATOM     30  O   UNL A   1      40.581  24.144  28.143  1.00  0.00    -0.376 OA
BRANCH  30  31
ATOM     31  C   UNL A   1      41.204  23.424  27.090  1.00  0.00     0.202 C 
BRANCH  31  32
ATOM     32  C   UNL A   1      42.545  23.944  26.540  1.00  0.00     0.261 C 
BRANCH  32  33
ATOM     33  O   UNL A   1      42.869  25.320  26.798  1.00  0.00    -0.460 OA
BRANCH  33  34
ATOM     34  C   UNL A   1      42.664  26.218  25.812  1.00  0.00     0.338 C 
ATOM     35  O   UNL A   1      42.062  26.029  24.768  1.00  0.00    -0.246 OA
BRANCH  34  36
ATOM     36  C   UNL A   1      43.111  27.538  26.306  1.00  0.00     0.060 A 
ATOM     37  C   UNL A   1      44.276  27.617  27.083  1.00  0.00     0.016 A 
ATOM     38  C   UNL A   1      42.386  28.692  26.003  1.00  0.00     0.016 A 
ATOM     39  C   UNL A   1      44.694  28.846  27.596  1.00  0.00     0.010 A 
ATOM     40  C   UNL A   1      42.790  29.917  26.538  1.00  0.00     0.010 A 
ATOM     41  C   UNL A   1      43.925  29.994  27.369  1.00  0.00    -0.014 A 
BRANCH  41  42
ATOM     42  C   UNL A   1      44.153  31.214  28.183  1.00  0.00     0.031 A 
ATOM     43  C   UNL A   1      43.228  31.465  29.344  1.00  0.00     0.074 A 
ATOM     44  C   UNL A   1      45.148  32.075  27.912  1.00  0.00     0.049 A 
ATOM     45  N   UNL A   1      43.143  32.502  30.134  1.00  0.00    -0.248 NA
ATOM     46  C   UNL A   1      42.261  30.397  29.639  1.00  0.00     0.031 C 
ATOM     47  C   UNL A   1      46.145  31.909  26.856  1.00  0.00     0.029 A 
ATOM     48  N   UNL A   1      45.472  33.275  28.497  1.00  0.00    -0.354 N 
ATOM     49  C   UNL A   1      42.099  32.221  31.010  1.00  0.00     0.074 A 
ATOM     50  C   UNL A   1      41.563  30.934  30.626  1.00  0.00     0.031 C 
ATOM     51  C   UNL A   1      46.959  32.980  26.857  1.00  0.00     0.029 A 
ATOM     52  C   UNL A   1      46.510  33.928  27.877  1.00  0.00     0.049 A 
ATOM     53  H   UNL A   1      45.004  33.632  29.286  1.00  0.00     0.167 HD
ATOM     54  C   UNL A   1      41.635  32.969  32.043  1.00  0.00     0.034 A 
ATOM     55  C   UNL A   1      47.013  35.164  28.084  1.00  0.00     0.034 A 
ATOM     56  C   UNL A   1      42.174  34.258  32.396  1.00  0.00     0.049 A 
ATOM     57  C   UNL A   1      46.417  36.028  29.170  1.00  0.00     0.074 A 
ATOM     58  C   UNL A   1      41.792  35.096  33.429  1.00  0.00     0.029 A 
ATOM     59  N   UNL A   1      43.197  34.908  31.716  1.00  0.00    -0.354 N 
ATOM     60  N   UNL A   1      45.428  35.758  29.993  1.00  0.00    -0.248 NA
ATOM     61  C   UNL A   1      47.004  37.362  29.359  1.00  0.00     0.031 C 
ATOM     62  C   UNL A   1      42.517  36.287  33.317  1.00  0.00     0.029 A 
ATOM     63  C   UNL A   1      43.428  36.153  32.280  1.00  0.00     0.049 A 
ATOM     64  H   UNL A   1      43.686  34.538  30.946  1.00  0.00     0.167 HD
ATOM     65  C   UNL A   1      45.304  36.874  30.821  1.00  0.00     0.074 A 
ATOM     66  C   UNL A   1      46.318  37.817  30.398  1.00  0.00     0.031 C 
ATOM     67  C   UNL A   1      44.440  37.090  31.846  1.00  0.00     0.034 A 
BRANCH  54  68
ATOM     68  C   UNL A   1      40.444  32.432  32.803  1.00  0.00     0.023 A 
ATOM     69  C   UNL A   1      39.143  32.918  32.586  1.00  0.00     0.031 A 
ATOM     70  C   UNL A   1      40.623  31.458  33.801  1.00  0.00     0.131 A 
ATOM     71  C   UNL A   1      38.092  32.501  33.418  1.00  0.00     0.055 A 
ATOM     72  C   UNL A   1      39.555  30.974  34.560  1.00  0.00     0.041 A 
ATOM     73  F   UNL A   1      41.845  30.974  34.075  1.00  0.00    -0.206 F 
ATOM     74  C   UNL A   1      38.284  31.511  34.385  1.00  0.00     0.022 A 
BRANCH  71  75
ATOM     75  S   UNL A   1      36.521  33.405  33.343  1.00  0.00     0.124 S 
ATOM     76  O   UNL A   1      36.924  34.735  33.798  1.00  0.00    -0.237 OA
ATOM     77  O   UNL A   1      36.160  33.294  31.935  1.00  0.00    -0.237 OA
ATOM     78  O   UNL A   1      35.660  32.673  34.270  1.00  0.00    -0.744 OA
ENDBRANCH  71  75
ENDBRANCH  54  68
BRANCH  55  79
ATOM     79  C   UNL A   1      48.107  35.682  27.211  1.00  0.00     0.023 A 
ATOM     80  C   UNL A   1      49.457  35.435  27.507  1.00  0.00     0.031 A 
ATOM     81  C   UNL A   1      47.814  36.466  26.079  1.00  0.00     0.131 A 
ATOM     82  C   UNL A   1      50.463  35.994  26.703  1.00  0.00     0.055 A 
ATOM     83  C   UNL A   1      48.817  36.973  25.251  1.00  0.00     0.041 A 
ATOM     84  F   UNL A   1      46.541  36.738  25.753  1.00  0.00    -0.206 F 
ATOM     85  C   UNL A   1      50.151  36.746  25.567  1.00  0.00     0.022 A 
BRANCH  82  86
ATOM     86  S   UNL A   1      52.194  35.784  27.201  1.00  0.00     0.124 S 
ATOM     87  O   UNL A   1      52.780  35.208  25.995  1.00  0.00    -0.237 OA
ATOM     88  O   UNL A   1      52.588  37.153  27.516  1.00  0.00    -0.237 OA
ATOM     89  O   UNL A   1      52.111  34.882  28.347  1.00  0.00    -0.744 OA
ENDBRANCH  82  86
ENDBRANCH  55  79
BRANCH  67  90
ATOM     90  C   UNL A   1      44.591  38.373  32.632  1.00  0.00     0.023 A 
ATOM     91  C   UNL A   1      43.775  39.494  32.405  1.00  0.00     0.031 A 
ATOM     92  C   UNL A   1      45.563  38.460  33.647  1.00  0.00     0.131 A 
ATOM     93  C   UNL A   1      43.974  40.667  33.153  1.00  0.00     0.055 A 
ATOM     94  C   UNL A   1      45.711  39.604  34.431  1.00  0.00     0.041 A 
ATOM     95  F   UNL A   1      46.376  37.423  33.906  1.00  0.00    -0.206 F 
ATOM     96  C   UNL A   1      44.921  40.721  34.178  1.00  0.00     0.022 A 
BRANCH  93  97
ATOM     97  S   UNL A   1      43.037  42.156  32.709  1.00  0.00     0.124 S 
ATOM     98  O   UNL A   1      43.888  42.756  31.687  1.00  0.00    -0.237 OA
ATOM     99  O   UNL A   1      41.770  41.601  32.241  1.00  0.00    -0.237 OA
ATOM    100  O   UNL A   1      42.960  42.899  33.966  1.00  0.00    -0.744 OA
ENDBRANCH  93  97
ENDBRANCH  67  90
ENDBRANCH  41  42
ENDBRANCH  34  36
ENDBRANCH  33  34
ENDBRANCH  32  33
ENDBRANCH  31  32
ENDBRANCH  30  31
ENDBRANCH  29  30
ENDBRANCH  28  29
ENDBRANCH   1  28
TORSDOF 26
ENDMDL
MODEL 2
REMARK VINA RESULT:      -7.7     10.990     15.324
REMARK SMILES CN(C(=O)N[C@@H]1C=C[C@@H](C(=O)OCCOCCOCCOCCOC(=O)c2ccc(-c3c4nc(c(-c5cc(S(=O)(=O)[O-])ccc5F)c5ccc([nH]5)c(-c5cc(S(=O)(=O)[O-])ccc5F)c5nc(c(-c6cc(S(=O)(=O)[O-])ccc6F)c6ccc3[nH]6)C=C5)C=C4)cc2)C1)[C@H]1CCS(=O)(=O)C1
REMARK SMILES IDX 18 1 17 2 16 3 15 4 14 5 13 6 12 7 10 8 11 9 9 10 6 11 7 12
REMARK SMILES IDX 90 13 8 14 5 15 3 16 4 17 2 19 1 20 91 21 92 22 97 23 93 24
REMARK SMILES IDX 94 25 95 26 96 27 19 28 20 29 21 30 22 31 23 32 24 33 25 34
REMARK SMILES IDX 26 35 27 36 28 37 89 38 29 39 88 40 30 41 31 42 32 43 82 44
REMARK SMILES IDX 33 45 87 46 81 47 83 48 34 49 86 50 80 51 79 52 35 54 67 55
REMARK SMILES IDX 47 56 66 57 48 58 51 59 65 60 84 61 49 62 50 63 64 65 85 66
REMARK SMILES IDX 52 67 36 68 37 69 45 70 38 71 44 72 46 73 43 74 39 75 40 76
REMARK SMILES IDX 41 77 42 78 68 79 69 80 77 81 70 82 76 83 78 84 75 85 71 86
REMARK SMILES IDX 72 87 73 88 74 89 53 90 54 91 62 92 55 93 61 94 63 95 60 96
REMARK SMILES IDX 56 97 57 98 58 99 59 100
REMARK H PARENT 5 18 83 53 51 64
REMARK Flexibility Score: inf
ROOT
ATOM      1  O   UNL A   1      50.504  20.454  37.967  1.00  0.00    -0.377 OA
ENDROOT
BRANCH   1   2
ATOM      2  C   UNL A   1      49.464  19.896  37.192  1.00  0.00     0.188 C 
BRANCH   2   3
ATOM      3  C   UNL A   1      48.118  19.764  37.916  1.00  0.00     0.188 C 
BRANCH   3   4
ATOM      4  O   UNL A   1      47.936  18.834  38.972  1.00  0.00    -0.376 OA
BRANCH   4   5
ATOM      5  C   UNL A   1      48.891  18.695  40.015  1.00  0.00     0.202 C 
BRANCH   5   6
ATOM      6  C   UNL A   1      48.501  18.260  41.436  1.00  0.00     0.261 C 
BRANCH   6   7
ATOM      7  O   UNL A   1      48.490  19.282  42.445  1.00  0.00    -0.463 OA
BRANCH   7   8
ATOM      8  C   UNL A   1      48.195  18.872  43.699  1.00  0.00     0.312 C 
ATOM      9  O   UNL A   1      48.413  19.529  44.715  1.00  0.00    -0.252 OA
BRANCH   8  10
ATOM     10  C   UNL A   1      47.645  17.459  43.774  1.00  0.00     0.124 C 
ATOM     11  C   UNL A   1      46.575  15.689  45.034  1.00  0.00     0.107 C 
ATOM     12  C   UNL A   1      45.587  16.429  44.214  1.00  0.00    -0.006 C 
ATOM     13  C   UNL A   1      47.754  16.659  45.067  1.00  0.00     0.048 C 
ATOM     14  C   UNL A   1      46.161  17.436  43.541  1.00  0.00    -0.014 C 
BRANCH  11  15
ATOM     15  N   UNL A   1      46.926  14.326  44.623  1.00  0.00    -0.332 N 
ATOM     16  C   UNL A   1      46.423  13.103  44.387  1.00  0.00     0.317 C 
ATOM     17  O   UNL A   1      47.065  12.464  43.546  1.00  0.00    -0.249 OA
ATOM     18  H   UNL A   1      47.897  14.295  44.459  1.00  0.00     0.165 HD
BRANCH  16  19
ATOM     19  N   UNL A   1      45.344  12.556  45.022  1.00  0.00    -0.324 N 
ATOM     20  C   UNL A   1      45.347  12.157  46.415  1.00  0.00     0.149 C 
BRANCH  19  21
ATOM     21  C   UNL A   1      44.192  12.004  44.273  1.00  0.00     0.102 C 
ATOM     22  C   UNL A   1      43.390  10.976  45.100  1.00  0.00     0.042 C 
ATOM     23  C   UNL A   1      43.115  12.920  43.683  1.00  0.00     0.162 C 
ATOM     24  C   UNL A   1      42.319  10.422  44.168  1.00  0.00     0.139 C 
ATOM     25  S   UNL A   1      41.900  11.763  43.067  1.00  0.00     0.152 S 
ATOM     26  O   UNL A   1      42.274  11.366  41.722  1.00  0.00    -0.229 OA
ATOM     27  O   UNL A   1      40.570  12.233  43.384  1.00  0.00    -0.229 OA
ENDBRANCH  19  21
ENDBRANCH  16  19
ENDBRANCH  11  15
ENDBRANCH   8  10
ENDBRANCH   7   8
ENDBRANCH   6   7
ENDBRANCH   5   6
ENDBRANCH   4   5
ENDBRANCH   3   4
ENDBRANCH   2   3
ENDBRANCH   1   2
BRANCH   1  28
ATOM     28  C   UNL A   1      50.393  21.832  38.313  1.00  0.00     0.188 C 
BRANCH  28  29
ATOM     29  C   UNL A   1      49.138  22.608  37.860  1.00  0.00     0.188 C 
BRANCH  29  30
ATOM     30  O   UNL A   1      48.557  23.422  38.871  1.00  0.00    -0.376 OA
BRANCH  30  31
ATOM     31  C   UNL A   1      47.142  23.508  38.949  1.00  0.00     0.202 C 
BRANCH  31  32
ATOM     32  C   UNL A   1      46.446  24.731  38.323  1.00  0.00     0.261 C 
BRANCH  32  33
ATOM     33  O   UNL A   1      47.268  25.636  37.569  1.00  0.00    -0.460 OA
BRANCH  33  34
ATOM     34  C   UNL A   1      47.306  25.495  36.227  1.00  0.00     0.338 C 
ATOM     35  O   UNL A   1      48.042  24.757  35.594  1.00  0.00    -0.246 OA
BRANCH  34  36
ATOM     36  C   UNL A   1      46.155  26.232  35.665  1.00  0.00     0.060 A 
ATOM     37  C   UNL A   1      44.903  25.602  35.607  1.00  0.00     0.016 A 
ATOM     38  C   UNL A   1      46.309  27.539  35.197  1.00  0.00     0.016 A 
ATOM     39  C   UNL A   1      43.812  26.263  35.042  1.00  0.00     0.010 A 
ATOM     40  C   UNL A   1      45.222  28.190  34.608  1.00  0.00     0.010 A 
ATOM     41  C   UNL A   1      43.978  27.541  34.493  1.00  0.00    -0.014 A 
BRANCH  41  42
ATOM     42  C   UNL A   1      42.942  28.101  33.590  1.00  0.00     0.031 A 
ATOM     43  C   UNL A   1      41.935  29.051  34.182  1.00  0.00     0.074 A 
ATOM     44  C   UNL A   1      42.889  27.786  32.285  1.00  0.00     0.049 A 
ATOM     45  N   UNL A   1      40.873  29.584  33.641  1.00  0.00    -0.248 NA
ATOM     46  C   UNL A   1      42.161  29.436  35.583  1.00  0.00     0.031 C 
ATOM     47  C   UNL A   1      43.842  26.930  31.583  1.00  0.00     0.029 A 
ATOM     48  N   UNL A   1      41.978  28.142  31.319  1.00  0.00    -0.354 N 
ATOM     49  C   UNL A   1      40.290  30.356  34.643  1.00  0.00     0.074 A 
ATOM     50  C   UNL A   1      41.100  30.186  35.829  1.00  0.00     0.031 C 
ATOM     51  C   UNL A   1      43.455  26.810  30.300  1.00  0.00     0.029 A 
ATOM     52  C   UNL A   1      42.201  27.538  30.104  1.00  0.00     0.049 A 
ATOM     53  H   UNL A   1      41.237  28.769  31.483  1.00  0.00     0.167 HD
ATOM     54  C   UNL A   1      39.183  31.136  34.574  1.00  0.00     0.034 A 
ATOM     55  C   UNL A   1      41.457  27.543  28.977  1.00  0.00     0.034 A 
ATOM     56  C   UNL A   1      38.380  31.277  33.385  1.00  0.00     0.049 A 
ATOM     57  C   UNL A   1      40.169  28.334  28.949  1.00  0.00     0.074 A 
ATOM     58  C   UNL A   1      37.248  32.049  33.198  1.00  0.00     0.029 A 
ATOM     59  N   UNL A   1      38.611  30.615  32.185  1.00  0.00    -0.354 N 
ATOM     60  N   UNL A   1      39.622  29.059  29.899  1.00  0.00    -0.248 NA
ATOM     61  C   UNL A   1      39.401  28.311  27.697  1.00  0.00     0.031 C 
ATOM     62  C   UNL A   1      36.743  31.783  31.920  1.00  0.00     0.029 A 
ATOM     63  C   UNL A   1      37.619  30.928  31.269  1.00  0.00     0.049 A 
ATOM     64  H   UNL A   1      39.369  30.011  32.012  1.00  0.00     0.167 HD
ATOM     65  C   UNL A   1      38.467  29.608  29.345  1.00  0.00     0.074 A 
ATOM     66  C   UNL A   1      38.398  29.131  27.978  1.00  0.00     0.031 C 
ATOM     67  C   UNL A   1      37.555  30.441  29.909  1.00  0.00     0.034 A 
BRANCH  54  68
ATOM     68  C   UNL A   1      38.747  31.830  35.845  1.00  0.00     0.023 A 
ATOM     69  C   UNL A   1      38.148  31.130  36.906  1.00  0.00     0.031 A 
ATOM     70  C   UNL A   1      38.883  33.224  35.972  1.00  0.00     0.131 A 
ATOM     71  C   UNL A   1      37.623  31.835  38.001  1.00  0.00     0.055 A 
ATOM     72  C   UNL A   1      38.447  33.907  37.108  1.00  0.00     0.041 A 
ATOM     73  F   UNL A   1      39.422  33.952  34.981  1.00  0.00    -0.206 F 
ATOM     74  C   UNL A   1      37.794  33.215  38.123  1.00  0.00     0.022 A 
BRANCH  71  75
ATOM     75  S   UNL A   1      36.553  30.946  39.166  1.00  0.00     0.124 S 
ATOM     76  O   UNL A   1      37.425  30.821  40.332  1.00  0.00    -0.237 OA
ATOM     77  O   UNL A   1      35.420  31.853  39.309  1.00  0.00    -0.237 OA
ATOM     78  O   UNL A   1      36.265  29.689  38.476  1.00  0.00    -0.744 OA
ENDBRANCH  71  75
ENDBRANCH  54  68
BRANCH  55  79
ATOM     79  C   UNL A   1      41.880  26.732  27.799  1.00  0.00     0.023 A 
ATOM     80  C   UNL A   1      41.791  25.331  27.805  1.00  0.00     0.031 A 
ATOM     81  C   UNL A   1      42.414  27.352  26.653  1.00  0.00     0.131 A 
ATOM     82  C   UNL A   1      42.260  24.595  26.706  1.00  0.00     0.055 A 
ATOM     83  C   UNL A   1      42.828  26.618  25.540  1.00  0.00     0.041 A 
ATOM     84  F   UNL A   1      42.528  28.688  26.595  1.00  0.00    -0.206 F 
ATOM     85  C   UNL A   1      42.761  25.230  25.566  1.00  0.00     0.022 A 
BRANCH  82  86
ATOM     86  S   UNL A   1      42.272  22.784  26.810  1.00  0.00     0.124 S 
ATOM     87  O   UNL A   1      41.008  22.519  27.487  1.00  0.00    -0.237 OA
ATOM     88  O   UNL A   1      42.342  22.399  25.404  1.00  0.00    -0.237 OA
ATOM     89  O   UNL A   1      43.472  22.497  27.593  1.00  0.00    -0.744 OA
ENDBRANCH  82  86
ENDBRANCH  55  79
BRANCH  67  90
ATOM     90  C   UNL A   1      36.433  30.950  29.033  1.00  0.00     0.023 A 
ATOM     91  C   UNL A   1      35.449  30.099  28.503  1.00  0.00     0.031 A 
ATOM     92  C   UNL A   1      36.339  32.326  28.746  1.00  0.00     0.131 A 
ATOM     93  C   UNL A   1      34.440  30.625  27.679  1.00  0.00     0.055 A 
ATOM     94  C   UNL A   1      35.297  32.851  27.983  1.00  0.00     0.041 A 
ATOM     95  F   UNL A   1      37.254  33.186  29.221  1.00  0.00    -0.206 F 
ATOM     96  C   UNL A   1      34.345  31.997  27.434  1.00  0.00     0.022 A 
BRANCH  93  97
ATOM     97  S   UNL A   1      33.298  29.480  26.856  1.00  0.00     0.124 S 
ATOM     98  O   UNL A   1      32.222  30.373  26.439  1.00  0.00    -0.237 OA
ATOM     99  O   UNL A   1      34.123  28.930  25.785  1.00  0.00    -0.237 OA
ATOM    100  O   UNL A   1      32.943  28.533  27.912  1.00  0.00    -0.744 OA
ENDBRANCH  93  97
ENDBRANCH  67  90
ENDBRANCH  41  42
ENDBRANCH  34  36
ENDBRANCH  33  34
ENDBRANCH  32  33
ENDBRANCH  31  32
ENDBRANCH  30  31
ENDBRANCH  29  30
ENDBRANCH  28  29
ENDBRANCH   1  28
TORSDOF 26
ENDMDL
MODEL 3
REMARK VINA RESULT:      -7.6      3.245      8.427
REMARK SMILES CN(C(=O)N[C@@H]1C=C[C@@H](C(=O)OCCOCCOCCOCCOC(=O)c2ccc(-c3c4nc(c(-c5cc(S(=O)(=O)[O-])ccc5F)c5ccc([nH]5)c(-c5cc(S(=O)(=O)[O-])ccc5F)c5nc(c(-c6cc(S(=O)(=O)[O-])ccc6F)c6ccc3[nH]6)C=C5)C=C4)cc2)C1)[C@H]1CCS(=O)(=O)C1
REMARK SMILES IDX 18 1 17 2 16 3 15 4 14 5 13 6 12 7 10 8 11 9 9 10 6 11 7 12
REMARK SMILES IDX 90 13 8 14 5 15 3 16 4 17 2 19 1 20 91 21 92 22 97 23 93 24
REMARK SMILES IDX 94 25 95 26 96 27 19 28 20 29 21 30 22 31 23 32 24 33 25 34
REMARK SMILES IDX 26 35 27 36 28 37 89 38 29 39 88 40 30 41 31 42 32 43 82 44
REMARK SMILES IDX 33 45 87 46 81 47 83 48 34 49 86 50 80 51 79 52 35 54 67 55
REMARK SMILES IDX 47 56 66 57 48 58 51 59 65 60 84 61 49 62 50 63 64 65 85 66
REMARK SMILES IDX 52 67 36 68 37 69 45 70 38 71 44 72 46 73 43 74 39 75 40 76
REMARK SMILES IDX 41 77 42 78 68 79 69 80 77 81 70 82 76 83 78 84 75 85 71 86
REMARK SMILES IDX 72 87 73 88 74 89 53 90 54 91 62 92 55 93 61 94 63 95 60 96
REMARK SMILES IDX 56 97 57 98 58 99 59 100
REMARK H PARENT 5 18 83 53 51 64
REMARK Flexibility Score: inf
ROOT
ATOM      1  O   UNL A   1      33.568  32.749  27.122  1.00  0.00    -0.377 OA
ENDROOT
BRANCH   1   2
ATOM      2  C   UNL A   1      32.310  32.448  27.684  1.00  0.00     0.188 C 
BRANCH   2   3
ATOM      3  C   UNL A   1      31.300  31.820  26.713  1.00  0.00     0.188 C 
BRANCH   3   4
ATOM      4  O   UNL A   1      31.725  31.008  25.631  1.00  0.00    -0.376 OA
BRANCH   4   5
ATOM      5  C   UNL A   1      32.572  29.884  25.830  1.00  0.00     0.202 C 
BRANCH   5   6
ATOM      6  C   UNL A   1      32.412  28.580  25.033  1.00  0.00     0.261 C 
BRANCH   6   7
ATOM      7  O   UNL A   1      33.619  27.897  24.662  1.00  0.00    -0.463 OA
BRANCH   7   8
ATOM      8  C   UNL A   1      33.521  27.051  23.612  1.00  0.00     0.312 C 
ATOM      9  O   UNL A   1      33.569  27.396  22.433  1.00  0.00    -0.252 OA
BRANCH   8  10
ATOM     10  C   UNL A   1      33.244  25.610  24.003  1.00  0.00     0.124 C 
ATOM     11  C   UNL A   1      33.314  23.245  23.484  1.00  0.00     0.107 C 
ATOM     12  C   UNL A   1      34.473  23.640  24.319  1.00  0.00    -0.006 C 
ATOM     13  C   UNL A   1      32.834  24.591  22.944  1.00  0.00     0.048 C 
ATOM     14  C   UNL A   1      34.465  24.955  24.581  1.00  0.00    -0.014 C 
BRANCH  11  15
ATOM     15  N   UNL A   1      32.262  22.435  24.106  1.00  0.00    -0.332 N 
ATOM     16  C   UNL A   1      32.015  21.551  25.086  1.00  0.00     0.317 C 
ATOM     17  O   UNL A   1      30.854  21.603  25.509  1.00  0.00    -0.249 OA
ATOM     18  H   UNL A   1      31.420  22.600  23.622  1.00  0.00     0.165 HD
BRANCH  16  19
ATOM     19  N   UNL A   1      32.906  20.634  25.569  1.00  0.00    -0.324 N 
ATOM     20  C   UNL A   1      33.795  20.888  26.684  1.00  0.00     0.149 C 
BRANCH  19  21
ATOM     21  C   UNL A   1      33.290  19.433  24.793  1.00  0.00     0.102 C 
ATOM     22  C   UNL A   1      34.755  19.014  25.045  1.00  0.00     0.042 C 
ATOM     23  C   UNL A   1      32.507  18.123  24.918  1.00  0.00     0.162 C 
ATOM     24  C   UNL A   1      35.031  17.846  24.104  1.00  0.00     0.139 C 
ATOM     25  S   UNL A   1      33.478  16.983  23.942  1.00  0.00     0.152 S 
ATOM     26  O   UNL A   1      33.058  17.081  22.557  1.00  0.00    -0.229 OA
ATOM     27  O   UNL A   1      33.574  15.711  24.625  1.00  0.00    -0.229 OA
ENDBRANCH  19  21
ENDBRANCH  16  19
ENDBRANCH  11  15
ENDBRANCH   8  10
ENDBRANCH   7   8
ENDBRANCH   6   7
ENDBRANCH   5   6
ENDBRANCH   4   5
ENDBRANCH   3   4
ENDBRANCH   2   3
ENDBRANCH   1   2
BRANCH   1  28
ATOM     28  C   UNL A   1      34.709  32.618  27.966  1.00  0.00     0.188 C 
BRANCH  28  29
ATOM     29  C   UNL A   1      34.814  33.526  29.210  1.00  0.00     0.188 C 
BRANCH  29  30
ATOM     30  O   UNL A   1      36.130  33.653  29.733  1.00  0.00    -0.376 OA
BRANCH  30  31
ATOM     31  C   UNL A   1      36.310  33.629  31.142  1.00  0.00     0.202 C 
BRANCH  31  32
ATOM     32  C   UNL A   1      36.166  32.283  31.876  1.00  0.00     0.261 C 
BRANCH  32  33
ATOM     33  O   UNL A   1      36.362  31.090  31.101  1.00  0.00    -0.460 OA
BRANCH  33  34
ATOM     34  C   UNL A   1      37.118  30.104  31.628  1.00  0.00     0.338 C 
ATOM     35  O   UNL A   1      36.718  29.132  32.248  1.00  0.00    -0.246 OA
BRANCH  34  36
ATOM     36  C   UNL A   1      38.502  30.290  31.143  1.00  0.00     0.060 A 
ATOM     37  C   UNL A   1      39.525  30.529  32.072  1.00  0.00     0.016 A 
ATOM     38  C   UNL A   1      38.790  30.227  29.778  1.00  0.00     0.016 A 
ATOM     39  C   UNL A   1      40.832  30.750  31.634  1.00  0.00     0.010 A 
ATOM     40  C   UNL A   1      40.093  30.473  29.339  1.00  0.00     0.010 A 
ATOM     41  C   UNL A   1      41.113  30.774  30.263  1.00  0.00    -0.014 A 
BRANCH  41  42
ATOM     42  C   UNL A   1      42.393  31.346  29.777  1.00  0.00     0.031 A 
ATOM     43  C   UNL A   1      43.472  30.387  29.349  1.00  0.00     0.074 A 
ATOM     44  C   UNL A   1      42.600  32.672  29.711  1.00  0.00     0.049 A 
ATOM     45  N   UNL A   1      44.708  30.625  28.999  1.00  0.00    -0.248 NA
ATOM     46  C   UNL A   1      43.099  28.965  29.331  1.00  0.00     0.031 C 
ATOM     47  C   UNL A   1      41.613  33.699  30.037  1.00  0.00     0.029 A 
ATOM     48  N   UNL A   1      43.724  33.381  29.362  1.00  0.00    -0.354 N 
ATOM     49  C   UNL A   1      45.268  29.378  28.734  1.00  0.00     0.074 A 
ATOM     50  C   UNL A   1      44.245  28.392  29.003  1.00  0.00     0.031 C 
ATOM     51  C   UNL A   1      42.182  34.909  29.890  1.00  0.00     0.029 A 
ATOM     52  C   UNL A   1      43.585  34.741  29.510  1.00  0.00     0.049 A 
ATOM     53  H   UNL A   1      44.550  32.955  29.036  1.00  0.00     0.167 HD
ATOM     54  C   UNL A   1      46.521  29.087  28.303  1.00  0.00     0.034 A 
ATOM     55  C   UNL A   1      44.497  35.730  29.392  1.00  0.00     0.034 A 
ATOM     56  C   UNL A   1      47.530  30.086  28.058  1.00  0.00     0.049 A 
ATOM     57  C   UNL A   1      45.917  35.380  29.012  1.00  0.00     0.074 A 
ATOM     58  C   UNL A   1      48.826  29.907  27.607  1.00  0.00     0.029 A 
ATOM     59  N   UNL A   1      47.367  31.451  28.262  1.00  0.00    -0.354 N 
ATOM     60  N   UNL A   1      46.441  34.200  28.766  1.00  0.00    -0.248 NA
ATOM     61  C   UNL A   1      46.868  36.494  28.889  1.00  0.00     0.031 C 
ATOM     62  C   UNL A   1      49.472  31.148  27.628  1.00  0.00     0.029 A 
ATOM     63  C   UNL A   1      48.550  32.119  27.989  1.00  0.00     0.049 A 
ATOM     64  H   UNL A   1      46.532  31.880  28.559  1.00  0.00     0.167 HD
ATOM     65  C   UNL A   1      47.772  34.436  28.423  1.00  0.00     0.074 A 
ATOM     66  C   UNL A   1      47.968  35.870  28.492  1.00  0.00     0.031 C 
ATOM     67  C   UNL A   1      48.738  33.550  28.068  1.00  0.00     0.034 A 
BRANCH  54  68
ATOM     68  C   UNL A   1      46.874  27.625  28.145  1.00  0.00     0.023 A 
ATOM     69  C   UNL A   1      46.730  26.953  26.919  1.00  0.00     0.031 A 
ATOM     70  C   UNL A   1      47.307  26.880  29.255  1.00  0.00     0.131 A 
ATOM     71  C   UNL A   1      46.925  25.565  26.855  1.00  0.00     0.055 A 
ATOM     72  C   UNL A   1      47.595  25.517  29.162  1.00  0.00     0.041 A 
ATOM     73  F   UNL A   1      47.438  27.458  30.461  1.00  0.00    -0.206 F 
ATOM     74  C   UNL A   1      47.383  24.847  27.961  1.00  0.00     0.022 A 
BRANCH  71  75
ATOM     75  S   UNL A   1      46.389  24.687  25.361  1.00  0.00     0.124 S 
ATOM     76  O   UNL A   1      44.993  25.107  25.256  1.00  0.00    -0.237 OA
ATOM     77  O   UNL A   1      47.293  25.212  24.345  1.00  0.00    -0.237 OA
ATOM     78  O   UNL A   1      46.582  23.279  25.703  1.00  0.00    -0.744 OA
ENDBRANCH  71  75
ENDBRANCH  54  68
BRANCH  55  79
ATOM     79  C   UNL A   1      44.112  37.141  29.686  1.00  0.00     0.023 A 
ATOM     80  C   UNL A   1      44.156  37.653  30.993  1.00  0.00     0.031 A 
ATOM     81  C   UNL A   1      43.659  37.992  28.661  1.00  0.00     0.131 A 
ATOM     82  C   UNL A   1      43.723  38.965  31.245  1.00  0.00     0.055 A 
ATOM     83  C   UNL A   1      43.281  39.313  28.909  1.00  0.00     0.041 A 
ATOM     84  F   UNL A   1      43.590  37.553  27.395  1.00  0.00    -0.206 F 
ATOM     85  C   UNL A   1      43.303  39.803  30.210  1.00  0.00     0.022 A 
BRANCH  82  86
ATOM     86  S   UNL A   1      43.648  39.542  32.963  1.00  0.00     0.124 S 
ATOM     87  O   UNL A   1      43.452  38.291  33.687  1.00  0.00    -0.237 OA
ATOM     88  O   UNL A   1      44.950  40.181  33.125  1.00  0.00    -0.237 OA
ATOM     89  O   UNL A   1      42.505  40.452  32.966  1.00  0.00    -0.744 OA
ENDBRANCH  82  86
ENDBRANCH  55  79
BRANCH  67  90
ATOM     90  C   UNL A   1      50.084  34.105  27.661  1.00  0.00     0.023 A 
ATOM     91  C   UNL A   1      50.404  34.397  26.324  1.00  0.00     0.031 A 
ATOM     92  C   UNL A   1      51.057  34.369  28.644  1.00  0.00     0.131 A 
ATOM     93  C   UNL A   1      51.678  34.895  26.002  1.00  0.00     0.055 A 
ATOM     94  C   UNL A   1      52.296  34.924  28.326  1.00  0.00     0.041 A 
ATOM     95  F   UNL A   1      50.810  34.104  29.937  1.00  0.00    -0.206 F 
ATOM     96  C   UNL A   1      52.617  35.180  26.996  1.00  0.00     0.022 A 
BRANCH  93  97
ATOM     97  S   UNL A   1      52.127  35.082  24.254  1.00  0.00     0.124 S 
ATOM     98  O   UNL A   1      51.702  33.803  23.694  1.00  0.00    -0.237 OA
ATOM     99  O   UNL A   1      51.345  36.246  23.853  1.00  0.00    -0.237 OA
ATOM    100  O   UNL A   1      53.574  35.291  24.293  1.00  0.00    -0.744 OA
ENDBRANCH  93  97
ENDBRANCH  67  90
ENDBRANCH  41  42
ENDBRANCH  34  36
ENDBRANCH  33  34
ENDBRANCH  32  33
ENDBRANCH  31  32
ENDBRANCH  30  31
ENDBRANCH  29  30
ENDBRANCH  28  29
ENDBRANCH   1  28
TORSDOF 26
ENDMDL
