MODEL 1
REMARK VINA RESULT:      -9.6      0.000      0.000
REMARK SMILES COCCCOc1cccc(F)c1C(=O)OCCOCCOCCOCCOC(=O)c1ccc(-c2c3nc(c(-c4cc(S(=O)(=O)[O-])ccc4F)c4ccc([nH]4)c(-c4cc(S(=O)(=O)[O-])ccc4F)c4nc(c(-c5cc(S(=O)(=O)[O-])ccc5F)c5ccc2[nH]5)C=C4)C=C3)cc1
REMARK SMILES IDX 21 1 20 2 19 3 18 4 17 5 16 6 14 7 15 8 13 9 7 10 8 11 9 12
REMARK SMILES IDX 11 13 10 14 12 15 6 16 5 17 4 18 3 19 2 20 1 21 22 22 23 23
REMARK SMILES IDX 24 24 25 25 26 26 27 27 28 28 29 29 30 30 31 31 32 32 93 33
REMARK SMILES IDX 33 34 92 35 34 36 35 37 36 38 86 39 37 40 91 41 85 42 87 43
REMARK SMILES IDX 38 44 90 45 84 46 83 47 39 49 71 50 51 51 70 52 52 53 55 54
REMARK SMILES IDX 69 55 88 56 53 57 54 58 68 60 89 61 56 62 40 63 41 64 49 65
REMARK SMILES IDX 42 66 48 67 50 68 47 69 43 70 44 71 45 72 46 73 72 74 73 75
REMARK SMILES IDX 81 76 74 77 80 78 82 79 79 80 75 81 76 82 77 83 78 84 57 85
REMARK SMILES IDX 58 86 66 87 59 88 65 89 67 90 64 91 60 92 61 93 62 94 63 95
REMARK H PARENT 87 48 55 59
REMARK Flexibility Score: inf
ROOT
ATOM      1  C   UNL A   1      32.226  20.433  23.626  1.00  0.00     0.188 C 
ENDROOT
BRANCH   1   2
ATOM      2  C   UNL A   1      32.044  21.930  23.282  1.00  0.00     0.188 C 
BRANCH   2   3
ATOM      3  O   UNL A   1      32.909  22.391  22.260  1.00  0.00    -0.376 OA
BRANCH   3   4
ATOM      4  C   UNL A   1      33.547  23.643  22.423  1.00  0.00     0.202 C 
BRANCH   4   5
ATOM      5  C   UNL A   1      32.713  24.933  22.403  1.00  0.00     0.261 C 
BRANCH   5   6
ATOM      6  O   UNL A   1      32.978  25.868  23.457  1.00  0.00    -0.459 OA
BRANCH   6   7
ATOM      7  C   UNL A   1      32.024  26.105  24.386  1.00  0.00     0.345 C 
ATOM      8  O   UNL A   1      31.163  25.338  24.775  1.00  0.00    -0.246 OA
BRANCH   7   9
ATOM      9  C   UNL A   1      32.307  27.439  24.949  1.00  0.00     0.137 A 
ATOM     10  C   UNL A   1      31.431  28.526  24.802  1.00  0.00     0.136 A 
ATOM     11  C   UNL A   1      31.638  29.689  25.557  1.00  0.00     0.047 A 
ATOM     12  C   UNL A   1      32.752  29.811  26.385  1.00  0.00     0.007 A 
ATOM     13  C   UNL A   1      33.416  27.571  25.789  1.00  0.00     0.141 A 
ATOM     14  C   UNL A   1      33.646  28.750  26.496  1.00  0.00     0.040 A 
ATOM     15  F   UNL A   1      34.274  26.555  25.954  1.00  0.00    -0.206 F 
BRANCH  10  16
ATOM     16  O   UNL A   1      30.233  28.469  24.147  1.00  0.00    -0.492 OA
BRANCH  16  17
ATOM     17  C   UNL A   1      30.006  29.513  23.192  1.00  0.00     0.232 C 
BRANCH  17  18
ATOM     18  C   UNL A   1      28.714  29.363  22.386  1.00  0.00     0.070 C 
BRANCH  18  19
ATOM     19  C   UNL A   1      28.185  30.618  21.689  1.00  0.00     0.163 C 
BRANCH  19  20
ATOM     20  O   UNL A   1      29.075  31.727  21.764  1.00  0.00    -0.385 OA
ATOM     21  C   UNL A   1      28.694  32.727  22.702  1.00  0.00     0.194 C 
ENDBRANCH  19  20
ENDBRANCH  18  19
ENDBRANCH  17  18
ENDBRANCH  16  17
ENDBRANCH  10  16
ENDBRANCH   7   9
ENDBRANCH   6   7
ENDBRANCH   5   6
ENDBRANCH   4   5
ENDBRANCH   3   4
ENDBRANCH   2   3
ENDBRANCH   1   2
BRANCH   1  22
ATOM     22  O   UNL A   1      32.227  20.008  24.980  1.00  0.00    -0.377 OA
BRANCH  22  23
ATOM     23  C   UNL A   1      33.440  20.024  25.722  1.00  0.00     0.188 C 
BRANCH  23  24
ATOM     24  C   UNL A   1      34.804  19.957  24.998  1.00  0.00     0.188 C 
BRANCH  24  25
ATOM     25  O   UNL A   1      35.702  21.011  25.311  1.00  0.00    -0.376 OA
BRANCH  25  26
ATOM     26  C   UNL A   1      36.902  21.095  24.562  1.00  0.00     0.202 C 
BRANCH  26  27
ATOM     27  C   UNL A   1      38.071  20.208  25.012  1.00  0.00     0.261 C 
BRANCH  27  28
ATOM     28  O   UNL A   1      38.610  20.480  26.313  1.00  0.00    -0.460 OA
BRANCH  28  29
ATOM     29  C   UNL A   1      39.954  20.563  26.420  1.00  0.00     0.338 C 
ATOM     30  O   UNL A   1      40.771  19.725  26.076  1.00  0.00    -0.246 OA
BRANCH  29  31
ATOM     31  C   UNL A   1      40.276  21.935  26.861  1.00  0.00     0.060 A 
ATOM     32  C   UNL A   1      39.516  23.009  26.380  1.00  0.00     0.016 A 
ATOM     33  C   UNL A   1      41.313  22.150  27.773  1.00  0.00     0.016 A 
ATOM     34  C   UNL A   1      39.809  24.309  26.793  1.00  0.00     0.010 A 
ATOM     35  C   UNL A   1      41.622  23.454  28.162  1.00  0.00     0.010 A 
ATOM     36  C   UNL A   1      40.891  24.541  27.652  1.00  0.00    -0.014 A 
BRANCH  36  37
ATOM     37  C   UNL A   1      41.392  25.921  27.854  1.00  0.00     0.031 A 
ATOM     38  C   UNL A   1      42.745  26.269  27.299  1.00  0.00     0.074 A 
ATOM     39  C   UNL A   1      40.657  26.850  28.492  1.00  0.00     0.049 A 
ATOM     40  N   UNL A   1      43.431  27.375  27.416  1.00  0.00    -0.248 NA
ATOM     41  C   UNL A   1      43.416  25.225  26.505  1.00  0.00     0.031 C 
ATOM     42  C   UNL A   1      39.306  26.650  29.012  1.00  0.00     0.029 A 
ATOM     43  N   UNL A   1      40.951  28.153  28.809  1.00  0.00    -0.354 N 
ATOM     44  C   UNL A   1      44.612  27.161  26.715  1.00  0.00     0.074 A 
ATOM     45  C   UNL A   1      44.565  25.810  26.202  1.00  0.00     0.031 C 
ATOM     46  C   UNL A   1      38.889  27.792  29.587  1.00  0.00     0.029 A 
ATOM     47  C   UNL A   1      39.957  28.788  29.515  1.00  0.00     0.049 A 
ATOM     48  H   UNL A   1      41.795  28.592  28.554  1.00  0.00     0.167 HD
ATOM     49  C   UNL A   1      45.639  28.019  26.512  1.00  0.00     0.034 A 
ATOM     50  C   UNL A   1      39.926  30.021  30.064  1.00  0.00     0.034 A 
ATOM     51  C   UNL A   1      45.676  29.361  27.031  1.00  0.00     0.049 A 
ATOM     52  C   UNL A   1      41.126  30.923  29.916  1.00  0.00     0.074 A 
ATOM     53  C   UNL A   1      46.669  30.311  26.880  1.00  0.00     0.029 A 
ATOM     54  N   UNL A   1      44.680  29.943  27.804  1.00  0.00    -0.354 N 
ATOM     55  N   UNL A   1      42.255  30.697  29.284  1.00  0.00    -0.248 NA
ATOM     56  C   UNL A   1      41.053  32.244  30.559  1.00  0.00     0.031 C 
ATOM     57  C   UNL A   1      46.310  31.440  27.621  1.00  0.00     0.029 A 
ATOM     58  C   UNL A   1      45.053  31.227  28.165  1.00  0.00     0.049 A 
ATOM     59  H   UNL A   1      43.834  29.507  28.058  1.00  0.00     0.167 HD
ATOM     60  C   UNL A   1      43.013  31.857  29.430  1.00  0.00     0.074 A 
ATOM     61  C   UNL A   1      42.215  32.780  30.210  1.00  0.00     0.031 C 
ATOM     62  C   UNL A   1      44.252  32.134  28.953  1.00  0.00     0.034 A 
BRANCH  49  63
ATOM     63  C   UNL A   1      46.825  27.519  25.733  1.00  0.00     0.023 A 
ATOM     64  C   UNL A   1      47.024  27.867  24.387  1.00  0.00     0.031 A 
ATOM     65  C   UNL A   1      47.788  26.708  26.359  1.00  0.00     0.131 A 
ATOM     66  C   UNL A   1      48.145  27.377  23.700  1.00  0.00     0.055 A 
ATOM     67  C   UNL A   1      48.931  26.275  25.688  1.00  0.00     0.041 A 
ATOM     68  F   UNL A   1      47.633  26.328  27.637  1.00  0.00    -0.206 F 
ATOM     69  C   UNL A   1      49.113  26.605  24.348  1.00  0.00     0.022 A 
BRANCH  66  70
ATOM     70  S   UNL A   1      48.289  27.705  21.923  1.00  0.00     0.124 S 
ATOM     71  O   UNL A   1      49.420  28.629  21.884  1.00  0.00    -0.237 OA
ATOM     72  O   UNL A   1      48.532  26.375  21.373  1.00  0.00    -0.237 OA
ATOM     73  O   UNL A   1      46.998  28.295  21.577  1.00  0.00    -0.744 OA
ENDBRANCH  66  70
ENDBRANCH  49  63
BRANCH  50  74
ATOM     74  C   UNL A   1      38.730  30.462  30.837  1.00  0.00     0.023 A 
ATOM     75  C   UNL A   1      37.686  31.166  30.219  1.00  0.00     0.031 A 
ATOM     76  C   UNL A   1      38.622  30.189  32.212  1.00  0.00     0.131 A 
ATOM     77  C   UNL A   1      36.583  31.588  30.979  1.00  0.00     0.055 A 
ATOM     78  C   UNL A   1      37.506  30.575  32.956  1.00  0.00     0.041 A 
ATOM     79  F   UNL A   1      39.595  29.520  32.850  1.00  0.00    -0.206 F 
ATOM     80  C   UNL A   1      36.479  31.283  32.339  1.00  0.00     0.022 A 
BRANCH  77  81
ATOM     81  S   UNL A   1      35.288  32.568  30.170  1.00  0.00     0.124 S 
ATOM     82  O   UNL A   1      34.881  31.681  29.086  1.00  0.00    -0.237 OA
ATOM     83  O   UNL A   1      34.323  32.749  31.248  1.00  0.00    -0.237 OA
ATOM     84  O   UNL A   1      35.989  33.781  29.756  1.00  0.00    -0.744 OA
ENDBRANCH  77  81
ENDBRANCH  50  74
BRANCH  62  85
ATOM     85  C   UNL A   1      44.822  33.503  29.223  1.00  0.00     0.023 A 
ATOM     86  C   UNL A   1      44.516  34.605  28.407  1.00  0.00     0.031 A 
ATOM     87  C   UNL A   1      45.627  33.718  30.357  1.00  0.00     0.131 A 
ATOM     88  C   UNL A   1      45.033  35.870  28.724  1.00  0.00     0.055 A 
ATOM     89  C   UNL A   1      46.096  34.987  30.694  1.00  0.00     0.041 A 
ATOM     90  F   UNL A   1      45.944  32.699  31.172  1.00  0.00    -0.206 F 
ATOM     91  C   UNL A   1      45.803  36.071  29.873  1.00  0.00     0.022 A 
BRANCH  88  92
ATOM     92  S   UNL A   1      44.710  37.252  27.597  1.00  0.00     0.124 S 
ATOM     93  O   UNL A   1      44.564  38.370  28.523  1.00  0.00    -0.237 OA
ATOM     94  O   UNL A   1      45.908  37.268  26.763  1.00  0.00    -0.237 OA
ATOM     95  O   UNL A   1      43.483  36.855  26.907  1.00  0.00    -0.744 OA
ENDBRANCH  88  92
ENDBRANCH  62  85
ENDBRANCH  36  37
ENDBRANCH  29  31
ENDBRANCH  28  29
ENDBRANCH  27  28
ENDBRANCH  26  27
ENDBRANCH  25  26
ENDBRANCH  24  25
ENDBRANCH  23  24
ENDBRANCH  22  23
ENDBRANCH   1  22
TORSDOF 28
ENDMDL
MODEL 2
REMARK VINA RESULT:      -9.3      2.002      2.286
REMARK SMILES COCCCOc1cccc(F)c1C(=O)OCCOCCOCCOCCOC(=O)c1ccc(-c2c3nc(c(-c4cc(S(=O)(=O)[O-])ccc4F)c4ccc([nH]4)c(-c4cc(S(=O)(=O)[O-])ccc4F)c4nc(c(-c5cc(S(=O)(=O)[O-])ccc5F)c5ccc2[nH]5)C=C4)C=C3)cc1
REMARK SMILES IDX 21 1 20 2 19 3 18 4 17 5 16 6 14 7 15 8 13 9 7 10 8 11 9 12
REMARK SMILES IDX 11 13 10 14 12 15 6 16 5 17 4 18 3 19 2 20 1 21 22 22 23 23
REMARK SMILES IDX 24 24 25 25 26 26 27 27 28 28 29 29 30 30 31 31 32 32 93 33
REMARK SMILES IDX 33 34 92 35 34 36 35 37 36 38 86 39 37 40 91 41 85 42 87 43
REMARK SMILES IDX 38 44 90 45 84 46 83 47 39 49 71 50 51 51 70 52 52 53 55 54
REMARK SMILES IDX 69 55 88 56 53 57 54 58 68 60 89 61 56 62 40 63 41 64 49 65
REMARK SMILES IDX 42 66 48 67 50 68 47 69 43 70 44 71 45 72 46 73 72 74 73 75
REMARK SMILES IDX 81 76 74 77 80 78 82 79 79 80 75 81 76 82 77 83 78 84 57 85
REMARK SMILES IDX 58 86 66 87 59 88 65 89 67 90 64 91 60 92 61 93 62 94 63 95
REMARK H PARENT 87 48 55 59
REMARK Flexibility Score: inf
ROOT
ATOM      1  C   UNL A   1      32.232  20.453  23.570  1.00  0.00     0.188 C 
ENDROOT
BRANCH   1   2
ATOM      2  C   UNL A   1      32.012  21.936  23.193  1.00  0.00     0.188 C 
BRANCH   2   3
ATOM      3  O   UNL A   1      32.883  22.404  22.180  1.00  0.00    -0.376 OA
BRANCH   3   4
ATOM      4  C   UNL A   1      33.509  23.661  22.350  1.00  0.00     0.202 C 
BRANCH   4   5
ATOM      5  C   UNL A   1      32.660  24.940  22.377  1.00  0.00     0.261 C 
BRANCH   5   6
ATOM      6  O   UNL A   1      33.014  25.907  23.374  1.00  0.00    -0.459 OA
BRANCH   6   7
ATOM      7  C   UNL A   1      32.231  26.046  24.468  1.00  0.00     0.345 C 
ATOM      8  O   UNL A   1      31.727  25.162  25.135  1.00  0.00    -0.246 OA
BRANCH   7   9
ATOM      9  C   UNL A   1      32.209  27.485  24.790  1.00  0.00     0.137 A 
ATOM     10  C   UNL A   1      31.251  28.367  24.265  1.00  0.00     0.136 A 
ATOM     11  C   UNL A   1      31.137  29.660  24.792  1.00  0.00     0.047 A 
ATOM     12  C   UNL A   1      32.021  30.111  25.771  1.00  0.00     0.007 A 
ATOM     13  C   UNL A   1      33.084  27.947  25.777  1.00  0.00     0.141 A 
ATOM     14  C   UNL A   1      33.001  29.252  26.259  1.00  0.00     0.040 A 
ATOM     15  F   UNL A   1      34.012  27.135  26.302  1.00  0.00    -0.206 F 
BRANCH  10  16
ATOM     16  O   UNL A   1      30.239  27.995  23.424  1.00  0.00    -0.492 OA
BRANCH  16  17
ATOM     17  C   UNL A   1      29.701  29.045  22.612  1.00  0.00     0.232 C 
BRANCH  17  18
ATOM     18  C   UNL A   1      28.211  29.318  22.836  1.00  0.00     0.070 C 
BRANCH  18  19
ATOM     19  C   UNL A   1      27.656  30.626  22.271  1.00  0.00     0.163 C 
BRANCH  19  20
ATOM     20  O   UNL A   1      28.183  30.962  20.992  1.00  0.00    -0.385 OA
ATOM     21  C   UNL A   1      27.964  32.312  20.599  1.00  0.00     0.194 C 
ENDBRANCH  19  20
ENDBRANCH  18  19
ENDBRANCH  17  18
ENDBRANCH  16  17
ENDBRANCH  10  16
ENDBRANCH   7   9
ENDBRANCH   6   7
ENDBRANCH   5   6
ENDBRANCH   4   5
ENDBRANCH   3   4
ENDBRANCH   2   3
ENDBRANCH   1   2
BRANCH   1  22
ATOM     22  O   UNL A   1      32.180  20.046  24.928  1.00  0.00    -0.377 OA
BRANCH  22  23
ATOM     23  C   UNL A   1      33.349  20.133  25.733  1.00  0.00     0.188 C 
BRANCH  23  24
ATOM     24  C   UNL A   1      34.753  20.074  25.088  1.00  0.00     0.188 C 
BRANCH  24  25
ATOM     25  O   UNL A   1      35.553  21.230  25.288  1.00  0.00    -0.376 OA
BRANCH  25  26
ATOM     26  C   UNL A   1      36.746  21.339  24.531  1.00  0.00     0.202 C 
BRANCH  26  27
ATOM     27  C   UNL A   1      37.916  20.429  24.932  1.00  0.00     0.261 C 
BRANCH  27  28
ATOM     28  O   UNL A   1      38.446  20.622  26.250  1.00  0.00    -0.460 OA
BRANCH  28  29
ATOM     29  C   UNL A   1      39.791  20.647  26.378  1.00  0.00     0.338 C 
ATOM     30  O   UNL A   1      40.578  19.788  26.017  1.00  0.00    -0.246 OA
BRANCH  29  31
ATOM     31  C   UNL A   1      40.161  21.989  26.870  1.00  0.00     0.060 A 
ATOM     32  C   UNL A   1      39.414  23.102  26.460  1.00  0.00     0.016 A 
ATOM     33  C   UNL A   1      41.230  22.137  27.758  1.00  0.00     0.016 A 
ATOM     34  C   UNL A   1      39.753  24.374  26.922  1.00  0.00     0.010 A 
ATOM     35  C   UNL A   1      41.584  23.414  28.195  1.00  0.00     0.010 A 
ATOM     36  C   UNL A   1      40.866  24.541  27.756  1.00  0.00    -0.014 A 
BRANCH  36  37
ATOM     37  C   UNL A   1      41.407  25.898  28.004  1.00  0.00     0.031 A 
ATOM     38  C   UNL A   1      42.804  26.197  27.535  1.00  0.00     0.074 A 
ATOM     39  C   UNL A   1      40.673  26.849  28.609  1.00  0.00     0.049 A 
ATOM     40  N   UNL A   1      43.525  27.273  27.705  1.00  0.00    -0.248 NA
ATOM     41  C   UNL A   1      43.480  25.134  26.770  1.00  0.00     0.031 C 
ATOM     42  C   UNL A   1      39.287  26.698  29.045  1.00  0.00     0.029 A 
ATOM     43  N   UNL A   1      40.999  28.137  28.958  1.00  0.00    -0.354 N 
ATOM     44  C   UNL A   1      44.737  27.019  27.074  1.00  0.00     0.074 A 
ATOM     45  C   UNL A   1      44.667  25.675  26.542  1.00  0.00     0.031 C 
ATOM     46  C   UNL A   1      38.881  27.850  29.608  1.00  0.00     0.029 A 
ATOM     47  C   UNL A   1      39.990  28.804  29.612  1.00  0.00     0.049 A 
ATOM     48  H   UNL A   1      41.873  28.543  28.759  1.00  0.00     0.167 HD
ATOM     49  C   UNL A   1      45.806  27.837  26.942  1.00  0.00     0.034 A 
ATOM     50  C   UNL A   1      39.975  30.032  30.172  1.00  0.00     0.034 A 
ATOM     51  C   UNL A   1      45.865  29.171  27.478  1.00  0.00     0.049 A 
ATOM     52  C   UNL A   1      41.216  30.886  30.106  1.00  0.00     0.074 A 
ATOM     53  C   UNL A   1      46.902  30.082  27.397  1.00  0.00     0.029 A 
ATOM     54  N   UNL A   1      44.849  29.785  28.197  1.00  0.00    -0.354 N 
ATOM     55  N   UNL A   1      42.371  30.621  29.540  1.00  0.00    -0.248 NA
ATOM     56  C   UNL A   1      41.157  32.203  30.759  1.00  0.00     0.031 C 
ATOM     57  C   UNL A   1      46.544  31.218  28.129  1.00  0.00     0.029 A 
ATOM     58  C   UNL A   1      45.250  31.050  28.595  1.00  0.00     0.049 A 
ATOM     59  H   UNL A   1      43.973  29.381  28.395  1.00  0.00     0.167 HD
ATOM     60  C   UNL A   1      43.164  31.748  29.745  1.00  0.00     0.074 A 
ATOM     61  C   UNL A   1      42.358  32.696  30.487  1.00  0.00     0.031 C 
ATOM     62  C   UNL A   1      44.440  31.980  29.345  1.00  0.00     0.034 A 
BRANCH  49  63
ATOM     63  C   UNL A   1      47.017  27.297  26.229  1.00  0.00     0.023 A 
ATOM     64  C   UNL A   1      48.022  26.592  26.911  1.00  0.00     0.031 A 
ATOM     65  C   UNL A   1      47.148  27.464  24.839  1.00  0.00     0.131 A 
ATOM     66  C   UNL A   1      49.133  26.106  26.206  1.00  0.00     0.055 A 
ATOM     67  C   UNL A   1      48.225  26.926  24.134  1.00  0.00     0.041 A 
ATOM     68  F   UNL A   1      46.228  28.150  24.144  1.00  0.00    -0.206 F 
ATOM     69  C   UNL A   1      49.229  26.246  24.818  1.00  0.00     0.022 A 
BRANCH  66  70
ATOM     70  S   UNL A   1      50.492  25.347  27.135  1.00  0.00     0.124 S 
ATOM     71  O   UNL A   1      51.377  24.910  26.059  1.00  0.00    -0.237 OA
ATOM     72  O   UNL A   1      50.977  26.455  27.950  1.00  0.00    -0.237 OA
ATOM     73  O   UNL A   1      49.841  24.269  27.875  1.00  0.00    -0.744 OA
ENDBRANCH  66  70
ENDBRANCH  49  63
BRANCH  50  74
ATOM     74  C   UNL A   1      38.753  30.513  30.878  1.00  0.00     0.023 A 
ATOM     75  C   UNL A   1      37.706  31.131  30.178  1.00  0.00     0.031 A 
ATOM     76  C   UNL A   1      38.622  30.365  32.270  1.00  0.00     0.131 A 
ATOM     77  C   UNL A   1      36.578  31.593  30.875  1.00  0.00     0.055 A 
ATOM     78  C   UNL A   1      37.482  30.791  32.953  1.00  0.00     0.041 A 
ATOM     79  F   UNL A   1      39.597  29.783  32.986  1.00  0.00    -0.206 F 
ATOM     80  C   UNL A   1      36.452  31.414  32.254  1.00  0.00     0.022 A 
BRANCH  77  81
ATOM     81  S   UNL A   1      35.279  32.462  29.953  1.00  0.00     0.124 S 
ATOM     82  O   UNL A   1      34.281  32.689  30.993  1.00  0.00    -0.237 OA
ATOM     83  O   UNL A   1      35.984  33.644  29.471  1.00  0.00    -0.237 OA
ATOM     84  O   UNL A   1      34.897  31.504  28.919  1.00  0.00    -0.744 OA
ENDBRANCH  77  81
ENDBRANCH  50  74
BRANCH  62  85
ATOM     85  C   UNL A   1      45.045  33.323  29.664  1.00  0.00     0.023 A 
ATOM     86  C   UNL A   1      45.761  33.548  30.851  1.00  0.00     0.031 A 
ATOM     87  C   UNL A   1      44.960  34.371  28.729  1.00  0.00     0.131 A 
ATOM     88  C   UNL A   1      46.346  34.801  31.084  1.00  0.00     0.055 A 
ATOM     89  C   UNL A   1      45.588  35.599  28.944  1.00  0.00     0.041 A 
ATOM     90  F   UNL A   1      44.293  34.206  27.576  1.00  0.00    -0.206 F 
ATOM     91  C   UNL A   1      46.281  35.820  30.129  1.00  0.00     0.022 A 
BRANCH  88  92
ATOM     92  S   UNL A   1      47.174  35.098  32.669  1.00  0.00     0.124 S 
ATOM     93  O   UNL A   1      46.077  35.588  33.497  1.00  0.00    -0.237 OA
ATOM     94  O   UNL A   1      47.688  33.774  33.011  1.00  0.00    -0.237 OA
ATOM     95  O   UNL A   1      48.197  36.091  32.344  1.00  0.00    -0.744 OA
ENDBRANCH  88  92
ENDBRANCH  62  85
ENDBRANCH  36  37
ENDBRANCH  29  31
ENDBRANCH  28  29
ENDBRANCH  27  28
ENDBRANCH  26  27
ENDBRANCH  25  26
ENDBRANCH  24  25
ENDBRANCH  23  24
ENDBRANCH  22  23
ENDBRANCH   1  22
TORSDOF 28
ENDMDL
MODEL 3
REMARK VINA RESULT:      -9.3      1.956      2.361
REMARK SMILES COCCCOc1cccc(F)c1C(=O)OCCOCCOCCOCCOC(=O)c1ccc(-c2c3nc(c(-c4cc(S(=O)(=O)[O-])ccc4F)c4ccc([nH]4)c(-c4cc(S(=O)(=O)[O-])ccc4F)c4nc(c(-c5cc(S(=O)(=O)[O-])ccc5F)c5ccc2[nH]5)C=C4)C=C3)cc1
REMARK SMILES IDX 21 1 20 2 19 3 18 4 17 5 16 6 14 7 15 8 13 9 7 10 8 11 9 12
REMARK SMILES IDX 11 13 10 14 12 15 6 16 5 17 4 18 3 19 2 20 1 21 22 22 23 23
REMARK SMILES IDX 24 24 25 25 26 26 27 27 28 28 29 29 30 30 31 31 32 32 93 33
REMARK SMILES IDX 33 34 92 35 34 36 35 37 36 38 86 39 37 40 91 41 85 42 87 43
REMARK SMILES IDX 38 44 90 45 84 46 83 47 39 49 71 50 51 51 70 52 52 53 55 54
REMARK SMILES IDX 69 55 88 56 53 57 54 58 68 60 89 61 56 62 40 63 41 64 49 65
REMARK SMILES IDX 42 66 48 67 50 68 47 69 43 70 44 71 45 72 46 73 72 74 73 75
REMARK SMILES IDX 81 76 74 77 80 78 82 79 79 80 75 81 76 82 77 83 78 84 57 85
REMARK SMILES IDX 58 86 66 87 59 88 65 89 67 90 64 91 60 92 61 93 62 94 63 95
REMARK H PARENT 87 48 55 59
REMARK Flexibility Score: inf
ROOT
ATOM      1  C   UNL A   1      33.143  22.220  27.695  1.00  0.00     0.188 C 
ENDROOT
BRANCH   1   2
ATOM      2  C   UNL A   1      32.265  22.987  26.680  1.00  0.00     0.188 C 
BRANCH   2   3
ATOM      3  O   UNL A   1      31.182  23.683  27.271  1.00  0.00    -0.376 OA
BRANCH   3   4
ATOM      4  C   UNL A   1      30.287  24.386  26.432  1.00  0.00     0.202 C 
BRANCH   4   5
ATOM      5  C   UNL A   1      30.550  25.863  26.101  1.00  0.00     0.261 C 
BRANCH   5   6
ATOM      6  O   UNL A   1      29.991  26.340  24.871  1.00  0.00    -0.459 OA
BRANCH   6   7
ATOM      7  C   UNL A   1      30.418  25.811  23.702  1.00  0.00     0.345 C 
ATOM      8  O   UNL A   1      29.919  24.894  23.077  1.00  0.00    -0.246 OA
BRANCH   7   9
ATOM      9  C   UNL A   1      31.541  26.652  23.245  1.00  0.00     0.137 A 
ATOM     10  C   UNL A   1      31.380  27.998  22.876  1.00  0.00     0.136 A 
ATOM     11  C   UNL A   1      32.511  28.803  22.685  1.00  0.00     0.047 A 
ATOM     12  C   UNL A   1      33.793  28.263  22.772  1.00  0.00     0.007 A 
ATOM     13  C   UNL A   1      32.831  26.126  23.338  1.00  0.00     0.141 A 
ATOM     14  C   UNL A   1      33.952  26.919  23.094  1.00  0.00     0.040 A 
ATOM     15  F   UNL A   1      33.024  24.846  23.687  1.00  0.00    -0.206 F 
BRANCH  10  16
ATOM     16  O   UNL A   1      30.191  28.671  22.911  1.00  0.00    -0.492 OA
BRANCH  16  17
ATOM     17  C   UNL A   1      30.107  29.715  23.888  1.00  0.00     0.232 C 
BRANCH  17  18
ATOM     18  C   UNL A   1      29.090  30.810  23.557  1.00  0.00     0.070 C 
BRANCH  18  19
ATOM     19  C   UNL A   1      27.763  30.359  22.945  1.00  0.00     0.163 C 
BRANCH  19  20
ATOM     20  O   UNL A   1      27.423  31.057  21.751  1.00  0.00    -0.385 OA
ATOM     21  C   UNL A   1      28.529  31.360  20.908  1.00  0.00     0.194 C 
ENDBRANCH  19  20
ENDBRANCH  18  19
ENDBRANCH  17  18
ENDBRANCH  16  17
ENDBRANCH  10  16
ENDBRANCH   7   9
ENDBRANCH   6   7
ENDBRANCH   5   6
ENDBRANCH   4   5
ENDBRANCH   3   4
ENDBRANCH   2   3
ENDBRANCH   1   2
BRANCH   1  22
ATOM     22  O   UNL A   1      34.364  21.630  27.277  1.00  0.00    -0.377 OA
BRANCH  22  23
ATOM     23  C   UNL A   1      35.279  22.385  26.494  1.00  0.00     0.188 C 
BRANCH  23  24
ATOM     24  C   UNL A   1      35.187  22.376  24.950  1.00  0.00     0.188 C 
BRANCH  24  25
ATOM     25  O   UNL A   1      35.388  21.107  24.346  1.00  0.00    -0.376 OA
BRANCH  25  26
ATOM     26  C   UNL A   1      36.126  20.143  25.075  1.00  0.00     0.202 C 
BRANCH  26  27
ATOM     27  C   UNL A   1      37.646  20.112  24.858  1.00  0.00     0.261 C 
BRANCH  27  28
ATOM     28  O   UNL A   1      38.370  21.275  25.284  1.00  0.00    -0.460 OA
BRANCH  28  29
ATOM     29  C   UNL A   1      39.407  21.082  26.128  1.00  0.00     0.338 C 
ATOM     30  O   UNL A   1      40.012  20.041  26.321  1.00  0.00    -0.246 OA
BRANCH  29  31
ATOM     31  C   UNL A   1      39.804  22.406  26.647  1.00  0.00     0.060 A 
ATOM     32  C   UNL A   1      39.117  23.549  26.215  1.00  0.00     0.016 A 
ATOM     33  C   UNL A   1      40.838  22.508  27.581  1.00  0.00     0.016 A 
ATOM     34  C   UNL A   1      39.482  24.805  26.701  1.00  0.00     0.010 A 
ATOM     35  C   UNL A   1      41.219  23.769  28.044  1.00  0.00     0.010 A 
ATOM     36  C   UNL A   1      40.563  24.924  27.584  1.00  0.00    -0.014 A 
BRANCH  36  37
ATOM     37  C   UNL A   1      41.142  26.259  27.866  1.00  0.00     0.031 A 
ATOM     38  C   UNL A   1      42.546  26.531  27.402  1.00  0.00     0.074 A 
ATOM     39  C   UNL A   1      40.436  27.214  28.497  1.00  0.00     0.049 A 
ATOM     40  N   UNL A   1      43.296  27.582  27.599  1.00  0.00    -0.248 NA
ATOM     41  C   UNL A   1      43.190  25.471  26.607  1.00  0.00     0.031 C 
ATOM     42  C   UNL A   1      39.046  27.090  28.933  1.00  0.00     0.029 A 
ATOM     43  N   UNL A   1      40.797  28.482  28.880  1.00  0.00    -0.354 N 
ATOM     44  C   UNL A   1      44.500  27.311  26.958  1.00  0.00     0.074 A 
ATOM     45  C   UNL A   1      44.392  25.984  26.392  1.00  0.00     0.031 C 
ATOM     46  C   UNL A   1      38.674  28.238  29.527  1.00  0.00     0.029 A 
ATOM     47  C   UNL A   1      39.808  29.160  29.553  1.00  0.00     0.049 A 
ATOM     48  H   UNL A   1      41.682  28.869  28.690  1.00  0.00     0.167 HD
ATOM     49  C   UNL A   1      45.592  28.102  26.846  1.00  0.00     0.034 A 
ATOM     50  C   UNL A   1      39.828  30.372  30.145  1.00  0.00     0.034 A 
ATOM     51  C   UNL A   1      45.689  29.420  27.417  1.00  0.00     0.049 A 
ATOM     52  C   UNL A   1      41.093  31.193  30.099  1.00  0.00     0.074 A 
ATOM     53  C   UNL A   1      46.751  30.303  27.358  1.00  0.00     0.029 A 
ATOM     54  N   UNL A   1      44.691  30.042  28.154  1.00  0.00    -0.354 N 
ATOM     55  N   UNL A   1      42.239  30.911  29.524  1.00  0.00    -0.248 NA
ATOM     56  C   UNL A   1      41.072  32.494  30.787  1.00  0.00     0.031 C 
ATOM     57  C   UNL A   1      46.425  31.428  28.120  1.00  0.00     0.029 A 
ATOM     58  C   UNL A   1      45.127  31.284  28.584  1.00  0.00     0.049 A 
ATOM     59  H   UNL A   1      43.804  29.658  28.343  1.00  0.00     0.167 HD
ATOM     60  C   UNL A   1      43.064  32.010  29.756  1.00  0.00     0.074 A 
ATOM     61  C   UNL A   1      42.285  32.959  30.525  1.00  0.00     0.031 C 
ATOM     62  C   UNL A   1      44.345  32.217  29.360  1.00  0.00     0.034 A 
BRANCH  49  63
ATOM     63  C   UNL A   1      46.786  27.548  26.116  1.00  0.00     0.023 A 
ATOM     64  C   UNL A   1      47.063  27.895  24.783  1.00  0.00     0.031 A 
ATOM     65  C   UNL A   1      47.676  26.683  26.776  1.00  0.00     0.131 A 
ATOM     66  C   UNL A   1      48.188  27.355  24.142  1.00  0.00     0.055 A 
ATOM     67  C   UNL A   1      48.826  26.197  26.153  1.00  0.00     0.041 A 
ATOM     68  F   UNL A   1      47.444  26.301  28.042  1.00  0.00    -0.206 F 
ATOM     69  C   UNL A   1      49.084  26.529  24.826  1.00  0.00     0.022 A 
BRANCH  66  70
ATOM     70  S   UNL A   1      48.429  27.688  22.377  1.00  0.00     0.124 S 
ATOM     71  O   UNL A   1      47.217  28.435  22.050  1.00  0.00    -0.237 OA
ATOM     72  O   UNL A   1      49.672  28.451  22.365  1.00  0.00    -0.237 OA
ATOM     73  O   UNL A   1      48.511  26.356  21.784  1.00  0.00    -0.744 OA
ENDBRANCH  66  70
ENDBRANCH  49  63
BRANCH  50  74
ATOM     74  C   UNL A   1      38.622  30.868  30.867  1.00  0.00     0.023 A 
ATOM     75  C   UNL A   1      37.583  31.517  30.182  1.00  0.00     0.031 A 
ATOM     76  C   UNL A   1      38.498  30.704  32.258  1.00  0.00     0.131 A 
ATOM     77  C   UNL A   1      36.470  31.993  30.893  1.00  0.00     0.055 A 
ATOM     78  C   UNL A   1      37.371  31.144  32.955  1.00  0.00     0.041 A 
ATOM     79  F   UNL A   1      39.465  30.092  32.959  1.00  0.00    -0.206 F 
ATOM     80  C   UNL A   1      36.349  31.797  32.272  1.00  0.00     0.022 A 
BRANCH  77  81
ATOM     81  S   UNL A   1      35.182  32.901  29.993  1.00  0.00     0.124 S 
ATOM     82  O   UNL A   1      34.264  33.257  31.070  1.00  0.00    -0.237 OA
ATOM     83  O   UNL A   1      35.938  33.999  29.404  1.00  0.00    -0.237 OA
ATOM     84  O   UNL A   1      34.675  31.916  29.040  1.00  0.00    -0.744 OA
ENDBRANCH  77  81
ENDBRANCH  50  74
BRANCH  62  85
ATOM     85  C   UNL A   1      44.988  33.533  29.713  1.00  0.00     0.023 A 
ATOM     86  C   UNL A   1      45.749  33.694  30.882  1.00  0.00     0.031 A 
ATOM     87  C   UNL A   1      44.892  34.622  28.826  1.00  0.00     0.131 A 
ATOM     88  C   UNL A   1      46.367  34.925  31.146  1.00  0.00     0.055 A 
ATOM     89  C   UNL A   1      45.551  35.827  29.070  1.00  0.00     0.041 A 
ATOM     90  F   UNL A   1      44.181  34.518  27.691  1.00  0.00    -0.206 F 
ATOM     91  C   UNL A   1      46.290  35.985  30.238  1.00  0.00     0.022 A 
BRANCH  88  92
ATOM     92  S   UNL A   1      47.256  35.139  32.712  1.00  0.00     0.124 S 
ATOM     93  O   UNL A   1      46.305  35.922  33.495  1.00  0.00    -0.237 OA
ATOM     94  O   UNL A   1      47.460  33.762  33.150  1.00  0.00    -0.237 OA
ATOM     95  O   UNL A   1      48.473  35.850  32.323  1.00  0.00    -0.744 OA
ENDBRANCH  88  92
ENDBRANCH  62  85
ENDBRANCH  36  37
ENDBRANCH  29  31
ENDBRANCH  28  29
ENDBRANCH  27  28
ENDBRANCH  26  27
ENDBRANCH  25  26
ENDBRANCH  24  25
ENDBRANCH  23  24
ENDBRANCH  22  23
ENDBRANCH   1  22
TORSDOF 28
ENDMDL
