MODEL 1
REMARK VINA RESULT:     -11.1      0.000      0.000
REMARK SMILES O=C(OCCOCCOCCOCCOC(=O)[C@H]1CC2=c3ccccc3=N[C@H]2[C@@H](c2ccccc2)[NH2+]1)c1ccc(-c2c3nc(c(-c4cc(S(=O)(=O)[O-])ccc4F)c4ccc([nH]4)c(-c4cc(S(=O)(=O)[O-])ccc4F)c4nc(c(-c5cc(S(=O)(=O)[O-])ccc5F)c5ccc2[nH]5)C=C4)C=C3)cc1
REMARK SMILES IDX 8 1 7 2 6 3 5 4 4 5 3 6 2 7 1 8 37 9 38 10 99 11 39 12 98 13
REMARK SMILES IDX 40 14 41 15 42 16 92 17 43 18 97 19 91 20 93 21 44 22 96 23
REMARK SMILES IDX 90 24 89 25 45 27 77 28 57 29 76 30 58 31 61 32 75 33 94 34
REMARK SMILES IDX 59 35 60 36 74 38 95 39 62 40 46 41 47 42 55 43 48 44 54 45
REMARK SMILES IDX 56 46 53 47 49 48 50 49 51 50 52 51 78 52 79 53 87 54 80 55
REMARK SMILES IDX 86 56 88 57 85 58 81 59 82 60 83 61 84 62 63 63 64 64 72 65
REMARK SMILES IDX 65 66 71 67 73 68 70 69 66 70 67 71 68 72 69 73 9 74 10 75
REMARK SMILES IDX 11 76 12 77 13 78 14 79 15 80 16 81 17 82 18 83 19 84 36 85
REMARK SMILES IDX 20 86 29 87 21 90 28 91 22 92 26 93 27 94 23 95 25 96 24 97
REMARK SMILES IDX 30 98 31 99 35 100 32 101 34 102 33 103
REMARK H PARENT 93 26 61 37 36 88 36 89
REMARK Flexibility Score: inf
ROOT
ATOM      1  C   UNL A   1      36.956  23.701  26.166  1.00  0.00     0.188 C 
ENDROOT
BRANCH   1   2
ATOM      2  C   UNL A   1      37.672  22.800  25.185  1.00  0.00     0.188 C 
BRANCH   2   3
ATOM      3  O   UNL A   1      38.409  21.728  25.755  1.00  0.00    -0.376 OA
BRANCH   3   4
ATOM      4  C   UNL A   1      38.440  20.419  25.210  1.00  0.00     0.202 C 
BRANCH   4   5
ATOM      5  C   UNL A   1      39.386  19.346  25.752  1.00  0.00     0.261 C 
BRANCH   5   6
ATOM      6  O   UNL A   1      40.775  19.443  25.412  1.00  0.00    -0.460 OA
BRANCH   6   7
ATOM      7  C   UNL A   1      41.738  19.635  26.356  1.00  0.00     0.338 C 
ATOM      8  O   UNL A   1      42.091  18.741  27.113  1.00  0.00    -0.246 OA
BRANCH   7   9
ATOM      9  C   UNL A   1      41.967  21.061  26.677  1.00  0.00     0.060 A 
ATOM     10  C   UNL A   1      42.202  21.408  28.017  1.00  0.00     0.016 A 
ATOM     11  C   UNL A   1      41.797  22.050  25.713  1.00  0.00     0.016 A 
ATOM     12  C   UNL A   1      42.174  22.751  28.405  1.00  0.00     0.010 A 
ATOM     13  C   UNL A   1      41.659  23.376  26.114  1.00  0.00     0.010 A 
ATOM     14  C   UNL A   1      41.886  23.742  27.456  1.00  0.00    -0.014 A 
BRANCH  14  15
ATOM     15  C   UNL A   1      42.251  25.154  27.714  1.00  0.00     0.031 A 
ATOM     16  C   UNL A   1      41.321  26.193  28.252  1.00  0.00     0.074 A 
ATOM     17  C   UNL A   1      43.497  25.472  27.314  1.00  0.00     0.049 A 
ATOM     18  N   UNL A   1      41.601  27.434  28.563  1.00  0.00    -0.248 NA
ATOM     19  C   UNL A   1      39.919  25.819  28.475  1.00  0.00     0.031 C 
ATOM     20  C   UNL A   1      44.445  24.515  26.729  1.00  0.00     0.029 A 
ATOM     21  N   UNL A   1      44.155  26.665  27.260  1.00  0.00    -0.354 N 
ATOM     22  C   UNL A   1      40.429  27.983  29.071  1.00  0.00     0.074 A 
ATOM     23  C   UNL A   1      39.414  26.952  28.961  1.00  0.00     0.031 C 
ATOM     24  C   UNL A   1      45.512  25.173  26.277  1.00  0.00     0.029 A 
ATOM     25  C   UNL A   1      45.359  26.582  26.607  1.00  0.00     0.049 A 
ATOM     26  H   UNL A   1      43.804  27.498  27.651  1.00  0.00     0.167 HD
ATOM     27  C   UNL A   1      40.253  29.224  29.597  1.00  0.00     0.034 A 
ATOM     28  C   UNL A   1      46.270  27.526  26.319  1.00  0.00     0.034 A 
ATOM     29  C   UNL A   1      41.298  30.230  29.618  1.00  0.00     0.049 A 
ATOM     30  C   UNL A   1      46.069  28.877  26.924  1.00  0.00     0.074 A 
ATOM     31  C   UNL A   1      41.274  31.485  30.203  1.00  0.00     0.029 A 
ATOM     32  N   UNL A   1      42.543  30.110  29.006  1.00  0.00    -0.354 N 
ATOM     33  N   UNL A   1      45.024  29.330  27.578  1.00  0.00    -0.248 NA
ATOM     34  C   UNL A   1      47.186  29.816  26.827  1.00  0.00     0.031 C 
ATOM     35  C   UNL A   1      42.461  32.149  29.878  1.00  0.00     0.029 A 
ATOM     36  C   UNL A   1      43.271  31.283  29.160  1.00  0.00     0.049 A 
ATOM     37  H   UNL A   1      42.862  29.309  28.532  1.00  0.00     0.167 HD
ATOM     38  C   UNL A   1      45.360  30.614  27.982  1.00  0.00     0.074 A 
ATOM     39  C   UNL A   1      46.724  30.838  27.535  1.00  0.00     0.031 C 
ATOM     40  C   UNL A   1      44.608  31.521  28.655  1.00  0.00     0.034 A 
BRANCH  27  41
ATOM     41  C   UNL A   1      38.926  29.575  30.244  1.00  0.00     0.023 A 
ATOM     42  C   UNL A   1      38.124  30.617  29.733  1.00  0.00     0.031 A 
ATOM     43  C   UNL A   1      38.548  29.004  31.475  1.00  0.00     0.131 A 
ATOM     44  C   UNL A   1      37.016  31.076  30.465  1.00  0.00     0.055 A 
ATOM     45  C   UNL A   1      37.421  29.436  32.178  1.00  0.00     0.041 A 
ATOM     46  F   UNL A   1      39.285  28.026  32.028  1.00  0.00    -0.206 F 
ATOM     47  C   UNL A   1      36.657  30.485  31.680  1.00  0.00     0.022 A 
BRANCH  44  48
ATOM     48  S   UNL A   1      36.048  32.514  29.920  1.00  0.00     0.124 S 
ATOM     49  O   UNL A   1      34.727  32.214  30.469  1.00  0.00    -0.237 OA
ATOM     50  O   UNL A   1      36.752  33.619  30.567  1.00  0.00    -0.237 OA
ATOM     51  O   UNL A   1      36.142  32.471  28.466  1.00  0.00    -0.744 OA
ENDBRANCH  44  48
ENDBRANCH  27  41
BRANCH  28  52
ATOM     52  C   UNL A   1      47.489  27.097  25.586  1.00  0.00     0.023 A 
ATOM     53  C   UNL A   1      48.605  26.609  26.294  1.00  0.00     0.031 A 
ATOM     54  C   UNL A   1      47.648  27.430  24.232  1.00  0.00     0.131 A 
ATOM     55  C   UNL A   1      49.854  26.555  25.662  1.00  0.00     0.055 A 
ATOM     56  C   UNL A   1      48.879  27.307  23.589  1.00  0.00     0.041 A 
ATOM     57  F   UNL A   1      46.622  27.948  23.539  1.00  0.00    -0.206 F 
ATOM     58  C   UNL A   1      49.993  26.888  24.310  1.00  0.00     0.022 A 
BRANCH  55  59
ATOM     59  S   UNL A   1      51.367  26.244  26.617  1.00  0.00     0.124 S 
ATOM     60  O   UNL A   1      51.220  27.173  27.731  1.00  0.00    -0.237 OA
ATOM     61  O   UNL A   1      51.225  24.829  26.950  1.00  0.00    -0.237 OA
ATOM     62  O   UNL A   1      52.440  26.551  25.676  1.00  0.00    -0.744 OA
ENDBRANCH  55  59
ENDBRANCH  28  52
BRANCH  40  63
ATOM     63  C   UNL A   1      45.217  32.884  28.880  1.00  0.00     0.023 A 
ATOM     64  C   UNL A   1      45.217  33.851  27.860  1.00  0.00     0.031 A 
ATOM     65  C   UNL A   1      45.864  33.196  30.091  1.00  0.00     0.131 A 
ATOM     66  C   UNL A   1      45.864  35.076  28.062  1.00  0.00     0.055 A 
ATOM     67  C   UNL A   1      46.461  34.437  30.308  1.00  0.00     0.041 A 
ATOM     68  F   UNL A   1      45.899  32.304  31.095  1.00  0.00    -0.206 F 
ATOM     69  C   UNL A   1      46.472  35.380  29.286  1.00  0.00     0.022 A 
BRANCH  66  70
ATOM     70  S   UNL A   1      46.006  36.297  26.729  1.00  0.00     0.124 S 
ATOM     71  O   UNL A   1      46.382  35.459  25.593  1.00  0.00    -0.237 OA
ATOM     72  O   UNL A   1      44.657  36.852  26.675  1.00  0.00    -0.237 OA
ATOM     73  O   UNL A   1      47.042  37.211  27.197  1.00  0.00    -0.744 OA
ENDBRANCH  66  70
ENDBRANCH  40  63
ENDBRANCH  14  15
ENDBRANCH   7   9
ENDBRANCH   6   7
ENDBRANCH   5   6
ENDBRANCH   4   5
ENDBRANCH   3   4
ENDBRANCH   2   3
ENDBRANCH   1   2
BRANCH   1  74
ATOM     74  O   UNL A   1      35.548  23.741  25.990  1.00  0.00    -0.377 OA
BRANCH  74  75
ATOM     75  C   UNL A   1      34.818  22.628  26.481  1.00  0.00     0.188 C 
BRANCH  75  76
ATOM     76  C   UNL A   1      34.225  21.626  25.494  1.00  0.00     0.188 C 
BRANCH  76  77
ATOM     77  O   UNL A   1      34.215  21.900  24.100  1.00  0.00    -0.376 OA
BRANCH  77  78
ATOM     78  C   UNL A   1      32.993  21.967  23.387  1.00  0.00     0.202 C 
BRANCH  78  79
ATOM     79  C   UNL A   1      32.922  23.126  22.374  1.00  0.00     0.261 C 
BRANCH  79  80
ATOM     80  O   UNL A   1      33.973  24.121  22.439  1.00  0.00    -0.459 OA
BRANCH  80  81
ATOM     81  C   UNL A   1      33.565  25.425  22.404  1.00  0.00     0.365 C 
ATOM     82  O   UNL A   1      34.028  26.277  21.654  1.00  0.00    -0.245 OA
BRANCH  81  83
ATOM     83  C   UNL A   1      32.457  25.752  23.438  1.00  0.00     0.298 C 
ATOM     84  C   UNL A   1      32.816  25.801  24.957  1.00  0.00     0.111 C 
ATOM     85  N   UNL A   1      31.774  26.977  22.969  1.00  0.00    -0.326 N 
ATOM     86  C   UNL A   1      32.341  27.060  25.604  1.00  0.00    -0.024 C 
ATOM     87  C   UNL A   1      30.591  27.261  23.816  1.00  0.00     0.243 C 
ATOM     88  H   UNL A   1      31.473  26.846  22.003  1.00  0.00     0.347 HD
ATOM     89  H   UNL A   1      32.423  27.762  23.029  1.00  0.00     0.347 HD
ATOM     90  C   UNL A   1      33.057  27.998  26.215  1.00  0.00     0.002 A 
ATOM     91  C   UNL A   1      30.940  27.519  25.320  1.00  0.00     0.196 C 
ATOM     92  C   UNL A   1      34.416  28.132  26.626  1.00  0.00     0.010 A 
ATOM     93  C   UNL A   1      32.121  29.132  26.230  1.00  0.00     0.066 A 
ATOM     94  N   UNL A   1      30.937  28.951  25.734  1.00  0.00    -0.270 NA
ATOM     95  C   UNL A   1      34.835  29.323  27.083  1.00  0.00     0.001 A 
ATOM     96  C   UNL A   1      32.651  30.407  26.759  1.00  0.00     0.028 A 
ATOM     97  C   UNL A   1      33.937  30.465  27.149  1.00  0.00     0.002 A 
BRANCH  87  98
ATOM     98  C   UNL A   1      29.720  28.313  23.166  1.00  0.00     0.012 A 
ATOM     99  C   UNL A   1      30.270  29.340  22.382  1.00  0.00     0.010 A 
ATOM    100  C   UNL A   1      28.329  28.251  23.323  1.00  0.00     0.010 A 
ATOM    101  C   UNL A   1      29.449  30.261  21.742  1.00  0.00     0.001 A 
ATOM    102  C   UNL A   1      27.508  29.180  22.687  1.00  0.00     0.001 A 
ATOM    103  C   UNL A   1      28.068  30.179  21.892  1.00  0.00     0.000 A 
ENDBRANCH  87  98
ENDBRANCH  81  83
ENDBRANCH  80  81
ENDBRANCH  79  80
ENDBRANCH  78  79
ENDBRANCH  77  78
ENDBRANCH  76  77
ENDBRANCH  75  76
ENDBRANCH  74  75
ENDBRANCH   1  74
TORSDOF 24
ENDMDL
MODEL 2
REMARK VINA RESULT:     -10.6      1.469      2.953
REMARK SMILES O=C(OCCOCCOCCOCCOC(=O)[C@H]1CC2=c3ccccc3=N[C@H]2[C@@H](c2ccccc2)[NH2+]1)c1ccc(-c2c3nc(c(-c4cc(S(=O)(=O)[O-])ccc4F)c4ccc([nH]4)c(-c4cc(S(=O)(=O)[O-])ccc4F)c4nc(c(-c5cc(S(=O)(=O)[O-])ccc5F)c5ccc2[nH]5)C=C4)C=C3)cc1
REMARK SMILES IDX 8 1 7 2 6 3 5 4 4 5 3 6 2 7 1 8 37 9 38 10 99 11 39 12 98 13
REMARK SMILES IDX 40 14 41 15 42 16 92 17 43 18 97 19 91 20 93 21 44 22 96 23
REMARK SMILES IDX 90 24 89 25 45 27 77 28 57 29 76 30 58 31 61 32 75 33 94 34
REMARK SMILES IDX 59 35 60 36 74 38 95 39 62 40 46 41 47 42 55 43 48 44 54 45
REMARK SMILES IDX 56 46 53 47 49 48 50 49 51 50 52 51 78 52 79 53 87 54 80 55
REMARK SMILES IDX 86 56 88 57 85 58 81 59 82 60 83 61 84 62 63 63 64 64 72 65
REMARK SMILES IDX 65 66 71 67 73 68 70 69 66 70 67 71 68 72 69 73 9 74 10 75
REMARK SMILES IDX 11 76 12 77 13 78 14 79 15 80 16 81 17 82 18 83 19 84 36 85
REMARK SMILES IDX 20 86 29 87 21 90 28 91 22 92 26 93 27 94 23 95 25 96 24 97
REMARK SMILES IDX 30 98 31 99 35 100 32 101 34 102 33 103
REMARK H PARENT 93 26 61 37 36 88 36 89
REMARK Flexibility Score: inf
ROOT
ATOM      1  C   UNL A   1      36.465  23.255  24.807  1.00  0.00     0.188 C 
ENDROOT
BRANCH   1   2
ATOM      2  C   UNL A   1      37.044  21.964  24.273  1.00  0.00     0.188 C 
BRANCH   2   3
ATOM      3  O   UNL A   1      36.765  20.799  25.036  1.00  0.00    -0.376 OA
BRANCH   3   4
ATOM      4  C   UNL A   1      37.470  19.578  24.890  1.00  0.00     0.202 C 
BRANCH   4   5
ATOM      5  C   UNL A   1      38.836  19.357  25.541  1.00  0.00     0.261 C 
BRANCH   5   6
ATOM      6  O   UNL A   1      39.673  20.502  25.750  1.00  0.00    -0.460 OA
BRANCH   6   7
ATOM      7  C   UNL A   1      40.530  20.587  26.806  1.00  0.00     0.338 C 
ATOM      8  O   UNL A   1      40.662  19.672  27.608  1.00  0.00    -0.246 OA
BRANCH   7   9
ATOM      9  C   UNL A   1      40.910  21.976  27.141  1.00  0.00     0.060 A 
ATOM     10  C   UNL A   1      41.810  22.179  28.200  1.00  0.00     0.016 A 
ATOM     11  C   UNL A   1      40.277  23.059  26.539  1.00  0.00     0.016 A 
ATOM     12  C   UNL A   1      42.004  23.464  28.714  1.00  0.00     0.010 A 
ATOM     13  C   UNL A   1      40.383  24.321  27.120  1.00  0.00     0.010 A 
ATOM     14  C   UNL A   1      41.278  24.541  28.185  1.00  0.00    -0.014 A 
BRANCH  14  15
ATOM     15  C   UNL A   1      41.741  25.931  28.396  1.00  0.00     0.031 A 
ATOM     16  C   UNL A   1      40.904  27.036  28.958  1.00  0.00     0.074 A 
ATOM     17  C   UNL A   1      42.983  26.164  27.931  1.00  0.00     0.049 A 
ATOM     18  N   UNL A   1      41.275  28.262  29.229  1.00  0.00    -0.248 NA
ATOM     19  C   UNL A   1      39.494  26.754  29.255  1.00  0.00     0.031 C 
ATOM     20  C   UNL A   1      43.840  25.139  27.321  1.00  0.00     0.029 A 
ATOM     21  N   UNL A   1      43.710  27.312  27.822  1.00  0.00    -0.354 N 
ATOM     22  C   UNL A   1      40.166  28.893  29.781  1.00  0.00     0.074 A 
ATOM     23  C   UNL A   1      39.085  27.925  29.741  1.00  0.00     0.031 C 
ATOM     24  C   UNL A   1      44.923  25.721  26.805  1.00  0.00     0.029 A 
ATOM     25  C   UNL A   1      44.873  27.143  27.113  1.00  0.00     0.049 A 
ATOM     26  H   UNL A   1      43.431  28.172  28.211  1.00  0.00     0.167 HD
ATOM     27  C   UNL A   1      40.092  30.151  30.288  1.00  0.00     0.034 A 
ATOM     28  C   UNL A   1      45.826  28.023  26.762  1.00  0.00     0.034 A 
ATOM     29  C   UNL A   1      41.198  31.090  30.239  1.00  0.00     0.049 A 
ATOM     30  C   UNL A   1      45.738  29.394  27.348  1.00  0.00     0.074 A 
ATOM     31  C   UNL A   1      41.280  32.354  30.799  1.00  0.00     0.029 A 
ATOM     32  N   UNL A   1      42.401  30.882  29.571  1.00  0.00    -0.354 N 
ATOM     33  N   UNL A   1      44.757  29.923  28.042  1.00  0.00    -0.248 NA
ATOM     34  C   UNL A   1      46.904  30.260  27.179  1.00  0.00     0.031 C 
ATOM     35  C   UNL A   1      42.488  32.936  30.404  1.00  0.00     0.029 A 
ATOM     36  C   UNL A   1      43.207  32.010  29.665  1.00  0.00     0.049 A 
ATOM     37  H   UNL A   1      42.646  30.053  29.099  1.00  0.00     0.167 HD
ATOM     38  C   UNL A   1      45.190  31.190  28.403  1.00  0.00     0.074 A 
ATOM     39  C   UNL A   1      46.542  31.321  27.887  1.00  0.00     0.031 C 
ATOM     40  C   UNL A   1      44.529  32.154  29.093  1.00  0.00     0.034 A 
BRANCH  27  41
ATOM     41  C   UNL A   1      38.823  30.596  30.991  1.00  0.00     0.023 A 
ATOM     42  C   UNL A   1      37.880  31.414  30.335  1.00  0.00     0.031 A 
ATOM     43  C   UNL A   1      38.640  30.365  32.369  1.00  0.00     0.131 A 
ATOM     44  C   UNL A   1      36.828  31.997  31.060  1.00  0.00     0.055 A 
ATOM     45  C   UNL A   1      37.568  30.913  33.076  1.00  0.00     0.041 A 
ATOM     46  F   UNL A   1      39.517  29.616  33.057  1.00  0.00    -0.206 F 
ATOM     47  C   UNL A   1      36.663  31.744  32.425  1.00  0.00     0.022 A 
BRANCH  44  48
ATOM     48  S   UNL A   1      35.682  33.178  30.289  1.00  0.00     0.124 S 
ATOM     49  O   UNL A   1      36.238  33.304  28.944  1.00  0.00    -0.237 OA
ATOM     50  O   UNL A   1      34.409  32.466  30.371  1.00  0.00    -0.237 OA
ATOM     51  O   UNL A   1      35.792  34.370  31.122  1.00  0.00    -0.744 OA
ENDBRANCH  44  48
ENDBRANCH  27  41
BRANCH  28  52
ATOM     52  C   UNL A   1      46.978  27.505  25.981  1.00  0.00     0.023 A 
ATOM     53  C   UNL A   1      48.156  27.101  26.641  1.00  0.00     0.031 A 
ATOM     54  C   UNL A   1      47.016  27.675  24.588  1.00  0.00     0.131 A 
ATOM     55  C   UNL A   1      49.344  26.968  25.912  1.00  0.00     0.055 A 
ATOM     56  C   UNL A   1      48.186  27.472  23.858  1.00  0.00     0.041 A 
ATOM     57  F   UNL A   1      45.929  28.110  23.932  1.00  0.00    -0.206 F 
ATOM     58  C   UNL A   1      49.362  27.138  24.523  1.00  0.00     0.022 A 
BRANCH  55  59
ATOM     59  S   UNL A   1      50.938  26.767  26.760  1.00  0.00     0.124 S 
ATOM     60  O   UNL A   1      51.440  25.529  26.176  1.00  0.00    -0.237 OA
ATOM     61  O   UNL A   1      51.643  27.985  26.364  1.00  0.00    -0.237 OA
ATOM     62  O   UNL A   1      50.574  26.698  28.171  1.00  0.00    -0.744 OA
ENDBRANCH  55  59
ENDBRANCH  28  52
BRANCH  40  63
ATOM     63  C   UNL A   1      45.232  33.480  29.260  1.00  0.00     0.023 A 
ATOM     64  C   UNL A   1      45.150  34.470  28.264  1.00  0.00     0.031 A 
ATOM     65  C   UNL A   1      46.044  33.732  30.383  1.00  0.00     0.131 A 
ATOM     66  C   UNL A   1      45.881  35.657  28.403  1.00  0.00     0.055 A 
ATOM     67  C   UNL A   1      46.726  34.937  30.541  1.00  0.00     0.041 A 
ATOM     68  F   UNL A   1      46.161  32.816  31.358  1.00  0.00    -0.206 F 
ATOM     69  C   UNL A   1      46.655  35.902  29.543  1.00  0.00     0.022 A 
BRANCH  66  70
ATOM     70  S   UNL A   1      45.914  36.899  27.083  1.00  0.00     0.124 S 
ATOM     71  O   UNL A   1      46.877  37.867  27.605  1.00  0.00    -0.237 OA
ATOM     72  O   UNL A   1      46.374  36.120  25.937  1.00  0.00    -0.237 OA
ATOM     73  O   UNL A   1      44.536  37.371  27.009  1.00  0.00    -0.744 OA
ENDBRANCH  66  70
ENDBRANCH  40  63
ENDBRANCH  14  15
ENDBRANCH   7   9
ENDBRANCH   6   7
ENDBRANCH   5   6
ENDBRANCH   4   5
ENDBRANCH   3   4
ENDBRANCH   2   3
ENDBRANCH   1   2
BRANCH   1  74
ATOM     74  O   UNL A   1      36.032  23.177  26.157  1.00  0.00    -0.377 OA
BRANCH  74  75
ATOM     75  C   UNL A   1      34.670  23.490  26.402  1.00  0.00     0.188 C 
BRANCH  75  76
ATOM     76  C   UNL A   1      33.751  22.424  26.993  1.00  0.00     0.188 C 
BRANCH  76  77
ATOM     77  O   UNL A   1      32.929  21.627  26.153  1.00  0.00    -0.376 OA
BRANCH  77  78
ATOM     78  C   UNL A   1      31.860  22.209  25.428  1.00  0.00     0.202 C 
BRANCH  78  79
ATOM     79  C   UNL A   1      30.610  22.496  26.280  1.00  0.00     0.261 C 
BRANCH  79  80
ATOM     80  O   UNL A   1      30.633  23.692  27.099  1.00  0.00    -0.459 OA
BRANCH  80  81
ATOM     81  C   UNL A   1      29.992  24.783  26.584  1.00  0.00     0.365 C 
ATOM     82  O   UNL A   1      28.855  25.128  26.888  1.00  0.00    -0.245 OA
BRANCH  81  83
ATOM     83  C   UNL A   1      30.835  25.554  25.535  1.00  0.00     0.298 C 
ATOM     84  C   UNL A   1      30.238  25.815  24.116  1.00  0.00     0.111 C 
ATOM     85  N   UNL A   1      31.319  26.787  26.191  1.00  0.00    -0.326 N 
ATOM     86  C   UNL A   1      30.340  27.251  23.721  1.00  0.00    -0.024 C 
ATOM     87  C   UNL A   1      32.272  27.499  25.305  1.00  0.00     0.243 C 
ATOM     88  H   UNL A   1      31.789  26.544  27.063  1.00  0.00     0.347 HD
ATOM     89  H   UNL A   1      30.524  27.397  26.382  1.00  0.00     0.347 HD
ATOM     90  C   UNL A   1      29.362  28.098  23.420  1.00  0.00     0.002 A 
ATOM     91  C   UNL A   1      31.646  27.957  23.946  1.00  0.00     0.196 C 
ATOM     92  C   UNL A   1      27.957  27.992  23.203  1.00  0.00     0.010 A 
ATOM     93  C   UNL A   1      30.034  29.399  23.559  1.00  0.00     0.066 A 
ATOM     94  N   UNL A   1      31.294  29.404  23.868  1.00  0.00    -0.270 NA
ATOM     95  C   UNL A   1      27.238  29.120  23.075  1.00  0.00     0.001 A 
ATOM     96  C   UNL A   1      29.180  30.594  23.394  1.00  0.00     0.028 A 
ATOM     97  C   UNL A   1      27.864  30.429  23.170  1.00  0.00     0.002 A 
BRANCH  87  98
ATOM     98  C   UNL A   1      33.003  28.575  26.075  1.00  0.00     0.012 A 
ATOM     99  C   UNL A   1      32.355  29.749  26.490  1.00  0.00     0.010 A 
ATOM    100  C   UNL A   1      34.351  28.390  26.411  1.00  0.00     0.010 A 
ATOM    101  C   UNL A   1      33.026  30.700  27.251  1.00  0.00     0.001 A 
ATOM    102  C   UNL A   1      35.024  29.348  27.166  1.00  0.00     0.001 A 
ATOM    103  C   UNL A   1      34.360  30.498  27.591  1.00  0.00     0.000 A 
ENDBRANCH  87  98
ENDBRANCH  81  83
ENDBRANCH  80  81
ENDBRANCH  79  80
ENDBRANCH  78  79
ENDBRANCH  77  78
ENDBRANCH  76  77
ENDBRANCH  75  76
ENDBRANCH  74  75
ENDBRANCH   1  74
TORSDOF 24
ENDMDL
MODEL 3
REMARK VINA RESULT:     -10.4      1.777      7.399
REMARK SMILES O=C(OCCOCCOCCOCCOC(=O)[C@H]1CC2=c3ccccc3=N[C@H]2[C@@H](c2ccccc2)[NH2+]1)c1ccc(-c2c3nc(c(-c4cc(S(=O)(=O)[O-])ccc4F)c4ccc([nH]4)c(-c4cc(S(=O)(=O)[O-])ccc4F)c4nc(c(-c5cc(S(=O)(=O)[O-])ccc5F)c5ccc2[nH]5)C=C4)C=C3)cc1
REMARK SMILES IDX 8 1 7 2 6 3 5 4 4 5 3 6 2 7 1 8 37 9 38 10 99 11 39 12 98 13
REMARK SMILES IDX 40 14 41 15 42 16 92 17 43 18 97 19 91 20 93 21 44 22 96 23
REMARK SMILES IDX 90 24 89 25 45 27 77 28 57 29 76 30 58 31 61 32 75 33 94 34
REMARK SMILES IDX 59 35 60 36 74 38 95 39 62 40 46 41 47 42 55 43 48 44 54 45
REMARK SMILES IDX 56 46 53 47 49 48 50 49 51 50 52 51 78 52 79 53 87 54 80 55
REMARK SMILES IDX 86 56 88 57 85 58 81 59 82 60 83 61 84 62 63 63 64 64 72 65
REMARK SMILES IDX 65 66 71 67 73 68 70 69 66 70 67 71 68 72 69 73 9 74 10 75
REMARK SMILES IDX 11 76 12 77 13 78 14 79 15 80 16 81 17 82 18 83 19 84 36 85
REMARK SMILES IDX 20 86 29 87 21 90 28 91 22 92 26 93 27 94 23 95 25 96 24 97
REMARK SMILES IDX 30 98 31 99 35 100 32 101 34 102 33 103
REMARK H PARENT 93 26 61 37 36 88 36 89
REMARK Flexibility Score: inf
ROOT
ATOM      1  C   UNL A   1      36.495  23.501  26.171  1.00  0.00     0.188 C 
ENDROOT
BRANCH   1   2
ATOM      2  C   UNL A   1      37.239  22.717  25.112  1.00  0.00     0.188 C 
BRANCH   2   3
ATOM      3  O   UNL A   1      38.134  21.725  25.594  1.00  0.00    -0.376 OA
BRANCH   3   4
ATOM      4  C   UNL A   1      38.116  20.375  25.160  1.00  0.00     0.202 C 
BRANCH   4   5
ATOM      5  C   UNL A   1      39.195  19.380  25.589  1.00  0.00     0.261 C 
BRANCH   5   6
ATOM      6  O   UNL A   1      40.527  19.874  25.779  1.00  0.00    -0.460 OA
BRANCH   6   7
ATOM      7  C   UNL A   1      41.034  20.124  27.018  1.00  0.00     0.338 C 
ATOM      8  O   UNL A   1      40.814  19.386  27.969  1.00  0.00    -0.246 OA
BRANCH   7   9
ATOM      9  C   UNL A   1      41.457  21.529  27.206  1.00  0.00     0.060 A 
ATOM     10  C   UNL A   1      41.855  21.935  28.490  1.00  0.00     0.016 A 
ATOM     11  C   UNL A   1      41.313  22.464  26.185  1.00  0.00     0.016 A 
ATOM     12  C   UNL A   1      42.019  23.294  28.773  1.00  0.00     0.010 A 
ATOM     13  C   UNL A   1      41.368  23.822  26.492  1.00  0.00     0.010 A 
ATOM     14  C   UNL A   1      41.761  24.247  27.776  1.00  0.00    -0.014 A 
BRANCH  14  15
ATOM     15  C   UNL A   1      42.309  25.617  27.891  1.00  0.00     0.031 A 
ATOM     16  C   UNL A   1      43.701  26.017  27.517  1.00  0.00     0.074 A 
ATOM     17  C   UNL A   1      41.467  26.489  28.478  1.00  0.00     0.049 A 
ATOM     18  N   UNL A   1      44.220  27.218  27.533  1.00  0.00    -0.248 NA
ATOM     19  C   UNL A   1      44.626  24.967  27.073  1.00  0.00     0.031 C 
ATOM     20  C   UNL A   1      40.107  26.152  28.918  1.00  0.00     0.029 A 
ATOM     21  N   UNL A   1      41.631  27.783  28.873  1.00  0.00    -0.354 N 
ATOM     22  C   UNL A   1      45.517  27.090  27.050  1.00  0.00     0.074 A 
ATOM     23  C   UNL A   1      45.726  25.673  26.814  1.00  0.00     0.031 C 
ATOM     24  C   UNL A   1      39.605  27.170  29.616  1.00  0.00     0.029 A 
ATOM     25  C   UNL A   1      40.574  28.256  29.608  1.00  0.00     0.049 A 
ATOM     26  H   UNL A   1      42.426  28.322  28.654  1.00  0.00     0.167 HD
ATOM     27  C   UNL A   1      46.417  28.080  26.812  1.00  0.00     0.034 A 
ATOM     28  C   UNL A   1      40.375  29.447  30.198  1.00  0.00     0.034 A 
ATOM     29  C   UNL A   1      46.164  29.473  27.131  1.00  0.00     0.049 A 
ATOM     30  C   UNL A   1      41.364  30.527  29.906  1.00  0.00     0.074 A 
ATOM     31  C   UNL A   1      46.952  30.577  26.854  1.00  0.00     0.029 A 
ATOM     32  N   UNL A   1      45.054  29.951  27.821  1.00  0.00    -0.354 N 
ATOM     33  N   UNL A   1      42.511  30.434  29.273  1.00  0.00    -0.248 NA
ATOM     34  C   UNL A   1      41.007  31.880  30.331  1.00  0.00     0.031 C 
ATOM     35  C   UNL A   1      46.364  31.701  27.443  1.00  0.00     0.029 A 
ATOM     36  C   UNL A   1      45.162  31.322  28.019  1.00  0.00     0.049 A 
ATOM     37  H   UNL A   1      44.299  29.397  28.126  1.00  0.00     0.167 HD
ATOM     38  C   UNL A   1      43.015  31.724  29.215  1.00  0.00     0.074 A 
ATOM     39  C   UNL A   1      42.020  32.580  29.836  1.00  0.00     0.031 C 
ATOM     40  C   UNL A   1      44.193  32.158  28.697  1.00  0.00     0.034 A 
BRANCH  27  41
ATOM     41  C   UNL A   1      47.731  27.742  26.133  1.00  0.00     0.023 A 
ATOM     42  C   UNL A   1      47.862  27.813  24.731  1.00  0.00     0.031 A 
ATOM     43  C   UNL A   1      48.795  27.172  26.860  1.00  0.00     0.131 A 
ATOM     44  C   UNL A   1      49.004  27.290  24.103  1.00  0.00     0.055 A 
ATOM     45  C   UNL A   1      49.948  26.693  26.234  1.00  0.00     0.041 A 
ATOM     46  F   UNL A   1      48.722  27.052  28.196  1.00  0.00    -0.206 F 
ATOM     47  C   UNL A   1      50.050  26.738  24.848  1.00  0.00     0.022 A 
BRANCH  44  48
ATOM     48  S   UNL A   1      49.145  27.220  22.293  1.00  0.00     0.124 S 
ATOM     49  O   UNL A   1      50.587  27.349  22.097  1.00  0.00    -0.237 OA
ATOM     50  O   UNL A   1      48.593  25.901  21.994  1.00  0.00    -0.237 OA
ATOM     51  O   UNL A   1      48.351  28.354  21.834  1.00  0.00    -0.744 OA
ENDBRANCH  44  48
ENDBRANCH  27  41
BRANCH  28  52
ATOM     52  C   UNL A   1      39.098  29.640  30.931  1.00  0.00     0.023 A 
ATOM     53  C   UNL A   1      38.134  30.546  30.445  1.00  0.00     0.031 A 
ATOM     54  C   UNL A   1      38.956  29.149  32.238  1.00  0.00     0.131 A 
ATOM     55  C   UNL A   1      37.120  30.999  31.300  1.00  0.00     0.055 A 
ATOM     56  C   UNL A   1      37.904  29.550  33.060  1.00  0.00     0.041 A 
ATOM     57  F   UNL A   1      39.883  28.326  32.754  1.00  0.00    -0.206 F 
ATOM     58  C   UNL A   1      36.992  30.496  32.599  1.00  0.00     0.022 A 
BRANCH  55  59
ATOM     59  S   UNL A   1      36.060  32.395  30.826  1.00  0.00     0.124 S 
ATOM     60  O   UNL A   1      34.852  32.138  31.602  1.00  0.00    -0.237 OA
ATOM     61  O   UNL A   1      36.859  33.539  31.259  1.00  0.00    -0.237 OA
ATOM     62  O   UNL A   1      35.923  32.252  29.380  1.00  0.00    -0.744 OA
ENDBRANCH  55  59
ENDBRANCH  28  52
BRANCH  40  63
ATOM     63  C   UNL A   1      44.513  33.625  28.857  1.00  0.00     0.023 A 
ATOM     64  C   UNL A   1      45.111  34.108  30.035  1.00  0.00     0.031 A 
ATOM     65  C   UNL A   1      44.156  34.556  27.864  1.00  0.00     0.131 A 
ATOM     66  C   UNL A   1      45.318  35.483  30.196  1.00  0.00     0.055 A 
ATOM     67  C   UNL A   1      44.413  35.918  28.006  1.00  0.00     0.041 A 
ATOM     68  F   UNL A   1      43.575  34.147  26.724  1.00  0.00    -0.206 F 
ATOM     69  C   UNL A   1      44.987  36.389  29.181  1.00  0.00     0.022 A 
BRANCH  66  70
ATOM     70  S   UNL A   1      45.959  36.162  31.750  1.00  0.00     0.124 S 
ATOM     71  O   UNL A   1      47.207  35.420  31.911  1.00  0.00    -0.237 OA
ATOM     72  O   UNL A   1      46.114  37.578  31.428  1.00  0.00    -0.237 OA
ATOM     73  O   UNL A   1      44.920  35.850  32.726  1.00  0.00    -0.744 OA
ENDBRANCH  66  70
ENDBRANCH  40  63
ENDBRANCH  14  15
ENDBRANCH   7   9
ENDBRANCH   6   7
ENDBRANCH   5   6
ENDBRANCH   4   5
ENDBRANCH   3   4
ENDBRANCH   2   3
ENDBRANCH   1   2
BRANCH   1  74
ATOM     74  O   UNL A   1      35.085  23.489  26.011  1.00  0.00    -0.377 OA
BRANCH  74  75
ATOM     75  C   UNL A   1      34.430  22.257  26.267  1.00  0.00     0.188 C 
BRANCH  75  76
ATOM     76  C   UNL A   1      34.145  21.305  25.109  1.00  0.00     0.188 C 
BRANCH  76  77
ATOM     77  O   UNL A   1      34.021  21.793  23.781  1.00  0.00    -0.376 OA
BRANCH  77  78
ATOM     78  C   UNL A   1      32.752  21.868  23.156  1.00  0.00     0.202 C 
BRANCH  78  79
ATOM     79  C   UNL A   1      32.487  23.204  22.437  1.00  0.00     0.261 C 
BRANCH  79  80
ATOM     80  O   UNL A   1      33.634  24.049  22.174  1.00  0.00    -0.459 OA
BRANCH  80  81
ATOM     81  C   UNL A   1      33.469  25.380  22.433  1.00  0.00     0.365 C 
ATOM     82  O   UNL A   1      34.084  26.279  21.869  1.00  0.00    -0.245 OA
BRANCH  81  83
ATOM     83  C   UNL A   1      32.430  25.667  23.548  1.00  0.00     0.298 C 
ATOM     84  C   UNL A   1      32.901  25.732  25.035  1.00  0.00     0.111 C 
ATOM     85  N   UNL A   1      31.669  26.865  23.133  1.00  0.00    -0.326 N 
ATOM     86  C   UNL A   1      32.429  26.973  25.718  1.00  0.00    -0.024 C 
ATOM     87  C   UNL A   1      30.543  27.106  24.067  1.00  0.00     0.243 C 
ATOM     88  H   UNL A   1      31.302  26.722  22.193  1.00  0.00     0.347 HD
ATOM     89  H   UNL A   1      32.290  27.674  23.145  1.00  0.00     0.347 HD
ATOM     90  C   UNL A   1      33.153  27.938  26.275  1.00  0.00     0.002 A 
ATOM     91  C   UNL A   1      30.995  27.379  25.541  1.00  0.00     0.196 C 
ATOM     92  C   UNL A   1      34.533  28.123  26.583  1.00  0.00     0.010 A 
ATOM     93  C   UNL A   1      32.180  29.036  26.362  1.00  0.00     0.066 A 
ATOM     94  N   UNL A   1      30.968  28.810  25.956  1.00  0.00    -0.270 NA
ATOM     95  C   UNL A   1      34.941  29.330  27.009  1.00  0.00     0.001 A 
ATOM     96  C   UNL A   1      32.700  30.330  26.851  1.00  0.00     0.028 A 
ATOM     97  C   UNL A   1      34.008  30.438  27.144  1.00  0.00     0.002 A 
BRANCH  87  98
ATOM     98  C   UNL A   1      29.587  28.124  23.486  1.00  0.00     0.012 A 
ATOM     99  C   UNL A   1      28.212  27.860  23.376  1.00  0.00     0.010 A 
ATOM    100  C   UNL A   1      30.074  29.371  23.072  1.00  0.00     0.010 A 
ATOM    101  C   UNL A   1      27.339  28.831  22.897  1.00  0.00     0.001 A 
ATOM    102  C   UNL A   1      29.199  30.339  22.585  1.00  0.00     0.001 A 
ATOM    103  C   UNL A   1      27.832  30.071  22.504  1.00  0.00     0.000 A 
ENDBRANCH  87  98
ENDBRANCH  81  83
ENDBRANCH  80  81
ENDBRANCH  79  80
ENDBRANCH  78  79
ENDBRANCH  77  78
ENDBRANCH  76  77
ENDBRANCH  75  76
ENDBRANCH  74  75
ENDBRANCH   1  74
TORSDOF 24
ENDMDL
