MODEL 1
REMARK VINA RESULT:      -9.0      0.000      0.000
REMARK SMILES COC(=O)c1ccc([C@H]([NH3+])CC(=O)OCCOCCOCCOCCOC(=O)c2ccc(-c3c4nc(c(-c5cc(S(=O)(=O)[O-])ccc5F)c5ccc([nH]5)c(-c5cc(S(=O)(=O)[O-])ccc5F)c5nc(c(-c6cc(S(=O)(=O)[O-])ccc6F)c6ccc3[nH]6)C=C5)C=C4)cc2)cc1
REMARK SMILES IDX 19 1 18 2 17 3 16 4 15 5 14 6 12 7 13 8 11 9 9 10 8 11 5 12
REMARK SMILES IDX 6 13 93 14 7 15 92 16 3 17 4 18 2 19 1 20 10 21 20 25 21 26
REMARK SMILES IDX 22 27 23 28 24 29 25 30 26 31 27 32 28 33 29 34 30 35 91 36
REMARK SMILES IDX 31 37 90 38 32 39 33 40 34 41 84 42 35 43 89 44 83 45 85 46
REMARK SMILES IDX 36 47 88 48 82 49 81 50 37 52 69 53 49 54 68 55 50 56 53 57
REMARK SMILES IDX 67 58 86 59 51 60 52 61 66 63 87 64 54 65 38 66 39 67 47 68
REMARK SMILES IDX 40 69 46 70 48 71 45 72 41 73 42 74 43 75 44 76 70 77 71 78
REMARK SMILES IDX 79 79 72 80 78 81 80 82 77 83 73 84 74 85 75 86 76 87 55 88
REMARK SMILES IDX 56 89 64 90 57 91 63 92 65 93 62 94 58 95 59 96 60 97 61 98
REMARK H PARENT 10 22 10 23 10 24 85 51 53 62
REMARK Flexibility Score: inf
ROOT
ATOM      1  C   UNL A   1      30.834  27.021  22.205  1.00  0.00     0.188 C 
ENDROOT
BRANCH   1   2
ATOM      2  C   UNL A   1      30.274  25.970  23.174  1.00  0.00     0.188 C 
BRANCH   2   3
ATOM      3  O   UNL A   1      31.180  25.354  24.056  1.00  0.00    -0.376 OA
BRANCH   3   4
ATOM      4  C   UNL A   1      30.781  24.945  25.354  1.00  0.00     0.202 C 
BRANCH   4   5
ATOM      5  C   UNL A   1      31.710  24.775  26.572  1.00  0.00     0.261 C 
BRANCH   5   6
ATOM      6  O   UNL A   1      33.123  24.869  26.353  1.00  0.00    -0.463 OA
BRANCH   6   7
ATOM      7  C   UNL A   1      33.733  23.739  25.930  1.00  0.00     0.312 C 
ATOM      8  O   UNL A   1      34.954  23.593  25.882  1.00  0.00    -0.252 OA
BRANCH   7   9
ATOM      9  C   UNL A   1      32.825  22.581  25.592  1.00  0.00     0.192 C 
BRANCH   9  10
ATOM     10  C   UNL A   1      32.600  22.119  24.148  1.00  0.00     0.223 C 
BRANCH  10  11
ATOM     11  C   UNL A   1      33.038  20.650  24.054  1.00  0.00     0.010 A 
ATOM     12  C   UNL A   1      33.723  17.909  24.038  1.00  0.00     0.060 A 
ATOM     13  C   UNL A   1      32.529  18.338  23.448  1.00  0.00     0.016 A 
ATOM     14  C   UNL A   1      34.576  18.849  24.624  1.00  0.00     0.016 A 
ATOM     15  C   UNL A   1      32.188  19.697  23.460  1.00  0.00     0.011 A 
ATOM     16  C   UNL A   1      34.232  20.201  24.639  1.00  0.00     0.011 A 
BRANCH  12  17
ATOM     17  C   UNL A   1      34.059  16.462  24.021  1.00  0.00     0.337 C 
ATOM     18  O   UNL A   1      34.459  15.863  23.036  1.00  0.00    -0.246 OA
BRANCH  17  19
ATOM     19  O   UNL A   1      33.822  15.925  25.245  1.00  0.00    -0.465 OA
ATOM     20  C   UNL A   1      32.529  15.341  25.404  1.00  0.00     0.282 C 
ENDBRANCH  17  19
ENDBRANCH  12  17
ENDBRANCH  10  11
BRANCH  10  21
ATOM     21  N   UNL A   1      33.250  22.955  23.145  1.00  0.00    -0.351 N 
ATOM     22  H   UNL A   1      33.885  22.385  22.586  1.00  0.00     0.345 HD
ATOM     23  H   UNL A   1      33.776  23.695  23.609  1.00  0.00     0.345 HD
ATOM     24  H   UNL A   1      32.543  23.370  22.538  1.00  0.00     0.345 HD
ENDBRANCH  10  21
ENDBRANCH   9  10
ENDBRANCH   7   9
ENDBRANCH   6   7
ENDBRANCH   5   6
ENDBRANCH   4   5
ENDBRANCH   3   4
ENDBRANCH   2   3
ENDBRANCH   1   2
BRANCH   1  25
ATOM     25  O   UNL A   1      30.373  28.355  22.287  1.00  0.00    -0.377 OA
BRANCH  25  26
ATOM     26  C   UNL A   1      31.126  29.347  22.978  1.00  0.00     0.188 C 
BRANCH  26  27
ATOM     27  C   UNL A   1      30.886  29.617  24.477  1.00  0.00     0.188 C 
BRANCH  27  28
ATOM     28  O   UNL A   1      31.267  28.561  25.341  1.00  0.00    -0.376 OA
BRANCH  28  29
ATOM     29  C   UNL A   1      32.653  28.298  25.500  1.00  0.00     0.202 C 
BRANCH  29  30
ATOM     30  C   UNL A   1      33.561  29.468  25.912  1.00  0.00     0.261 C 
BRANCH  30  31
ATOM     31  O   UNL A   1      33.796  29.630  27.321  1.00  0.00    -0.460 OA
BRANCH  31  32
ATOM     32  C   UNL A   1      34.459  30.735  27.737  1.00  0.00     0.338 C 
ATOM     33  O   UNL A   1      34.034  31.869  27.788  1.00  0.00    -0.246 OA
BRANCH  32  34
ATOM     34  C   UNL A   1      35.749  30.282  28.304  1.00  0.00     0.060 A 
ATOM     35  C   UNL A   1      36.927  30.491  27.576  1.00  0.00     0.016 A 
ATOM     36  C   UNL A   1      35.791  29.671  29.558  1.00  0.00     0.016 A 
ATOM     37  C   UNL A   1      38.155  30.084  28.102  1.00  0.00     0.010 A 
ATOM     38  C   UNL A   1      37.020  29.242  30.072  1.00  0.00     0.010 A 
ATOM     39  C   UNL A   1      38.206  29.433  29.341  1.00  0.00    -0.014 A 
BRANCH  39  40
ATOM     40  C   UNL A   1      39.478  28.834  29.821  1.00  0.00     0.031 A 
ATOM     41  C   UNL A   1      40.141  29.420  31.037  1.00  0.00     0.074 A 
ATOM     42  C   UNL A   1      40.033  27.787  29.185  1.00  0.00     0.049 A 
ATOM     43  N   UNL A   1      41.295  29.127  31.576  1.00  0.00    -0.248 NA
ATOM     44  C   UNL A   1      39.400  30.481  31.733  1.00  0.00     0.031 C 
ATOM     45  C   UNL A   1      39.457  27.098  28.032  1.00  0.00     0.029 A 
ATOM     46  N   UNL A   1      41.217  27.127  29.412  1.00  0.00    -0.354 N 
ATOM     47  C   UNL A   1      41.426  29.972  32.673  1.00  0.00     0.074 A 
ATOM     48  C   UNL A   1      40.244  30.808  32.701  1.00  0.00     0.031 C 
ATOM     49  C   UNL A   1      40.296  26.122  27.642  1.00  0.00     0.029 A 
ATOM     50  C   UNL A   1      41.492  26.151  28.482  1.00  0.00     0.049 A 
ATOM     51  H   UNL A   1      41.812  27.333  30.169  1.00  0.00     0.167 HD
ATOM     52  C   UNL A   1      42.438  30.042  33.572  1.00  0.00     0.034 A 
ATOM     53  C   UNL A   1      42.598  25.398  28.304  1.00  0.00     0.034 A 
ATOM     54  C   UNL A   1      43.618  29.211  33.518  1.00  0.00     0.049 A 
ATOM     55  C   UNL A   1      43.764  25.574  29.252  1.00  0.00     0.074 A 
ATOM     56  C   UNL A   1      44.692  29.185  34.390  1.00  0.00     0.029 A 
ATOM     57  N   UNL A   1      43.890  28.275  32.528  1.00  0.00    -0.354 N 
ATOM     58  N   UNL A   1      43.872  26.367  30.294  1.00  0.00    -0.248 NA
ATOM     59  C   UNL A   1      44.955  24.752  28.999  1.00  0.00     0.031 C 
ATOM     60  C   UNL A   1      45.651  28.305  33.878  1.00  0.00     0.029 A 
ATOM     61  C   UNL A   1      45.137  27.707  32.739  1.00  0.00     0.049 A 
ATOM     62  H   UNL A   1      43.285  28.049  31.784  1.00  0.00     0.167 HD
ATOM     63  C   UNL A   1      45.133  26.119  30.832  1.00  0.00     0.074 A 
ATOM     64  C   UNL A   1      45.737  25.087  30.015  1.00  0.00     0.031 C 
ATOM     65  C   UNL A   1      45.738  26.690  31.906  1.00  0.00     0.034 A 
BRANCH  52  66
ATOM     66  C   UNL A   1      42.343  31.093  34.651  1.00  0.00     0.023 A 
ATOM     67  C   UNL A   1      42.772  32.416  34.442  1.00  0.00     0.031 A 
ATOM     68  C   UNL A   1      41.826  30.762  35.916  1.00  0.00     0.131 A 
ATOM     69  C   UNL A   1      42.735  33.337  35.500  1.00  0.00     0.055 A 
ATOM     70  C   UNL A   1      41.716  31.704  36.939  1.00  0.00     0.041 A 
ATOM     71  F   UNL A   1      41.424  29.509  36.183  1.00  0.00    -0.206 F 
ATOM     72  C   UNL A   1      42.185  32.999  36.738  1.00  0.00     0.022 A 
BRANCH  69  73
ATOM     73  S   UNL A   1      43.548  34.945  35.279  1.00  0.00     0.124 S 
ATOM     74  O   UNL A   1      42.865  35.459  34.093  1.00  0.00    -0.237 OA
ATOM     75  O   UNL A   1      43.249  35.625  36.533  1.00  0.00    -0.237 OA
ATOM     76  O   UNL A   1      44.951  34.593  35.077  1.00  0.00    -0.744 OA
ENDBRANCH  69  73
ENDBRANCH  52  66
BRANCH  53  77
ATOM     77  C   UNL A   1      42.698  24.454  27.151  1.00  0.00     0.023 A 
ATOM     78  C   UNL A   1      42.159  23.159  27.220  1.00  0.00     0.031 A 
ATOM     79  C   UNL A   1      43.401  24.812  25.985  1.00  0.00     0.131 A 
ATOM     80  C   UNL A   1      42.371  22.255  26.167  1.00  0.00     0.055 A 
ATOM     81  C   UNL A   1      43.554  23.930  24.914  1.00  0.00     0.041 A 
ATOM     82  F   UNL A   1      43.949  26.031  25.868  1.00  0.00    -0.206 F 
ATOM     83  C   UNL A   1      43.049  22.637  25.006  1.00  0.00     0.022 A 
BRANCH  80  84
ATOM     84  S   UNL A   1      41.838  20.534  26.377  1.00  0.00     0.124 S 
ATOM     85  O   UNL A   1      42.241  20.266  27.752  1.00  0.00    -0.237 OA
ATOM     86  O   UNL A   1      40.401  20.631  26.136  1.00  0.00    -0.237 OA
ATOM     87  O   UNL A   1      42.593  19.816  25.353  1.00  0.00    -0.744 OA
ENDBRANCH  80  84
ENDBRANCH  53  77
BRANCH  65  88
ATOM     88  C   UNL A   1      47.114  26.184  32.276  1.00  0.00     0.023 A 
ATOM     89  C   UNL A   1      47.299  25.186  33.249  1.00  0.00     0.031 A 
ATOM     90  C   UNL A   1      48.257  26.711  31.648  1.00  0.00     0.131 A 
ATOM     91  C   UNL A   1      48.596  24.790  33.607  1.00  0.00     0.055 A 
ATOM     92  C   UNL A   1      49.541  26.263  31.958  1.00  0.00     0.041 A 
ATOM     93  F   UNL A   1      48.144  27.670  30.715  1.00  0.00    -0.206 F 
ATOM     94  C   UNL A   1      49.717  25.306  32.954  1.00  0.00     0.022 A 
BRANCH  91  95
ATOM     95  S   UNL A   1      48.806  23.663  35.014  1.00  0.00     0.124 S 
ATOM     96  O   UNL A   1      47.461  23.636  35.582  1.00  0.00    -0.237 OA
ATOM     97  O   UNL A   1      49.249  22.432  34.365  1.00  0.00    -0.237 OA
ATOM     98  O   UNL A   1      49.815  24.326  35.837  1.00  0.00    -0.744 OA
ENDBRANCH  91  95
ENDBRANCH  65  88
ENDBRANCH  39  40
ENDBRANCH  32  34
ENDBRANCH  31  32
ENDBRANCH  30  31
ENDBRANCH  29  30
ENDBRANCH  28  29
ENDBRANCH  27  28
ENDBRANCH  26  27
ENDBRANCH  25  26
ENDBRANCH   1  25
TORSDOF 28
ENDMDL
MODEL 2
REMARK VINA RESULT:      -8.9      2.817      4.157
REMARK SMILES COC(=O)c1ccc([C@H]([NH3+])CC(=O)OCCOCCOCCOCCOC(=O)c2ccc(-c3c4nc(c(-c5cc(S(=O)(=O)[O-])ccc5F)c5ccc([nH]5)c(-c5cc(S(=O)(=O)[O-])ccc5F)c5nc(c(-c6cc(S(=O)(=O)[O-])ccc6F)c6ccc3[nH]6)C=C5)C=C4)cc2)cc1
REMARK SMILES IDX 19 1 18 2 17 3 16 4 15 5 14 6 12 7 13 8 11 9 9 10 8 11 5 12
REMARK SMILES IDX 6 13 93 14 7 15 92 16 3 17 4 18 2 19 1 20 10 21 20 25 21 26
REMARK SMILES IDX 22 27 23 28 24 29 25 30 26 31 27 32 28 33 29 34 30 35 91 36
REMARK SMILES IDX 31 37 90 38 32 39 33 40 34 41 84 42 35 43 89 44 83 45 85 46
REMARK SMILES IDX 36 47 88 48 82 49 81 50 37 52 69 53 49 54 68 55 50 56 53 57
REMARK SMILES IDX 67 58 86 59 51 60 52 61 66 63 87 64 54 65 38 66 39 67 47 68
REMARK SMILES IDX 40 69 46 70 48 71 45 72 41 73 42 74 43 75 44 76 70 77 71 78
REMARK SMILES IDX 79 79 72 80 78 81 80 82 77 83 73 84 74 85 75 86 76 87 55 88
REMARK SMILES IDX 56 89 64 90 57 91 63 92 65 93 62 94 58 95 59 96 60 97 61 98
REMARK H PARENT 10 22 10 23 10 24 85 51 53 62
REMARK Flexibility Score: inf
ROOT
ATOM      1  C   UNL A   1      31.566  25.921  22.764  1.00  0.00     0.188 C 
ENDROOT
BRANCH   1   2
ATOM      2  C   UNL A   1      31.065  24.911  23.805  1.00  0.00     0.188 C 
BRANCH   2   3
ATOM      3  O   UNL A   1      31.509  25.071  25.130  1.00  0.00    -0.376 OA
BRANCH   3   4
ATOM      4  C   UNL A   1      31.020  24.246  26.176  1.00  0.00     0.202 C 
BRANCH   4   5
ATOM      5  C   UNL A   1      31.750  23.032  26.783  1.00  0.00     0.261 C 
BRANCH   5   6
ATOM      6  O   UNL A   1      32.971  22.608  26.164  1.00  0.00    -0.463 OA
BRANCH   6   7
ATOM      7  C   UNL A   1      32.880  21.532  25.351  1.00  0.00     0.312 C 
ATOM      8  O   UNL A   1      31.909  20.777  25.316  1.00  0.00    -0.252 OA
BRANCH   7   9
ATOM      9  C   UNL A   1      34.019  21.334  24.379  1.00  0.00     0.192 C 
BRANCH   9  10
ATOM     10  C   UNL A   1      34.877  22.504  23.883  1.00  0.00     0.223 C 
BRANCH  10  11
ATOM     11  C   UNL A   1      36.161  22.530  24.725  1.00  0.00     0.010 A 
ATOM     12  C   UNL A   1      38.611  22.679  26.125  1.00  0.00     0.060 A 
ATOM     13  C   UNL A   1      37.740  23.775  26.114  1.00  0.00     0.016 A 
ATOM     14  C   UNL A   1      38.253  21.510  25.447  1.00  0.00     0.016 A 
ATOM     15  C   UNL A   1      36.527  23.701  25.416  1.00  0.00     0.011 A 
ATOM     16  C   UNL A   1      37.046  21.442  24.748  1.00  0.00     0.011 A 
BRANCH  12  17
ATOM     17  C   UNL A   1      39.896  22.783  26.863  1.00  0.00     0.337 C 
ATOM     18  O   UNL A   1      40.106  23.581  27.763  1.00  0.00    -0.246 OA
BRANCH  17  19
ATOM     19  O   UNL A   1      40.784  21.889  26.361  1.00  0.00    -0.465 OA
ATOM     20  C   UNL A   1      41.546  21.184  27.340  1.00  0.00     0.282 C 
ENDBRANCH  17  19
ENDBRANCH  12  17
ENDBRANCH  10  11
BRANCH  10  21
ATOM     21  N   UNL A   1      34.191  23.790  23.882  1.00  0.00    -0.351 N 
ATOM     22  H   UNL A   1      33.495  23.806  24.627  1.00  0.00     0.345 HD
ATOM     23  H   UNL A   1      33.728  23.928  22.982  1.00  0.00     0.345 HD
ATOM     24  H   UNL A   1      34.867  24.539  24.033  1.00  0.00     0.345 HD
ENDBRANCH  10  21
ENDBRANCH   9  10
ENDBRANCH   7   9
ENDBRANCH   6   7
ENDBRANCH   5   6
ENDBRANCH   4   5
ENDBRANCH   3   4
ENDBRANCH   2   3
ENDBRANCH   1   2
BRANCH   1  25
ATOM     25  O   UNL A   1      30.846  27.121  22.560  1.00  0.00    -0.377 OA
BRANCH  25  26
ATOM     26  C   UNL A   1      31.463  28.387  22.769  1.00  0.00     0.188 C 
BRANCH  26  27
ATOM     27  C   UNL A   1      30.971  29.330  23.885  1.00  0.00     0.188 C 
BRANCH  27  28
ATOM     28  O   UNL A   1      31.164  28.845  25.202  1.00  0.00    -0.376 OA
BRANCH  28  29
ATOM     29  C   UNL A   1      32.487  28.531  25.609  1.00  0.00     0.202 C 
BRANCH  29  30
ATOM     30  C   UNL A   1      33.456  29.698  25.857  1.00  0.00     0.261 C 
BRANCH  30  31
ATOM     31  O   UNL A   1      33.436  30.279  27.172  1.00  0.00    -0.460 OA
BRANCH  31  32
ATOM     32  C   UNL A   1      34.174  31.393  27.391  1.00  0.00     0.338 C 
ATOM     33  O   UNL A   1      33.844  32.541  27.188  1.00  0.00    -0.246 OA
BRANCH  32  34
ATOM     34  C   UNL A   1      35.397  30.972  28.109  1.00  0.00     0.060 A 
ATOM     35  C   UNL A   1      35.453  29.692  28.674  1.00  0.00     0.016 A 
ATOM     36  C   UNL A   1      36.490  31.835  28.205  1.00  0.00     0.016 A 
ATOM     37  C   UNL A   1      36.605  29.272  29.342  1.00  0.00     0.010 A 
ATOM     38  C   UNL A   1      37.634  31.421  28.896  1.00  0.00     0.010 A 
ATOM     39  C   UNL A   1      37.693  30.143  29.481  1.00  0.00    -0.014 A 
BRANCH  39  40
ATOM     40  C   UNL A   1      38.843  29.773  30.345  1.00  0.00     0.031 A 
ATOM     41  C   UNL A   1      38.959  30.405  31.704  1.00  0.00     0.074 A 
ATOM     42  C   UNL A   1      39.768  28.890  29.927  1.00  0.00     0.049 A 
ATOM     43  N   UNL A   1      39.920  30.310  32.586  1.00  0.00    -0.248 NA
ATOM     44  C   UNL A   1      37.840  31.263  32.120  1.00  0.00     0.031 C 
ATOM     45  C   UNL A   1      39.732  28.170  28.656  1.00  0.00     0.029 A 
ATOM     46  N   UNL A   1      40.927  28.459  30.525  1.00  0.00    -0.354 N 
ATOM     47  C   UNL A   1      39.527  31.101  33.660  1.00  0.00     0.074 A 
ATOM     48  C   UNL A   1      38.254  31.690  33.304  1.00  0.00     0.031 C 
ATOM     49  C   UNL A   1      40.829  27.398  28.561  1.00  0.00     0.029 A 
ATOM     50  C   UNL A   1      41.670  27.608  29.739  1.00  0.00     0.049 A 
ATOM     51  H   UNL A   1      41.201  28.732  31.430  1.00  0.00     0.167 HD
ATOM     52  C   UNL A   1      40.171  31.313  34.835  1.00  0.00     0.034 A 
ATOM     53  C   UNL A   1      42.903  27.093  29.928  1.00  0.00     0.034 A 
ATOM     54  C   UNL A   1      41.449  30.729  35.166  1.00  0.00     0.049 A 
ATOM     55  C   UNL A   1      43.652  27.436  31.197  1.00  0.00     0.074 A 
ATOM     56  C   UNL A   1      42.178  30.860  36.335  1.00  0.00     0.029 A 
ATOM     57  N   UNL A   1      42.200  29.921  34.321  1.00  0.00    -0.354 N 
ATOM     58  N   UNL A   1      43.267  28.175  32.213  1.00  0.00    -0.248 NA
ATOM     59  C   UNL A   1      45.002  26.874  31.343  1.00  0.00     0.031 C 
ATOM     60  C   UNL A   1      43.405  30.211  36.162  1.00  0.00     0.029 A 
ATOM     61  C   UNL A   1      43.405  29.592  34.923  1.00  0.00     0.049 A 
ATOM     62  H   UNL A   1      41.917  29.625  33.425  1.00  0.00     0.167 HD
ATOM     63  C   UNL A   1      44.318  28.144  33.127  1.00  0.00     0.074 A 
ATOM     64  C   UNL A   1      45.342  27.296  32.553  1.00  0.00     0.031 C 
ATOM     65  C   UNL A   1      44.428  28.759  34.334  1.00  0.00     0.034 A 
BRANCH  52  66
ATOM     66  C   UNL A   1      39.533  32.263  35.820  1.00  0.00     0.023 A 
ATOM     67  C   UNL A   1      39.912  33.615  35.902  1.00  0.00     0.031 A 
ATOM     68  C   UNL A   1      38.537  31.804  36.700  1.00  0.00     0.131 A 
ATOM     69  C   UNL A   1      39.346  34.440  36.886  1.00  0.00     0.055 A 
ATOM     70  C   UNL A   1      37.920  32.651  37.621  1.00  0.00     0.041 A 
ATOM     71  F   UNL A   1      38.152  30.518  36.685  1.00  0.00    -0.206 F 
ATOM     72  C   UNL A   1      38.333  33.975  37.727  1.00  0.00     0.022 A 
BRANCH  69  73
ATOM     73  S   UNL A   1      40.053  36.091  37.146  1.00  0.00     0.124 S 
ATOM     74  O   UNL A   1      39.229  36.595  38.243  1.00  0.00    -0.237 OA
ATOM     75  O   UNL A   1      41.440  35.791  37.475  1.00  0.00    -0.237 OA
ATOM     76  O   UNL A   1      39.844  36.757  35.862  1.00  0.00    -0.744 OA
ENDBRANCH  69  73
ENDBRANCH  52  66
BRANCH  53  77
ATOM     77  C   UNL A   1      43.547  26.253  28.875  1.00  0.00     0.023 A 
ATOM     78  C   UNL A   1      44.376  26.822  27.895  1.00  0.00     0.031 A 
ATOM     79  C   UNL A   1      43.282  24.873  28.791  1.00  0.00     0.131 A 
ATOM     80  C   UNL A   1      44.871  26.026  26.848  1.00  0.00     0.055 A 
ATOM     81  C   UNL A   1      43.828  24.075  27.786  1.00  0.00     0.041 A 
ATOM     82  F   UNL A   1      42.486  24.278  29.693  1.00  0.00    -0.206 F 
ATOM     83  C   UNL A   1      44.618  24.653  26.797  1.00  0.00     0.022 A 
BRANCH  80  84
ATOM     84  S   UNL A   1      45.767  26.832  25.492  1.00  0.00     0.124 S 
ATOM     85  O   UNL A   1      47.000  27.241  26.155  1.00  0.00    -0.237 OA
ATOM     86  O   UNL A   1      45.889  25.747  24.523  1.00  0.00    -0.237 OA
ATOM     87  O   UNL A   1      44.878  27.922  25.097  1.00  0.00    -0.744 OA
ENDBRANCH  80  84
ENDBRANCH  53  77
BRANCH  65  88
ATOM     88  C   UNL A   1      45.690  28.507  35.126  1.00  0.00     0.023 A 
ATOM     89  C   UNL A   1      45.801  27.424  36.016  1.00  0.00     0.031 A 
ATOM     90  C   UNL A   1      46.797  29.365  34.993  1.00  0.00     0.131 A 
ATOM     91  C   UNL A   1      46.968  27.262  36.780  1.00  0.00     0.055 A 
ATOM     92  C   UNL A   1      47.980  29.158  35.702  1.00  0.00     0.041 A 
ATOM     93  F   UNL A   1      46.748  30.419  34.162  1.00  0.00    -0.206 F 
ATOM     94  C   UNL A   1      48.065  28.109  36.613  1.00  0.00     0.022 A 
BRANCH  91  95
ATOM     95  S   UNL A   1      46.994  25.988  38.071  1.00  0.00     0.124 S 
ATOM     96  O   UNL A   1      48.347  26.123  38.601  1.00  0.00    -0.237 OA
ATOM     97  O   UNL A   1      45.916  26.419  38.957  1.00  0.00    -0.237 OA
ATOM     98  O   UNL A   1      46.734  24.751  37.338  1.00  0.00    -0.744 OA
ENDBRANCH  91  95
ENDBRANCH  65  88
ENDBRANCH  39  40
ENDBRANCH  32  34
ENDBRANCH  31  32
ENDBRANCH  30  31
ENDBRANCH  29  30
ENDBRANCH  28  29
ENDBRANCH  27  28
ENDBRANCH  26  27
ENDBRANCH  25  26
ENDBRANCH   1  25
TORSDOF 28
ENDMDL
MODEL 3
REMARK VINA RESULT:      -8.8      4.359      9.939
REMARK SMILES COC(=O)c1ccc([C@H]([NH3+])CC(=O)OCCOCCOCCOCCOC(=O)c2ccc(-c3c4nc(c(-c5cc(S(=O)(=O)[O-])ccc5F)c5ccc([nH]5)c(-c5cc(S(=O)(=O)[O-])ccc5F)c5nc(c(-c6cc(S(=O)(=O)[O-])ccc6F)c6ccc3[nH]6)C=C5)C=C4)cc2)cc1
REMARK SMILES IDX 19 1 18 2 17 3 16 4 15 5 14 6 12 7 13 8 11 9 9 10 8 11 5 12
REMARK SMILES IDX 6 13 93 14 7 15 92 16 3 17 4 18 2 19 1 20 10 21 20 25 21 26
REMARK SMILES IDX 22 27 23 28 24 29 25 30 26 31 27 32 28 33 29 34 30 35 91 36
REMARK SMILES IDX 31 37 90 38 32 39 33 40 34 41 84 42 35 43 89 44 83 45 85 46
REMARK SMILES IDX 36 47 88 48 82 49 81 50 37 52 69 53 49 54 68 55 50 56 53 57
REMARK SMILES IDX 67 58 86 59 51 60 52 61 66 63 87 64 54 65 38 66 39 67 47 68
REMARK SMILES IDX 40 69 46 70 48 71 45 72 41 73 42 74 43 75 44 76 70 77 71 78
REMARK SMILES IDX 79 79 72 80 78 81 80 82 77 83 73 84 74 85 75 86 76 87 55 88
REMARK SMILES IDX 56 89 64 90 57 91 63 92 65 93 62 94 58 95 59 96 60 97 61 98
REMARK H PARENT 10 22 10 23 10 24 85 51 53 62
REMARK Flexibility Score: inf
ROOT
ATOM      1  C   UNL A   1      33.212  30.610  27.162  1.00  0.00     0.188 C 
ENDROOT
BRANCH   1   2
ATOM      2  C   UNL A   1      32.807  29.158  26.870  1.00  0.00     0.188 C 
BRANCH   2   3
ATOM      3  O   UNL A   1      33.827  28.189  26.870  1.00  0.00    -0.376 OA
BRANCH   3   4
ATOM      4  C   UNL A   1      34.063  27.369  25.736  1.00  0.00     0.202 C 
BRANCH   4   5
ATOM      5  C   UNL A   1      34.106  25.828  25.731  1.00  0.00     0.261 C 
BRANCH   5   6
ATOM      6  O   UNL A   1      32.921  25.125  26.123  1.00  0.00    -0.463 OA
BRANCH   6   7
ATOM      7  C   UNL A   1      32.369  24.326  25.183  1.00  0.00     0.312 C 
ATOM      8  O   UNL A   1      32.655  23.138  25.037  1.00  0.00    -0.252 OA
BRANCH   7   9
ATOM      9  C   UNL A   1      31.277  24.943  24.343  1.00  0.00     0.192 C 
BRANCH   9  10
ATOM     10  C   UNL A   1      30.011  25.542  24.967  1.00  0.00     0.223 C 
BRANCH  10  11
ATOM     11  C   UNL A   1      29.677  26.829  24.200  1.00  0.00     0.010 A 
ATOM     12  C   UNL A   1      29.056  29.089  22.621  1.00  0.00     0.060 A 
ATOM     13  C   UNL A   1      28.043  28.209  23.017  1.00  0.00     0.016 A 
ATOM     14  C   UNL A   1      30.373  28.845  23.022  1.00  0.00     0.016 A 
ATOM     15  C   UNL A   1      28.352  27.086  23.797  1.00  0.00     0.011 A 
ATOM     16  C   UNL A   1      30.679  27.723  23.794  1.00  0.00     0.011 A 
BRANCH  12  17
ATOM     17  C   UNL A   1      28.706  30.267  21.786  1.00  0.00     0.337 C 
ATOM     18  O   UNL A   1      27.962  30.225  20.819  1.00  0.00    -0.246 OA
BRANCH  17  19
ATOM     19  O   UNL A   1      29.361  31.362  22.247  1.00  0.00    -0.465 OA
ATOM     20  C   UNL A   1      28.539  32.510  22.456  1.00  0.00     0.282 C 
ENDBRANCH  17  19
ENDBRANCH  12  17
ENDBRANCH  10  11
BRANCH  10  21
ATOM     21  N   UNL A   1      30.101  25.763  26.406  1.00  0.00    -0.351 N 
ATOM     22  H   UNL A   1      29.170  25.934  26.783  1.00  0.00     0.345 HD
ATOM     23  H   UNL A   1      30.696  26.572  26.589  1.00  0.00     0.345 HD
ATOM     24  H   UNL A   1      30.503  24.939  26.853  1.00  0.00     0.345 HD
ENDBRANCH  10  21
ENDBRANCH   9  10
ENDBRANCH   7   9
ENDBRANCH   6   7
ENDBRANCH   5   6
ENDBRANCH   4   5
ENDBRANCH   3   4
ENDBRANCH   2   3
ENDBRANCH   1   2
BRANCH   1  25
ATOM     25  O   UNL A   1      34.438  30.869  27.815  1.00  0.00    -0.377 OA
BRANCH  25  26
ATOM     26  C   UNL A   1      34.942  32.197  27.924  1.00  0.00     0.188 C 
BRANCH  26  27
ATOM     27  C   UNL A   1      34.889  32.954  29.266  1.00  0.00     0.188 C 
BRANCH  27  28
ATOM     28  O   UNL A   1      34.599  34.336  29.159  1.00  0.00    -0.376 OA
BRANCH  28  29
ATOM     29  C   UNL A   1      33.235  34.730  29.130  1.00  0.00     0.202 C 
BRANCH  29  30
ATOM     30  C   UNL A   1      32.839  35.998  29.904  1.00  0.00     0.261 C 
BRANCH  30  31
ATOM     31  O   UNL A   1      33.449  36.178  31.193  1.00  0.00    -0.460 OA
BRANCH  31  32
ATOM     32  C   UNL A   1      33.120  35.316  32.184  1.00  0.00     0.338 C 
ATOM     33  O   UNL A   1      32.007  34.960  32.505  1.00  0.00    -0.246 OA
BRANCH  32  34
ATOM     34  C   UNL A   1      34.381  34.729  32.690  1.00  0.00     0.060 A 
ATOM     35  C   UNL A   1      35.599  35.330  32.349  1.00  0.00     0.016 A 
ATOM     36  C   UNL A   1      34.354  33.602  33.513  1.00  0.00     0.016 A 
ATOM     37  C   UNL A   1      36.799  34.799  32.830  1.00  0.00     0.010 A 
ATOM     38  C   UNL A   1      35.558  33.058  33.973  1.00  0.00     0.010 A 
ATOM     39  C   UNL A   1      36.788  33.645  33.623  1.00  0.00    -0.014 A 
BRANCH  39  40
ATOM     40  C   UNL A   1      38.061  32.971  33.982  1.00  0.00     0.031 A 
ATOM     41  C   UNL A   1      38.541  31.829  33.130  1.00  0.00     0.074 A 
ATOM     42  C   UNL A   1      38.779  33.368  35.048  1.00  0.00     0.049 A 
ATOM     43  N   UNL A   1      39.565  31.034  33.304  1.00  0.00    -0.248 NA
ATOM     44  C   UNL A   1      37.755  31.546  31.920  1.00  0.00     0.031 C 
ATOM     45  C   UNL A   1      38.446  34.497  35.915  1.00  0.00     0.029 A 
ATOM     46  N   UNL A   1      39.932  32.856  35.592  1.00  0.00    -0.354 N 
ATOM     47  C   UNL A   1      39.545  30.150  32.231  1.00  0.00     0.074 A 
ATOM     48  C   UNL A   1      38.389  30.491  31.429  1.00  0.00     0.031 C 
ATOM     49  C   UNL A   1      39.366  34.582  36.892  1.00  0.00     0.029 A 
ATOM     50  C   UNL A   1      40.321  33.484  36.753  1.00  0.00     0.049 A 
ATOM     51  H   UNL A   1      40.433  32.110  35.189  1.00  0.00     0.167 HD
ATOM     52  C   UNL A   1      40.412  29.148  31.943  1.00  0.00     0.034 A 
ATOM     53  C   UNL A   1      41.307  33.182  37.624  1.00  0.00     0.034 A 
ATOM     54  C   UNL A   1      41.550  28.813  32.765  1.00  0.00     0.049 A 
ATOM     55  C   UNL A   1      42.192  31.989  37.342  1.00  0.00     0.074 A 
ATOM     56  C   UNL A   1      42.504  27.831  32.554  1.00  0.00     0.029 A 
ATOM     57  N   UNL A   1      41.879  29.431  33.964  1.00  0.00    -0.354 N 
ATOM     58  N   UNL A   1      42.173  31.166  36.317  1.00  0.00    -0.248 NA
ATOM     59  C   UNL A   1      43.233  31.685  38.334  1.00  0.00     0.031 C 
ATOM     60  C   UNL A   1      43.350  27.796  33.667  1.00  0.00     0.029 A 
ATOM     61  C   UNL A   1      42.987  28.818  34.529  1.00  0.00     0.049 A 
ATOM     62  H   UNL A   1      41.395  30.194  34.357  1.00  0.00     0.167 HD
ATOM     63  C   UNL A   1      43.214  30.265  36.533  1.00  0.00     0.074 A 
ATOM     64  C   UNL A   1      43.854  30.659  37.770  1.00  0.00     0.031 C 
ATOM     65  C   UNL A   1      43.607  29.208  35.775  1.00  0.00     0.034 A 
BRANCH  52  66
ATOM     66  C   UNL A   1      40.126  28.305  30.724  1.00  0.00     0.023 A 
ATOM     67  C   UNL A   1      40.772  28.530  29.495  1.00  0.00     0.031 A 
ATOM     68  C   UNL A   1      39.180  27.267  30.789  1.00  0.00     0.131 A 
ATOM     69  C   UNL A   1      40.416  27.770  28.370  1.00  0.00     0.055 A 
ATOM     70  C   UNL A   1      38.890  26.462  29.687  1.00  0.00     0.041 A 
ATOM     71  F   UNL A   1      38.512  27.022  31.928  1.00  0.00    -0.206 F 
ATOM     72  C   UNL A   1      39.500  26.721  28.464  1.00  0.00     0.022 A 
BRANCH  69  73
ATOM     73  S   UNL A   1      41.062  28.267  26.748  1.00  0.00     0.124 S 
ATOM     74  O   UNL A   1      41.074  26.993  26.033  1.00  0.00    -0.237 OA
ATOM     75  O   UNL A   1      40.074  29.241  26.300  1.00  0.00    -0.237 OA
ATOM     76  O   UNL A   1      42.381  28.812  27.058  1.00  0.00    -0.744 OA
ENDBRANCH  69  73
ENDBRANCH  52  66
BRANCH  53  77
ATOM     77  C   UNL A   1      41.481  33.971  38.880  1.00  0.00     0.023 A 
ATOM     78  C   UNL A   1      40.740  33.675  40.035  1.00  0.00     0.031 A 
ATOM     79  C   UNL A   1      42.342  35.084  38.919  1.00  0.00     0.131 A 
ATOM     80  C   UNL A   1      40.838  34.507  41.163  1.00  0.00     0.055 A 
ATOM     81  C   UNL A   1      42.483  35.870  40.063  1.00  0.00     0.041 A 
ATOM     82  F   UNL A   1      43.065  35.423  37.840  1.00  0.00    -0.206 F 
ATOM     83  C   UNL A   1      41.718  35.592  41.191  1.00  0.00     0.022 A 
BRANCH  80  84
ATOM     84  S   UNL A   1      39.718  34.214  42.560  1.00  0.00     0.124 S 
ATOM     85  O   UNL A   1      40.612  34.395  43.697  1.00  0.00    -0.237 OA
ATOM     86  O   UNL A   1      38.710  35.251  42.363  1.00  0.00    -0.237 OA
ATOM     87  O   UNL A   1      39.253  32.846  42.341  1.00  0.00    -0.744 OA
ENDBRANCH  80  84
ENDBRANCH  53  77
BRANCH  65  88
ATOM     88  C   UNL A   1      44.808  28.423  36.252  1.00  0.00     0.023 A 
ATOM     89  C   UNL A   1      46.119  28.789  35.899  1.00  0.00     0.031 A 
ATOM     90  C   UNL A   1      44.638  27.291  37.070  1.00  0.00     0.131 A 
ATOM     91  C   UNL A   1      47.202  27.997  36.312  1.00  0.00     0.055 A 
ATOM     92  C   UNL A   1      45.723  26.548  37.535  1.00  0.00     0.041 A 
ATOM     93  F   UNL A   1      43.410  26.890  37.435  1.00  0.00    -0.206 F 
ATOM     94  C   UNL A   1      47.014  26.892  37.145  1.00  0.00     0.022 A 
BRANCH  91  95
ATOM     95  S   UNL A   1      48.853  28.371  35.660  1.00  0.00     0.124 S 
ATOM     96  O   UNL A   1      49.714  27.955  36.762  1.00  0.00    -0.237 OA
ATOM     97  O   UNL A   1      48.910  27.544  34.458  1.00  0.00    -0.237 OA
ATOM     98  O   UNL A   1      48.807  29.812  35.417  1.00  0.00    -0.744 OA
ENDBRANCH  91  95
ENDBRANCH  65  88
ENDBRANCH  39  40
ENDBRANCH  32  34
ENDBRANCH  31  32
ENDBRANCH  30  31
ENDBRANCH  29  30
ENDBRANCH  28  29
ENDBRANCH  27  28
ENDBRANCH  26  27
ENDBRANCH  25  26
ENDBRANCH   1  25
TORSDOF 28
ENDMDL
