MODEL 1
REMARK VINA RESULT:      -8.5      0.000      0.000
REMARK SMILES Cc1ccc(-c2nc(C)c(C(=O)N3CCC(C(=O)OCCOCCOCCOCCOC(=O)c4ccc(-c5c6nc(c(-c7cc(S(=O)(=O)[O-])ccc7F)c7ccc([nH]7)c(-c7cc(S(=O)(=O)[O-])ccc7F)c7nc(c(-c8cc(S(=O)(=O)[O-])ccc8F)c8ccc5[nH]8)C=C7)C=C6)cc4)CC3)s2)o1
REMARK SMILES IDX 26 1 25 2 24 3 23 4 22 5 21 6 20 7 19 8 17 9 18 10 16 11
REMARK SMILES IDX 11 12 12 13 13 14 14 15 98 16 15 17 97 18 10 19 6 20 7 21
REMARK SMILES IDX 99 22 8 23 9 24 5 25 1 26 2 27 3 28 100 29 4 30 27 31 28 32
REMARK SMILES IDX 29 33 30 34 31 35 32 36 33 37 34 38 35 39 96 40 36 41 95 42
REMARK SMILES IDX 37 43 38 44 39 45 89 46 40 47 94 48 88 49 90 50 41 51 93 52
REMARK SMILES IDX 87 53 86 54 42 56 74 57 54 58 73 59 55 60 58 61 72 62 91 63
REMARK SMILES IDX 56 64 57 65 71 67 92 68 59 69 43 70 44 71 52 72 45 73 51 74
REMARK SMILES IDX 53 75 50 76 46 77 47 78 48 79 49 80 75 81 76 82 84 83 77 84
REMARK SMILES IDX 83 85 85 86 82 87 78 88 79 89 80 90 81 91 60 92 61 93 69 94
REMARK SMILES IDX 62 95 68 96 70 97 67 98 63 99 64 100 65 101 66 102
REMARK H PARENT 90 55 58 66
REMARK Flexibility Score: inf
ROOT
ATOM      1  C   UNL A   1      33.018  36.737  30.051  1.00  0.00     0.188 C 
ENDROOT
BRANCH   1   2
ATOM      2  O   UNL A   1      32.076  36.512  31.097  1.00  0.00    -0.377 OA
BRANCH   2   3
ATOM      3  C   UNL A   1      32.599  36.178  32.364  1.00  0.00     0.188 C 
BRANCH   3   4
ATOM      4  C   UNL A   1      33.914  36.853  32.760  1.00  0.00     0.188 C 
BRANCH   4   5
ATOM      5  O   UNL A   1      34.844  36.234  33.629  1.00  0.00    -0.376 OA
BRANCH   5   6
ATOM      6  C   UNL A   1      34.890  34.823  33.783  1.00  0.00     0.202 C 
BRANCH   6   7
ATOM      7  C   UNL A   1      35.942  34.138  34.669  1.00  0.00     0.261 C 
BRANCH   7   8
ATOM      8  O   UNL A   1      37.171  33.751  34.033  1.00  0.00    -0.463 OA
BRANCH   8   9
ATOM      9  C   UNL A   1      37.286  32.444  33.723  1.00  0.00     0.309 C 
ATOM     10  O   UNL A   1      36.347  31.702  33.446  1.00  0.00    -0.252 OA
BRANCH   9  11
ATOM     11  C   UNL A   1      38.700  31.908  33.811  1.00  0.00     0.103 C 
ATOM     12  C   UNL A   1      41.688  29.711  35.710  1.00  0.00     0.265 C 
ATOM     13  O   UNL A   1      41.889  30.196  36.823  1.00  0.00    -0.268 OA
ATOM     14  N   UNL A   1      40.926  30.392  34.777  1.00  0.00    -0.338 N 
ATOM     15  C   UNL A   1      41.027  31.829  34.750  1.00  0.00     0.120 C 
ATOM     16  C   UNL A   1      39.976  29.767  33.861  1.00  0.00     0.120 C 
ATOM     17  C   UNL A   1      39.669  32.490  34.850  1.00  0.00     0.037 C 
ATOM     18  C   UNL A   1      38.600  30.393  34.014  1.00  0.00     0.037 C 
BRANCH  12  19
ATOM     19  C   UNL A   1      42.332  28.498  35.261  1.00  0.00     0.115 A 
ATOM     20  C   UNL A   1      43.475  26.876  33.898  1.00  0.00     0.159 A 
ATOM     21  N   UNL A   1      42.850  26.259  34.874  1.00  0.00    -0.237 NA
ATOM     22  S   UNL A   1      43.376  28.578  33.900  1.00  0.00    -0.105 S 
ATOM     23  C   UNL A   1      42.177  27.176  35.659  1.00  0.00     0.062 A 
ATOM     24  C   UNL A   1      41.346  26.608  36.755  1.00  0.00     0.068 C 
BRANCH  20  25
ATOM     25  C   UNL A   1      44.154  26.155  32.869  1.00  0.00     0.162 A 
ATOM     26  C   UNL A   1      44.140  23.283  30.746  1.00  0.00     0.087 C 
ATOM     27  C   UNL A   1      44.522  24.540  31.414  1.00  0.00     0.101 A 
ATOM     28  C   UNL A   1      45.574  25.416  31.285  1.00  0.00     0.046 A 
ATOM     29  O   UNL A   1      43.671  24.970  32.379  1.00  0.00    -0.459 OA
ATOM     30  C   UNL A   1      45.330  26.462  32.208  1.00  0.00     0.054 A 
ENDBRANCH  20  25
ENDBRANCH  12  19
ENDBRANCH   9  11
ENDBRANCH   8   9
ENDBRANCH   7   8
ENDBRANCH   6   7
ENDBRANCH   5   6
ENDBRANCH   4   5
ENDBRANCH   3   4
ENDBRANCH   2   3
ENDBRANCH   1   2
BRANCH   1  31
ATOM     31  C   UNL A   1      33.192  35.623  28.998  1.00  0.00     0.188 C 
BRANCH  31  32
ATOM     32  O   UNL A   1      34.546  35.271  28.738  1.00  0.00    -0.376 OA
BRANCH  32  33
ATOM     33  C   UNL A   1      34.823  34.105  27.973  1.00  0.00     0.202 C 
BRANCH  33  34
ATOM     34  C   UNL A   1      33.794  32.957  27.972  1.00  0.00     0.261 C 
BRANCH  34  35
ATOM     35  O   UNL A   1      34.192  31.727  28.592  1.00  0.00    -0.460 OA
BRANCH  35  36
ATOM     36  C   UNL A   1      35.004  31.816  29.670  1.00  0.00     0.338 C 
ATOM     37  O   UNL A   1      34.732  32.310  30.742  1.00  0.00    -0.246 OA
BRANCH  36  38
ATOM     38  C   UNL A   1      36.212  31.002  29.406  1.00  0.00     0.060 A 
ATOM     39  C   UNL A   1      36.848  30.397  30.497  1.00  0.00     0.016 A 
ATOM     40  C   UNL A   1      36.736  30.874  28.117  1.00  0.00     0.016 A 
ATOM     41  C   UNL A   1      38.057  29.735  30.317  1.00  0.00     0.010 A 
ATOM     42  C   UNL A   1      37.964  30.228  27.940  1.00  0.00     0.010 A 
ATOM     43  C   UNL A   1      38.657  29.715  29.053  1.00  0.00    -0.014 A 
BRANCH  43  44
ATOM     44  C   UNL A   1      40.114  29.437  28.980  1.00  0.00     0.031 A 
ATOM     45  C   UNL A   1      41.051  30.440  29.600  1.00  0.00     0.074 A 
ATOM     46  C   UNL A   1      40.587  28.284  28.479  1.00  0.00     0.049 A 
ATOM     47  N   UNL A   1      42.354  30.418  29.700  1.00  0.00    -0.248 NA
ATOM     48  C   UNL A   1      40.424  31.636  30.183  1.00  0.00     0.031 C 
ATOM     49  C   UNL A   1      39.772  27.215  27.905  1.00  0.00     0.029 A 
ATOM     50  N   UNL A   1      41.874  27.818  28.382  1.00  0.00    -0.354 N 
ATOM     51  C   UNL A   1      42.701  31.591  30.362  1.00  0.00     0.074 A 
ATOM     52  C   UNL A   1      41.477  32.332  30.576  1.00  0.00     0.031 C 
ATOM     53  C   UNL A   1      40.582  26.220  27.506  1.00  0.00     0.029 A 
ATOM     54  C   UNL A   1      41.972  26.593  27.767  1.00  0.00     0.049 A 
ATOM     55  H   UNL A   1      42.653  28.316  28.720  1.00  0.00     0.167 HD
ATOM     56  C   UNL A   1      43.925  32.007  30.774  1.00  0.00     0.034 A 
ATOM     57  C   UNL A   1      43.061  25.871  27.434  1.00  0.00     0.034 A 
ATOM     58  C   UNL A   1      45.139  31.267  30.527  1.00  0.00     0.049 A 
ATOM     59  C   UNL A   1      44.427  26.391  27.814  1.00  0.00     0.074 A 
ATOM     60  C   UNL A   1      46.436  31.596  30.874  1.00  0.00     0.029 A 
ATOM     61  N   UNL A   1      45.204  30.052  29.854  1.00  0.00    -0.354 N 
ATOM     62  N   UNL A   1      44.748  27.506  28.433  1.00  0.00    -0.248 NA
ATOM     63  C   UNL A   1      45.575  25.545  27.468  1.00  0.00     0.031 C 
ATOM     64  C   UNL A   1      47.292  30.624  30.343  1.00  0.00     0.029 A 
ATOM     65  C   UNL A   1      46.523  29.634  29.752  1.00  0.00     0.049 A 
ATOM     66  H   UNL A   1      44.428  29.560  29.501  1.00  0.00     0.167 HD
ATOM     67  C   UNL A   1      46.133  27.475  28.582  1.00  0.00     0.074 A 
ATOM     68  C   UNL A   1      46.580  26.225  27.999  1.00  0.00     0.031 C 
ATOM     69  C   UNL A   1      46.959  28.390  29.155  1.00  0.00     0.034 A 
BRANCH  56  70
ATOM     70  C   UNL A   1      43.994  33.347  31.473  1.00  0.00     0.023 A 
ATOM     71  C   UNL A   1      44.027  33.449  32.877  1.00  0.00     0.031 A 
ATOM     72  C   UNL A   1      43.946  34.541  30.732  1.00  0.00     0.131 A 
ATOM     73  C   UNL A   1      43.905  34.704  33.492  1.00  0.00     0.055 A 
ATOM     74  C   UNL A   1      43.929  35.792  31.351  1.00  0.00     0.041 A 
ATOM     75  F   UNL A   1      43.885  34.512  29.392  1.00  0.00    -0.206 F 
ATOM     76  C   UNL A   1      43.885  35.879  32.740  1.00  0.00     0.022 A 
BRANCH  73  77
ATOM     77  S   UNL A   1      43.570  34.763  35.275  1.00  0.00     0.124 S 
ATOM     78  O   UNL A   1      44.522  35.779  35.719  1.00  0.00    -0.237 OA
ATOM     79  O   UNL A   1      42.163  35.143  35.319  1.00  0.00    -0.237 OA
ATOM     80  O   UNL A   1      43.866  33.404  35.726  1.00  0.00    -0.744 OA
ENDBRANCH  73  77
ENDBRANCH  56  70
BRANCH  57  81
ATOM     81  C   UNL A   1      42.907  24.602  26.665  1.00  0.00     0.023 A 
ATOM     82  C   UNL A   1      42.221  23.496  27.189  1.00  0.00     0.031 A 
ATOM     83  C   UNL A   1      43.484  24.474  25.387  1.00  0.00     0.131 A 
ATOM     84  C   UNL A   1      42.158  22.300  26.455  1.00  0.00     0.055 A 
ATOM     85  C   UNL A   1      43.372  23.301  24.639  1.00  0.00     0.041 A 
ATOM     86  F   UNL A   1      44.156  25.499  24.840  1.00  0.00    -0.206 F 
ATOM     87  C   UNL A   1      42.715  22.201  25.177  1.00  0.00     0.022 A 
BRANCH  84  88
ATOM     88  S   UNL A   1      41.398  20.842  27.223  1.00  0.00     0.124 S 
ATOM     89  O   UNL A   1      40.528  20.363  26.155  1.00  0.00    -0.237 OA
ATOM     90  O   UNL A   1      42.562  20.015  27.523  1.00  0.00    -0.237 OA
ATOM     91  O   UNL A   1      40.710  21.392  28.389  1.00  0.00    -0.744 OA
ENDBRANCH  84  88
ENDBRANCH  57  81
BRANCH  69  92
ATOM     92  C   UNL A   1      48.429  28.039  29.235  1.00  0.00     0.023 A 
ATOM     93  C   UNL A   1      49.292  28.175  28.134  1.00  0.00     0.031 A 
ATOM     94  C   UNL A   1      48.969  27.537  30.435  1.00  0.00     0.131 A 
ATOM     95  C   UNL A   1      50.624  27.742  28.230  1.00  0.00     0.055 A 
ATOM     96  C   UNL A   1      50.313  27.182  30.547  1.00  0.00     0.041 A 
ATOM     97  F   UNL A   1      48.195  27.380  31.520  1.00  0.00    -0.206 F 
ATOM     98  C   UNL A   1      51.145  27.265  29.436  1.00  0.00     0.022 A 
BRANCH  95  99
ATOM     99  S   UNL A   1      51.629  27.678  26.721  1.00  0.00     0.124 S 
ATOM    100  O   UNL A   1      52.959  27.997  27.229  1.00  0.00    -0.237 OA
ATOM    101  O   UNL A   1      51.430  26.303  26.273  1.00  0.00    -0.237 OA
ATOM    102  O   UNL A   1      51.030  28.701  25.866  1.00  0.00    -0.744 OA
ENDBRANCH  95  99
ENDBRANCH  69  92
ENDBRANCH  43  44
ENDBRANCH  36  38
ENDBRANCH  35  36
ENDBRANCH  34  35
ENDBRANCH  33  34
ENDBRANCH  32  33
ENDBRANCH  31  32
ENDBRANCH   1  31
TORSDOF 25
ENDMDL
MODEL 2
REMARK VINA RESULT:      -8.4      4.769     12.300
REMARK SMILES Cc1ccc(-c2nc(C)c(C(=O)N3CCC(C(=O)OCCOCCOCCOCCOC(=O)c4ccc(-c5c6nc(c(-c7cc(S(=O)(=O)[O-])ccc7F)c7ccc([nH]7)c(-c7cc(S(=O)(=O)[O-])ccc7F)c7nc(c(-c8cc(S(=O)(=O)[O-])ccc8F)c8ccc5[nH]8)C=C7)C=C6)cc4)CC3)s2)o1
REMARK SMILES IDX 26 1 25 2 24 3 23 4 22 5 21 6 20 7 19 8 17 9 18 10 16 11
REMARK SMILES IDX 11 12 12 13 13 14 14 15 98 16 15 17 97 18 10 19 6 20 7 21
REMARK SMILES IDX 99 22 8 23 9 24 5 25 1 26 2 27 3 28 100 29 4 30 27 31 28 32
REMARK SMILES IDX 29 33 30 34 31 35 32 36 33 37 34 38 35 39 96 40 36 41 95 42
REMARK SMILES IDX 37 43 38 44 39 45 89 46 40 47 94 48 88 49 90 50 41 51 93 52
REMARK SMILES IDX 87 53 86 54 42 56 74 57 54 58 73 59 55 60 58 61 72 62 91 63
REMARK SMILES IDX 56 64 57 65 71 67 92 68 59 69 43 70 44 71 52 72 45 73 51 74
REMARK SMILES IDX 53 75 50 76 46 77 47 78 48 79 49 80 75 81 76 82 84 83 77 84
REMARK SMILES IDX 83 85 85 86 82 87 78 88 79 89 80 90 81 91 60 92 61 93 69 94
REMARK SMILES IDX 62 95 68 96 70 97 67 98 63 99 64 100 65 101 66 102
REMARK H PARENT 90 55 58 66
REMARK Flexibility Score: inf
ROOT
ATOM      1  C   UNL A   1      39.259  21.497  25.913  1.00  0.00     0.188 C 
ENDROOT
BRANCH   1   2
ATOM      2  O   UNL A   1      38.716  22.743  26.343  1.00  0.00    -0.377 OA
BRANCH   2   3
ATOM      3  C   UNL A   1      37.348  22.964  26.084  1.00  0.00     0.188 C 
BRANCH   3   4
ATOM      4  C   UNL A   1      36.910  22.894  24.619  1.00  0.00     0.188 C 
BRANCH   4   5
ATOM      5  O   UNL A   1      36.234  21.768  24.090  1.00  0.00    -0.376 OA
BRANCH   5   6
ATOM      6  C   UNL A   1      35.835  20.686  24.919  1.00  0.00     0.202 C 
BRANCH   6   7
ATOM      7  C   UNL A   1      34.480  19.983  24.738  1.00  0.00     0.261 C 
BRANCH   7   8
ATOM      8  O   UNL A   1      33.554  20.069  25.833  1.00  0.00    -0.463 OA
BRANCH   8   9
ATOM      9  C   UNL A   1      33.609  21.203  26.561  1.00  0.00     0.309 C 
ATOM     10  O   UNL A   1      34.081  21.289  27.692  1.00  0.00    -0.252 OA
BRANCH   9  11
ATOM     11  C   UNL A   1      32.961  22.399  25.896  1.00  0.00     0.103 C 
ATOM     12  C   UNL A   1      30.686  25.888  26.014  1.00  0.00     0.265 C 
ATOM     13  O   UNL A   1      29.562  25.613  26.432  1.00  0.00    -0.268 OA
ATOM     14  N   UNL A   1      31.561  24.881  25.644  1.00  0.00    -0.338 N 
ATOM     15  C   UNL A   1      31.005  23.707  25.021  1.00  0.00     0.120 C 
ATOM     16  C   UNL A   1      32.998  24.892  25.898  1.00  0.00     0.120 C 
ATOM     17  C   UNL A   1      31.436  22.439  25.726  1.00  0.00     0.037 C 
ATOM     18  C   UNL A   1      33.412  23.646  26.663  1.00  0.00     0.037 C 
BRANCH  12  19
ATOM     19  C   UNL A   1      31.111  27.245  25.753  1.00  0.00     0.115 A 
ATOM     20  C   UNL A   1      31.735  29.550  26.048  1.00  0.00     0.159 A 
ATOM     21  N   UNL A   1      31.374  29.355  24.801  1.00  0.00    -0.237 NA
ATOM     22  S   UNL A   1      31.736  28.174  27.053  1.00  0.00    -0.105 S 
ATOM     23  C   UNL A   1      30.999  28.037  24.617  1.00  0.00     0.062 A 
ATOM     24  C   UNL A   1      30.476  27.691  23.268  1.00  0.00     0.068 C 
BRANCH  20  25
ATOM     25  C   UNL A   1      32.058  30.852  26.538  1.00  0.00     0.162 A 
ATOM     26  C   UNL A   1      34.505  32.903  28.138  1.00  0.00     0.087 C 
ATOM     27  C   UNL A   1      33.269  32.429  27.491  1.00  0.00     0.101 A 
ATOM     28  C   UNL A   1      32.082  33.024  27.133  1.00  0.00     0.046 A 
ATOM     29  O   UNL A   1      33.255  31.115  27.152  1.00  0.00    -0.459 OA
ATOM     30  C   UNL A   1      31.310  32.016  26.506  1.00  0.00     0.054 A 
ENDBRANCH  20  25
ENDBRANCH  12  19
ENDBRANCH   9  11
ENDBRANCH   8   9
ENDBRANCH   7   8
ENDBRANCH   6   7
ENDBRANCH   5   6
ENDBRANCH   4   5
ENDBRANCH   3   4
ENDBRANCH   2   3
ENDBRANCH   1   2
BRANCH   1  31
ATOM     31  C   UNL A   1      40.485  20.954  26.674  1.00  0.00     0.188 C 
BRANCH  31  32
ATOM     32  O   UNL A   1      41.227  19.970  25.962  1.00  0.00    -0.376 OA
BRANCH  32  33
ATOM     33  C   UNL A   1      42.600  19.774  26.280  1.00  0.00     0.202 C 
BRANCH  33  34
ATOM     34  C   UNL A   1      43.645  20.733  25.678  1.00  0.00     0.261 C 
BRANCH  34  35
ATOM     35  O   UNL A   1      43.751  22.034  26.272  1.00  0.00    -0.460 OA
BRANCH  35  36
ATOM     36  C   UNL A   1      43.266  23.077  25.559  1.00  0.00     0.338 C 
ATOM     37  O   UNL A   1      42.954  23.070  24.388  1.00  0.00    -0.246 OA
BRANCH  36  38
ATOM     38  C   UNL A   1      42.958  24.176  26.501  1.00  0.00     0.060 A 
ATOM     39  C   UNL A   1      43.777  25.311  26.476  1.00  0.00     0.016 A 
ATOM     40  C   UNL A   1      41.912  24.074  27.421  1.00  0.00     0.016 A 
ATOM     41  C   UNL A   1      43.610  26.310  27.429  1.00  0.00     0.010 A 
ATOM     42  C   UNL A   1      41.759  25.068  28.394  1.00  0.00     0.010 A 
ATOM     43  C   UNL A   1      42.651  26.155  28.437  1.00  0.00    -0.014 A 
BRANCH  43  44
ATOM     44  C   UNL A   1      42.807  26.964  29.672  1.00  0.00     0.031 A 
ATOM     45  C   UNL A   1      43.834  26.516  30.679  1.00  0.00     0.074 A 
ATOM     46  C   UNL A   1      42.139  28.116  29.849  1.00  0.00     0.049 A 
ATOM     47  N   UNL A   1      44.186  27.061  31.814  1.00  0.00    -0.248 NA
ATOM     48  C   UNL A   1      44.559  25.278  30.356  1.00  0.00     0.031 C 
ATOM     49  C   UNL A   1      41.164  28.678  28.917  1.00  0.00     0.029 A 
ATOM     50  N   UNL A   1      42.191  29.026  30.875  1.00  0.00    -0.354 N 
ATOM     51  C   UNL A   1      45.176  26.235  32.337  1.00  0.00     0.074 A 
ATOM     52  C   UNL A   1      45.318  25.119  31.427  1.00  0.00     0.031 C 
ATOM     53  C   UNL A   1      40.701  29.835  29.421  1.00  0.00     0.029 A 
ATOM     54  C   UNL A   1      41.321  30.079  30.722  1.00  0.00     0.049 A 
ATOM     55  H   UNL A   1      42.792  28.931  31.649  1.00  0.00     0.167 HD
ATOM     56  C   UNL A   1      45.917  26.399  33.461  1.00  0.00     0.034 A 
ATOM     57  C   UNL A   1      41.045  31.107  31.550  1.00  0.00     0.034 A 
ATOM     58  C   UNL A   1      45.743  27.505  34.371  1.00  0.00     0.049 A 
ATOM     59  C   UNL A   1      41.810  31.227  32.846  1.00  0.00     0.074 A 
ATOM     60  C   UNL A   1      46.415  27.767  35.551  1.00  0.00     0.029 A 
ATOM     61  N   UNL A   1      44.815  28.527  34.209  1.00  0.00    -0.354 N 
ATOM     62  N   UNL A   1      42.740  30.438  33.337  1.00  0.00    -0.248 NA
ATOM     63  C   UNL A   1      41.503  32.387  33.689  1.00  0.00     0.031 C 
ATOM     64  C   UNL A   1      45.842  28.899  36.141  1.00  0.00     0.029 A 
ATOM     65  C   UNL A   1      44.879  29.405  35.281  1.00  0.00     0.049 A 
ATOM     66  H   UNL A   1      44.201  28.616  33.444  1.00  0.00     0.167 HD
ATOM     67  C   UNL A   1      43.153  31.029  34.530  1.00  0.00     0.074 A 
ATOM     68  C   UNL A   1      42.378  32.246  34.673  1.00  0.00     0.031 C 
ATOM     69  C   UNL A   1      44.091  30.611  35.420  1.00  0.00     0.034 A 
BRANCH  56  70
ATOM     70  C   UNL A   1      46.928  25.320  33.779  1.00  0.00     0.023 A 
ATOM     71  C   UNL A   1      46.593  24.199  34.562  1.00  0.00     0.031 A 
ATOM     72  C   UNL A   1      48.265  25.450  33.363  1.00  0.00     0.131 A 
ATOM     73  C   UNL A   1      47.596  23.316  34.990  1.00  0.00     0.055 A 
ATOM     74  C   UNL A   1      49.239  24.511  33.707  1.00  0.00     0.041 A 
ATOM     75  F   UNL A   1      48.656  26.509  32.638  1.00  0.00    -0.206 F 
ATOM     76  C   UNL A   1      48.913  23.447  34.544  1.00  0.00     0.022 A 
BRANCH  73  77
ATOM     77  S   UNL A   1      47.195  22.118  36.293  1.00  0.00     0.124 S 
ATOM     78  O   UNL A   1      47.714  20.877  35.721  1.00  0.00    -0.237 OA
ATOM     79  O   UNL A   1      47.922  22.645  37.441  1.00  0.00    -0.237 OA
ATOM     80  O   UNL A   1      45.738  22.188  36.388  1.00  0.00    -0.744 OA
ENDBRANCH  73  77
ENDBRANCH  56  70
BRANCH  57  81
ATOM     81  C   UNL A   1      39.967  32.077  31.199  1.00  0.00     0.023 A 
ATOM     82  C   UNL A   1      38.659  31.941  31.688  1.00  0.00     0.031 A 
ATOM     83  C   UNL A   1      40.237  33.151  30.329  1.00  0.00     0.131 A 
ATOM     84  C   UNL A   1      37.662  32.841  31.277  1.00  0.00     0.055 A 
ATOM     85  C   UNL A   1      39.255  34.074  29.967  1.00  0.00     0.041 A 
ATOM     86  F   UNL A   1      41.470  33.325  29.828  1.00  0.00    -0.206 F 
ATOM     87  C   UNL A   1      37.956  33.916  30.433  1.00  0.00     0.022 A 
BRANCH  84  88
ATOM     88  S   UNL A   1      35.950  32.549  31.804  1.00  0.00     0.124 S 
ATOM     89  O   UNL A   1      36.119  32.281  33.228  1.00  0.00    -0.237 OA
ATOM     90  O   UNL A   1      35.307  33.812  31.461  1.00  0.00    -0.237 OA
ATOM     91  O   UNL A   1      35.537  31.403  30.997  1.00  0.00    -0.744 OA
ENDBRANCH  84  88
ENDBRANCH  57  81
BRANCH  69  92
ATOM     92  C   UNL A   1      44.376  31.514  36.601  1.00  0.00     0.023 A 
ATOM     93  C   UNL A   1      43.749  31.338  37.846  1.00  0.00     0.031 A 
ATOM     94  C   UNL A   1      45.276  32.588  36.464  1.00  0.00     0.131 A 
ATOM     95  C   UNL A   1      43.970  32.263  38.879  1.00  0.00     0.055 A 
ATOM     96  C   UNL A   1      45.552  33.457  37.519  1.00  0.00     0.041 A 
ATOM     97  F   UNL A   1      45.903  32.811  35.299  1.00  0.00    -0.206 F 
ATOM     98  C   UNL A   1      44.883  33.310  38.730  1.00  0.00     0.022 A 
BRANCH  95  99
ATOM     99  S   UNL A   1      42.944  32.163  40.371  1.00  0.00     0.124 S 
ATOM    100  O   UNL A   1      43.499  30.993  41.043  1.00  0.00    -0.237 OA
ATOM    101  O   UNL A   1      43.201  33.449  41.012  1.00  0.00    -0.237 OA
ATOM    102  O   UNL A   1      41.590  31.992  39.846  1.00  0.00    -0.744 OA
ENDBRANCH  95  99
ENDBRANCH  69  92
ENDBRANCH  43  44
ENDBRANCH  36  38
ENDBRANCH  35  36
ENDBRANCH  34  35
ENDBRANCH  33  34
ENDBRANCH  32  33
ENDBRANCH  31  32
ENDBRANCH   1  31
TORSDOF 25
ENDMDL
MODEL 3
REMARK VINA RESULT:      -8.4      4.468     12.400
REMARK SMILES Cc1ccc(-c2nc(C)c(C(=O)N3CCC(C(=O)OCCOCCOCCOCCOC(=O)c4ccc(-c5c6nc(c(-c7cc(S(=O)(=O)[O-])ccc7F)c7ccc([nH]7)c(-c7cc(S(=O)(=O)[O-])ccc7F)c7nc(c(-c8cc(S(=O)(=O)[O-])ccc8F)c8ccc5[nH]8)C=C7)C=C6)cc4)CC3)s2)o1
REMARK SMILES IDX 26 1 25 2 24 3 23 4 22 5 21 6 20 7 19 8 17 9 18 10 16 11
REMARK SMILES IDX 11 12 12 13 13 14 14 15 98 16 15 17 97 18 10 19 6 20 7 21
REMARK SMILES IDX 99 22 8 23 9 24 5 25 1 26 2 27 3 28 100 29 4 30 27 31 28 32
REMARK SMILES IDX 29 33 30 34 31 35 32 36 33 37 34 38 35 39 96 40 36 41 95 42
REMARK SMILES IDX 37 43 38 44 39 45 89 46 40 47 94 48 88 49 90 50 41 51 93 52
REMARK SMILES IDX 87 53 86 54 42 56 74 57 54 58 73 59 55 60 58 61 72 62 91 63
REMARK SMILES IDX 56 64 57 65 71 67 92 68 59 69 43 70 44 71 52 72 45 73 51 74
REMARK SMILES IDX 53 75 50 76 46 77 47 78 48 79 49 80 75 81 76 82 84 83 77 84
REMARK SMILES IDX 83 85 85 86 82 87 78 88 79 89 80 90 81 91 60 92 61 93 69 94
REMARK SMILES IDX 62 95 68 96 70 97 67 98 63 99 64 100 65 101 66 102
REMARK H PARENT 90 55 58 66
REMARK Flexibility Score: inf
ROOT
ATOM      1  C   UNL A   1      40.288  21.368  26.063  1.00  0.00     0.188 C 
ENDROOT
BRANCH   1   2
ATOM      2  O   UNL A   1      39.493  22.229  26.875  1.00  0.00    -0.377 OA
BRANCH   2   3
ATOM      3  C   UNL A   1      38.261  22.654  26.337  1.00  0.00     0.188 C 
BRANCH   3   4
ATOM      4  C   UNL A   1      38.008  22.322  24.864  1.00  0.00     0.188 C 
BRANCH   4   5
ATOM      5  O   UNL A   1      37.049  21.360  24.465  1.00  0.00    -0.376 OA
BRANCH   5   6
ATOM      6  C   UNL A   1      36.188  20.736  25.406  1.00  0.00     0.202 C 
BRANCH   6   7
ATOM      7  C   UNL A   1      34.810  20.186  25.005  1.00  0.00     0.261 C 
BRANCH   7   8
ATOM      8  O   UNL A   1      33.686  21.062  25.185  1.00  0.00    -0.463 OA
BRANCH   8   9
ATOM      9  C   UNL A   1      33.672  21.771  26.332  1.00  0.00     0.309 C 
ATOM     10  O   UNL A   1      33.596  21.285  27.457  1.00  0.00    -0.252 OA
BRANCH   9  11
ATOM     11  C   UNL A   1      33.684  23.273  26.132  1.00  0.00     0.103 C 
ATOM     12  C   UNL A   1      33.144  26.676  23.790  1.00  0.00     0.265 C 
ATOM     13  O   UNL A   1      33.917  26.624  22.833  1.00  0.00    -0.268 OA
ATOM     14  N   UNL A   1      33.285  25.800  24.852  1.00  0.00    -0.338 N 
ATOM     15  C   UNL A   1      34.623  25.420  25.233  1.00  0.00     0.120 C 
ATOM     16  C   UNL A   1      32.178  25.179  25.573  1.00  0.00     0.120 C 
ATOM     17  C   UNL A   1      34.788  23.916  25.282  1.00  0.00     0.037 C 
ATOM     18  C   UNL A   1      32.318  23.666  25.561  1.00  0.00     0.037 C 
BRANCH  12  19
ATOM     19  C   UNL A   1      32.151  27.716  23.935  1.00  0.00     0.115 A 
ATOM     20  C   UNL A   1      30.322  29.218  23.501  1.00  0.00     0.159 A 
ATOM     21  N   UNL A   1      31.082  29.723  24.445  1.00  0.00    -0.237 NA
ATOM     22  S   UNL A   1      30.770  27.680  22.918  1.00  0.00    -0.105 S 
ATOM     23  C   UNL A   1      32.146  28.878  24.697  1.00  0.00     0.062 A 
ATOM     24  C   UNL A   1      33.146  29.367  25.685  1.00  0.00     0.068 C 
BRANCH  20  25
ATOM     25  C   UNL A   1      29.215  29.943  22.963  1.00  0.00     0.162 A 
ATOM     26  C   UNL A   1      28.161  32.675  20.918  1.00  0.00     0.087 C 
ATOM     27  C   UNL A   1      28.166  31.501  21.810  1.00  0.00     0.101 A 
ATOM     28  C   UNL A   1      27.185  30.727  22.384  1.00  0.00     0.046 A 
ATOM     29  O   UNL A   1      29.392  31.045  22.169  1.00  0.00    -0.459 OA
ATOM     30  C   UNL A   1      27.858  29.716  23.112  1.00  0.00     0.054 A 
ENDBRANCH  20  25
ENDBRANCH  12  19
ENDBRANCH   9  11
ENDBRANCH   8   9
ENDBRANCH   7   8
ENDBRANCH   6   7
ENDBRANCH   5   6
ENDBRANCH   4   5
ENDBRANCH   3   4
ENDBRANCH   2   3
ENDBRANCH   1   2
BRANCH   1  31
ATOM     31  C   UNL A   1      40.849  20.090  26.718  1.00  0.00     0.188 C 
BRANCH  31  32
ATOM     32  O   UNL A   1      41.364  19.137  25.794  1.00  0.00    -0.376 OA
BRANCH  32  33
ATOM     33  C   UNL A   1      42.736  18.773  25.867  1.00  0.00     0.202 C 
BRANCH  33  34
ATOM     34  C   UNL A   1      43.782  19.688  25.199  1.00  0.00     0.261 C 
BRANCH  34  35
ATOM     35  O   UNL A   1      43.969  20.989  25.773  1.00  0.00    -0.460 OA
BRANCH  35  36
ATOM     36  C   UNL A   1      43.931  22.045  24.928  1.00  0.00     0.338 C 
ATOM     37  O   UNL A   1      44.066  22.013  23.725  1.00  0.00    -0.246 OA
BRANCH  36  38
ATOM     38  C   UNL A   1      43.464  23.227  25.688  1.00  0.00     0.060 A 
ATOM     39  C   UNL A   1      43.216  24.407  24.977  1.00  0.00     0.016 A 
ATOM     40  C   UNL A   1      43.318  23.188  27.076  1.00  0.00     0.016 A 
ATOM     41  C   UNL A   1      42.905  25.578  25.661  1.00  0.00     0.010 A 
ATOM     42  C   UNL A   1      43.028  24.371  27.766  1.00  0.00     0.010 A 
ATOM     43  C   UNL A   1      42.886  25.580  27.060  1.00  0.00    -0.014 A 
BRANCH  43  44
ATOM     44  C   UNL A   1      43.024  26.886  27.753  1.00  0.00     0.031 A 
ATOM     45  C   UNL A   1      44.409  27.461  27.897  1.00  0.00     0.074 A 
ATOM     46  C   UNL A   1      41.951  27.592  28.147  1.00  0.00     0.049 A 
ATOM     47  N   UNL A   1      44.796  28.591  28.427  1.00  0.00    -0.248 NA
ATOM     48  C   UNL A   1      45.508  26.637  27.370  1.00  0.00     0.031 C 
ATOM     49  C   UNL A   1      40.561  27.164  28.009  1.00  0.00     0.029 A 
ATOM     50  N   UNL A   1      41.868  28.828  28.738  1.00  0.00    -0.354 N 
ATOM     51  C   UNL A   1      46.180  28.617  28.292  1.00  0.00     0.074 A 
ATOM     52  C   UNL A   1      46.568  27.359  27.692  1.00  0.00     0.031 C 
ATOM     53  C   UNL A   1      39.761  28.120  28.510  1.00  0.00     0.029 A 
ATOM     54  C   UNL A   1      40.582  29.212  29.034  1.00  0.00     0.049 A 
ATOM     55  H   UNL A   1      42.655  29.386  28.933  1.00  0.00     0.167 HD
ATOM     56  C   UNL A   1      47.050  29.606  28.617  1.00  0.00     0.034 A 
ATOM     57  C   UNL A   1      40.126  30.307  29.674  1.00  0.00     0.034 A 
ATOM     58  C   UNL A   1      46.647  30.843  29.240  1.00  0.00     0.049 A 
ATOM     59  C   UNL A   1      41.115  31.359  30.117  1.00  0.00     0.074 A 
ATOM     60  C   UNL A   1      47.436  31.908  29.636  1.00  0.00     0.029 A 
ATOM     61  N   UNL A   1      45.338  31.175  29.572  1.00  0.00    -0.354 N 
ATOM     62  N   UNL A   1      42.423  31.372  29.993  1.00  0.00    -0.248 NA
ATOM     63  C   UNL A   1      40.562  32.552  30.769  1.00  0.00     0.031 C 
ATOM     64  C   UNL A   1      46.618  32.845  30.278  1.00  0.00     0.029 A 
ATOM     65  C   UNL A   1      45.303  32.415  30.193  1.00  0.00     0.049 A 
ATOM     66  H   UNL A   1      44.551  30.613  29.392  1.00  0.00     0.167 HD
ATOM     67  C   UNL A   1      42.844  32.593  30.519  1.00  0.00     0.074 A 
ATOM     68  C   UNL A   1      41.648  33.289  30.948  1.00  0.00     0.031 C 
ATOM     69  C   UNL A   1      44.103  33.096  30.629  1.00  0.00     0.034 A 
BRANCH  56  70
ATOM     70  C   UNL A   1      48.516  29.343  28.355  1.00  0.00     0.023 A 
ATOM     71  C   UNL A   1      49.040  29.306  27.049  1.00  0.00     0.031 A 
ATOM     72  C   UNL A   1      49.388  29.045  29.417  1.00  0.00     0.131 A 
ATOM     73  C   UNL A   1      50.359  28.879  26.834  1.00  0.00     0.055 A 
ATOM     74  C   UNL A   1      50.729  28.720  29.202  1.00  0.00     0.041 A 
ATOM     75  F   UNL A   1      48.945  29.035  30.684  1.00  0.00    -0.206 F 
ATOM     76  C   UNL A   1      51.217  28.613  27.903  1.00  0.00     0.022 A 
BRANCH  73  77
ATOM     77  S   UNL A   1      50.874  28.483  25.139  1.00  0.00     0.124 S 
ATOM     78  O   UNL A   1      51.828  27.400  25.367  1.00  0.00    -0.237 OA
ATOM     79  O   UNL A   1      49.616  28.105  24.508  1.00  0.00    -0.237 OA
ATOM     80  O   UNL A   1      51.465  29.731  24.659  1.00  0.00    -0.744 OA
ENDBRANCH  73  77
ENDBRANCH  56  70
BRANCH  57  81
ATOM     81  C   UNL A   1      38.670  30.445  29.971  1.00  0.00     0.023 A 
ATOM     82  C   UNL A   1      37.819  31.216  29.165  1.00  0.00     0.031 A 
ATOM     83  C   UNL A   1      38.116  29.819  31.104  1.00  0.00     0.131 A 
ATOM     84  C   UNL A   1      36.469  31.370  29.521  1.00  0.00     0.055 A 
ATOM     85  C   UNL A   1      36.762  29.931  31.424  1.00  0.00     0.041 A 
ATOM     86  F   UNL A   1      38.887  29.074  31.912  1.00  0.00    -0.206 F 
ATOM     87  C   UNL A   1      35.932  30.719  30.635  1.00  0.00     0.022 A 
BRANCH  84  88
ATOM     88  S   UNL A   1      35.431  32.495  28.547  1.00  0.00     0.124 S 
ATOM     89  O   UNL A   1      36.425  33.398  27.977  1.00  0.00    -0.237 OA
ATOM     90  O   UNL A   1      34.785  31.580  27.613  1.00  0.00    -0.237 OA
ATOM     91  O   UNL A   1      34.545  33.091  29.545  1.00  0.00    -0.744 OA
ENDBRANCH  84  88
ENDBRANCH  57  81
BRANCH  69  92
ATOM     92  C   UNL A   1      44.241  34.497  31.183  1.00  0.00     0.023 A 
ATOM     93  C   UNL A   1      44.275  34.757  32.564  1.00  0.00     0.031 A 
ATOM     94  C   UNL A   1      44.315  35.596  30.306  1.00  0.00     0.131 A 
ATOM     95  C   UNL A   1      44.303  36.081  33.028  1.00  0.00     0.055 A 
ATOM     96  C   UNL A   1      44.422  36.906  30.773  1.00  0.00     0.041 A 
ATOM     97  F   UNL A   1      44.282  35.414  28.976  1.00  0.00    -0.206 F 
ATOM     98  C   UNL A   1      44.397  37.157  32.140  1.00  0.00     0.022 A 
BRANCH  95  99
ATOM     99  S   UNL A   1      44.072  36.388  34.800  1.00  0.00     0.124 S 
ATOM    100  O   UNL A   1      44.965  37.518  35.031  1.00  0.00    -0.237 OA
ATOM    101  O   UNL A   1      42.643  36.676  34.882  1.00  0.00    -0.237 OA
ATOM    102  O   UNL A   1      44.488  35.132  35.423  1.00  0.00    -0.744 OA
ENDBRANCH  95  99
ENDBRANCH  69  92
ENDBRANCH  43  44
ENDBRANCH  36  38
ENDBRANCH  35  36
ENDBRANCH  34  35
ENDBRANCH  33  34
ENDBRANCH  32  33
ENDBRANCH  31  32
ENDBRANCH   1  31
TORSDOF 25
ENDMDL
