MODEL 1
REMARK VINA RESULT:     -10.3      0.000      0.000
REMARK SMILES O=C(OCCOCCOCCOCCOC(=O)[C@H]1C[C@](O)(c2ccc(F)cc2)[C@@H](c2ccc(F)cc2)O1)c1ccc(-c2c3nc(c(-c4cc(S(=O)(=O)[O-])ccc4F)c4ccc([nH]4)c(-c4cc(S(=O)(=O)[O-])ccc4F)c4nc(c(-c5cc(S(=O)(=O)[O-])ccc5F)c5ccc2[nH]5)C=C4)C=C3)cc1
REMARK SMILES IDX 8 1 7 2 6 3 5 4 4 5 3 6 2 7 1 8 38 9 39 10 100 11 40 12
REMARK SMILES IDX 99 13 41 14 42 15 43 16 93 17 44 18 98 19 92 20 94 21 45 22
REMARK SMILES IDX 97 23 91 24 90 25 46 27 78 28 58 29 77 30 59 31 62 32 76 33
REMARK SMILES IDX 95 34 60 35 61 36 75 38 96 39 63 40 47 41 48 42 56 43 49 44
REMARK SMILES IDX 55 45 57 46 54 47 50 48 51 49 52 50 53 51 79 52 80 53 88 54
REMARK SMILES IDX 81 55 87 56 89 57 86 58 82 59 83 60 84 61 85 62 64 63 65 64
REMARK SMILES IDX 73 65 66 66 72 67 74 68 71 69 67 70 68 71 69 72 70 73 9 74
REMARK SMILES IDX 10 75 11 76 12 77 13 78 14 79 15 80 16 81 17 82 18 83 19 84
REMARK SMILES IDX 37 85 20 86 29 87 22 88 23 89 28 90 24 91 27 92 25 93 26 94
REMARK SMILES IDX 21 95 30 97 31 98 36 99 32 100 35 101 33 102 34 103
REMARK H PARENT 94 26 62 37 21 96
REMARK Flexibility Score: inf
ROOT
ATOM      1  C   UNL A   1      31.478  28.162  25.883  1.00  0.00     0.188 C 
ENDROOT
BRANCH   1   2
ATOM      2  C   UNL A   1      32.643  28.527  26.783  1.00  0.00     0.188 C 
BRANCH   2   3
ATOM      3  O   UNL A   1      33.113  29.803  26.392  1.00  0.00    -0.376 OA
BRANCH   3   4
ATOM      4  C   UNL A   1      33.172  30.865  27.317  1.00  0.00     0.202 C 
BRANCH   4   5
ATOM      5  C   UNL A   1      32.541  32.192  26.935  1.00  0.00     0.261 C 
BRANCH   5   6
ATOM      6  O   UNL A   1      32.517  33.285  27.897  1.00  0.00    -0.460 OA
BRANCH   6   7
ATOM      7  C   UNL A   1      33.420  34.116  28.461  1.00  0.00     0.338 C 
ATOM      8  O   UNL A   1      33.315  35.329  28.293  1.00  0.00    -0.246 OA
BRANCH   7   9
ATOM      9  C   UNL A   1      34.532  33.632  29.298  1.00  0.00     0.060 A 
ATOM     10  C   UNL A   1      35.831  34.079  29.127  1.00  0.00     0.016 A 
ATOM     11  C   UNL A   1      34.256  32.821  30.401  1.00  0.00     0.016 A 
ATOM     12  C   UNL A   1      36.885  33.470  29.769  1.00  0.00     0.010 A 
ATOM     13  C   UNL A   1      35.304  32.348  31.196  1.00  0.00     0.010 A 
ATOM     14  C   UNL A   1      36.633  32.600  30.820  1.00  0.00    -0.014 A 
BRANCH  14  15
ATOM     15  C   UNL A   1      37.772  31.857  31.392  1.00  0.00     0.031 A 
ATOM     16  C   UNL A   1      38.137  32.151  32.816  1.00  0.00     0.074 A 
ATOM     17  C   UNL A   1      38.331  30.833  30.716  1.00  0.00     0.049 A 
ATOM     18  N   UNL A   1      39.185  31.781  33.495  1.00  0.00    -0.248 NA
ATOM     19  C   UNL A   1      37.187  32.979  33.583  1.00  0.00     0.031 C 
ATOM     20  C   UNL A   1      37.893  30.344  29.401  1.00  0.00     0.029 A 
ATOM     21  N   UNL A   1      39.345  29.980  31.055  1.00  0.00    -0.354 N 
ATOM     22  C   UNL A   1      39.052  32.383  34.742  1.00  0.00     0.074 A 
ATOM     23  C   UNL A   1      37.821  33.136  34.734  1.00  0.00     0.031 C 
ATOM     24  C   UNL A   1      38.588  29.242  29.084  1.00  0.00     0.029 A 
ATOM     25  C   UNL A   1      39.614  29.033  30.093  1.00  0.00     0.049 A 
ATOM     26  H   UNL A   1      39.836  30.039  31.907  1.00  0.00     0.167 HD
ATOM     27  C   UNL A   1      39.906  32.311  35.787  1.00  0.00     0.034 A 
ATOM     28  C   UNL A   1      40.625  28.148  30.011  1.00  0.00     0.034 A 
ATOM     29  C   UNL A   1      41.103  31.516  35.737  1.00  0.00     0.049 A 
ATOM     30  C   UNL A   1      41.642  28.182  31.120  1.00  0.00     0.074 A 
ATOM     31  C   UNL A   1      42.126  31.424  36.658  1.00  0.00     0.029 A 
ATOM     32  N   UNL A   1      41.421  30.656  34.689  1.00  0.00    -0.354 N 
ATOM     33  N   UNL A   1      41.627  28.899  32.222  1.00  0.00    -0.248 NA
ATOM     34  C   UNL A   1      42.826  27.334  30.963  1.00  0.00     0.031 C 
ATOM     35  C   UNL A   1      43.089  30.550  36.140  1.00  0.00     0.029 A 
ATOM     36  C   UNL A   1      42.633  30.042  34.930  1.00  0.00     0.049 A 
ATOM     37  H   UNL A   1      40.862  30.507  33.893  1.00  0.00     0.167 HD
ATOM     38  C   UNL A   1      42.797  28.586  32.897  1.00  0.00     0.074 A 
ATOM     39  C   UNL A   1      43.490  27.603  32.080  1.00  0.00     0.031 C 
ATOM     40  C   UNL A   1      43.269  29.066  34.075  1.00  0.00     0.034 A 
BRANCH  27  41
ATOM     41  C   UNL A   1      39.622  33.190  36.973  1.00  0.00     0.023 A 
ATOM     42  C   UNL A   1      39.049  32.692  38.157  1.00  0.00     0.031 A 
ATOM     43  C   UNL A   1      39.856  34.574  36.884  1.00  0.00     0.131 A 
ATOM     44  C   UNL A   1      38.678  33.581  39.180  1.00  0.00     0.055 A 
ATOM     45  C   UNL A   1      39.547  35.443  37.931  1.00  0.00     0.041 A 
ATOM     46  F   UNL A   1      40.365  35.108  35.762  1.00  0.00    -0.206 F 
ATOM     47  C   UNL A   1      38.945  34.950  39.084  1.00  0.00     0.022 A 
BRANCH  44  48
ATOM     48  S   UNL A   1      37.746  32.944  40.601  1.00  0.00     0.124 S 
ATOM     49  O   UNL A   1      36.376  32.995  40.097  1.00  0.00    -0.237 OA
ATOM     50  O   UNL A   1      38.309  31.611  40.782  1.00  0.00    -0.237 OA
ATOM     51  O   UNL A   1      38.050  33.898  41.665  1.00  0.00    -0.744 OA
ENDBRANCH  44  48
ENDBRANCH  27  41
BRANCH  28  52
ATOM     52  C   UNL A   1      40.777  27.274  28.811  1.00  0.00     0.023 A 
ATOM     53  C   UNL A   1      41.754  27.527  27.836  1.00  0.00     0.031 A 
ATOM     54  C   UNL A   1      39.942  26.152  28.624  1.00  0.00     0.131 A 
ATOM     55  C   UNL A   1      41.866  26.681  26.719  1.00  0.00     0.055 A 
ATOM     56  C   UNL A   1      40.087  25.289  27.537  1.00  0.00     0.041 A 
ATOM     57  F   UNL A   1      38.986  25.860  29.520  1.00  0.00    -0.206 F 
ATOM     58  C   UNL A   1      41.050  25.555  26.572  1.00  0.00     0.022 A 
BRANCH  55  59
ATOM     59  S   UNL A   1      43.077  27.085  25.430  1.00  0.00     0.124 S 
ATOM     60  O   UNL A   1      43.286  25.786  24.801  1.00  0.00    -0.237 OA
ATOM     61  O   UNL A   1      42.358  28.076  24.636  1.00  0.00    -0.237 OA
ATOM     62  O   UNL A   1      44.217  27.604  26.183  1.00  0.00    -0.744 OA
ENDBRANCH  55  59
ENDBRANCH  28  52
BRANCH  40  63
ATOM     63  C   UNL A   1      44.570  28.502  34.562  1.00  0.00     0.023 A 
ATOM     64  C   UNL A   1      44.608  27.349  35.357  1.00  0.00     0.031 A 
ATOM     65  C   UNL A   1      45.781  29.087  34.154  1.00  0.00     0.131 A 
ATOM     66  C   UNL A   1      45.846  26.819  35.739  1.00  0.00     0.055 A 
ATOM     67  C   UNL A   1      47.008  28.526  34.496  1.00  0.00     0.041 A 
ATOM     68  F   UNL A   1      45.782  30.189  33.387  1.00  0.00    -0.206 F 
ATOM     69  C   UNL A   1      47.045  27.386  35.296  1.00  0.00     0.022 A 
BRANCH  66  70
ATOM     70  S   UNL A   1      45.869  25.386  36.846  1.00  0.00     0.124 S 
ATOM     71  O   UNL A   1      45.887  26.021  38.160  1.00  0.00    -0.237 OA
ATOM     72  O   UNL A   1      44.635  24.692  36.493  1.00  0.00    -0.237 OA
ATOM     73  O   UNL A   1      47.099  24.689  36.477  1.00  0.00    -0.744 OA
ENDBRANCH  66  70
ENDBRANCH  40  63
ENDBRANCH  14  15
ENDBRANCH   7   9
ENDBRANCH   6   7
ENDBRANCH   5   6
ENDBRANCH   4   5
ENDBRANCH   3   4
ENDBRANCH   2   3
ENDBRANCH   1   2
BRANCH   1  74
ATOM     74  O   UNL A   1      31.319  28.963  24.712  1.00  0.00    -0.377 OA
BRANCH  74  75
ATOM     75  C   UNL A   1      30.404  28.536  23.713  1.00  0.00     0.188 C 
BRANCH  75  76
ATOM     76  C   UNL A   1      30.991  27.885  22.459  1.00  0.00     0.188 C 
BRANCH  76  77
ATOM     77  O   UNL A   1      31.970  26.899  22.709  1.00  0.00    -0.376 OA
BRANCH  77  78
ATOM     78  C   UNL A   1      31.562  25.536  22.812  1.00  0.00     0.202 C 
BRANCH  78  79
ATOM     79  C   UNL A   1      30.904  24.953  24.079  1.00  0.00     0.261 C 
BRANCH  79  80
ATOM     80  O   UNL A   1      31.490  23.737  24.594  1.00  0.00    -0.461 OA
BRANCH  80  81
ATOM     81  C   UNL A   1      31.298  23.454  25.909  1.00  0.00     0.335 C 
ATOM     82  O   UNL A   1      30.776  24.230  26.712  1.00  0.00    -0.249 OA
BRANCH  81  83
ATOM     83  C   UNL A   1      31.820  22.066  26.362  1.00  0.00     0.232 C 
ATOM     84  C   UNL A   1      31.786  20.991  25.292  1.00  0.00     0.087 C 
ATOM     85  O   UNL A   1      33.046  21.951  27.065  1.00  0.00    -0.355 OA
ATOM     86  C   UNL A   1      33.223  20.490  25.109  1.00  0.00     0.123 C 
ATOM     87  C   UNL A   1      33.975  21.116  26.335  1.00  0.00     0.186 C 
BRANCH  86  88
ATOM     88  C   UNL A   1      33.130  18.969  24.907  1.00  0.00    -0.013 A 
ATOM     89  C   UNL A   1      32.578  18.182  25.956  1.00  0.00     0.010 A 
ATOM     90  C   UNL A   1      33.649  18.293  23.796  1.00  0.00     0.010 A 
ATOM     91  C   UNL A   1      32.515  16.791  25.880  1.00  0.00     0.039 A 
ATOM     92  C   UNL A   1      33.588  16.895  23.723  1.00  0.00     0.039 A 
ATOM     93  C   UNL A   1      33.020  16.159  24.758  1.00  0.00     0.123 A 
ATOM     94  F   UNL A   1      32.974  14.823  24.674  1.00  0.00    -0.207 F 
ENDBRANCH  86  88
BRANCH  86  95
ATOM     95  O   UNL A   1      33.774  20.958  23.878  1.00  0.00    -0.382 OA
ATOM     96  H   UNL A   1      34.416  21.663  24.059  1.00  0.00     0.212 HD
ENDBRANCH  86  95
BRANCH  87  97
ATOM     97  C   UNL A   1      35.182  22.023  26.126  1.00  0.00    -0.016 A 
ATOM     98  C   UNL A   1      36.436  21.484  25.804  1.00  0.00     0.009 A 
ATOM     99  C   UNL A   1      35.052  23.417  26.071  1.00  0.00     0.009 A 
ATOM    100  C   UNL A   1      37.523  22.271  25.428  1.00  0.00     0.039 A 
ATOM    101  C   UNL A   1      36.139  24.220  25.694  1.00  0.00     0.039 A 
ATOM    102  C   UNL A   1      37.360  23.640  25.368  1.00  0.00     0.123 A 
ATOM    103  F   UNL A   1      38.382  24.411  24.975  1.00  0.00    -0.207 F 
ENDBRANCH  87  97
ENDBRANCH  81  83
ENDBRANCH  80  81
ENDBRANCH  79  80
ENDBRANCH  78  79
ENDBRANCH  77  78
ENDBRANCH  76  77
ENDBRANCH  75  76
ENDBRANCH  74  75
ENDBRANCH   1  74
TORSDOF 26
ENDMDL
MODEL 2
REMARK VINA RESULT:     -10.2      1.557      3.479
REMARK SMILES O=C(OCCOCCOCCOCCOC(=O)[C@H]1C[C@](O)(c2ccc(F)cc2)[C@@H](c2ccc(F)cc2)O1)c1ccc(-c2c3nc(c(-c4cc(S(=O)(=O)[O-])ccc4F)c4ccc([nH]4)c(-c4cc(S(=O)(=O)[O-])ccc4F)c4nc(c(-c5cc(S(=O)(=O)[O-])ccc5F)c5ccc2[nH]5)C=C4)C=C3)cc1
REMARK SMILES IDX 8 1 7 2 6 3 5 4 4 5 3 6 2 7 1 8 38 9 39 10 100 11 40 12
REMARK SMILES IDX 99 13 41 14 42 15 43 16 93 17 44 18 98 19 92 20 94 21 45 22
REMARK SMILES IDX 97 23 91 24 90 25 46 27 78 28 58 29 77 30 59 31 62 32 76 33
REMARK SMILES IDX 95 34 60 35 61 36 75 38 96 39 63 40 47 41 48 42 56 43 49 44
REMARK SMILES IDX 55 45 57 46 54 47 50 48 51 49 52 50 53 51 79 52 80 53 88 54
REMARK SMILES IDX 81 55 87 56 89 57 86 58 82 59 83 60 84 61 85 62 64 63 65 64
REMARK SMILES IDX 73 65 66 66 72 67 74 68 71 69 67 70 68 71 69 72 70 73 9 74
REMARK SMILES IDX 10 75 11 76 12 77 13 78 14 79 15 80 16 81 17 82 18 83 19 84
REMARK SMILES IDX 37 85 20 86 29 87 22 88 23 89 28 90 24 91 27 92 25 93 26 94
REMARK SMILES IDX 21 95 30 97 31 98 36 99 32 100 35 101 33 102 34 103
REMARK H PARENT 94 26 62 37 21 96
REMARK Flexibility Score: inf
ROOT
ATOM      1  C   UNL A   1      33.344  28.701  25.095  1.00  0.00     0.188 C 
ENDROOT
BRANCH   1   2
ATOM      2  C   UNL A   1      32.039  28.773  25.864  1.00  0.00     0.188 C 
BRANCH   2   3
ATOM      3  O   UNL A   1      31.731  30.137  26.075  1.00  0.00    -0.376 OA
BRANCH   3   4
ATOM      4  C   UNL A   1      32.730  31.051  26.469  1.00  0.00     0.202 C 
BRANCH   4   5
ATOM      5  C   UNL A   1      32.323  32.248  27.309  1.00  0.00     0.261 C 
BRANCH   5   6
ATOM      6  O   UNL A   1      33.329  32.965  28.080  1.00  0.00    -0.460 OA
BRANCH   6   7
ATOM      7  C   UNL A   1      34.590  33.404  27.880  1.00  0.00     0.338 C 
ATOM      8  O   UNL A   1      34.777  34.454  27.269  1.00  0.00    -0.246 OA
BRANCH   7   9
ATOM      9  C   UNL A   1      35.772  32.682  28.383  1.00  0.00     0.060 A 
ATOM     10  C   UNL A   1      35.816  31.300  28.454  1.00  0.00     0.016 A 
ATOM     11  C   UNL A   1      36.946  33.391  28.648  1.00  0.00     0.016 A 
ATOM     12  C   UNL A   1      36.834  30.652  29.115  1.00  0.00     0.010 A 
ATOM     13  C   UNL A   1      38.070  32.718  29.136  1.00  0.00     0.010 A 
ATOM     14  C   UNL A   1      37.981  31.354  29.458  1.00  0.00    -0.014 A 
BRANCH  14  15
ATOM     15  C   UNL A   1      38.990  30.670  30.287  1.00  0.00     0.031 A 
ATOM     16  C   UNL A   1      38.934  30.901  31.768  1.00  0.00     0.074 A 
ATOM     17  C   UNL A   1      39.802  29.739  29.748  1.00  0.00     0.049 A 
ATOM     18  N   UNL A   1      39.792  30.574  32.690  1.00  0.00    -0.248 NA
ATOM     19  C   UNL A   1      37.740  31.601  32.281  1.00  0.00     0.031 C 
ATOM     20  C   UNL A   1      39.779  29.300  28.346  1.00  0.00     0.029 A 
ATOM     21  N   UNL A   1      40.766  28.950  30.316  1.00  0.00    -0.354 N 
ATOM     22  C   UNL A   1      39.276  31.083  33.877  1.00  0.00     0.074 A 
ATOM     23  C   UNL A   1      38.027  31.735  33.565  1.00  0.00     0.031 C 
ATOM     24  C   UNL A   1      40.634  28.280  28.186  1.00  0.00     0.029 A 
ATOM     25  C   UNL A   1      41.369  28.090  29.426  1.00  0.00     0.049 A 
ATOM     26  H   UNL A   1      41.004  28.994  31.271  1.00  0.00     0.167 HD
ATOM     27  C   UNL A   1      39.823  31.014  35.111  1.00  0.00     0.034 A 
ATOM     28  C   UNL A   1      42.443  27.296  29.587  1.00  0.00     0.034 A 
ATOM     29  C   UNL A   1      41.059  30.322  35.356  1.00  0.00     0.049 A 
ATOM     30  C   UNL A   1      43.121  27.341  30.930  1.00  0.00     0.074 A 
ATOM     31  C   UNL A   1      41.804  30.254  36.515  1.00  0.00     0.029 A 
ATOM     32  N   UNL A   1      41.724  29.558  34.400  1.00  0.00    -0.354 N 
ATOM     33  N   UNL A   1      42.745  27.983  32.014  1.00  0.00    -0.248 NA
ATOM     34  C   UNL A   1      44.378  26.602  31.067  1.00  0.00     0.031 C 
ATOM     35  C   UNL A   1      42.948  29.494  36.244  1.00  0.00     0.029 A 
ATOM     36  C   UNL A   1      42.881  29.029  34.936  1.00  0.00     0.049 A 
ATOM     37  H   UNL A   1      41.415  29.415  33.477  1.00  0.00     0.167 HD
ATOM     38  C   UNL A   1      43.717  27.723  32.968  1.00  0.00     0.074 A 
ATOM     39  C   UNL A   1      44.691  26.852  32.332  1.00  0.00     0.031 C 
ATOM     40  C   UNL A   1      43.810  28.163  34.249  1.00  0.00     0.034 A 
BRANCH  27  41
ATOM     41  C   UNL A   1      39.151  31.790  36.209  1.00  0.00     0.023 A 
ATOM     42  C   UNL A   1      38.402  31.165  37.222  1.00  0.00     0.031 A 
ATOM     43  C   UNL A   1      39.198  33.196  36.194  1.00  0.00     0.131 A 
ATOM     44  C   UNL A   1      37.683  31.947  38.141  1.00  0.00     0.055 A 
ATOM     45  C   UNL A   1      38.535  33.966  37.151  1.00  0.00     0.041 A 
ATOM     46  F   UNL A   1      39.866  33.845  35.228  1.00  0.00    -0.206 F 
ATOM     47  C   UNL A   1      37.764  33.343  38.126  1.00  0.00     0.022 A 
BRANCH  44  48
ATOM     48  S   UNL A   1      36.554  31.124  39.298  1.00  0.00     0.124 S 
ATOM     49  O   UNL A   1      37.420  30.924  40.458  1.00  0.00    -0.237 OA
ATOM     50  O   UNL A   1      35.489  32.107  39.461  1.00  0.00    -0.237 OA
ATOM     51  O   UNL A   1      36.171  29.903  38.594  1.00  0.00    -0.744 OA
ENDBRANCH  44  48
ENDBRANCH  27  41
BRANCH  28  52
ATOM     52  C   UNL A   1      42.992  26.514  28.439  1.00  0.00     0.023 A 
ATOM     53  C   UNL A   1      44.049  27.001  27.657  1.00  0.00     0.031 A 
ATOM     54  C   UNL A   1      42.464  25.248  28.110  1.00  0.00     0.131 A 
ATOM     55  C   UNL A   1      44.538  26.235  26.583  1.00  0.00     0.055 A 
ATOM     56  C   UNL A   1      42.983  24.472  27.072  1.00  0.00     0.041 A 
ATOM     57  F   UNL A   1      41.449  24.730  28.820  1.00  0.00    -0.206 F 
ATOM     58  C   UNL A   1      44.023  24.968  26.297  1.00  0.00     0.022 A 
BRANCH  55  59
ATOM     59  S   UNL A   1      45.845  26.930  25.533  1.00  0.00     0.124 S 
ATOM     60  O   UNL A   1      46.099  25.830  24.610  1.00  0.00    -0.237 OA
ATOM     61  O   UNL A   1      45.189  28.105  24.968  1.00  0.00    -0.237 OA
ATOM     62  O   UNL A   1      46.925  27.216  26.476  1.00  0.00    -0.744 OA
ENDBRANCH  55  59
ENDBRANCH  28  52
BRANCH  40  63
ATOM     63  C   UNL A   1      44.982  27.676  35.047  1.00  0.00     0.023 A 
ATOM     64  C   UNL A   1      44.928  26.462  35.746  1.00  0.00     0.031 A 
ATOM     65  C   UNL A   1      46.185  28.401  35.036  1.00  0.00     0.131 A 
ATOM     66  C   UNL A   1      46.064  26.012  36.428  1.00  0.00     0.055 A 
ATOM     67  C   UNL A   1      47.325  27.923  35.675  1.00  0.00     0.041 A 
ATOM     68  F   UNL A   1      46.274  29.565  34.372  1.00  0.00    -0.206 F 
ATOM     69  C   UNL A   1      47.267  26.722  36.379  1.00  0.00     0.022 A 
BRANCH  66  70
ATOM     70  S   UNL A   1      45.941  24.490  37.404  1.00  0.00     0.124 S 
ATOM     71  O   UNL A   1      47.326  24.029  37.417  1.00  0.00    -0.237 OA
ATOM     72  O   UNL A   1      45.418  24.972  38.678  1.00  0.00    -0.237 OA
ATOM     73  O   UNL A   1      45.019  23.663  36.629  1.00  0.00    -0.744 OA
ENDBRANCH  66  70
ENDBRANCH  40  63
ENDBRANCH  14  15
ENDBRANCH   7   9
ENDBRANCH   6   7
ENDBRANCH   5   6
ENDBRANCH   4   5
ENDBRANCH   3   4
ENDBRANCH   2   3
ENDBRANCH   1   2
BRANCH   1  74
ATOM     74  O   UNL A   1      33.285  29.109  23.727  1.00  0.00    -0.377 OA
BRANCH  74  75
ATOM     75  C   UNL A   1      33.798  28.234  22.733  1.00  0.00     0.188 C 
BRANCH  75  76
ATOM     76  C   UNL A   1      33.327  26.779  22.771  1.00  0.00     0.188 C 
BRANCH  76  77
ATOM     77  O   UNL A   1      31.927  26.611  22.749  1.00  0.00    -0.376 OA
BRANCH  77  78
ATOM     78  C   UNL A   1      31.393  25.308  22.517  1.00  0.00     0.202 C 
BRANCH  78  79
ATOM     79  C   UNL A   1      30.556  24.548  23.567  1.00  0.00     0.261 C 
BRANCH  79  80
ATOM     80  O   UNL A   1      30.853  23.142  23.715  1.00  0.00    -0.461 OA
BRANCH  80  81
ATOM     81  C   UNL A   1      31.693  22.779  24.720  1.00  0.00     0.335 C 
ATOM     82  O   UNL A   1      31.334  22.591  25.884  1.00  0.00    -0.249 OA
BRANCH  81  83
ATOM     83  C   UNL A   1      33.182  22.640  24.310  1.00  0.00     0.232 C 
ATOM     84  C   UNL A   1      34.179  22.976  25.403  1.00  0.00     0.087 C 
ATOM     85  O   UNL A   1      33.638  21.479  23.637  1.00  0.00    -0.355 OA
ATOM     86  C   UNL A   1      35.039  21.727  25.629  1.00  0.00     0.123 C 
ATOM     87  C   UNL A   1      34.671  20.818  24.406  1.00  0.00     0.186 C 
BRANCH  86  88
ATOM     88  C   UNL A   1      36.474  22.226  25.863  1.00  0.00    -0.013 A 
ATOM     89  C   UNL A   1      36.673  23.612  26.117  1.00  0.00     0.010 A 
ATOM     90  C   UNL A   1      37.613  21.422  25.740  1.00  0.00     0.010 A 
ATOM     91  C   UNL A   1      37.947  24.158  26.277  1.00  0.00     0.039 A 
ATOM     92  C   UNL A   1      38.893  21.972  25.896  1.00  0.00     0.039 A 
ATOM     93  C   UNL A   1      39.048  23.328  26.168  1.00  0.00     0.123 A 
ATOM     94  F   UNL A   1      40.279  23.838  26.311  1.00  0.00    -0.207 F 
ENDBRANCH  86  88
BRANCH  86  95
ATOM     95  O   UNL A   1      34.701  21.090  26.861  1.00  0.00    -0.382 OA
ATOM     96  H   UNL A   1      34.966  20.158  26.825  1.00  0.00     0.212 HD
ENDBRANCH  86  95
BRANCH  87  97
ATOM     97  C   UNL A   1      34.112  19.415  24.621  1.00  0.00    -0.016 A 
ATOM     98  C   UNL A   1      32.728  19.190  24.631  1.00  0.00     0.009 A 
ATOM     99  C   UNL A   1      34.944  18.288  24.641  1.00  0.00     0.009 A 
ATOM    100  C   UNL A   1      32.171  17.912  24.644  1.00  0.00     0.039 A 
ATOM    101  C   UNL A   1      34.396  16.997  24.654  1.00  0.00     0.039 A 
ATOM    102  C   UNL A   1      33.016  16.822  24.647  1.00  0.00     0.123 A 
ATOM    103  F   UNL A   1      32.501  15.585  24.624  1.00  0.00    -0.207 F 
ENDBRANCH  87  97
ENDBRANCH  81  83
ENDBRANCH  80  81
ENDBRANCH  79  80
ENDBRANCH  78  79
ENDBRANCH  77  78
ENDBRANCH  76  77
ENDBRANCH  75  76
ENDBRANCH  74  75
ENDBRANCH   1  74
TORSDOF 26
ENDMDL
MODEL 3
REMARK VINA RESULT:     -10.2      2.282      7.667
REMARK SMILES O=C(OCCOCCOCCOCCOC(=O)[C@H]1C[C@](O)(c2ccc(F)cc2)[C@@H](c2ccc(F)cc2)O1)c1ccc(-c2c3nc(c(-c4cc(S(=O)(=O)[O-])ccc4F)c4ccc([nH]4)c(-c4cc(S(=O)(=O)[O-])ccc4F)c4nc(c(-c5cc(S(=O)(=O)[O-])ccc5F)c5ccc2[nH]5)C=C4)C=C3)cc1
REMARK SMILES IDX 8 1 7 2 6 3 5 4 4 5 3 6 2 7 1 8 38 9 39 10 100 11 40 12
REMARK SMILES IDX 99 13 41 14 42 15 43 16 93 17 44 18 98 19 92 20 94 21 45 22
REMARK SMILES IDX 97 23 91 24 90 25 46 27 78 28 58 29 77 30 59 31 62 32 76 33
REMARK SMILES IDX 95 34 60 35 61 36 75 38 96 39 63 40 47 41 48 42 56 43 49 44
REMARK SMILES IDX 55 45 57 46 54 47 50 48 51 49 52 50 53 51 79 52 80 53 88 54
REMARK SMILES IDX 81 55 87 56 89 57 86 58 82 59 83 60 84 61 85 62 64 63 65 64
REMARK SMILES IDX 73 65 66 66 72 67 74 68 71 69 67 70 68 71 69 72 70 73 9 74
REMARK SMILES IDX 10 75 11 76 12 77 13 78 14 79 15 80 16 81 17 82 18 83 19 84
REMARK SMILES IDX 37 85 20 86 29 87 22 88 23 89 28 90 24 91 27 92 25 93 26 94
REMARK SMILES IDX 21 95 30 97 31 98 36 99 32 100 35 101 33 102 34 103
REMARK H PARENT 94 26 62 37 21 96
REMARK Flexibility Score: inf
ROOT
ATOM      1  C   UNL A   1      33.683  31.964  27.922  1.00  0.00     0.188 C 
ENDROOT
BRANCH   1   2
ATOM      2  C   UNL A   1      34.935  32.795  28.134  1.00  0.00     0.188 C 
BRANCH   2   3
ATOM      3  O   UNL A   1      34.547  34.151  28.230  1.00  0.00    -0.376 OA
BRANCH   3   4
ATOM      4  C   UNL A   1      33.197  34.504  28.434  1.00  0.00     0.202 C 
BRANCH   4   5
ATOM      5  C   UNL A   1      32.891  35.828  29.112  1.00  0.00     0.261 C 
BRANCH   5   6
ATOM      6  O   UNL A   1      33.032  35.951  30.556  1.00  0.00    -0.460 OA
BRANCH   6   7
ATOM      7  C   UNL A   1      33.231  35.114  31.597  1.00  0.00     0.338 C 
ATOM      8  O   UNL A   1      32.329  34.938  32.413  1.00  0.00    -0.246 OA
BRANCH   7   9
ATOM      9  C   UNL A   1      34.491  34.376  31.795  1.00  0.00     0.060 A 
ATOM     10  C   UNL A   1      34.515  33.078  32.276  1.00  0.00     0.016 A 
ATOM     11  C   UNL A   1      35.688  34.932  31.340  1.00  0.00     0.016 A 
ATOM     12  C   UNL A   1      35.697  32.479  32.651  1.00  0.00     0.010 A 
ATOM     13  C   UNL A   1      36.891  34.245  31.532  1.00  0.00     0.010 A 
ATOM     14  C   UNL A   1      36.902  33.053  32.275  1.00  0.00    -0.014 A 
BRANCH  14  15
ATOM     15  C   UNL A   1      38.145  32.468  32.811  1.00  0.00     0.031 A 
ATOM     16  C   UNL A   1      38.897  31.521  31.923  1.00  0.00     0.074 A 
ATOM     17  C   UNL A   1      38.666  32.912  33.972  1.00  0.00     0.049 A 
ATOM     18  N   UNL A   1      39.901  30.742  32.206  1.00  0.00    -0.248 NA
ATOM     19  C   UNL A   1      38.454  31.443  30.518  1.00  0.00     0.031 C 
ATOM     20  C   UNL A   1      38.102  33.987  34.800  1.00  0.00     0.029 A 
ATOM     21  N   UNL A   1      39.813  32.564  34.634  1.00  0.00    -0.354 N 
ATOM     22  C   UNL A   1      40.165  30.037  31.036  1.00  0.00     0.074 A 
ATOM     23  C   UNL A   1      39.225  30.482  30.037  1.00  0.00     0.031 C 
ATOM     24  C   UNL A   1      38.939  34.251  35.814  1.00  0.00     0.029 A 
ATOM     25  C   UNL A   1      40.016  33.274  35.795  1.00  0.00     0.049 A 
ATOM     26  H   UNL A   1      40.432  31.871  34.309  1.00  0.00     0.167 HD
ATOM     27  C   UNL A   1      41.110  29.090  30.841  1.00  0.00     0.034 A 
ATOM     28  C   UNL A   1      40.931  33.098  36.766  1.00  0.00     0.034 A 
ATOM     29  C   UNL A   1      42.036  28.715  31.875  1.00  0.00     0.049 A 
ATOM     30  C   UNL A   1      41.886  31.948  36.592  1.00  0.00     0.074 A 
ATOM     31  C   UNL A   1      42.972  27.702  31.880  1.00  0.00     0.029 A 
ATOM     32  N   UNL A   1      42.138  29.369  33.100  1.00  0.00    -0.354 N 
ATOM     33  N   UNL A   1      42.014  31.141  35.562  1.00  0.00    -0.248 NA
ATOM     34  C   UNL A   1      42.783  31.651  37.711  1.00  0.00     0.031 C 
ATOM     35  C   UNL A   1      43.603  27.710  33.129  1.00  0.00     0.029 A 
ATOM     36  C   UNL A   1      43.109  28.771  33.877  1.00  0.00     0.049 A 
ATOM     37  H   UNL A   1      41.597  30.144  33.373  1.00  0.00     0.167 HD
ATOM     38  C   UNL A   1      43.012  30.240  35.905  1.00  0.00     0.074 A 
ATOM     39  C   UNL A   1      43.460  30.614  37.236  1.00  0.00     0.031 C 
ATOM     40  C   UNL A   1      43.512  29.195  35.198  1.00  0.00     0.034 A 
BRANCH  27  41
ATOM     41  C   UNL A   1      41.087  28.351  29.531  1.00  0.00     0.023 A 
ATOM     42  C   UNL A   1      42.019  28.604  28.510  1.00  0.00     0.031 A 
ATOM     43  C   UNL A   1      40.056  27.431  29.272  1.00  0.00     0.131 A 
ATOM     44  C   UNL A   1      41.866  27.985  27.258  1.00  0.00     0.055 A 
ATOM     45  C   UNL A   1      39.949  26.768  28.048  1.00  0.00     0.041 A 
ATOM     46  F   UNL A   1      39.116  27.180  30.198  1.00  0.00    -0.206 F 
ATOM     47  C   UNL A   1      40.852  27.051  27.029  1.00  0.00     0.022 A 
BRANCH  44  48
ATOM     48  S   UNL A   1      42.949  28.490  25.892  1.00  0.00     0.124 S 
ATOM     49  O   UNL A   1      43.020  29.935  26.094  1.00  0.00    -0.237 OA
ATOM     50  O   UNL A   1      44.175  27.748  26.163  1.00  0.00    -0.237 OA
ATOM     51  O   UNL A   1      42.217  28.067  24.700  1.00  0.00    -0.744 OA
ENDBRANCH  44  48
ENDBRANCH  27  41
BRANCH  28  52
ATOM     52  C   UNL A   1      40.902  33.934  38.003  1.00  0.00     0.023 A 
ATOM     53  C   UNL A   1      41.783  35.010  38.184  1.00  0.00     0.031 A 
ATOM     54  C   UNL A   1      39.973  33.670  39.031  1.00  0.00     0.131 A 
ATOM     55  C   UNL A   1      41.725  35.774  39.363  1.00  0.00     0.055 A 
ATOM     56  C   UNL A   1      39.888  34.459  40.179  1.00  0.00     0.041 A 
ATOM     57  F   UNL A   1      39.105  32.651  38.917  1.00  0.00    -0.206 F 
ATOM     58  C   UNL A   1      40.773  35.515  40.353  1.00  0.00     0.022 A 
BRANCH  55  59
ATOM     59  S   UNL A   1      42.938  37.101  39.609  1.00  0.00     0.124 S 
ATOM     60  O   UNL A   1      44.121  36.350  40.013  1.00  0.00    -0.237 OA
ATOM     61  O   UNL A   1      42.987  37.718  38.288  1.00  0.00    -0.237 OA
ATOM     62  O   UNL A   1      42.334  37.925  40.655  1.00  0.00    -0.744 OA
ENDBRANCH  55  59
ENDBRANCH  28  52
BRANCH  40  63
ATOM     63  C   UNL A   1      44.621  28.416  35.838  1.00  0.00     0.023 A 
ATOM     64  C   UNL A   1      44.369  27.206  36.499  1.00  0.00     0.031 A 
ATOM     65  C   UNL A   1      45.949  28.857  35.711  1.00  0.00     0.131 A 
ATOM     66  C   UNL A   1      45.440  26.477  37.030  1.00  0.00     0.055 A 
ATOM     67  C   UNL A   1      47.013  28.102  36.197  1.00  0.00     0.041 A 
ATOM     68  F   UNL A   1      46.228  30.009  35.080  1.00  0.00    -0.206 F 
ATOM     69  C   UNL A   1      46.760  26.906  36.864  1.00  0.00     0.022 A 
BRANCH  66  70
ATOM     70  S   UNL A   1      45.080  24.967  37.963  1.00  0.00     0.124 S 
ATOM     71  O   UNL A   1      45.426  25.365  39.323  1.00  0.00    -0.237 OA
ATOM     72  O   UNL A   1      43.659  24.763  37.701  1.00  0.00    -0.237 OA
ATOM     73  O   UNL A   1      45.969  23.975  37.361  1.00  0.00    -0.744 OA
ENDBRANCH  66  70
ENDBRANCH  40  63
ENDBRANCH  14  15
ENDBRANCH   7   9
ENDBRANCH   6   7
ENDBRANCH   5   6
ENDBRANCH   4   5
ENDBRANCH   3   4
ENDBRANCH   2   3
ENDBRANCH   1   2
BRANCH   1  74
ATOM     74  O   UNL A   1      33.894  30.584  27.624  1.00  0.00    -0.377 OA
BRANCH  74  75
ATOM     75  C   UNL A   1      33.277  30.035  26.469  1.00  0.00     0.188 C 
BRANCH  75  76
ATOM     76  C   UNL A   1      31.876  29.441  26.638  1.00  0.00     0.188 C 
BRANCH  76  77
ATOM     77  O   UNL A   1      31.637  28.271  25.887  1.00  0.00    -0.376 OA
BRANCH  77  78
ATOM     78  C   UNL A   1      32.035  27.013  26.428  1.00  0.00     0.202 C 
BRANCH  78  79
ATOM     79  C   UNL A   1      31.258  25.706  26.168  1.00  0.00     0.261 C 
BRANCH  79  80
ATOM     80  O   UNL A   1      31.362  24.693  27.193  1.00  0.00    -0.461 OA
BRANCH  80  81
ATOM     81  C   UNL A   1      30.984  23.429  26.869  1.00  0.00     0.335 C 
ATOM     82  O   UNL A   1      29.818  23.029  26.899  1.00  0.00    -0.249 OA
BRANCH  81  83
ATOM     83  C   UNL A   1      32.144  22.480  26.474  1.00  0.00     0.232 C 
ATOM     84  C   UNL A   1      31.732  21.274  25.649  1.00  0.00     0.087 C 
ATOM     85  O   UNL A   1      33.345  22.998  25.928  1.00  0.00    -0.355 OA
ATOM     86  C   UNL A   1      32.510  21.341  24.331  1.00  0.00     0.123 C 
ATOM     87  C   UNL A   1      33.582  22.452  24.609  1.00  0.00     0.186 C 
BRANCH  86  88
ATOM     88  C   UNL A   1      32.911  19.896  23.992  1.00  0.00    -0.013 A 
ATOM     89  C   UNL A   1      34.075  19.357  24.608  1.00  0.00     0.010 A 
ATOM     90  C   UNL A   1      32.263  19.108  23.033  1.00  0.00     0.010 A 
ATOM     91  C   UNL A   1      34.544  18.079  24.307  1.00  0.00     0.039 A 
ATOM     92  C   UNL A   1      32.738  17.824  22.729  1.00  0.00     0.039 A 
ATOM     93  C   UNL A   1      33.866  17.320  23.370  1.00  0.00     0.123 A 
ATOM     94  F   UNL A   1      34.309  16.094  23.064  1.00  0.00    -0.207 F 
ENDBRANCH  86  88
BRANCH  86  95
ATOM     95  O   UNL A   1      31.655  21.713  23.251  1.00  0.00    -0.382 OA
ATOM     96  H   UNL A   1      30.738  21.487  23.472  1.00  0.00     0.212 HD
ENDBRANCH  86  95
BRANCH  87  97
ATOM     97  C   UNL A   1      33.667  23.688  23.720  1.00  0.00    -0.016 A 
ATOM     98  C   UNL A   1      33.081  23.696  22.446  1.00  0.00     0.009 A 
ATOM     99  C   UNL A   1      34.169  24.904  24.201  1.00  0.00     0.009 A 
ATOM    100  C   UNL A   1      32.973  24.849  21.671  1.00  0.00     0.039 A 
ATOM    101  C   UNL A   1      34.067  26.073  23.430  1.00  0.00     0.039 A 
ATOM    102  C   UNL A   1      33.464  26.035  22.178  1.00  0.00     0.123 A 
ATOM    103  F   UNL A   1      33.338  27.162  21.464  1.00  0.00    -0.207 F 
ENDBRANCH  87  97
ENDBRANCH  81  83
ENDBRANCH  80  81
ENDBRANCH  79  80
ENDBRANCH  78  79
ENDBRANCH  77  78
ENDBRANCH  76  77
ENDBRANCH  75  76
ENDBRANCH  74  75
ENDBRANCH   1  74
TORSDOF 26
ENDMDL
