MODEL 1
REMARK VINA RESULT:      -8.3      0.000      0.000
REMARK SMILES CC1(C)CCN(C(=O)NCCCCCC(=O)OCCOCCOCCOCCOC(=O)c2ccc(-c3c4nc(c(-c5cc(S(=O)(=O)[O-])ccc5F)c5ccc([nH]5)c(-c5cc(S(=O)(=O)[O-])ccc5F)c5nc(c(-c6cc(S(=O)(=O)[O-])ccc6F)c6ccc3[nH]6)C=C5)C=C4)cc2)C1
REMARK SMILES IDX 21 1 20 2 19 3 18 4 17 5 15 6 16 7 14 8 13 9 12 10 11 11
REMARK SMILES IDX 10 12 9 13 7 14 8 15 6 17 1 18 2 19 3 20 4 21 95 22 5 23
REMARK SMILES IDX 22 24 23 25 24 26 25 27 26 28 27 29 28 30 29 31 30 32 31 33
REMARK SMILES IDX 32 34 33 35 94 36 34 37 93 38 35 39 36 40 37 41 87 42 38 43
REMARK SMILES IDX 92 44 86 45 88 46 39 47 91 48 85 49 84 50 40 52 72 53 52 54
REMARK SMILES IDX 71 55 53 56 56 57 70 58 89 59 54 60 55 61 69 63 90 64 57 65
REMARK SMILES IDX 41 66 42 67 50 68 43 69 49 70 51 71 48 72 44 73 45 74 46 75
REMARK SMILES IDX 47 76 73 77 74 78 82 79 75 80 81 81 83 82 80 83 76 84 77 85
REMARK SMILES IDX 78 86 79 87 58 88 59 89 67 90 60 91 66 92 68 93 65 94 61 95
REMARK SMILES IDX 62 96 63 97 64 98
REMARK H PARENT 9 16 88 51 56 62
REMARK Flexibility Score: inf
ROOT
ATOM      1  C   UNL A   1      38.545  21.559  25.619  1.00  0.00     0.188 C 
ENDROOT
BRANCH   1   2
ATOM      2  O   UNL A   1      37.150  21.627  25.779  1.00  0.00    -0.376 OA
BRANCH   2   3
ATOM      3  C   UNL A   1      36.295  20.769  25.045  1.00  0.00     0.202 C 
BRANCH   3   4
ATOM      4  C   UNL A   1      34.759  20.690  25.177  1.00  0.00     0.261 C 
BRANCH   4   5
ATOM      5  O   UNL A   1      34.140  21.274  26.331  1.00  0.00    -0.463 OA
BRANCH   5   6
ATOM      6  C   UNL A   1      32.990  21.951  26.133  1.00  0.00     0.305 C 
ATOM      7  O   UNL A   1      31.937  21.429  25.775  1.00  0.00    -0.252 OA
BRANCH   6   8
ATOM      8  C   UNL A   1      33.059  23.446  26.400  1.00  0.00     0.123 C 
BRANCH   8   9
ATOM      9  C   UNL A   1      34.224  24.357  25.991  1.00  0.00     0.012 C 
BRANCH   9  10
ATOM     10  C   UNL A   1      34.210  25.003  24.607  1.00  0.00     0.002 C 
BRANCH  10  11
ATOM     11  C   UNL A   1      34.372  24.033  23.457  1.00  0.00     0.021 C 
BRANCH  11  12
ATOM     12  C   UNL A   1      33.063  23.660  22.796  1.00  0.00     0.117 C 
BRANCH  12  13
ATOM     13  N   UNL A   1      32.762  24.449  21.622  1.00  0.00    -0.338 N 
ATOM     14  C   UNL A   1      32.029  25.579  21.477  1.00  0.00     0.317 C 
ATOM     15  O   UNL A   1      31.804  25.970  20.331  1.00  0.00    -0.249 OA
ATOM     16  H   UNL A   1      33.156  24.108  20.788  1.00  0.00     0.165 HD
BRANCH  14  17
ATOM     17  N   UNL A   1      31.569  26.245  22.572  1.00  0.00    -0.324 N 
ATOM     18  C   UNL A   1      29.813  28.769  23.161  1.00  0.00     0.013 C 
ATOM     19  C   UNL A   1      30.854  28.010  23.993  1.00  0.00    -0.016 C 
ATOM     20  C   UNL A   1      31.414  28.915  25.091  1.00  0.00     0.013 C 
ATOM     21  C   UNL A   1      30.312  26.673  24.524  1.00  0.00     0.030 C 
ATOM     22  C   UNL A   1      31.991  27.527  23.101  1.00  0.00     0.127 C 
ATOM     23  C   UNL A   1      30.450  25.723  23.334  1.00  0.00     0.122 C 
ENDBRANCH  14  17
ENDBRANCH  12  13
ENDBRANCH  11  12
ENDBRANCH  10  11
ENDBRANCH   9  10
ENDBRANCH   8   9
ENDBRANCH   6   8
ENDBRANCH   5   6
ENDBRANCH   4   5
ENDBRANCH   3   4
ENDBRANCH   2   3
ENDBRANCH   1   2
BRANCH   1  24
ATOM     24  C   UNL A   1      39.349  22.637  26.348  1.00  0.00     0.188 C 
BRANCH  24  25
ATOM     25  O   UNL A   1      40.533  22.288  27.037  1.00  0.00    -0.377 OA
BRANCH  25  26
ATOM     26  C   UNL A   1      40.737  20.967  27.514  1.00  0.00     0.188 C 
BRANCH  26  27
ATOM     27  C   UNL A   1      41.598  19.980  26.709  1.00  0.00     0.188 C 
BRANCH  27  28
ATOM     28  O   UNL A   1      42.279  19.009  27.486  1.00  0.00    -0.376 OA
BRANCH  28  29
ATOM     29  C   UNL A   1      43.126  18.092  26.805  1.00  0.00     0.202 C 
BRANCH  29  30
ATOM     30  C   UNL A   1      43.573  18.445  25.374  1.00  0.00     0.261 C 
BRANCH  30  31
ATOM     31  O   UNL A   1      44.695  19.334  25.259  1.00  0.00    -0.460 OA
BRANCH  31  32
ATOM     32  C   UNL A   1      44.598  20.326  24.347  1.00  0.00     0.338 C 
ATOM     33  O   UNL A   1      44.548  20.207  23.141  1.00  0.00    -0.246 OA
BRANCH  32  34
ATOM     34  C   UNL A   1      44.367  21.592  25.071  1.00  0.00     0.060 A 
ATOM     35  C   UNL A   1      43.901  22.696  24.348  1.00  0.00     0.016 A 
ATOM     36  C   UNL A   1      44.637  21.699  26.438  1.00  0.00     0.016 A 
ATOM     37  C   UNL A   1      43.754  23.928  24.980  1.00  0.00     0.010 A 
ATOM     38  C   UNL A   1      44.508  22.943  27.067  1.00  0.00     0.010 A 
ATOM     39  C   UNL A   1      44.108  24.071  26.328  1.00  0.00    -0.014 A 
BRANCH  39  40
ATOM     40  C   UNL A   1      44.252  25.443  26.878  1.00  0.00     0.031 A 
ATOM     41  C   UNL A   1      45.586  26.129  26.749  1.00  0.00     0.074 A 
ATOM     42  C   UNL A   1      43.195  26.099  27.391  1.00  0.00     0.049 A 
ATOM     43  N   UNL A   1      45.937  27.339  27.096  1.00  0.00    -0.248 NA
ATOM     44  C   UNL A   1      46.669  25.340  26.141  1.00  0.00     0.031 C 
ATOM     45  C   UNL A   1      41.846  25.554  27.519  1.00  0.00     0.029 A 
ATOM     46  N   UNL A   1      43.092  27.375  27.886  1.00  0.00    -0.354 N 
ATOM     47  C   UNL A   1      47.278  27.460  26.746  1.00  0.00     0.074 A 
ATOM     48  C   UNL A   1      47.687  26.183  26.203  1.00  0.00     0.031 C 
ATOM     49  C   UNL A   1      41.045  26.493  28.053  1.00  0.00     0.029 A 
ATOM     50  C   UNL A   1      41.832  27.692  28.338  1.00  0.00     0.049 A 
ATOM     51  H   UNL A   1      43.849  28.004  27.917  1.00  0.00     0.167 HD
ATOM     52  C   UNL A   1      48.090  28.541  26.856  1.00  0.00     0.034 A 
ATOM     53  C   UNL A   1      41.373  28.815  28.928  1.00  0.00     0.034 A 
ATOM     54  C   UNL A   1      47.669  29.803  27.415  1.00  0.00     0.049 A 
ATOM     55  C   UNL A   1      42.322  29.976  29.121  1.00  0.00     0.074 A 
ATOM     56  C   UNL A   1      48.406  30.965  27.571  1.00  0.00     0.029 A 
ATOM     57  N   UNL A   1      46.404  30.067  27.926  1.00  0.00    -0.354 N 
ATOM     58  N   UNL A   1      43.585  30.082  28.775  1.00  0.00    -0.248 NA
ATOM     59  C   UNL A   1      41.775  31.173  29.771  1.00  0.00     0.031 C 
ATOM     60  C   UNL A   1      47.615  31.898  28.250  1.00  0.00     0.029 A 
ATOM     61  C   UNL A   1      46.352  31.357  28.432  1.00  0.00     0.049 A 
ATOM     62  H   UNL A   1      45.654  29.429  27.927  1.00  0.00     0.167 HD
ATOM     63  C   UNL A   1      43.971  31.372  29.136  1.00  0.00     0.074 A 
ATOM     64  C   UNL A   1      42.799  32.009  29.702  1.00  0.00     0.031 C 
ATOM     65  C   UNL A   1      45.182  31.978  29.011  1.00  0.00     0.034 A 
BRANCH  52  66
ATOM     66  C   UNL A   1      49.527  28.379  26.416  1.00  0.00     0.023 A 
ATOM     67  C   UNL A   1      49.919  28.536  25.075  1.00  0.00     0.031 A 
ATOM     68  C   UNL A   1      50.516  28.032  27.353  1.00  0.00     0.131 A 
ATOM     69  C   UNL A   1      51.248  28.279  24.699  1.00  0.00     0.055 A 
ATOM     70  C   UNL A   1      51.853  27.861  26.986  1.00  0.00     0.041 A 
ATOM     71  F   UNL A   1      50.199  27.840  28.644  1.00  0.00    -0.206 F 
ATOM     72  C   UNL A   1      52.222  27.970  25.649  1.00  0.00     0.022 A 
BRANCH  69  73
ATOM     73  S   UNL A   1      51.652  28.209  22.931  1.00  0.00     0.124 S 
ATOM     74  O   UNL A   1      51.160  26.882  22.568  1.00  0.00    -0.237 OA
ATOM     75  O   UNL A   1      50.904  29.338  22.391  1.00  0.00    -0.237 OA
ATOM     76  O   UNL A   1      53.106  28.354  22.906  1.00  0.00    -0.744 OA
ENDBRANCH  69  73
ENDBRANCH  52  66
BRANCH  53  77
ATOM     77  C   UNL A   1      39.964  28.896  29.415  1.00  0.00     0.023 A 
ATOM     78  C   UNL A   1      38.954  29.493  28.645  1.00  0.00     0.031 A 
ATOM     79  C   UNL A   1      39.624  28.434  30.700  1.00  0.00     0.131 A 
ATOM     80  C   UNL A   1      37.667  29.658  29.184  1.00  0.00     0.055 A 
ATOM     81  C   UNL A   1      38.328  28.545  31.207  1.00  0.00     0.041 A 
ATOM     82  F   UNL A   1      40.550  27.861  31.484  1.00  0.00    -0.206 F 
ATOM     83  C   UNL A   1      37.344  29.174  30.453  1.00  0.00     0.022 A 
BRANCH  80  84
ATOM     84  S   UNL A   1      36.443  30.609  28.239  1.00  0.00     0.124 S 
ATOM     85  O   UNL A   1      36.619  30.067  26.897  1.00  0.00    -0.237 OA
ATOM     86  O   UNL A   1      35.200  30.258  28.917  1.00  0.00    -0.237 OA
ATOM     87  O   UNL A   1      36.877  31.993  28.417  1.00  0.00    -0.744 OA
ENDBRANCH  80  84
ENDBRANCH  53  77
BRANCH  65  88
ATOM     88  C   UNL A   1      45.278  33.420  29.456  1.00  0.00     0.023 A 
ATOM     89  C   UNL A   1      45.566  33.769  30.788  1.00  0.00     0.031 A 
ATOM     90  C   UNL A   1      45.040  34.462  28.542  1.00  0.00     0.131 A 
ATOM     91  C   UNL A   1      45.522  35.114  31.184  1.00  0.00     0.055 A 
ATOM     92  C   UNL A   1      45.080  35.804  28.924  1.00  0.00     0.041 A 
ATOM     93  F   UNL A   1      44.757  34.194  27.256  1.00  0.00    -0.206 F 
ATOM     94  C   UNL A   1      45.302  36.136  30.257  1.00  0.00     0.022 A 
BRANCH  91  95
ATOM     95  S   UNL A   1      45.615  35.501  32.954  1.00  0.00     0.124 S 
ATOM     96  O   UNL A   1      45.392  34.192  33.561  1.00  0.00    -0.237 OA
ATOM     97  O   UNL A   1      46.963  36.042  33.085  1.00  0.00    -0.237 OA
ATOM     98  O   UNL A   1      44.537  36.468  33.152  1.00  0.00    -0.744 OA
ENDBRANCH  91  95
ENDBRANCH  65  88
ENDBRANCH  39  40
ENDBRANCH  32  34
ENDBRANCH  31  32
ENDBRANCH  30  31
ENDBRANCH  29  30
ENDBRANCH  28  29
ENDBRANCH  27  28
ENDBRANCH  26  27
ENDBRANCH  25  26
ENDBRANCH  24  25
ENDBRANCH   1  24
TORSDOF 29
ENDMDL
MODEL 2
REMARK VINA RESULT:      -8.0      5.259      6.771
REMARK SMILES CC1(C)CCN(C(=O)NCCCCCC(=O)OCCOCCOCCOCCOC(=O)c2ccc(-c3c4nc(c(-c5cc(S(=O)(=O)[O-])ccc5F)c5ccc([nH]5)c(-c5cc(S(=O)(=O)[O-])ccc5F)c5nc(c(-c6cc(S(=O)(=O)[O-])ccc6F)c6ccc3[nH]6)C=C5)C=C4)cc2)C1
REMARK SMILES IDX 21 1 20 2 19 3 18 4 17 5 15 6 16 7 14 8 13 9 12 10 11 11
REMARK SMILES IDX 10 12 9 13 7 14 8 15 6 17 1 18 2 19 3 20 4 21 95 22 5 23
REMARK SMILES IDX 22 24 23 25 24 26 25 27 26 28 27 29 28 30 29 31 30 32 31 33
REMARK SMILES IDX 32 34 33 35 94 36 34 37 93 38 35 39 36 40 37 41 87 42 38 43
REMARK SMILES IDX 92 44 86 45 88 46 39 47 91 48 85 49 84 50 40 52 72 53 52 54
REMARK SMILES IDX 71 55 53 56 56 57 70 58 89 59 54 60 55 61 69 63 90 64 57 65
REMARK SMILES IDX 41 66 42 67 50 68 43 69 49 70 51 71 48 72 44 73 45 74 46 75
REMARK SMILES IDX 47 76 73 77 74 78 82 79 75 80 81 81 83 82 80 83 76 84 77 85
REMARK SMILES IDX 78 86 79 87 58 88 59 89 67 90 60 91 66 92 68 93 65 94 61 95
REMARK SMILES IDX 62 96 63 97 64 98
REMARK H PARENT 9 16 88 51 56 62
REMARK Flexibility Score: inf
ROOT
ATOM      1  C   UNL A   1      38.077  21.930  25.438  1.00  0.00     0.188 C 
ENDROOT
BRANCH   1   2
ATOM      2  O   UNL A   1      37.489  23.180  25.174  1.00  0.00    -0.376 OA
BRANCH   2   3
ATOM      3  C   UNL A   1      36.082  23.313  25.083  1.00  0.00     0.202 C 
BRANCH   3   4
ATOM      4  C   UNL A   1      35.093  23.324  26.268  1.00  0.00     0.261 C 
BRANCH   4   5
ATOM      5  O   UNL A   1      34.157  22.244  26.389  1.00  0.00    -0.463 OA
BRANCH   5   6
ATOM      6  C   UNL A   1      32.874  22.572  26.645  1.00  0.00     0.305 C 
ATOM      7  O   UNL A   1      32.459  22.919  27.748  1.00  0.00    -0.252 OA
BRANCH   6   8
ATOM      8  C   UNL A   1      31.934  22.505  25.453  1.00  0.00     0.123 C 
BRANCH   8   9
ATOM      9  C   UNL A   1      31.025  23.651  24.987  1.00  0.00     0.012 C 
BRANCH   9  10
ATOM     10  C   UNL A   1      30.698  23.782  23.502  1.00  0.00     0.002 C 
BRANCH  10  11
ATOM     11  C   UNL A   1      31.764  24.474  22.680  1.00  0.00     0.021 C 
BRANCH  11  12
ATOM     12  C   UNL A   1      31.401  25.891  22.295  1.00  0.00     0.117 C 
BRANCH  12  13
ATOM     13  N   UNL A   1      32.527  26.672  21.832  1.00  0.00    -0.338 N 
ATOM     14  C   UNL A   1      33.331  27.543  22.487  1.00  0.00     0.317 C 
ATOM     15  O   UNL A   1      34.133  28.195  21.817  1.00  0.00    -0.249 OA
ATOM     16  H   UNL A   1      32.746  26.550  20.881  1.00  0.00     0.165 HD
BRANCH  14  17
ATOM     17  N   UNL A   1      33.243  27.676  23.840  1.00  0.00    -0.324 N 
ATOM     18  C   UNL A   1      31.106  27.163  26.069  1.00  0.00     0.013 C 
ATOM     19  C   UNL A   1      32.349  28.060  26.006  1.00  0.00    -0.016 C 
ATOM     20  C   UNL A   1      32.237  29.188  27.033  1.00  0.00     0.013 C 
ATOM     21  C   UNL A   1      33.653  27.256  26.126  1.00  0.00     0.030 C 
ATOM     22  C   UNL A   1      32.502  28.653  24.612  1.00  0.00     0.127 C 
ATOM     23  C   UNL A   1      33.877  26.709  24.717  1.00  0.00     0.122 C 
ENDBRANCH  14  17
ENDBRANCH  12  13
ENDBRANCH  11  12
ENDBRANCH  10  11
ENDBRANCH   9  10
ENDBRANCH   8   9
ENDBRANCH   6   8
ENDBRANCH   5   6
ENDBRANCH   4   5
ENDBRANCH   3   4
ENDBRANCH   2   3
ENDBRANCH   1   2
BRANCH   1  24
ATOM     24  C   UNL A   1      39.475  21.973  26.056  1.00  0.00     0.188 C 
BRANCH  24  25
ATOM     25  O   UNL A   1      39.906  20.923  26.899  1.00  0.00    -0.377 OA
BRANCH  25  26
ATOM     26  C   UNL A   1      40.925  20.026  26.485  1.00  0.00     0.188 C 
BRANCH  26  27
ATOM     27  C   UNL A   1      42.398  20.463  26.520  1.00  0.00     0.188 C 
BRANCH  27  28
ATOM     28  O   UNL A   1      42.838  21.178  25.376  1.00  0.00    -0.376 OA
BRANCH  28  29
ATOM     29  C   UNL A   1      44.205  21.564  25.323  1.00  0.00     0.202 C 
BRANCH  29  30
ATOM     30  C   UNL A   1      44.564  22.852  24.558  1.00  0.00     0.261 C 
BRANCH  30  31
ATOM     31  O   UNL A   1      44.603  24.061  25.332  1.00  0.00    -0.460 OA
BRANCH  31  32
ATOM     32  C   UNL A   1      43.454  24.768  25.422  1.00  0.00     0.338 C 
ATOM     33  O   UNL A   1      42.541  24.780  24.624  1.00  0.00    -0.246 OA
BRANCH  32  34
ATOM     34  C   UNL A   1      43.402  25.387  26.761  1.00  0.00     0.060 A 
ATOM     35  C   UNL A   1      42.352  25.032  27.616  1.00  0.00     0.016 A 
ATOM     36  C   UNL A   1      44.355  26.328  27.157  1.00  0.00     0.016 A 
ATOM     37  C   UNL A   1      42.221  25.659  28.853  1.00  0.00     0.010 A 
ATOM     38  C   UNL A   1      44.211  26.971  28.392  1.00  0.00     0.010 A 
ATOM     39  C   UNL A   1      43.118  26.670  29.224  1.00  0.00    -0.014 A 
BRANCH  39  40
ATOM     40  C   UNL A   1      42.768  27.534  30.380  1.00  0.00     0.031 A 
ATOM     41  C   UNL A   1      43.447  27.276  31.698  1.00  0.00     0.074 A 
ATOM     42  C   UNL A   1      41.941  28.586  30.234  1.00  0.00     0.049 A 
ATOM     43  N   UNL A   1      43.351  27.930  32.826  1.00  0.00    -0.248 NA
ATOM     44  C   UNL A   1      44.362  26.125  31.746  1.00  0.00     0.031 C 
ATOM     45  C   UNL A   1      41.268  28.962  28.992  1.00  0.00     0.029 A 
ATOM     46  N   UNL A   1      41.539  29.537  31.137  1.00  0.00    -0.354 N 
ATOM     47  C   UNL A   1      44.194  27.273  33.717  1.00  0.00     0.074 A 
ATOM     48  C   UNL A   1      44.756  26.143  33.010  1.00  0.00     0.031 C 
ATOM     49  C   UNL A   1      40.539  30.071  29.211  1.00  0.00     0.029 A 
ATOM     50  C   UNL A   1      40.666  30.463  30.614  1.00  0.00     0.049 A 
ATOM     51  H   UNL A   1      41.847  29.556  32.073  1.00  0.00     0.167 HD
ATOM     52  C   UNL A   1      44.482  27.591  35.004  1.00  0.00     0.034 A 
ATOM     53  C   UNL A   1      40.031  31.495  31.206  1.00  0.00     0.034 A 
ATOM     54  C   UNL A   1      43.900  28.713  35.700  1.00  0.00     0.049 A 
ATOM     55  C   UNL A   1      40.301  31.776  32.666  1.00  0.00     0.074 A 
ATOM     56  C   UNL A   1      44.124  29.131  37.000  1.00  0.00     0.029 A 
ATOM     57  N   UNL A   1      42.967  29.589  35.159  1.00  0.00    -0.354 N 
ATOM     58  N   UNL A   1      41.109  31.155  33.495  1.00  0.00    -0.248 NA
ATOM     59  C   UNL A   1      39.582  32.908  33.264  1.00  0.00     0.031 C 
ATOM     60  C   UNL A   1      43.265  30.202  37.271  1.00  0.00     0.029 A 
ATOM     61  C   UNL A   1      42.576  30.519  36.111  1.00  0.00     0.049 A 
ATOM     62  H   UNL A   1      42.631  29.554  34.234  1.00  0.00     0.167 HD
ATOM     63  C   UNL A   1      41.019  31.845  34.703  1.00  0.00     0.074 A 
ATOM     64  C   UNL A   1      40.099  32.942  34.483  1.00  0.00     0.031 C 
ATOM     65  C   UNL A   1      41.642  31.599  35.887  1.00  0.00     0.034 A 
BRANCH  52  66
ATOM     66  C   UNL A   1      45.424  26.675  35.752  1.00  0.00     0.023 A 
ATOM     67  C   UNL A   1      46.815  26.880  35.760  1.00  0.00     0.031 A 
ATOM     68  C   UNL A   1      44.921  25.561  36.446  1.00  0.00     0.131 A 
ATOM     69  C   UNL A   1      47.657  25.947  36.387  1.00  0.00     0.055 A 
ATOM     70  C   UNL A   1      45.757  24.684  37.140  1.00  0.00     0.041 A 
ATOM     71  F   UNL A   1      43.604  25.296  36.453  1.00  0.00    -0.206 F 
ATOM     72  C   UNL A   1      47.135  24.867  37.101  1.00  0.00     0.022 A 
BRANCH  69  73
ATOM     73  S   UNL A   1      49.448  26.084  36.131  1.00  0.00     0.124 S 
ATOM     74  O   UNL A   1      49.832  24.683  35.972  1.00  0.00    -0.237 OA
ATOM     75  O   UNL A   1      49.534  26.910  34.933  1.00  0.00    -0.237 OA
ATOM     76  O   UNL A   1      49.923  26.716  37.360  1.00  0.00    -0.744 OA
ENDBRANCH  69  73
ENDBRANCH  52  66
BRANCH  53  77
ATOM     77  C   UNL A   1      39.050  32.322  30.442  1.00  0.00     0.023 A 
ATOM     78  C   UNL A   1      37.744  31.871  30.194  1.00  0.00     0.031 A 
ATOM     79  C   UNL A   1      39.434  33.557  29.887  1.00  0.00     0.131 A 
ATOM     80  C   UNL A   1      36.887  32.621  29.372  1.00  0.00     0.055 A 
ATOM     81  C   UNL A   1      38.558  34.329  29.122  1.00  0.00     0.041 A 
ATOM     82  F   UNL A   1      40.672  34.036  30.085  1.00  0.00    -0.206 F 
ATOM     83  C   UNL A   1      37.281  33.854  28.848  1.00  0.00     0.022 A 
BRANCH  80  84
ATOM     84  S   UNL A   1      35.281  31.914  28.913  1.00  0.00     0.124 S 
ATOM     85  O   UNL A   1      35.027  32.559  27.630  1.00  0.00    -0.237 OA
ATOM     86  O   UNL A   1      35.581  30.487  28.866  1.00  0.00    -0.237 OA
ATOM     87  O   UNL A   1      34.402  32.328  30.005  1.00  0.00    -0.744 OA
ENDBRANCH  80  84
ENDBRANCH  53  77
BRANCH  65  88
ATOM     88  C   UNL A   1      41.376  32.567  37.017  1.00  0.00     0.023 A 
ATOM     89  C   UNL A   1      40.324  32.372  37.931  1.00  0.00     0.031 A 
ATOM     90  C   UNL A   1      42.162  33.725  37.160  1.00  0.00     0.131 A 
ATOM     91  C   UNL A   1      40.035  33.357  38.887  1.00  0.00     0.055 A 
ATOM     92  C   UNL A   1      41.921  34.662  38.166  1.00  0.00     0.041 A 
ATOM     93  F   UNL A   1      43.178  33.971  36.317  1.00  0.00    -0.206 F 
ATOM     94  C   UNL A   1      40.839  34.491  39.025  1.00  0.00     0.022 A 
BRANCH  91  95
ATOM     95  S   UNL A   1      38.508  33.206  39.855  1.00  0.00     0.124 S 
ATOM     96  O   UNL A   1      38.767  32.005  40.643  1.00  0.00    -0.237 OA
ATOM     97  O   UNL A   1      38.482  34.462  40.596  1.00  0.00    -0.237 OA
ATOM     98  O   UNL A   1      37.469  33.065  38.837  1.00  0.00    -0.744 OA
ENDBRANCH  91  95
ENDBRANCH  65  88
ENDBRANCH  39  40
ENDBRANCH  32  34
ENDBRANCH  31  32
ENDBRANCH  30  31
ENDBRANCH  29  30
ENDBRANCH  28  29
ENDBRANCH  27  28
ENDBRANCH  26  27
ENDBRANCH  25  26
ENDBRANCH  24  25
ENDBRANCH   1  24
TORSDOF 29
ENDMDL
MODEL 3
REMARK VINA RESULT:      -7.9      4.478      5.563
REMARK SMILES CC1(C)CCN(C(=O)NCCCCCC(=O)OCCOCCOCCOCCOC(=O)c2ccc(-c3c4nc(c(-c5cc(S(=O)(=O)[O-])ccc5F)c5ccc([nH]5)c(-c5cc(S(=O)(=O)[O-])ccc5F)c5nc(c(-c6cc(S(=O)(=O)[O-])ccc6F)c6ccc3[nH]6)C=C5)C=C4)cc2)C1
REMARK SMILES IDX 21 1 20 2 19 3 18 4 17 5 15 6 16 7 14 8 13 9 12 10 11 11
REMARK SMILES IDX 10 12 9 13 7 14 8 15 6 17 1 18 2 19 3 20 4 21 95 22 5 23
REMARK SMILES IDX 22 24 23 25 24 26 25 27 26 28 27 29 28 30 29 31 30 32 31 33
REMARK SMILES IDX 32 34 33 35 94 36 34 37 93 38 35 39 36 40 37 41 87 42 38 43
REMARK SMILES IDX 92 44 86 45 88 46 39 47 91 48 85 49 84 50 40 52 72 53 52 54
REMARK SMILES IDX 71 55 53 56 56 57 70 58 89 59 54 60 55 61 69 63 90 64 57 65
REMARK SMILES IDX 41 66 42 67 50 68 43 69 49 70 51 71 48 72 44 73 45 74 46 75
REMARK SMILES IDX 47 76 73 77 74 78 82 79 75 80 81 81 83 82 80 83 76 84 77 85
REMARK SMILES IDX 78 86 79 87 58 88 59 89 67 90 60 91 66 92 68 93 65 94 61 95
REMARK SMILES IDX 62 96 63 97 64 98
REMARK H PARENT 9 16 88 51 56 62
REMARK Flexibility Score: inf
ROOT
ATOM      1  C   UNL A   1      33.651  20.790  25.599  1.00  0.00     0.188 C 
ENDROOT
BRANCH   1   2
ATOM      2  O   UNL A   1      32.557  21.330  24.900  1.00  0.00    -0.376 OA
BRANCH   2   3
ATOM      3  C   UNL A   1      32.720  21.861  23.597  1.00  0.00     0.202 C 
BRANCH   3   4
ATOM      4  C   UNL A   1      32.410  23.309  23.163  1.00  0.00     0.261 C 
BRANCH   4   5
ATOM      5  O   UNL A   1      31.043  23.741  23.143  1.00  0.00    -0.463 OA
BRANCH   5   6
ATOM      6  C   UNL A   1      30.615  24.468  24.196  1.00  0.00     0.305 C 
ATOM      7  O   UNL A   1      31.008  24.307  25.349  1.00  0.00    -0.252 OA
BRANCH   6   8
ATOM      8  C   UNL A   1      29.597  25.549  23.871  1.00  0.00     0.123 C 
BRANCH   8   9
ATOM      9  C   UNL A   1      29.820  27.053  24.075  1.00  0.00     0.012 C 
BRANCH   9  10
ATOM     10  C   UNL A   1      30.326  27.894  22.905  1.00  0.00     0.002 C 
BRANCH  10  11
ATOM     11  C   UNL A   1      31.495  27.292  22.156  1.00  0.00     0.021 C 
BRANCH  11  12
ATOM     12  C   UNL A   1      32.839  27.649  22.750  1.00  0.00     0.117 C 
BRANCH  12  13
ATOM     13  N   UNL A   1      33.422  26.589  23.543  1.00  0.00    -0.338 N 
ATOM     14  C   UNL A   1      33.711  26.526  24.864  1.00  0.00     0.317 C 
ATOM     15  O   UNL A   1      34.349  25.552  25.263  1.00  0.00    -0.249 OA
ATOM     16  H   UNL A   1      33.647  25.776  23.036  1.00  0.00     0.165 HD
BRANCH  14  17
ATOM     17  N   UNL A   1      33.299  27.515  25.706  1.00  0.00    -0.324 N 
ATOM     18  C   UNL A   1      31.619  30.149  25.514  1.00  0.00     0.013 C 
ATOM     19  C   UNL A   1      32.666  29.655  26.520  1.00  0.00    -0.016 C 
ATOM     20  C   UNL A   1      33.278  30.839  27.269  1.00  0.00     0.013 C 
ATOM     21  C   UNL A   1      32.110  28.567  27.452  1.00  0.00     0.030 C 
ATOM     22  C   UNL A   1      33.765  28.883  25.800  1.00  0.00     0.127 C 
ATOM     23  C   UNL A   1      32.191  27.291  26.616  1.00  0.00     0.122 C 
ENDBRANCH  14  17
ENDBRANCH  12  13
ENDBRANCH  11  12
ENDBRANCH  10  11
ENDBRANCH   9  10
ENDBRANCH   8   9
ENDBRANCH   6   8
ENDBRANCH   5   6
ENDBRANCH   4   5
ENDBRANCH   3   4
ENDBRANCH   2   3
ENDBRANCH   1   2
BRANCH   1  24
ATOM     24  C   UNL A   1      34.334  19.593  24.937  1.00  0.00     0.188 C 
BRANCH  24  25
ATOM     25  O   UNL A   1      35.732  19.607  24.728  1.00  0.00    -0.377 OA
BRANCH  25  26
ATOM     26  C   UNL A   1      36.489  20.791  24.929  1.00  0.00     0.188 C 
BRANCH  26  27
ATOM     27  C   UNL A   1      37.965  20.703  25.347  1.00  0.00     0.188 C 
BRANCH  27  28
ATOM     28  O   UNL A   1      38.515  21.906  25.857  1.00  0.00    -0.376 OA
BRANCH  28  29
ATOM     29  C   UNL A   1      39.788  21.837  26.486  1.00  0.00     0.202 C 
BRANCH  29  30
ATOM     30  C   UNL A   1      40.908  21.057  25.772  1.00  0.00     0.261 C 
BRANCH  30  31
ATOM     31  O   UNL A   1      42.249  21.329  26.208  1.00  0.00    -0.460 OA
BRANCH  31  32
ATOM     32  C   UNL A   1      42.869  22.392  25.649  1.00  0.00     0.338 C 
ATOM     33  O   UNL A   1      43.051  22.592  24.466  1.00  0.00    -0.246 OA
BRANCH  32  34
ATOM     34  C   UNL A   1      43.128  23.382  26.713  1.00  0.00     0.060 A 
ATOM     35  C   UNL A   1      42.929  22.994  28.043  1.00  0.00     0.016 A 
ATOM     36  C   UNL A   1      43.528  24.684  26.404  1.00  0.00     0.016 A 
ATOM     37  C   UNL A   1      43.079  23.925  29.068  1.00  0.00     0.010 A 
ATOM     38  C   UNL A   1      43.659  25.623  27.433  1.00  0.00     0.010 A 
ATOM     39  C   UNL A   1      43.392  25.257  28.764  1.00  0.00    -0.014 A 
BRANCH  39  40
ATOM     40  C   UNL A   1      43.224  26.281  29.826  1.00  0.00     0.031 A 
ATOM     41  C   UNL A   1      44.345  26.482  30.811  1.00  0.00     0.074 A 
ATOM     42  C   UNL A   1      42.142  27.082  29.853  1.00  0.00     0.049 A 
ATOM     43  N   UNL A   1      44.455  27.350  31.782  1.00  0.00    -0.248 NA
ATOM     44  C   UNL A   1      45.501  25.581  30.675  1.00  0.00     0.031 C 
ATOM     45  C   UNL A   1      41.020  27.013  28.919  1.00  0.00     0.029 A 
ATOM     46  N   UNL A   1      41.821  28.119  30.691  1.00  0.00    -0.354 N 
ATOM     47  C   UNL A   1      45.690  27.104  32.372  1.00  0.00     0.074 A 
ATOM     48  C   UNL A   1      46.271  25.975  31.677  1.00  0.00     0.031 C 
ATOM     49  C   UNL A   1      40.133  27.974  29.234  1.00  0.00     0.029 A 
ATOM     50  C   UNL A   1      40.606  28.702  30.410  1.00  0.00     0.049 A 
ATOM     51  H   UNL A   1      42.403  28.419  31.426  1.00  0.00     0.167 HD
ATOM     52  C   UNL A   1      46.292  27.767  33.392  1.00  0.00     0.034 A 
ATOM     53  C   UNL A   1      39.948  29.696  31.040  1.00  0.00     0.034 A 
ATOM     54  C   UNL A   1      45.691  28.882  34.084  1.00  0.00     0.049 A 
ATOM     55  C   UNL A   1      40.600  30.361  32.231  1.00  0.00     0.074 A 
ATOM     56  C   UNL A   1      46.211  29.630  35.126  1.00  0.00     0.029 A 
ATOM     57  N   UNL A   1      44.430  29.401  33.816  1.00  0.00    -0.354 N 
ATOM     58  N   UNL A   1      41.775  30.127  32.772  1.00  0.00    -0.248 NA
ATOM     59  C   UNL A   1      39.842  31.434  32.884  1.00  0.00     0.031 C 
ATOM     60  C   UNL A   1      45.234  30.540  35.542  1.00  0.00     0.029 A 
ATOM     61  C   UNL A   1      44.140  30.431  34.698  1.00  0.00     0.049 A 
ATOM     62  H   UNL A   1      43.830  29.083  33.104  1.00  0.00     0.167 HD
ATOM     63  C   UNL A   1      41.906  31.050  33.809  1.00  0.00     0.074 A 
ATOM     64  C   UNL A   1      40.703  31.857  33.796  1.00  0.00     0.031 C 
ATOM     65  C   UNL A   1      42.929  31.219  34.690  1.00  0.00     0.034 A 
BRANCH  52  66
ATOM     66  C   UNL A   1      47.640  27.260  33.851  1.00  0.00     0.023 A 
ATOM     67  C   UNL A   1      48.842  27.720  33.286  1.00  0.00     0.031 A 
ATOM     68  C   UNL A   1      47.719  26.278  34.854  1.00  0.00     0.131 A 
ATOM     69  C   UNL A   1      50.064  27.149  33.677  1.00  0.00     0.055 A 
ATOM     70  C   UNL A   1      48.943  25.775  35.300  1.00  0.00     0.041 A 
ATOM     71  F   UNL A   1      46.604  25.779  35.413  1.00  0.00    -0.206 F 
ATOM     72  C   UNL A   1      50.124  26.200  34.700  1.00  0.00     0.022 A 
BRANCH  69  73
ATOM     73  S   UNL A   1      51.556  27.554  32.729  1.00  0.00     0.124 S 
ATOM     74  O   UNL A   1      50.997  27.854  31.412  1.00  0.00    -0.237 OA
ATOM     75  O   UNL A   1      52.100  28.689  33.466  1.00  0.00    -0.237 OA
ATOM     76  O   UNL A   1      52.349  26.329  32.796  1.00  0.00    -0.744 OA
ENDBRANCH  69  73
ENDBRANCH  52  66
BRANCH  53  77
ATOM     77  C   UNL A   1      38.584  30.107  30.594  1.00  0.00     0.023 A 
ATOM     78  C   UNL A   1      38.367  31.315  29.913  1.00  0.00     0.031 A 
ATOM     79  C   UNL A   1      37.461  29.319  30.908  1.00  0.00     0.131 A 
ATOM     80  C   UNL A   1      37.057  31.725  29.614  1.00  0.00     0.055 A 
ATOM     81  C   UNL A   1      36.166  29.702  30.554  1.00  0.00     0.041 A 
ATOM     82  F   UNL A   1      37.607  28.157  31.564  1.00  0.00    -0.206 F 
ATOM     83  C   UNL A   1      35.958  30.919  29.916  1.00  0.00     0.022 A 
BRANCH  80  84
ATOM     84  S   UNL A   1      36.802  33.379  28.913  1.00  0.00     0.124 S 
ATOM     85  O   UNL A   1      36.104  33.071  27.670  1.00  0.00    -0.237 OA
ATOM     86  O   UNL A   1      36.009  34.029  29.951  1.00  0.00    -0.237 OA
ATOM     87  O   UNL A   1      38.160  33.895  28.756  1.00  0.00    -0.744 OA
ENDBRANCH  80  84
ENDBRANCH  53  77
BRANCH  65  88
ATOM     88  C   UNL A   1      42.800  32.353  35.681  1.00  0.00     0.023 A 
ATOM     89  C   UNL A   1      42.206  32.171  36.944  1.00  0.00     0.031 A 
ATOM     90  C   UNL A   1      43.243  33.644  35.345  1.00  0.00     0.131 A 
ATOM     91  C   UNL A   1      41.994  33.276  37.783  1.00  0.00     0.055 A 
ATOM     92  C   UNL A   1      43.104  34.724  36.218  1.00  0.00     0.041 A 
ATOM     93  F   UNL A   1      43.815  33.883  34.153  1.00  0.00    -0.206 F 
ATOM     94  C   UNL A   1      42.458  34.547  37.438  1.00  0.00     0.022 A 
BRANCH  91  95
ATOM     95  S   UNL A   1      40.976  33.055  39.268  1.00  0.00     0.124 S 
ATOM     96  O   UNL A   1      39.673  32.732  38.696  1.00  0.00    -0.237 OA
ATOM     97  O   UNL A   1      41.658  31.963  39.955  1.00  0.00    -0.237 OA
ATOM     98  O   UNL A   1      41.055  34.353  39.936  1.00  0.00    -0.744 OA
ENDBRANCH  91  95
ENDBRANCH  65  88
ENDBRANCH  39  40
ENDBRANCH  32  34
ENDBRANCH  31  32
ENDBRANCH  30  31
ENDBRANCH  29  30
ENDBRANCH  28  29
ENDBRANCH  27  28
ENDBRANCH  26  27
ENDBRANCH  25  26
ENDBRANCH  24  25
ENDBRANCH   1  24
TORSDOF 29
ENDMDL
