MODEL 1
REMARK VINA RESULT:      -9.3      0.000      0.000
REMARK SMILES CCC(=O)N1CCC[C@](C[C@H]2CC(c3ccc(C)cc3)=NO2)(C(=O)OCCOCCOCCOCCOC(=O)c2ccc(-c3c4nc(c(-c5cc(S(=O)(=O)[O-])ccc5F)c5ccc([nH]5)c(-c5cc(S(=O)(=O)[O-])ccc5F)c5nc(c(-c6cc(S(=O)(=O)[O-])ccc6F)c6ccc3[nH]6)C=C5)C=C4)cc2)C1
REMARK SMILES IDX 31 1 30 2 29 3 28 4 27 5 26 6 25 7 23 8 24 9 9 10 5 11 6 12
REMARK SMILES IDX 103 13 7 14 8 15 3 16 4 17 2 18 1 19 10 20 11 21 12 22 22 23
REMARK SMILES IDX 13 24 21 25 14 26 15 27 20 28 16 29 19 30 17 31 18 32 32 33
REMARK SMILES IDX 33 34 34 35 35 36 36 37 37 38 38 39 39 40 40 41 41 42 102 43
REMARK SMILES IDX 42 44 101 45 43 46 44 47 45 48 95 49 46 50 100 51 94 52
REMARK SMILES IDX 96 53 47 54 99 55 93 56 92 57 48 59 80 60 60 61 79 62 61 63
REMARK SMILES IDX 64 64 78 65 97 66 62 67 63 68 77 70 98 71 65 72 49 73 50 74
REMARK SMILES IDX 58 75 51 76 57 77 59 78 56 79 52 80 53 81 54 82 55 83 81 84
REMARK SMILES IDX 82 85 90 86 83 87 89 88 91 89 88 90 84 91 85 92 86 93 87 94
REMARK SMILES IDX 66 95 67 96 75 97 68 98 74 99 76 100 73 101 69 102 70 103
REMARK SMILES IDX 71 104 72 105
REMARK H PARENT 96 58 64 69
REMARK Flexibility Score: inf
ROOT
ATOM      1  O   UNL A   1      39.335  23.080  26.560  1.00  0.00    -0.377 OA
ENDROOT
BRANCH   1   2
ATOM      2  C   UNL A   1      38.310  24.062  26.448  1.00  0.00     0.188 C 
BRANCH   2   3
ATOM      3  C   UNL A   1      37.049  23.538  25.781  1.00  0.00     0.188 C 
BRANCH   3   4
ATOM      4  O   UNL A   1      35.874  24.300  25.572  1.00  0.00    -0.376 OA
BRANCH   4   5
ATOM      5  C   UNL A   1      35.289  24.125  24.265  1.00  0.00     0.202 C 
BRANCH   5   6
ATOM      6  C   UNL A   1      33.892  24.671  23.795  1.00  0.00     0.261 C 
BRANCH   6   7
ATOM      7  O   UNL A   1      33.460  25.986  24.230  1.00  0.00    -0.463 OA
BRANCH   7   8
ATOM      8  C   UNL A   1      32.137  26.071  24.125  1.00  0.00     0.314 C 
ATOM      9  O   UNL A   1      31.603  25.899  23.063  1.00  0.00    -0.252 OA
BRANCH   8  10
ATOM     10  C   UNL A   1      31.260  26.220  25.341  1.00  0.00     0.089 C 
ATOM     11  N   UNL A   1      31.338  28.587  24.644  1.00  0.00    -0.342 N 
ATOM     12  C   UNL A   1      31.928  29.025  25.916  1.00  0.00     0.119 C 
ATOM     13  C   UNL A   1      30.412  27.437  24.825  1.00  0.00     0.138 C 
ATOM     14  C   UNL A   1      32.708  27.906  26.604  1.00  0.00     0.023 C 
ATOM     15  C   UNL A   1      31.966  26.583  26.643  1.00  0.00     0.022 C 
BRANCH  11  16
ATOM     16  C   UNL A   1      31.996  28.993  23.467  1.00  0.00     0.222 C 
ATOM     17  O   UNL A   1      33.215  29.201  23.531  1.00  0.00    -0.275 OA
BRANCH  16  18
ATOM     18  C   UNL A   1      31.302  29.368  22.126  1.00  0.00     0.097 C 
ATOM     19  C   UNL A   1      29.882  29.890  21.920  1.00  0.00     0.014 C 
ENDBRANCH  16  18
ENDBRANCH  11  16
BRANCH  10  20
ATOM     20  C   UNL A   1      30.594  24.817  25.442  1.00  0.00     0.069 C 
BRANCH  20  21
ATOM     21  C   UNL A   1      30.689  23.787  26.556  1.00  0.00     0.212 C 
ATOM     22  C   UNL A   1      30.706  22.334  26.179  1.00  0.00     0.108 C 
ATOM     23  O   UNL A   1      31.887  24.007  27.308  1.00  0.00    -0.392 OA
ATOM     24  C   UNL A   1      32.180  22.165  26.202  1.00  0.00     0.091 C 
ATOM     25  N   UNL A   1      32.831  23.062  26.875  1.00  0.00    -0.090 NA
BRANCH  24  26
ATOM     26  C   UNL A   1      32.859  21.049  25.538  1.00  0.00    -0.001 A 
ATOM     27  C   UNL A   1      34.250  20.927  25.529  1.00  0.00     0.010 A 
ATOM     28  C   UNL A   1      32.057  20.046  24.994  1.00  0.00     0.010 A 
ATOM     29  C   UNL A   1      34.834  19.770  25.022  1.00  0.00     0.004 A 
ATOM     30  C   UNL A   1      32.645  18.917  24.441  1.00  0.00     0.004 A 
ATOM     31  C   UNL A   1      34.036  18.762  24.470  1.00  0.00    -0.051 A 
ATOM     32  C   UNL A   1      34.659  17.543  23.867  1.00  0.00     0.044 C 
ENDBRANCH  24  26
ENDBRANCH  20  21
ENDBRANCH  10  20
ENDBRANCH   8  10
ENDBRANCH   7   8
ENDBRANCH   6   7
ENDBRANCH   5   6
ENDBRANCH   4   5
ENDBRANCH   3   4
ENDBRANCH   2   3
ENDBRANCH   1   2
BRANCH   1  33
ATOM     33  C   UNL A   1      40.434  23.474  27.372  1.00  0.00     0.188 C 
BRANCH  33  34
ATOM     34  C   UNL A   1      41.718  23.552  26.577  1.00  0.00     0.188 C 
BRANCH  34  35
ATOM     35  O   UNL A   1      41.813  24.785  25.855  1.00  0.00    -0.376 OA
BRANCH  35  36
ATOM     36  C   UNL A   1      43.014  25.531  26.056  1.00  0.00     0.202 C 
BRANCH  36  37
ATOM     37  C   UNL A   1      44.271  24.851  25.513  1.00  0.00     0.261 C 
BRANCH  37  38
ATOM     38  O   UNL A   1      45.422  25.377  26.201  1.00  0.00    -0.460 OA
BRANCH  38  39
ATOM     39  C   UNL A   1      46.033  24.506  27.051  1.00  0.00     0.338 C 
ATOM     40  O   UNL A   1      46.577  23.468  26.715  1.00  0.00    -0.246 OA
BRANCH  39  41
ATOM     41  C   UNL A   1      45.773  24.901  28.473  1.00  0.00     0.060 A 
ATOM     42  C   UNL A   1      44.704  24.312  29.175  1.00  0.00     0.016 A 
ATOM     43  C   UNL A   1      46.327  26.087  28.944  1.00  0.00     0.016 A 
ATOM     44  C   UNL A   1      44.086  24.998  30.237  1.00  0.00     0.010 A 
ATOM     45  C   UNL A   1      45.637  26.804  29.904  1.00  0.00     0.010 A 
ATOM     46  C   UNL A   1      44.491  26.298  30.545  1.00  0.00    -0.014 A 
BRANCH  46  47
ATOM     47  C   UNL A   1      43.683  27.294  31.300  1.00  0.00     0.031 A 
ATOM     48  C   UNL A   1      42.723  28.202  30.542  1.00  0.00     0.074 A 
ATOM     49  C   UNL A   1      43.518  27.038  32.626  1.00  0.00     0.049 A 
ATOM     50  N   UNL A   1      41.838  28.998  31.050  1.00  0.00    -0.248 NA
ATOM     51  C   UNL A   1      42.704  28.279  29.078  1.00  0.00     0.031 C 
ATOM     52  C   UNL A   1      42.278  27.166  33.369  1.00  0.00     0.029 A 
ATOM     53  N   UNL A   1      44.335  26.452  33.578  1.00  0.00    -0.354 N 
ATOM     54  C   UNL A   1      40.962  29.429  30.043  1.00  0.00     0.074 A 
ATOM     55  C   UNL A   1      41.607  29.002  28.830  1.00  0.00     0.031 C 
ATOM     56  C   UNL A   1      42.383  26.780  34.640  1.00  0.00     0.029 A 
ATOM     57  C   UNL A   1      43.778  26.644  34.867  1.00  0.00     0.049 A 
ATOM     58  H   UNL A   1      45.174  25.974  33.389  1.00  0.00     0.167 HD
ATOM     59  C   UNL A   1      39.742  29.988  30.366  1.00  0.00     0.034 A 
ATOM     60  C   UNL A   1      44.424  27.400  35.794  1.00  0.00     0.034 A 
ATOM     61  C   UNL A   1      39.653  30.250  31.820  1.00  0.00     0.049 A 
ATOM     62  C   UNL A   1      43.811  28.818  35.897  1.00  0.00     0.074 A 
ATOM     63  C   UNL A   1      38.703  30.013  32.796  1.00  0.00     0.029 A 
ATOM     64  N   UNL A   1      40.771  30.735  32.508  1.00  0.00    -0.354 N 
ATOM     65  N   UNL A   1      42.935  29.312  35.035  1.00  0.00    -0.248 NA
ATOM     66  C   UNL A   1      44.001  29.735  37.022  1.00  0.00     0.031 C 
ATOM     67  C   UNL A   1      39.290  30.279  34.061  1.00  0.00     0.029 A 
ATOM     68  C   UNL A   1      40.605  30.665  33.872  1.00  0.00     0.049 A 
ATOM     69  H   UNL A   1      41.580  31.085  32.069  1.00  0.00     0.167 HD
ATOM     70  C   UNL A   1      42.466  30.537  35.447  1.00  0.00     0.074 A 
ATOM     71  C   UNL A   1      43.159  30.741  36.711  1.00  0.00     0.031 C 
ATOM     72  C   UNL A   1      41.542  31.308  34.774  1.00  0.00     0.034 A 
BRANCH  59  73
ATOM     73  C   UNL A   1      38.484  30.149  29.444  1.00  0.00     0.023 A 
ATOM     74  C   UNL A   1      37.725  31.359  29.457  1.00  0.00     0.031 A 
ATOM     75  C   UNL A   1      37.919  29.152  28.616  1.00  0.00     0.131 A 
ATOM     76  C   UNL A   1      36.491  31.505  28.766  1.00  0.00     0.055 A 
ATOM     77  C   UNL A   1      36.723  29.315  27.886  1.00  0.00     0.041 A 
ATOM     78  F   UNL A   1      38.468  27.945  28.464  1.00  0.00    -0.206 F 
ATOM     79  C   UNL A   1      35.994  30.485  27.969  1.00  0.00     0.022 A 
BRANCH  76  80
ATOM     80  S   UNL A   1      35.521  33.050  28.863  1.00  0.00     0.124 S 
ATOM     81  O   UNL A   1      35.524  33.511  27.480  1.00  0.00    -0.237 OA
ATOM     82  O   UNL A   1      34.243  32.605  29.406  1.00  0.00    -0.237 OA
ATOM     83  O   UNL A   1      36.309  33.880  29.776  1.00  0.00    -0.744 OA
ENDBRANCH  76  80
ENDBRANCH  59  73
BRANCH  60  84
ATOM     84  C   UNL A   1      45.771  26.739  35.985  1.00  0.00     0.023 A 
ATOM     85  C   UNL A   1      46.845  27.689  35.905  1.00  0.00     0.031 A 
ATOM     86  C   UNL A   1      45.890  25.742  36.971  1.00  0.00     0.131 A 
ATOM     87  C   UNL A   1      47.747  27.837  36.980  1.00  0.00     0.055 A 
ATOM     88  C   UNL A   1      46.844  25.856  38.005  1.00  0.00     0.041 A 
ATOM     89  F   UNL A   1      44.929  24.818  37.115  1.00  0.00    -0.206 F 
ATOM     90  C   UNL A   1      47.722  26.944  38.052  1.00  0.00     0.022 A 
BRANCH  87  91
ATOM     91  S   UNL A   1      48.678  29.410  37.171  1.00  0.00     0.124 S 
ATOM     92  O   UNL A   1      49.370  29.511  35.892  1.00  0.00    -0.237 OA
ATOM     93  O   UNL A   1      47.620  30.390  37.398  1.00  0.00    -0.237 OA
ATOM     94  O   UNL A   1      49.525  29.146  38.334  1.00  0.00    -0.744 OA
ENDBRANCH  87  91
ENDBRANCH  60  84
BRANCH  72  95
ATOM     95  C   UNL A   1      41.340  32.807  34.948  1.00  0.00     0.023 A 
ATOM     96  C   UNL A   1      40.859  33.344  36.138  1.00  0.00     0.031 A 
ATOM     97  C   UNL A   1      41.768  33.765  33.982  1.00  0.00     0.131 A 
ATOM     98  C   UNL A   1      40.723  34.729  36.311  1.00  0.00     0.055 A 
ATOM     99  C   UNL A   1      41.716  35.145  34.190  1.00  0.00     0.041 A 
ATOM    100  F   UNL A   1      42.294  33.419  32.799  1.00  0.00    -0.206 F 
ATOM    101  C   UNL A   1      41.174  35.639  35.362  1.00  0.00     0.022 A 
BRANCH  98 102
ATOM    102  S   UNL A   1      39.876  35.281  37.804  1.00  0.00     0.124 S 
ATOM    103  O   UNL A   1      39.783  36.720  37.570  1.00  0.00    -0.237 OA
ATOM    104  O   UNL A   1      38.615  34.549  37.737  1.00  0.00    -0.237 OA
ATOM    105  O   UNL A   1      40.777  34.879  38.880  1.00  0.00    -0.744 OA
ENDBRANCH  98 102
ENDBRANCH  72  95
ENDBRANCH  46  47
ENDBRANCH  39  41
ENDBRANCH  38  39
ENDBRANCH  37  38
ENDBRANCH  36  37
ENDBRANCH  35  36
ENDBRANCH  34  35
ENDBRANCH  33  34
ENDBRANCH   1  33
TORSDOF 28
ENDMDL
MODEL 2
REMARK VINA RESULT:      -8.5      3.177      5.109
REMARK SMILES CCC(=O)N1CCC[C@](C[C@H]2CC(c3ccc(C)cc3)=NO2)(C(=O)OCCOCCOCCOCCOC(=O)c2ccc(-c3c4nc(c(-c5cc(S(=O)(=O)[O-])ccc5F)c5ccc([nH]5)c(-c5cc(S(=O)(=O)[O-])ccc5F)c5nc(c(-c6cc(S(=O)(=O)[O-])ccc6F)c6ccc3[nH]6)C=C5)C=C4)cc2)C1
REMARK SMILES IDX 31 1 30 2 29 3 28 4 27 5 26 6 25 7 23 8 24 9 9 10 5 11 6 12
REMARK SMILES IDX 103 13 7 14 8 15 3 16 4 17 2 18 1 19 10 20 11 21 12 22 22 23
REMARK SMILES IDX 13 24 21 25 14 26 15 27 20 28 16 29 19 30 17 31 18 32 32 33
REMARK SMILES IDX 33 34 34 35 35 36 36 37 37 38 38 39 39 40 40 41 41 42 102 43
REMARK SMILES IDX 42 44 101 45 43 46 44 47 45 48 95 49 46 50 100 51 94 52
REMARK SMILES IDX 96 53 47 54 99 55 93 56 92 57 48 59 80 60 60 61 79 62 61 63
REMARK SMILES IDX 64 64 78 65 97 66 62 67 63 68 77 70 98 71 65 72 49 73 50 74
REMARK SMILES IDX 58 75 51 76 57 77 59 78 56 79 52 80 53 81 54 82 55 83 81 84
REMARK SMILES IDX 82 85 90 86 83 87 89 88 91 89 88 90 84 91 85 92 86 93 87 94
REMARK SMILES IDX 66 95 67 96 75 97 68 98 74 99 76 100 73 101 69 102 70 103
REMARK SMILES IDX 71 104 72 105
REMARK H PARENT 96 58 64 69
REMARK Flexibility Score: inf
ROOT
ATOM      1  O   UNL A   1      38.359  23.426  26.705  1.00  0.00    -0.377 OA
ENDROOT
BRANCH   1   2
ATOM      2  C   UNL A   1      37.565  23.651  25.544  1.00  0.00     0.188 C 
BRANCH   2   3
ATOM      3  C   UNL A   1      36.084  23.398  25.772  1.00  0.00     0.188 C 
BRANCH   3   4
ATOM      4  O   UNL A   1      35.044  24.246  25.319  1.00  0.00    -0.376 OA
BRANCH   4   5
ATOM      5  C   UNL A   1      33.952  24.380  26.251  1.00  0.00     0.202 C 
BRANCH   5   6
ATOM      6  C   UNL A   1      33.083  25.669  26.480  1.00  0.00     0.261 C 
BRANCH   6   7
ATOM      7  O   UNL A   1      32.368  26.253  25.359  1.00  0.00    -0.463 OA
BRANCH   7   8
ATOM      8  C   UNL A   1      33.146  27.152  24.763  1.00  0.00     0.314 C 
ATOM      9  O   UNL A   1      34.290  27.282  25.103  1.00  0.00    -0.252 OA
BRANCH   8  10
ATOM     10  C   UNL A   1      32.678  27.913  23.550  1.00  0.00     0.089 C 
ATOM     11  N   UNL A   1      32.600  29.751  25.198  1.00  0.00    -0.342 N 
ATOM     12  C   UNL A   1      31.163  29.980  24.993  1.00  0.00     0.119 C 
ATOM     13  C   UNL A   1      33.277  29.309  23.950  1.00  0.00     0.138 C 
ATOM     14  C   UNL A   1      30.446  28.727  24.495  1.00  0.00     0.023 C 
ATOM     15  C   UNL A   1      31.168  28.023  23.361  1.00  0.00     0.022 C 
BRANCH  11  16
ATOM     16  C   UNL A   1      33.030  29.574  26.526  1.00  0.00     0.222 C 
ATOM     17  O   UNL A   1      32.239  29.054  27.324  1.00  0.00    -0.275 OA
BRANCH  16  18
ATOM     18  C   UNL A   1      34.354  30.128  27.130  1.00  0.00     0.097 C 
ATOM     19  C   UNL A   1      35.560  29.335  27.627  1.00  0.00     0.014 C 
ENDBRANCH  16  18
ENDBRANCH  11  16
BRANCH  10  20
ATOM     20  C   UNL A   1      33.328  27.111  22.385  1.00  0.00     0.069 C 
BRANCH  20  21
ATOM     21  C   UNL A   1      32.738  25.990  21.546  1.00  0.00     0.212 C 
ATOM     22  C   UNL A   1      33.277  24.602  21.737  1.00  0.00     0.108 C 
ATOM     23  O   UNL A   1      31.331  25.897  21.795  1.00  0.00    -0.392 OA
ATOM     24  C   UNL A   1      32.235  24.138  22.685  1.00  0.00     0.091 C 
ATOM     25  N   UNL A   1      31.134  24.822  22.678  1.00  0.00    -0.090 NA
BRANCH  24  26
ATOM     26  C   UNL A   1      32.416  22.971  23.553  1.00  0.00    -0.001 A 
ATOM     27  C   UNL A   1      31.513  22.655  24.570  1.00  0.00     0.010 A 
ATOM     28  C   UNL A   1      33.480  22.118  23.261  1.00  0.00     0.010 A 
ATOM     29  C   UNL A   1      31.648  21.454  25.259  1.00  0.00     0.004 A 
ATOM     30  C   UNL A   1      33.643  20.945  23.986  1.00  0.00     0.004 A 
ATOM     31  C   UNL A   1      32.716  20.595  24.976  1.00  0.00    -0.051 A 
ATOM     32  C   UNL A   1      32.903  19.331  25.753  1.00  0.00     0.044 C 
ENDBRANCH  24  26
ENDBRANCH  20  21
ENDBRANCH  10  20
ENDBRANCH   8  10
ENDBRANCH   7   8
ENDBRANCH   6   7
ENDBRANCH   5   6
ENDBRANCH   4   5
ENDBRANCH   3   4
ENDBRANCH   2   3
ENDBRANCH   1   2
BRANCH   1  33
ATOM     33  C   UNL A   1      38.862  24.612  27.305  1.00  0.00     0.188 C 
BRANCH  33  34
ATOM     34  C   UNL A   1      40.315  24.844  26.956  1.00  0.00     0.188 C 
BRANCH  34  35
ATOM     35  O   UNL A   1      40.511  26.128  26.353  1.00  0.00    -0.376 OA
BRANCH  35  36
ATOM     36  C   UNL A   1      41.847  26.631  26.385  1.00  0.00     0.202 C 
BRANCH  36  37
ATOM     37  C   UNL A   1      42.825  25.867  25.492  1.00  0.00     0.261 C 
BRANCH  37  38
ATOM     38  O   UNL A   1      44.068  25.694  26.199  1.00  0.00    -0.460 OA
BRANCH  38  39
ATOM     39  C   UNL A   1      44.522  24.411  26.261  1.00  0.00     0.338 C 
ATOM     40  O   UNL A   1      44.578  23.645  25.314  1.00  0.00    -0.246 OA
BRANCH  39  41
ATOM     41  C   UNL A   1      44.756  24.012  27.686  1.00  0.00     0.060 A 
ATOM     42  C   UNL A   1      43.713  23.420  28.424  1.00  0.00     0.016 A 
ATOM     43  C   UNL A   1      45.839  24.566  28.361  1.00  0.00     0.016 A 
ATOM     44  C   UNL A   1      43.676  23.539  29.826  1.00  0.00     0.010 A 
ATOM     45  C   UNL A   1      45.730  24.784  29.722  1.00  0.00     0.010 A 
ATOM     46  C   UNL A   1      44.641  24.309  30.477  1.00  0.00    -0.014 A 
BRANCH  46  47
ATOM     47  C   UNL A   1      44.500  24.891  31.839  1.00  0.00     0.031 A 
ATOM     48  C   UNL A   1      43.809  26.239  32.006  1.00  0.00     0.074 A 
ATOM     49  C   UNL A   1      44.589  24.009  32.871  1.00  0.00     0.049 A 
ATOM     50  N   UNL A   1      43.460  26.804  33.116  1.00  0.00    -0.248 NA
ATOM     51  C   UNL A   1      43.453  27.086  30.863  1.00  0.00     0.031 C 
ATOM     52  C   UNL A   1      43.726  23.974  34.037  1.00  0.00     0.029 A 
ATOM     53  N   UNL A   1      45.326  22.851  33.055  1.00  0.00    -0.354 N 
ATOM     54  C   UNL A   1      42.597  27.875  32.847  1.00  0.00     0.074 A 
ATOM     55  C   UNL A   1      42.697  28.039  31.421  1.00  0.00     0.031 C 
ATOM     56  C   UNL A   1      43.990  22.957  34.857  1.00  0.00     0.029 A 
ATOM     57  C   UNL A   1      45.231  22.437  34.407  1.00  0.00     0.049 A 
ATOM     58  H   UNL A   1      45.838  22.386  32.355  1.00  0.00     0.167 HD
ATOM     59  C   UNL A   1      41.812  28.414  33.847  1.00  0.00     0.034 A 
ATOM     60  C   UNL A   1      46.331  22.430  35.208  1.00  0.00     0.034 A 
ATOM     61  C   UNL A   1      42.202  27.872  35.167  1.00  0.00     0.049 A 
ATOM     62  C   UNL A   1      46.363  23.664  36.140  1.00  0.00     0.074 A 
ATOM     63  C   UNL A   1      41.513  27.353  36.249  1.00  0.00     0.029 A 
ATOM     64  N   UNL A   1      43.554  27.672  35.466  1.00  0.00    -0.354 N 
ATOM     65  N   UNL A   1      45.560  24.710  36.014  1.00  0.00    -0.248 NA
ATOM     66  C   UNL A   1      47.169  23.778  37.355  1.00  0.00     0.031 C 
ATOM     67  C   UNL A   1      42.455  26.776  37.140  1.00  0.00     0.029 A 
ATOM     68  C   UNL A   1      43.724  26.922  36.607  1.00  0.00     0.049 A 
ATOM     69  H   UNL A   1      44.296  28.027  34.924  1.00  0.00     0.167 HD
ATOM     70  C   UNL A   1      45.722  25.592  37.056  1.00  0.00     0.074 A 
ATOM     71  C   UNL A   1      46.734  24.943  37.876  1.00  0.00     0.031 C 
ATOM     72  C   UNL A   1      45.031  26.774  37.218  1.00  0.00     0.034 A 
BRANCH  59  73
ATOM     73  C   UNL A   1      40.527  29.297  33.690  1.00  0.00     0.023 A 
ATOM     74  C   UNL A   1      39.654  29.116  32.573  1.00  0.00     0.031 A 
ATOM     75  C   UNL A   1      40.145  30.376  34.520  1.00  0.00     0.131 A 
ATOM     76  C   UNL A   1      38.566  29.987  32.295  1.00  0.00     0.055 A 
ATOM     77  C   UNL A   1      39.032  31.208  34.274  1.00  0.00     0.041 A 
ATOM     78  F   UNL A   1      40.827  30.719  35.615  1.00  0.00    -0.206 F 
ATOM     79  C   UNL A   1      38.246  31.029  33.153  1.00  0.00     0.022 A 
BRANCH  76  80
ATOM     80  S   UNL A   1      37.513  29.757  30.818  1.00  0.00     0.124 S 
ATOM     81  O   UNL A   1      37.791  30.960  30.043  1.00  0.00    -0.237 OA
ATOM     82  O   UNL A   1      37.988  28.493  30.267  1.00  0.00    -0.237 OA
ATOM     83  O   UNL A   1      36.162  29.702  31.380  1.00  0.00    -0.744 OA
ENDBRANCH  76  80
ENDBRANCH  59  73
BRANCH  60  84
ATOM     84  C   UNL A   1      47.318  21.507  34.527  1.00  0.00     0.023 A 
ATOM     85  C   UNL A   1      48.584  22.149  34.312  1.00  0.00     0.031 A 
ATOM     86  C   UNL A   1      47.360  20.160  34.933  1.00  0.00     0.131 A 
ATOM     87  C   UNL A   1      49.766  21.588  34.843  1.00  0.00     0.055 A 
ATOM     88  C   UNL A   1      48.561  19.579  35.393  1.00  0.00     0.041 A 
ATOM     89  F   UNL A   1      46.222  19.487  35.157  1.00  0.00    -0.206 F 
ATOM     90  C   UNL A   1      49.749  20.318  35.420  1.00  0.00     0.022 A 
BRANCH  87  91
ATOM     91  S   UNL A   1      51.227  22.664  35.135  1.00  0.00     0.124 S 
ATOM     92  O   UNL A   1      50.611  23.977  35.290  1.00  0.00    -0.237 OA
ATOM     93  O   UNL A   1      51.817  22.095  36.342  1.00  0.00    -0.237 OA
ATOM     94  O   UNL A   1      52.018  22.473  33.919  1.00  0.00    -0.744 OA
ENDBRANCH  87  91
ENDBRANCH  60  84
BRANCH  72  95
ATOM     95  C   UNL A   1      45.476  27.954  38.072  1.00  0.00     0.023 A 
ATOM     96  C   UNL A   1      45.310  27.956  39.454  1.00  0.00     0.031 A 
ATOM     97  C   UNL A   1      46.223  29.051  37.552  1.00  0.00     0.131 A 
ATOM     98  C   UNL A   1      45.767  29.021  40.243  1.00  0.00     0.055 A 
ATOM     99  C   UNL A   1      46.756  30.067  38.349  1.00  0.00     0.041 A 
ATOM    100  F   UNL A   1      46.510  29.183  36.250  1.00  0.00    -0.206 F 
ATOM    101  C   UNL A   1      46.516  30.065  39.710  1.00  0.00     0.022 A 
BRANCH  98 102
ATOM    102  S   UNL A   1      45.287  29.010  41.980  1.00  0.00     0.124 S 
ATOM    103  O   UNL A   1      44.979  30.421  42.206  1.00  0.00    -0.237 OA
ATOM    104  O   UNL A   1      44.140  28.107  41.982  1.00  0.00    -0.237 OA
ATOM    105  O   UNL A   1      46.476  28.513  42.664  1.00  0.00    -0.744 OA
ENDBRANCH  98 102
ENDBRANCH  72  95
ENDBRANCH  46  47
ENDBRANCH  39  41
ENDBRANCH  38  39
ENDBRANCH  37  38
ENDBRANCH  36  37
ENDBRANCH  35  36
ENDBRANCH  34  35
ENDBRANCH  33  34
ENDBRANCH   1  33
TORSDOF 28
ENDMDL
MODEL 3
REMARK VINA RESULT:      -8.1      2.816      4.160
REMARK SMILES CCC(=O)N1CCC[C@](C[C@H]2CC(c3ccc(C)cc3)=NO2)(C(=O)OCCOCCOCCOCCOC(=O)c2ccc(-c3c4nc(c(-c5cc(S(=O)(=O)[O-])ccc5F)c5ccc([nH]5)c(-c5cc(S(=O)(=O)[O-])ccc5F)c5nc(c(-c6cc(S(=O)(=O)[O-])ccc6F)c6ccc3[nH]6)C=C5)C=C4)cc2)C1
REMARK SMILES IDX 31 1 30 2 29 3 28 4 27 5 26 6 25 7 23 8 24 9 9 10 5 11 6 12
REMARK SMILES IDX 103 13 7 14 8 15 3 16 4 17 2 18 1 19 10 20 11 21 12 22 22 23
REMARK SMILES IDX 13 24 21 25 14 26 15 27 20 28 16 29 19 30 17 31 18 32 32 33
REMARK SMILES IDX 33 34 34 35 35 36 36 37 37 38 38 39 39 40 40 41 41 42 102 43
REMARK SMILES IDX 42 44 101 45 43 46 44 47 45 48 95 49 46 50 100 51 94 52
REMARK SMILES IDX 96 53 47 54 99 55 93 56 92 57 48 59 80 60 60 61 79 62 61 63
REMARK SMILES IDX 64 64 78 65 97 66 62 67 63 68 77 70 98 71 65 72 49 73 50 74
REMARK SMILES IDX 58 75 51 76 57 77 59 78 56 79 52 80 53 81 54 82 55 83 81 84
REMARK SMILES IDX 82 85 90 86 83 87 89 88 91 89 88 90 84 91 85 92 86 93 87 94
REMARK SMILES IDX 66 95 67 96 75 97 68 98 74 99 76 100 73 101 69 102 70 103
REMARK SMILES IDX 71 104 72 105
REMARK H PARENT 96 58 64 69
REMARK Flexibility Score: inf
ROOT
ATOM      1  O   UNL A   1      38.313  23.157  26.372  1.00  0.00    -0.377 OA
ENDROOT
BRANCH   1   2
ATOM      2  C   UNL A   1      37.310  23.822  25.610  1.00  0.00     0.188 C 
BRANCH   2   3
ATOM      3  C   UNL A   1      35.896  23.440  26.018  1.00  0.00     0.188 C 
BRANCH   3   4
ATOM      4  O   UNL A   1      34.720  23.996  25.458  1.00  0.00    -0.376 OA
BRANCH   4   5
ATOM      5  C   UNL A   1      33.714  24.336  26.434  1.00  0.00     0.202 C 
BRANCH   5   6
ATOM      6  C   UNL A   1      32.876  25.665  26.477  1.00  0.00     0.261 C 
BRANCH   6   7
ATOM      7  O   UNL A   1      32.305  26.185  25.248  1.00  0.00    -0.463 OA
BRANCH   7   8
ATOM      8  C   UNL A   1      33.174  27.013  24.676  1.00  0.00     0.314 C 
ATOM      9  O   UNL A   1      34.334  26.979  24.983  1.00  0.00    -0.252 OA
BRANCH   8  10
ATOM     10  C   UNL A   1      32.774  27.896  23.523  1.00  0.00     0.089 C 
ATOM     11  N   UNL A   1      32.914  29.621  25.284  1.00  0.00    -0.342 N 
ATOM     12  C   UNL A   1      31.508  30.014  25.123  1.00  0.00     0.119 C 
ATOM     13  C   UNL A   1      33.524  29.192  23.997  1.00  0.00     0.138 C 
ATOM     14  C   UNL A   1      30.654  28.878  24.561  1.00  0.00     0.023 C 
ATOM     15  C   UNL A   1      31.282  28.177  23.371  1.00  0.00     0.022 C 
BRANCH  11  16
ATOM     16  C   UNL A   1      33.341  29.315  26.590  1.00  0.00     0.222 C 
ATOM     17  O   UNL A   1      32.472  29.061  27.435  1.00  0.00    -0.275 OA
BRANCH  16  18
ATOM     18  C   UNL A   1      34.801  29.429  27.115  1.00  0.00     0.097 C 
ATOM     19  C   UNL A   1      35.455  30.619  27.814  1.00  0.00     0.014 C 
ENDBRANCH  16  18
ENDBRANCH  11  16
BRANCH  10  20
ATOM     20  C   UNL A   1      33.319  27.107  22.297  1.00  0.00     0.069 C 
BRANCH  20  21
ATOM     21  C   UNL A   1      32.641  26.022  21.475  1.00  0.00     0.212 C 
ATOM     22  C   UNL A   1      33.134  24.612  21.619  1.00  0.00     0.108 C 
ATOM     23  O   UNL A   1      31.247  25.981  21.798  1.00  0.00    -0.392 OA
ATOM     24  C   UNL A   1      32.125  24.174  22.615  1.00  0.00     0.091 C 
ATOM     25  N   UNL A   1      31.054  24.902  22.675  1.00  0.00    -0.090 NA
BRANCH  24  26
ATOM     26  C   UNL A   1      32.305  22.988  23.456  1.00  0.00    -0.001 A 
ATOM     27  C   UNL A   1      31.418  22.667  24.485  1.00  0.00     0.010 A 
ATOM     28  C   UNL A   1      33.349  22.125  23.126  1.00  0.00     0.010 A 
ATOM     29  C   UNL A   1      31.547  21.450  25.148  1.00  0.00     0.004 A 
ATOM     30  C   UNL A   1      33.508  20.935  23.825  1.00  0.00     0.004 A 
ATOM     31  C   UNL A   1      32.595  20.581  24.827  1.00  0.00    -0.051 A 
ATOM     32  C   UNL A   1      32.778  19.299  25.576  1.00  0.00     0.044 C 
ENDBRANCH  24  26
ENDBRANCH  20  21
ENDBRANCH  10  20
ENDBRANCH   8  10
ENDBRANCH   7   8
ENDBRANCH   6   7
ENDBRANCH   5   6
ENDBRANCH   4   5
ENDBRANCH   3   4
ENDBRANCH   2   3
ENDBRANCH   1   2
BRANCH   1  33
ATOM     33  C   UNL A   1      39.104  24.023  27.176  1.00  0.00     0.188 C 
BRANCH  33  34
ATOM     34  C   UNL A   1      40.539  24.072  26.701  1.00  0.00     0.188 C 
BRANCH  34  35
ATOM     35  O   UNL A   1      40.863  25.349  26.141  1.00  0.00    -0.376 OA
BRANCH  35  36
ATOM     36  C   UNL A   1      42.255  25.630  25.998  1.00  0.00     0.202 C 
BRANCH  36  37
ATOM     37  C   UNL A   1      42.994  24.669  25.066  1.00  0.00     0.261 C 
BRANCH  37  38
ATOM     38  O   UNL A   1      44.397  24.687  25.391  1.00  0.00    -0.460 OA
BRANCH  38  39
ATOM     39  C   UNL A   1      44.918  23.486  25.769  1.00  0.00     0.338 C 
ATOM     40  O   UNL A   1      45.084  22.533  25.027  1.00  0.00    -0.246 OA
BRANCH  39  41
ATOM     41  C   UNL A   1      45.070  23.434  27.259  1.00  0.00     0.060 A 
ATOM     42  C   UNL A   1      44.002  22.974  28.053  1.00  0.00     0.016 A 
ATOM     43  C   UNL A   1      46.086  24.179  27.848  1.00  0.00     0.016 A 
ATOM     44  C   UNL A   1      43.868  23.407  29.385  1.00  0.00     0.010 A 
ATOM     45  C   UNL A   1      45.879  24.696  29.114  1.00  0.00     0.010 A 
ATOM     46  C   UNL A   1      44.760  24.352  29.895  1.00  0.00    -0.014 A 
BRANCH  46  47
ATOM     47  C   UNL A   1      44.509  25.221  31.077  1.00  0.00     0.031 A 
ATOM     48  C   UNL A   1      43.875  26.592  30.873  1.00  0.00     0.074 A 
ATOM     49  C   UNL A   1      44.444  24.583  32.277  1.00  0.00     0.049 A 
ATOM     50  N   UNL A   1      43.443  27.395  31.790  1.00  0.00    -0.248 NA
ATOM     51  C   UNL A   1      43.684  27.179  29.543  1.00  0.00     0.031 C 
ATOM     52  C   UNL A   1      43.465  24.827  33.319  1.00  0.00     0.029 A 
ATOM     53  N   UNL A   1      45.097  23.473  32.786  1.00  0.00    -0.354 N 
ATOM     54  C   UNL A   1      42.669  28.406  31.203  1.00  0.00     0.074 A 
ATOM     55  C   UNL A   1      42.926  28.251  29.795  1.00  0.00     0.031 C 
ATOM     56  C   UNL A   1      43.589  24.008  34.362  1.00  0.00     0.029 A 
ATOM     57  C   UNL A   1      44.842  23.366  34.176  1.00  0.00     0.049 A 
ATOM     58  H   UNL A   1      45.654  22.852  32.264  1.00  0.00     0.167 HD
ATOM     59  C   UNL A   1      41.815  29.171  31.969  1.00  0.00     0.034 A 
ATOM     60  C   UNL A   1      45.850  23.503  35.078  1.00  0.00     0.034 A 
ATOM     61  C   UNL A   1      42.036  28.920  33.411  1.00  0.00     0.049 A 
ATOM     62  C   UNL A   1      45.849  24.910  35.723  1.00  0.00     0.074 A 
ATOM     63  C   UNL A   1      41.213  28.669  34.494  1.00  0.00     0.029 A 
ATOM     64  N   UNL A   1      43.338  28.751  33.895  1.00  0.00    -0.354 N 
ATOM     65  N   UNL A   1      45.119  25.925  35.286  1.00  0.00    -0.248 NA
ATOM     66  C   UNL A   1      46.530  25.263  36.968  1.00  0.00     0.031 C 
ATOM     67  C   UNL A   1      42.026  28.274  35.587  1.00  0.00     0.029 A 
ATOM     68  C   UNL A   1      43.349  28.264  35.182  1.00  0.00     0.049 A 
ATOM     69  H   UNL A   1      44.150  28.958  33.377  1.00  0.00     0.167 HD
ATOM     70  C   UNL A   1      45.218  27.008  36.127  1.00  0.00     0.074 A 
ATOM     71  C   UNL A   1      46.105  26.526  37.175  1.00  0.00     0.031 C 
ATOM     72  C   UNL A   1      44.576  28.217  35.954  1.00  0.00     0.034 A 
BRANCH  59  73
ATOM     73  C   UNL A   1      40.600  30.035  31.484  1.00  0.00     0.023 A 
ATOM     74  C   UNL A   1      40.580  31.447  31.701  1.00  0.00     0.031 A 
ATOM     75  C   UNL A   1      39.407  29.550  30.900  1.00  0.00     0.131 A 
ATOM     76  C   UNL A   1      39.443  32.255  31.427  1.00  0.00     0.055 A 
ATOM     77  C   UNL A   1      38.298  30.360  30.577  1.00  0.00     0.041 A 
ATOM     78  F   UNL A   1      39.217  28.260  30.616  1.00  0.00    -0.206 F 
ATOM     79  C   UNL A   1      38.303  31.713  30.853  1.00  0.00     0.022 A 
BRANCH  76  80
ATOM     80  S   UNL A   1      39.439  34.048  31.782  1.00  0.00     0.124 S 
ATOM     81  O   UNL A   1      38.499  34.562  30.794  1.00  0.00    -0.237 OA
ATOM     82  O   UNL A   1      39.027  34.108  33.179  1.00  0.00    -0.237 OA
ATOM     83  O   UNL A   1      40.831  34.435  31.546  1.00  0.00    -0.744 OA
ENDBRANCH  76  80
ENDBRANCH  59  73
BRANCH  60  84
ATOM     84  C   UNL A   1      46.854  22.426  34.726  1.00  0.00     0.023 A 
ATOM     85  C   UNL A   1      48.202  22.857  34.968  1.00  0.00     0.031 A 
ATOM     86  C   UNL A   1      46.550  21.095  35.069  1.00  0.00     0.131 A 
ATOM     87  C   UNL A   1      49.038  22.123  35.837  1.00  0.00     0.055 A 
ATOM     88  C   UNL A   1      47.425  20.338  35.877  1.00  0.00     0.041 A 
ATOM     89  F   UNL A   1      45.313  20.615  34.876  1.00  0.00    -0.206 F 
ATOM     90  C   UNL A   1      48.634  20.880  36.325  1.00  0.00     0.022 A 
BRANCH  87  91
ATOM     91  S   UNL A   1      50.466  22.958  36.639  1.00  0.00     0.124 S 
ATOM     92  O   UNL A   1      49.837  24.133  37.231  1.00  0.00    -0.237 OA
ATOM     93  O   UNL A   1      50.945  21.953  37.582  1.00  0.00    -0.237 OA
ATOM     94  O   UNL A   1      51.363  23.217  35.513  1.00  0.00    -0.744 OA
ENDBRANCH  87  91
ENDBRANCH  60  84
BRANCH  72  95
ATOM     95  C   UNL A   1      44.991  29.541  36.581  1.00  0.00     0.023 A 
ATOM     96  C   UNL A   1      44.472  29.963  37.802  1.00  0.00     0.031 A 
ATOM     97  C   UNL A   1      46.037  30.355  36.055  1.00  0.00     0.131 A 
ATOM     98  C   UNL A   1      44.895  31.158  38.400  1.00  0.00     0.055 A 
ATOM     99  C   UNL A   1      46.520  31.498  36.696  1.00  0.00     0.041 A 
ATOM    100  F   UNL A   1      46.673  30.071  34.911  1.00  0.00    -0.206 F 
ATOM    101  C   UNL A   1      45.935  31.917  37.877  1.00  0.00     0.022 A 
BRANCH  98 102
ATOM    102  S   UNL A   1      43.983  31.704  39.856  1.00  0.00     0.124 S 
ATOM    103  O   UNL A   1      44.378  30.700  40.841  1.00  0.00    -0.237 OA
ATOM    104  O   UNL A   1      44.516  33.045  40.075  1.00  0.00    -0.237 OA
ATOM    105  O   UNL A   1      42.588  31.647  39.430  1.00  0.00    -0.744 OA
ENDBRANCH  98 102
ENDBRANCH  72  95
ENDBRANCH  46  47
ENDBRANCH  39  41
ENDBRANCH  38  39
ENDBRANCH  37  38
ENDBRANCH  36  37
ENDBRANCH  35  36
ENDBRANCH  34  35
ENDBRANCH  33  34
ENDBRANCH   1  33
TORSDOF 28
ENDMDL
