MODEL 1
REMARK VINA RESULT:      -8.8      0.000      0.000
REMARK SMILES COC(=O)c1ccc(C)c2c1[C@H]1C=CC[C@H]1[C@@H](c1ccc(C(=O)OCCOCCOCCOCCOC(=O)c3ccc(-c4c5nc(c(-c6cc(S(=O)(=O)[O-])ccc6F)c6ccc([nH]6)c(-c6cc(S(=O)(=O)[O-])ccc6F)c6nc(c(-c7cc(S(=O)(=O)[O-])ccc7F)c7ccc4[nH]7)C=C6)C=C5)cc3)cc1)N2
REMARK SMILES IDX 30 1 29 2 28 3 27 4 26 5 25 6 24 7 22 8 23 9 21 10 18 11
REMARK SMILES IDX 19 12 103 13 20 14 102 15 17 16 5 17 6 18 11 19 7 20 10 21
REMARK SMILES IDX 12 22 8 23 104 24 13 25 16 26 9 27 14 29 15 30 3 31 4 32
REMARK SMILES IDX 2 33 1 34 31 35 32 36 33 37 34 38 35 39 36 40 37 41 38 42
REMARK SMILES IDX 39 43 40 44 101 45 41 46 100 47 42 48 43 49 44 50 94 51
REMARK SMILES IDX 45 52 99 53 93 54 95 55 46 56 98 57 92 58 91 59 47 61 79 62
REMARK SMILES IDX 59 63 78 64 60 65 63 66 77 67 96 68 61 69 62 70 76 72 97 73
REMARK SMILES IDX 64 74 48 75 49 76 57 77 50 78 56 79 58 80 55 81 51 82 52 83
REMARK SMILES IDX 53 84 54 85 80 86 81 87 89 88 82 89 88 90 90 91 87 92 83 93
REMARK SMILES IDX 84 94 85 95 86 96 65 97 66 98 74 99 67 100 73 101 75 102
REMARK SMILES IDX 72 103 68 104 69 105 70 106 71 107
REMARK H PARENT 104 28 95 60 63 71
REMARK Flexibility Score: inf
ROOT
ATOM      1  O   UNL A   1      35.758  22.087  24.481  1.00  0.00    -0.377 OA
ENDROOT
BRANCH   1   2
ATOM      2  C   UNL A   1      34.461  22.630  24.673  1.00  0.00     0.188 C 
BRANCH   2   3
ATOM      3  C   UNL A   1      33.860  23.554  23.592  1.00  0.00     0.188 C 
BRANCH   3   4
ATOM      4  O   UNL A   1      34.047  24.939  23.829  1.00  0.00    -0.376 OA
BRANCH   4   5
ATOM      5  C   UNL A   1      34.257  25.370  25.163  1.00  0.00     0.202 C 
BRANCH   5   6
ATOM      6  C   UNL A   1      33.274  26.390  25.760  1.00  0.00     0.261 C 
BRANCH   6   7
ATOM      7  O   UNL A   1      33.829  27.675  26.065  1.00  0.00    -0.460 OA
BRANCH   7   8
ATOM      8  C   UNL A   1      33.083  28.485  26.843  1.00  0.00     0.338 C 
ATOM      9  O   UNL A   1      31.960  28.262  27.265  1.00  0.00    -0.246 OA
BRANCH   8  10
ATOM     10  C   UNL A   1      33.955  29.577  27.332  1.00  0.00     0.060 A 
ATOM     11  C   UNL A   1      35.764  31.594  28.152  1.00  0.00    -0.025 A 
ATOM     12  C   UNL A   1      36.203  30.299  27.825  1.00  0.00     0.007 A 
ATOM     13  C   UNL A   1      34.391  31.867  27.996  1.00  0.00     0.007 A 
ATOM     14  C   UNL A   1      35.314  29.293  27.453  1.00  0.00     0.016 A 
ATOM     15  C   UNL A   1      33.494  30.873  27.574  1.00  0.00     0.016 A 
BRANCH  11  16
ATOM     16  C   UNL A   1      36.700  32.656  28.747  1.00  0.00     0.114 C 
ATOM     17  C   UNL A   1      33.918  34.839  31.137  1.00  0.00     0.065 A 
ATOM     18  C   UNL A   1      33.028  35.697  30.483  1.00  0.00     0.016 A 
ATOM     19  C   UNL A   1      34.999  34.251  30.440  1.00  0.00    -0.003 A 
ATOM     20  C   UNL A   1      33.223  36.007  29.144  1.00  0.00     0.006 A 
ATOM     21  C   UNL A   1      35.213  34.600  29.079  1.00  0.00     0.042 A 
ATOM     22  C   UNL A   1      35.905  33.240  31.117  1.00  0.00     0.050 C 
ATOM     23  C   UNL A   1      34.315  35.481  28.433  1.00  0.00    -0.028 A 
ATOM     24  N   UNL A   1      36.238  33.987  28.364  1.00  0.00    -0.377 N 
ATOM     25  C   UNL A   1      35.252  31.956  31.575  1.00  0.00    -0.023 C 
ATOM     26  C   UNL A   1      37.047  32.684  30.246  1.00  0.00     0.031 C 
ATOM     27  C   UNL A   1      34.402  35.853  26.974  1.00  0.00     0.046 C 
ATOM     28  H   UNL A   1      36.651  34.451  27.600  1.00  0.00     0.161 HD
ATOM     29  C   UNL A   1      36.074  30.906  31.439  1.00  0.00    -0.030 C 
ATOM     30  C   UNL A   1      37.379  31.312  30.841  1.00  0.00     0.034 C 
BRANCH  17  31
ATOM     31  C   UNL A   1      33.712  34.607  32.586  1.00  0.00     0.338 C 
ATOM     32  O   UNL A   1      32.960  33.767  33.051  1.00  0.00    -0.246 OA
BRANCH  31  33
ATOM     33  O   UNL A   1      34.473  35.482  33.291  1.00  0.00    -0.465 OA
ATOM     34  C   UNL A   1      33.978  36.822  33.259  1.00  0.00     0.282 C 
ENDBRANCH  31  33
ENDBRANCH  17  31
ENDBRANCH  11  16
ENDBRANCH   8  10
ENDBRANCH   7   8
ENDBRANCH   6   7
ENDBRANCH   5   6
ENDBRANCH   4   5
ENDBRANCH   3   4
ENDBRANCH   2   3
ENDBRANCH   1   2
BRANCH   1  35
ATOM     35  C   UNL A   1      36.601  21.849  25.603  1.00  0.00     0.188 C 
BRANCH  35  36
ATOM     36  C   UNL A   1      38.103  22.217  25.573  1.00  0.00     0.188 C 
BRANCH  36  37
ATOM     37  O   UNL A   1      38.395  23.544  25.977  1.00  0.00    -0.376 OA
BRANCH  37  38
ATOM     38  C   UNL A   1      39.177  23.702  27.147  1.00  0.00     0.202 C 
BRANCH  38  39
ATOM     39  C   UNL A   1      40.694  23.852  26.960  1.00  0.00     0.261 C 
BRANCH  39  40
ATOM     40  O   UNL A   1      41.254  25.135  27.276  1.00  0.00    -0.460 OA
BRANCH  40  41
ATOM     41  C   UNL A   1      41.449  26.006  26.263  1.00  0.00     0.338 C 
ATOM     42  O   UNL A   1      41.278  25.804  25.073  1.00  0.00    -0.246 OA
BRANCH  41  43
ATOM     43  C   UNL A   1      41.744  27.316  26.875  1.00  0.00     0.060 A 
ATOM     44  C   UNL A   1      42.196  28.373  26.072  1.00  0.00     0.016 A 
ATOM     45  C   UNL A   1      41.538  27.503  28.243  1.00  0.00     0.016 A 
ATOM     46  C   UNL A   1      42.451  29.621  26.641  1.00  0.00     0.010 A 
ATOM     47  C   UNL A   1      41.831  28.739  28.818  1.00  0.00     0.010 A 
ATOM     48  C   UNL A   1      42.316  29.793  28.024  1.00  0.00    -0.014 A 
BRANCH  48  49
ATOM     49  C   UNL A   1      42.909  30.982  28.676  1.00  0.00     0.031 A 
ATOM     50  C   UNL A   1      42.166  31.585  29.834  1.00  0.00     0.074 A 
ATOM     51  C   UNL A   1      44.066  31.521  28.254  1.00  0.00     0.049 A 
ATOM     52  N   UNL A   1      42.451  32.647  30.537  1.00  0.00    -0.248 NA
ATOM     53  C   UNL A   1      40.934  30.894  30.255  1.00  0.00     0.031 C 
ATOM     54  C   UNL A   1      44.890  31.003  27.166  1.00  0.00     0.029 A 
ATOM     55  N   UNL A   1      44.738  32.638  28.686  1.00  0.00    -0.354 N 
ATOM     56  C   UNL A   1      41.437  32.753  31.481  1.00  0.00     0.074 A 
ATOM     57  C   UNL A   1      40.515  31.666  31.246  1.00  0.00     0.031 C 
ATOM     58  C   UNL A   1      45.949  31.813  27.000  1.00  0.00     0.029 A 
ATOM     59  C   UNL A   1      45.862  32.926  27.950  1.00  0.00     0.049 A 
ATOM     60  H   UNL A   1      44.441  33.183  29.451  1.00  0.00     0.167 HD
ATOM     61  C   UNL A   1      41.294  33.673  32.461  1.00  0.00     0.034 A 
ATOM     62  C   UNL A   1      46.709  33.975  28.021  1.00  0.00     0.034 A 
ATOM     63  C   UNL A   1      42.210  34.757  32.679  1.00  0.00     0.049 A 
ATOM     64  C   UNL A   1      46.494  35.028  29.083  1.00  0.00     0.074 A 
ATOM     65  C   UNL A   1      42.158  35.729  33.662  1.00  0.00     0.029 A 
ATOM     66  N   UNL A   1      43.331  35.023  31.908  1.00  0.00    -0.354 N 
ATOM     67  N   UNL A   1      45.566  35.087  30.008  1.00  0.00    -0.248 NA
ATOM     68  C   UNL A   1      47.441  36.154  29.118  1.00  0.00     0.031 C 
ATOM     69  C   UNL A   1      43.210  36.617  33.447  1.00  0.00     0.029 A 
ATOM     70  C   UNL A   1      43.963  36.161  32.376  1.00  0.00     0.049 A 
ATOM     71  H   UNL A   1      43.631  34.482  31.141  1.00  0.00     0.167 HD
ATOM     72  C   UNL A   1      45.835  36.233  30.754  1.00  0.00     0.074 A 
ATOM     73  C   UNL A   1      47.021  36.833  30.179  1.00  0.00     0.031 C 
ATOM     74  C   UNL A   1      45.162  36.738  31.817  1.00  0.00     0.034 A 
BRANCH  61  75
ATOM     75  C   UNL A   1      40.110  33.562  33.379  1.00  0.00     0.023 A 
ATOM     76  C   UNL A   1      40.187  32.746  34.521  1.00  0.00     0.031 A 
ATOM     77  C   UNL A   1      38.875  34.152  33.057  1.00  0.00     0.131 A 
ATOM     78  C   UNL A   1      39.036  32.500  35.276  1.00  0.00     0.055 A 
ATOM     79  C   UNL A   1      37.739  33.935  33.837  1.00  0.00     0.041 A 
ATOM     80  F   UNL A   1      38.759  34.947  31.982  1.00  0.00    -0.206 F 
ATOM     81  C   UNL A   1      37.814  33.094  34.943  1.00  0.00     0.022 A 
BRANCH  78  82
ATOM     82  S   UNL A   1      39.072  31.361  36.685  1.00  0.00     0.124 S 
ATOM     83  O   UNL A   1      39.575  32.220  37.755  1.00  0.00    -0.237 OA
ATOM     84  O   UNL A   1      37.668  30.978  36.800  1.00  0.00    -0.237 OA
ATOM     85  O   UNL A   1      39.986  30.306  36.259  1.00  0.00    -0.744 OA
ENDBRANCH  78  82
ENDBRANCH  61  75
BRANCH  62  86
ATOM     86  C   UNL A   1      47.855  34.049  27.069  1.00  0.00     0.023 A 
ATOM     87  C   UNL A   1      49.082  33.430  27.367  1.00  0.00     0.031 A 
ATOM     88  C   UNL A   1      47.765  34.808  25.891  1.00  0.00     0.131 A 
ATOM     89  C   UNL A   1      50.187  33.633  26.530  1.00  0.00     0.055 A 
ATOM     90  C   UNL A   1      48.851  34.957  25.027  1.00  0.00     0.041 A 
ATOM     91  F   UNL A   1      46.615  35.418  25.567  1.00  0.00    -0.206 F 
ATOM     92  C   UNL A   1      50.075  34.379  25.353  1.00  0.00     0.022 A 
BRANCH  89  93
ATOM     93  S   UNL A   1      51.828  33.012  26.990  1.00  0.00     0.124 S 
ATOM     94  O   UNL A   1      51.697  32.828  28.431  1.00  0.00    -0.237 OA
ATOM     95  O   UNL A   1      51.910  31.786  26.201  1.00  0.00    -0.237 OA
ATOM     96  O   UNL A   1      52.730  34.081  26.574  1.00  0.00    -0.744 OA
ENDBRANCH  89  93
ENDBRANCH  62  86
BRANCH  74  97
ATOM     97  C   UNL A   1      45.670  37.993  32.482  1.00  0.00     0.023 A 
ATOM     98  C   UNL A   1      45.331  39.251  31.944  1.00  0.00     0.031 A 
ATOM     99  C   UNL A   1      46.625  37.945  33.510  1.00  0.00     0.131 A 
ATOM    100  C   UNL A   1      45.982  40.403  32.400  1.00  0.00     0.055 A 
ATOM    101  C   UNL A   1      47.238  39.102  33.993  1.00  0.00     0.041 A 
ATOM    102  F   UNL A   1      46.990  36.769  34.045  1.00  0.00    -0.206 F 
ATOM    103  C   UNL A   1      46.928  40.337  33.427  1.00  0.00     0.022 A 
BRANCH 100 104
ATOM    104  S   UNL A   1      45.686  42.015  31.622  1.00  0.00     0.124 S 
ATOM    105  O   UNL A   1      45.378  42.858  32.776  1.00  0.00    -0.237 OA
ATOM    106  O   UNL A   1      46.967  42.285  30.977  1.00  0.00    -0.237 OA
ATOM    107  O   UNL A   1      44.566  41.770  30.719  1.00  0.00    -0.744 OA
ENDBRANCH 100 104
ENDBRANCH  74  97
ENDBRANCH  48  49
ENDBRANCH  41  43
ENDBRANCH  40  41
ENDBRANCH  39  40
ENDBRANCH  38  39
ENDBRANCH  37  38
ENDBRANCH  36  37
ENDBRANCH  35  36
ENDBRANCH   1  35
TORSDOF 26
ENDMDL
MODEL 2
REMARK VINA RESULT:      -8.6      6.673     11.299
REMARK SMILES COC(=O)c1ccc(C)c2c1[C@H]1C=CC[C@H]1[C@@H](c1ccc(C(=O)OCCOCCOCCOCCOC(=O)c3ccc(-c4c5nc(c(-c6cc(S(=O)(=O)[O-])ccc6F)c6ccc([nH]6)c(-c6cc(S(=O)(=O)[O-])ccc6F)c6nc(c(-c7cc(S(=O)(=O)[O-])ccc7F)c7ccc4[nH]7)C=C6)C=C5)cc3)cc1)N2
REMARK SMILES IDX 30 1 29 2 28 3 27 4 26 5 25 6 24 7 22 8 23 9 21 10 18 11
REMARK SMILES IDX 19 12 103 13 20 14 102 15 17 16 5 17 6 18 11 19 7 20 10 21
REMARK SMILES IDX 12 22 8 23 104 24 13 25 16 26 9 27 14 29 15 30 3 31 4 32
REMARK SMILES IDX 2 33 1 34 31 35 32 36 33 37 34 38 35 39 36 40 37 41 38 42
REMARK SMILES IDX 39 43 40 44 101 45 41 46 100 47 42 48 43 49 44 50 94 51
REMARK SMILES IDX 45 52 99 53 93 54 95 55 46 56 98 57 92 58 91 59 47 61 79 62
REMARK SMILES IDX 59 63 78 64 60 65 63 66 77 67 96 68 61 69 62 70 76 72 97 73
REMARK SMILES IDX 64 74 48 75 49 76 57 77 50 78 56 79 58 80 55 81 51 82 52 83
REMARK SMILES IDX 53 84 54 85 80 86 81 87 89 88 82 89 88 90 90 91 87 92 83 93
REMARK SMILES IDX 84 94 85 95 86 96 65 97 66 98 74 99 67 100 73 101 75 102
REMARK SMILES IDX 72 103 68 104 69 105 70 106 71 107
REMARK H PARENT 104 28 95 60 63 71
REMARK Flexibility Score: inf
ROOT
ATOM      1  O   UNL A   1      38.696  34.348  30.638  1.00  0.00    -0.377 OA
ENDROOT
BRANCH   1   2
ATOM      2  C   UNL A   1      37.835  34.300  31.764  1.00  0.00     0.188 C 
BRANCH   2   3
ATOM      3  C   UNL A   1      37.377  32.931  32.309  1.00  0.00     0.188 C 
BRANCH   3   4
ATOM      4  O   UNL A   1      37.024  31.987  31.311  1.00  0.00    -0.376 OA
BRANCH   4   5
ATOM      5  C   UNL A   1      36.966  30.618  31.671  1.00  0.00     0.202 C 
BRANCH   5   6
ATOM      6  C   UNL A   1      38.081  29.687  31.169  1.00  0.00     0.261 C 
BRANCH   6   7
ATOM      7  O   UNL A   1      39.268  30.342  30.706  1.00  0.00    -0.460 OA
BRANCH   7   8
ATOM      8  C   UNL A   1      40.421  30.009  31.322  1.00  0.00     0.338 C 
ATOM      9  O   UNL A   1      40.631  30.004  32.524  1.00  0.00    -0.246 OA
BRANCH   8  10
ATOM     10  C   UNL A   1      41.311  29.386  30.317  1.00  0.00     0.060 A 
ATOM     11  C   UNL A   1      42.917  28.029  28.421  1.00  0.00    -0.025 A 
ATOM     12  C   UNL A   1      42.390  27.372  29.547  1.00  0.00     0.007 A 
ATOM     13  C   UNL A   1      42.561  29.380  28.239  1.00  0.00     0.007 A 
ATOM     14  C   UNL A   1      41.628  28.042  30.501  1.00  0.00     0.016 A 
ATOM     15  C   UNL A   1      41.751  30.051  29.170  1.00  0.00     0.016 A 
BRANCH  11  16
ATOM     16  C   UNL A   1      43.914  27.358  27.465  1.00  0.00     0.114 C 
ATOM     17  C   UNL A   1      42.681  23.290  27.845  1.00  0.00     0.065 A 
ATOM     18  C   UNL A   1      43.032  22.608  29.014  1.00  0.00     0.016 A 
ATOM     19  C   UNL A   1      43.232  24.561  27.556  1.00  0.00    -0.003 A 
ATOM     20  C   UNL A   1      43.958  23.163  29.888  1.00  0.00     0.006 A 
ATOM     21  C   UNL A   1      44.204  25.107  28.437  1.00  0.00     0.042 A 
ATOM     22  C   UNL A   1      42.776  25.349  26.343  1.00  0.00     0.050 C 
ATOM     23  C   UNL A   1      44.563  24.400  29.609  1.00  0.00    -0.028 A 
ATOM     24  N   UNL A   1      44.713  26.380  28.197  1.00  0.00    -0.377 N 
ATOM     25  C   UNL A   1      41.322  25.761  26.318  1.00  0.00    -0.023 C 
ATOM     26  C   UNL A   1      43.463  26.714  26.143  1.00  0.00     0.031 C 
ATOM     27  C   UNL A   1      45.520  24.924  30.649  1.00  0.00     0.046 C 
ATOM     28  H   UNL A   1      45.611  26.620  28.521  1.00  0.00     0.161 HD
ATOM     29  C   UNL A   1      41.157  26.963  25.749  1.00  0.00    -0.030 C 
ATOM     30  C   UNL A   1      42.465  27.555  25.341  1.00  0.00     0.034 C 
BRANCH  17  31
ATOM     31  C   UNL A   1      41.753  22.616  26.907  1.00  0.00     0.338 C 
ATOM     32  O   UNL A   1      42.075  22.166  25.821  1.00  0.00    -0.246 OA
BRANCH  31  33
ATOM     33  O   UNL A   1      40.507  22.602  27.445  1.00  0.00    -0.465 OA
ATOM     34  C   UNL A   1      39.483  22.275  26.504  1.00  0.00     0.282 C 
ENDBRANCH  31  33
ENDBRANCH  17  31
ENDBRANCH  11  16
ENDBRANCH   8  10
ENDBRANCH   7   8
ENDBRANCH   6   7
ENDBRANCH   5   6
ENDBRANCH   4   5
ENDBRANCH   3   4
ENDBRANCH   2   3
ENDBRANCH   1   2
BRANCH   1  35
ATOM     35  C   UNL A   1      40.086  34.084  30.795  1.00  0.00     0.188 C 
BRANCH  35  36
ATOM     36  C   UNL A   1      41.140  34.752  29.882  1.00  0.00     0.188 C 
BRANCH  36  37
ATOM     37  O   UNL A   1      42.162  33.882  29.424  1.00  0.00    -0.376 OA
BRANCH  37  38
ATOM     38  C   UNL A   1      43.396  34.475  29.061  1.00  0.00     0.202 C 
BRANCH  38  39
ATOM     39  C   UNL A   1      43.529  34.985  27.618  1.00  0.00     0.261 C 
BRANCH  39  40
ATOM     40  O   UNL A   1      43.660  33.986  26.596  1.00  0.00    -0.460 OA
BRANCH  40  41
ATOM     41  C   UNL A   1      44.845  33.888  25.956  1.00  0.00     0.338 C 
ATOM     42  O   UNL A   1      45.276  34.625  25.086  1.00  0.00    -0.246 OA
BRANCH  41  43
ATOM     43  C   UNL A   1      45.608  32.819  26.629  1.00  0.00     0.060 A 
ATOM     44  C   UNL A   1      45.278  31.476  26.395  1.00  0.00     0.016 A 
ATOM     45  C   UNL A   1      46.675  33.151  27.465  1.00  0.00     0.016 A 
ATOM     46  C   UNL A   1      46.013  30.461  27.008  1.00  0.00     0.010 A 
ATOM     47  C   UNL A   1      47.384  32.137  28.109  1.00  0.00     0.010 A 
ATOM     48  C   UNL A   1      47.036  30.790  27.905  1.00  0.00    -0.014 A 
BRANCH  48  49
ATOM     49  C   UNL A   1      47.577  29.753  28.812  1.00  0.00     0.031 A 
ATOM     50  C   UNL A   1      46.747  29.369  30.004  1.00  0.00     0.074 A 
ATOM     51  C   UNL A   1      48.770  29.173  28.596  1.00  0.00     0.049 A 
ATOM     52  N   UNL A   1      47.019  28.528  30.964  1.00  0.00    -0.248 NA
ATOM     53  C   UNL A   1      45.433  30.024  30.129  1.00  0.00     0.031 C 
ATOM     54  C   UNL A   1      49.644  29.440  27.457  1.00  0.00     0.029 A 
ATOM     55  N   UNL A   1      49.457  28.245  29.341  1.00  0.00    -0.354 N 
ATOM     56  C   UNL A   1      45.914  28.551  31.805  1.00  0.00     0.074 A 
ATOM     57  C   UNL A   1      44.979  29.508  31.261  1.00  0.00     0.031 C 
ATOM     58  C   UNL A   1      50.763  28.707  27.589  1.00  0.00     0.029 A 
ATOM     59  C   UNL A   1      50.700  27.944  28.837  1.00  0.00     0.049 A 
ATOM     60  H   UNL A   1      49.093  27.836  30.160  1.00  0.00     0.167 HD
ATOM     61  C   UNL A   1      45.697  27.832  32.928  1.00  0.00     0.034 A 
ATOM     62  C   UNL A   1      51.678  27.159  29.337  1.00  0.00     0.034 A 
ATOM     63  C   UNL A   1      46.637  26.891  33.469  1.00  0.00     0.049 A 
ATOM     64  C   UNL A   1      51.441  26.413  30.630  1.00  0.00     0.074 A 
ATOM     65  C   UNL A   1      46.497  26.098  34.593  1.00  0.00     0.029 A 
ATOM     66  N   UNL A   1      47.889  26.619  32.939  1.00  0.00    -0.354 N 
ATOM     67  N   UNL A   1      50.369  26.397  31.386  1.00  0.00    -0.248 NA
ATOM     68  C   UNL A   1      52.538  25.574  31.135  1.00  0.00     0.031 C 
ATOM     69  C   UNL A   1      47.685  25.395  34.779  1.00  0.00     0.029 A 
ATOM     70  C   UNL A   1      48.542  25.692  33.730  1.00  0.00     0.049 A 
ATOM     71  H   UNL A   1      48.257  27.026  32.121  1.00  0.00     0.167 HD
ATOM     72  C   UNL A   1      50.649  25.524  32.436  1.00  0.00     0.074 A 
ATOM     73  C   UNL A   1      51.989  25.024  32.212  1.00  0.00     0.031 C 
ATOM     74  C   UNL A   1      49.866  25.172  33.486  1.00  0.00     0.034 A 
BRANCH  61  75
ATOM     75  C   UNL A   1      44.399  28.022  33.661  1.00  0.00     0.023 A 
ATOM     76  C   UNL A   1      44.261  29.084  34.571  1.00  0.00     0.031 A 
ATOM     77  C   UNL A   1      43.356  27.084  33.560  1.00  0.00     0.131 A 
ATOM     78  C   UNL A   1      43.125  29.158  35.383  1.00  0.00     0.055 A 
ATOM     79  C   UNL A   1      42.207  27.185  34.344  1.00  0.00     0.041 A 
ATOM     80  F   UNL A   1      43.442  26.060  32.695  1.00  0.00    -0.206 F 
ATOM     81  C   UNL A   1      42.095  28.217  35.271  1.00  0.00     0.022 A 
BRANCH  78  82
ATOM     82  S   UNL A   1      42.966  30.445  36.649  1.00  0.00     0.124 S 
ATOM     83  O   UNL A   1      43.781  29.903  37.735  1.00  0.00    -0.237 OA
ATOM     84  O   UNL A   1      43.527  31.608  35.969  1.00  0.00    -0.237 OA
ATOM     85  O   UNL A   1      41.533  30.496  36.918  1.00  0.00    -0.744 OA
ENDBRANCH  78  82
ENDBRANCH  61  75
BRANCH  62  86
ATOM     86  C   UNL A   1      52.957  27.024  28.582  1.00  0.00     0.023 A 
ATOM     87  C   UNL A   1      53.089  26.079  27.548  1.00  0.00     0.031 A 
ATOM     88  C   UNL A   1      54.087  27.778  28.939  1.00  0.00     0.131 A 
ATOM     89  C   UNL A   1      54.339  25.869  26.952  1.00  0.00     0.055 A 
ATOM     90  C   UNL A   1      55.316  27.609  28.298  1.00  0.00     0.041 A 
ATOM     91  F   UNL A   1      54.009  28.689  29.920  1.00  0.00    -0.206 F 
ATOM     92  C   UNL A   1      55.450  26.639  27.308  1.00  0.00     0.022 A 
BRANCH  89  93
ATOM     93  S   UNL A   1      54.585  24.526  25.758  1.00  0.00     0.124 S 
ATOM     94  O   UNL A   1      55.450  23.611  26.495  1.00  0.00    -0.237 OA
ATOM     95  O   UNL A   1      53.215  24.067  25.545  1.00  0.00    -0.237 OA
ATOM     96  O   UNL A   1      55.203  25.190  24.615  1.00  0.00    -0.744 OA
ENDBRANCH  89  93
ENDBRANCH  62  86
BRANCH  74  97
ATOM     97  C   UNL A   1      50.389  24.176  34.491  1.00  0.00     0.023 A 
ATOM     98  C   UNL A   1      50.303  22.797  34.213  1.00  0.00     0.031 A 
ATOM     99  C   UNL A   1      50.787  24.572  35.778  1.00  0.00     0.131 A 
ATOM    100  C   UNL A   1      50.560  21.864  35.225  1.00  0.00     0.055 A 
ATOM    101  C   UNL A   1      51.087  23.637  36.770  1.00  0.00     0.041 A 
ATOM    102  F   UNL A   1      50.872  25.874  36.094  1.00  0.00    -0.206 F 
ATOM    103  C   UNL A   1      50.959  22.276  36.499  1.00  0.00     0.022 A 
BRANCH 100 104
ATOM    104  S   UNL A   1      50.306  20.089  34.947  1.00  0.00     0.124 S 
ATOM    105  O   UNL A   1      50.567  19.534  36.273  1.00  0.00    -0.237 OA
ATOM    106  O   UNL A   1      48.913  20.042  34.514  1.00  0.00    -0.237 OA
ATOM    107  O   UNL A   1      51.294  19.747  33.928  1.00  0.00    -0.744 OA
ENDBRANCH 100 104
ENDBRANCH  74  97
ENDBRANCH  48  49
ENDBRANCH  41  43
ENDBRANCH  40  41
ENDBRANCH  39  40
ENDBRANCH  38  39
ENDBRANCH  37  38
ENDBRANCH  36  37
ENDBRANCH  35  36
ENDBRANCH   1  35
TORSDOF 26
ENDMDL
MODEL 3
REMARK VINA RESULT:      -8.4      5.129      8.117
REMARK SMILES COC(=O)c1ccc(C)c2c1[C@H]1C=CC[C@H]1[C@@H](c1ccc(C(=O)OCCOCCOCCOCCOC(=O)c3ccc(-c4c5nc(c(-c6cc(S(=O)(=O)[O-])ccc6F)c6ccc([nH]6)c(-c6cc(S(=O)(=O)[O-])ccc6F)c6nc(c(-c7cc(S(=O)(=O)[O-])ccc7F)c7ccc4[nH]7)C=C6)C=C5)cc3)cc1)N2
REMARK SMILES IDX 30 1 29 2 28 3 27 4 26 5 25 6 24 7 22 8 23 9 21 10 18 11
REMARK SMILES IDX 19 12 103 13 20 14 102 15 17 16 5 17 6 18 11 19 7 20 10 21
REMARK SMILES IDX 12 22 8 23 104 24 13 25 16 26 9 27 14 29 15 30 3 31 4 32
REMARK SMILES IDX 2 33 1 34 31 35 32 36 33 37 34 38 35 39 36 40 37 41 38 42
REMARK SMILES IDX 39 43 40 44 101 45 41 46 100 47 42 48 43 49 44 50 94 51
REMARK SMILES IDX 45 52 99 53 93 54 95 55 46 56 98 57 92 58 91 59 47 61 79 62
REMARK SMILES IDX 59 63 78 64 60 65 63 66 77 67 96 68 61 69 62 70 76 72 97 73
REMARK SMILES IDX 64 74 48 75 49 76 57 77 50 78 56 79 58 80 55 81 51 82 52 83
REMARK SMILES IDX 53 84 54 85 80 86 81 87 89 88 82 89 88 90 90 91 87 92 83 93
REMARK SMILES IDX 84 94 85 95 86 96 65 97 66 98 74 99 67 100 73 101 75 102
REMARK SMILES IDX 72 103 68 104 69 105 70 106 71 107
REMARK H PARENT 104 28 95 60 63 71
REMARK Flexibility Score: inf
ROOT
ATOM      1  O   UNL A   1      35.576  21.747  24.333  1.00  0.00    -0.377 OA
ENDROOT
BRANCH   1   2
ATOM      2  C   UNL A   1      34.497  22.594  24.693  1.00  0.00     0.188 C 
BRANCH   2   3
ATOM      3  C   UNL A   1      33.794  23.428  23.601  1.00  0.00     0.188 C 
BRANCH   3   4
ATOM      4  O   UNL A   1      33.959  24.831  23.733  1.00  0.00    -0.376 OA
BRANCH   4   5
ATOM      5  C   UNL A   1      34.235  25.358  25.019  1.00  0.00     0.202 C 
BRANCH   5   6
ATOM      6  C   UNL A   1      33.272  26.407  25.596  1.00  0.00     0.261 C 
BRANCH   6   7
ATOM      7  O   UNL A   1      33.878  27.640  26.004  1.00  0.00    -0.460 OA
BRANCH   7   8
ATOM      8  C   UNL A   1      33.179  28.396  26.875  1.00  0.00     0.338 C 
ATOM      9  O   UNL A   1      32.093  28.132  27.364  1.00  0.00    -0.246 OA
BRANCH   8  10
ATOM     10  C   UNL A   1      34.069  29.476  27.356  1.00  0.00     0.060 A 
ATOM     11  C   UNL A   1      35.907  31.476  28.156  1.00  0.00    -0.025 A 
ATOM     12  C   UNL A   1      36.333  30.189  27.780  1.00  0.00     0.007 A 
ATOM     13  C   UNL A   1      34.528  31.751  28.060  1.00  0.00     0.007 A 
ATOM     14  C   UNL A   1      35.431  29.192  27.419  1.00  0.00     0.016 A 
ATOM     15  C   UNL A   1      33.616  30.766  27.648  1.00  0.00     0.016 A 
BRANCH  11  16
ATOM     16  C   UNL A   1      36.864  32.524  28.740  1.00  0.00     0.114 C 
ATOM     17  C   UNL A   1      34.247  34.461  31.498  1.00  0.00     0.065 A 
ATOM     18  C   UNL A   1      33.283  35.333  30.982  1.00  0.00     0.016 A 
ATOM     19  C   UNL A   1      35.277  33.953  30.674  1.00  0.00    -0.003 A 
ATOM     20  C   UNL A   1      33.355  35.737  29.655  1.00  0.00     0.006 A 
ATOM     21  C   UNL A   1      35.365  34.396  29.328  1.00  0.00     0.042 A 
ATOM     22  C   UNL A   1      36.262  32.927  31.204  1.00  0.00     0.050 C 
ATOM     23  C   UNL A   1      34.394  35.291  28.820  1.00  0.00    -0.028 A 
ATOM     24  N   UNL A   1      36.339  33.863  28.489  1.00  0.00    -0.377 N 
ATOM     25  C   UNL A   1      35.682  31.597  31.627  1.00  0.00    -0.023 C 
ATOM     26  C   UNL A   1      37.339  32.464  30.203  1.00  0.00     0.031 C 
ATOM     27  C   UNL A   1      34.345  35.760  27.388  1.00  0.00     0.046 C 
ATOM     28  H   UNL A   1      36.673  34.388  27.726  1.00  0.00     0.161 HD
ATOM     29  C   UNL A   1      36.515  30.584  31.351  1.00  0.00    -0.030 C 
ATOM     30  C   UNL A   1      37.754  31.067  30.674  1.00  0.00     0.034 C 
BRANCH  17  31
ATOM     31  C   UNL A   1      34.172  34.129  32.941  1.00  0.00     0.338 C 
ATOM     32  O   UNL A   1      33.489  33.234  33.408  1.00  0.00    -0.246 OA
BRANCH  31  33
ATOM     33  O   UNL A   1      34.962  34.986  33.638  1.00  0.00    -0.465 OA
ATOM     34  C   UNL A   1      35.771  34.341  34.622  1.00  0.00     0.282 C 
ENDBRANCH  31  33
ENDBRANCH  17  31
ENDBRANCH  11  16
ENDBRANCH   8  10
ENDBRANCH   7   8
ENDBRANCH   6   7
ENDBRANCH   5   6
ENDBRANCH   4   5
ENDBRANCH   3   4
ENDBRANCH   2   3
ENDBRANCH   1   2
BRANCH   1  35
ATOM     35  C   UNL A   1      36.377  21.148  25.346  1.00  0.00     0.188 C 
BRANCH  35  36
ATOM     36  C   UNL A   1      37.905  20.979  25.170  1.00  0.00     0.188 C 
BRANCH  36  37
ATOM     37  O   UNL A   1      38.684  22.024  25.728  1.00  0.00    -0.376 OA
BRANCH  37  38
ATOM     38  C   UNL A   1      39.715  21.648  26.623  1.00  0.00     0.202 C 
BRANCH  38  39
ATOM     39  C   UNL A   1      41.157  21.718  26.098  1.00  0.00     0.261 C 
BRANCH  39  40
ATOM     40  O   UNL A   1      42.083  22.490  26.876  1.00  0.00    -0.460 OA
BRANCH  40  41
ATOM     41  C   UNL A   1      42.789  23.453  26.245  1.00  0.00     0.338 C 
ATOM     42  O   UNL A   1      42.997  23.550  25.048  1.00  0.00    -0.246 OA
BRANCH  41  43
ATOM     43  C   UNL A   1      43.121  24.474  27.258  1.00  0.00     0.060 A 
ATOM     44  C   UNL A   1      43.708  25.683  26.859  1.00  0.00     0.016 A 
ATOM     45  C   UNL A   1      42.816  24.242  28.600  1.00  0.00     0.016 A 
ATOM     46  C   UNL A   1      43.999  26.663  27.809  1.00  0.00     0.010 A 
ATOM     47  C   UNL A   1      43.144  25.205  29.554  1.00  0.00     0.010 A 
ATOM     48  C   UNL A   1      43.763  26.406  29.165  1.00  0.00    -0.014 A 
BRANCH  48  49
ATOM     49  C   UNL A   1      44.380  27.273  30.194  1.00  0.00     0.031 A 
ATOM     50  C   UNL A   1      45.801  26.984  30.588  1.00  0.00     0.074 A 
ATOM     51  C   UNL A   1      43.704  28.281  30.771  1.00  0.00     0.049 A 
ATOM     52  N   UNL A   1      46.543  27.565  31.490  1.00  0.00    -0.248 NA
ATOM     53  C   UNL A   1      46.474  25.891  29.864  1.00  0.00     0.031 C 
ATOM     54  C   UNL A   1      42.337  28.676  30.445  1.00  0.00     0.029 A 
ATOM     55  N   UNL A   1      44.079  29.149  31.768  1.00  0.00    -0.354 N 
ATOM     56  C   UNL A   1      47.767  26.911  31.444  1.00  0.00     0.074 A 
ATOM     57  C   UNL A   1      47.663  25.871  30.446  1.00  0.00     0.031 C 
ATOM     58  C   UNL A   1      41.978  29.696  31.243  1.00  0.00     0.029 A 
ATOM     59  C   UNL A   1      43.079  30.007  32.159  1.00  0.00     0.049 A 
ATOM     60  H   UNL A   1      44.980  29.154  32.166  1.00  0.00     0.167 HD
ATOM     61  C   UNL A   1      48.882  27.161  32.166  1.00  0.00     0.034 A 
ATOM     62  C   UNL A   1      43.049  30.920  33.152  1.00  0.00     0.034 A 
ATOM     63  C   UNL A   1      48.973  28.189  33.164  1.00  0.00     0.049 A 
ATOM     64  C   UNL A   1      44.286  31.140  33.992  1.00  0.00     0.074 A 
ATOM     65  C   UNL A   1      50.070  28.532  33.935  1.00  0.00     0.029 A 
ATOM     66  N   UNL A   1      47.939  29.031  33.540  1.00  0.00    -0.354 N 
ATOM     67  N   UNL A   1      45.458  30.557  33.901  1.00  0.00    -0.248 NA
ATOM     68  C   UNL A   1      44.204  32.144  35.064  1.00  0.00     0.031 C 
ATOM     69  C   UNL A   1      49.681  29.536  34.819  1.00  0.00     0.029 A 
ATOM     70  C   UNL A   1      48.363  29.874  34.552  1.00  0.00     0.049 A 
ATOM     71  H   UNL A   1      47.036  29.029  33.146  1.00  0.00     0.167 HD
ATOM     72  C   UNL A   1      46.260  31.144  34.878  1.00  0.00     0.074 A 
ATOM     73  C   UNL A   1      45.442  32.137  35.543  1.00  0.00     0.031 C 
ATOM     74  C   UNL A   1      47.553  30.883  35.191  1.00  0.00     0.034 A 
BRANCH  61  75
ATOM     75  C   UNL A   1      50.102  26.319  31.916  1.00  0.00     0.023 A 
ATOM     76  C   UNL A   1      50.255  25.097  32.594  1.00  0.00     0.031 A 
ATOM     77  C   UNL A   1      51.162  26.783  31.120  1.00  0.00     0.131 A 
ATOM     78  C   UNL A   1      51.464  24.401  32.502  1.00  0.00     0.055 A 
ATOM     79  C   UNL A   1      52.351  26.065  30.999  1.00  0.00     0.041 A 
ATOM     80  F   UNL A   1      51.053  27.940  30.446  1.00  0.00    -0.206 F 
ATOM     81  C   UNL A   1      52.511  24.876  31.704  1.00  0.00     0.022 A 
BRANCH  78  82
ATOM     82  S   UNL A   1      51.741  22.883  33.453  1.00  0.00     0.124 S 
ATOM     83  O   UNL A   1      50.590  22.877  34.354  1.00  0.00    -0.237 OA
ATOM     84  O   UNL A   1      51.722  21.864  32.408  1.00  0.00    -0.237 OA
ATOM     85  O   UNL A   1      53.030  23.106  34.099  1.00  0.00    -0.744 OA
ENDBRANCH  78  82
ENDBRANCH  61  75
BRANCH  62  86
ATOM     86  C   UNL A   1      41.806  31.713  33.373  1.00  0.00     0.023 A 
ATOM     87  C   UNL A   1      40.882  31.345  34.369  1.00  0.00     0.031 A 
ATOM     88  C   UNL A   1      41.483  32.795  32.537  1.00  0.00     0.131 A 
ATOM     89  C   UNL A   1      39.656  32.014  34.462  1.00  0.00     0.055 A 
ATOM     90  C   UNL A   1      40.285  33.499  32.675  1.00  0.00     0.041 A 
ATOM     91  F   UNL A   1      42.331  33.179  31.572  1.00  0.00    -0.206 F 
ATOM     92  C   UNL A   1      39.357  33.099  33.633  1.00  0.00     0.022 A 
BRANCH  89  93
ATOM     93  S   UNL A   1      38.368  31.439  35.603  1.00  0.00     0.124 S 
ATOM     94  O   UNL A   1      37.245  31.194  34.704  1.00  0.00    -0.237 OA
ATOM     95  O   UNL A   1      38.991  30.248  36.174  1.00  0.00    -0.237 OA
ATOM     96  O   UNL A   1      38.200  32.557  36.526  1.00  0.00    -0.744 OA
ENDBRANCH  89  93
ENDBRANCH  62  86
BRANCH  74  97
ATOM     97  C   UNL A   1      48.220  31.680  36.285  1.00  0.00     0.023 A 
ATOM     98  C   UNL A   1      49.071  32.751  35.945  1.00  0.00     0.031 A 
ATOM     99  C   UNL A   1      48.169  31.271  37.626  1.00  0.00     0.131 A 
ATOM    100  C   UNL A   1      49.876  33.341  36.927  1.00  0.00     0.055 A 
ATOM    101  C   UNL A   1      48.939  31.893  38.611  1.00  0.00     0.041 A 
ATOM    102  F   UNL A   1      47.383  30.247  37.997  1.00  0.00    -0.206 F 
ATOM    103  C   UNL A   1      49.809  32.923  38.259  1.00  0.00     0.022 A 
BRANCH 100 104
ATOM    104  S   UNL A   1      51.096  34.613  36.496  1.00  0.00     0.124 S 
ATOM    105  O   UNL A   1      52.148  34.371  37.481  1.00  0.00    -0.237 OA
ATOM    106  O   UNL A   1      51.435  34.260  35.121  1.00  0.00    -0.237 OA
ATOM    107  O   UNL A   1      50.370  35.868  36.663  1.00  0.00    -0.744 OA
ENDBRANCH 100 104
ENDBRANCH  74  97
ENDBRANCH  48  49
ENDBRANCH  41  43
ENDBRANCH  40  41
ENDBRANCH  39  40
ENDBRANCH  38  39
ENDBRANCH  37  38
ENDBRANCH  36  37
ENDBRANCH  35  36
ENDBRANCH   1  35
TORSDOF 26
ENDMDL
