MODEL 1
REMARK VINA RESULT:      -9.0      0.000      0.000
REMARK SMILES CN(CC(=O)N[C@H]1C=C[C@H](C(=O)OCCOCCOCCOCCOC(=O)c2ccc(-c3c4nc(c(-c5cc(S(=O)(=O)[O-])ccc5F)c5ccc([nH]5)c(-c5cc(S(=O)(=O)[O-])ccc5F)c5nc(c(-c6cc(S(=O)(=O)[O-])ccc6F)c6ccc3[nH]6)C=C5)C=C4)cc2)C1)C(=O)c1cccs1
REMARK SMILES IDX 18 1 17 2 16 3 15 4 14 5 13 6 11 7 12 8 10 9 7 10 8 11 91 12
REMARK SMILES IDX 9 13 6 14 4 15 5 16 3 18 2 19 1 20 92 21 93 22 94 23 95 24
REMARK SMILES IDX 98 25 96 26 97 27 19 28 20 29 21 30 22 31 23 32 24 33 25 34
REMARK SMILES IDX 26 35 27 36 28 37 29 38 90 39 30 40 89 41 31 42 32 43 33 44
REMARK SMILES IDX 83 45 34 46 88 47 82 48 84 49 35 50 87 51 81 52 80 53 36 55
REMARK SMILES IDX 68 56 48 57 67 58 49 59 52 60 66 61 85 62 50 63 51 64 65 66
REMARK SMILES IDX 86 67 53 68 37 69 38 70 46 71 39 72 45 73 47 74 44 75 40 76
REMARK SMILES IDX 41 77 42 78 43 79 69 80 70 81 78 82 71 83 77 84 79 85 76 86
REMARK SMILES IDX 72 87 73 88 74 89 75 90 54 91 55 92 63 93 56 94 62 95 64 96
REMARK SMILES IDX 61 97 57 98 58 99 59 100 60 101
REMARK H PARENT 6 17 84 54 52 65
REMARK Flexibility Score: inf
ROOT
ATOM      1  C   UNL A   1      37.250  20.955  24.885  1.00  0.00     0.188 C 
ENDROOT
BRANCH   1   2
ATOM      2  C   UNL A   1      35.745  20.656  24.994  1.00  0.00     0.188 C 
BRANCH   2   3
ATOM      3  O   UNL A   1      35.254  19.362  24.679  1.00  0.00    -0.376 OA
BRANCH   3   4
ATOM      4  C   UNL A   1      33.855  19.187  24.496  1.00  0.00     0.202 C 
BRANCH   4   5
ATOM      5  C   UNL A   1      32.840  19.626  25.576  1.00  0.00     0.261 C 
BRANCH   5   6
ATOM      6  O   UNL A   1      31.805  20.555  25.185  1.00  0.00    -0.463 OA
BRANCH   6   7
ATOM      7  C   UNL A   1      32.210  21.737  24.638  1.00  0.00     0.312 C 
ATOM      8  O   UNL A   1      32.580  21.870  23.477  1.00  0.00    -0.252 OA
BRANCH   7   9
ATOM      9  C   UNL A   1      32.102  22.931  25.601  1.00  0.00     0.124 C 
ATOM     10  C   UNL A   1      32.985  25.212  25.210  1.00  0.00     0.106 C 
ATOM     11  C   UNL A   1      33.910  24.393  25.996  1.00  0.00    -0.006 C 
ATOM     12  C   UNL A   1      31.770  24.290  24.968  1.00  0.00     0.048 C 
ATOM     13  C   UNL A   1      33.398  23.192  26.282  1.00  0.00    -0.014 C 
BRANCH  10  14
ATOM     14  N   UNL A   1      32.690  26.458  25.904  1.00  0.00    -0.348 N 
ATOM     15  C   UNL A   1      32.397  27.740  25.552  1.00  0.00     0.240 C 
ATOM     16  O   UNL A   1      31.946  28.437  26.475  1.00  0.00    -0.273 OA
ATOM     17  H   UNL A   1      32.709  26.344  26.881  1.00  0.00     0.164 HD
BRANCH  15  18
ATOM     18  C   UNL A   1      32.416  28.352  24.125  1.00  0.00     0.219 C 
BRANCH  18  19
ATOM     19  N   UNL A   1      31.339  28.126  23.154  1.00  0.00    -0.332 N 
ATOM     20  C   UNL A   1      31.652  27.277  22.007  1.00  0.00     0.147 C 
BRANCH  19  21
ATOM     21  C   UNL A   1      29.970  28.252  23.438  1.00  0.00     0.264 C 
ATOM     22  O   UNL A   1      29.343  27.312  23.929  1.00  0.00    -0.268 OA
BRANCH  21  23
ATOM     23  C   UNL A   1      29.361  29.556  23.269  1.00  0.00     0.092 A 
ATOM     24  C   UNL A   1      29.548  30.748  23.938  1.00  0.00     0.025 A 
ATOM     25  S   UNL A   1      28.213  29.721  22.004  1.00  0.00    -0.139 S 
ATOM     26  C   UNL A   1      28.646  31.759  23.497  1.00  0.00     0.012 A 
ATOM     27  C   UNL A   1      27.874  31.336  22.439  1.00  0.00     0.065 A 
ENDBRANCH  21  23
ENDBRANCH  19  21
ENDBRANCH  18  19
ENDBRANCH  15  18
ENDBRANCH  10  14
ENDBRANCH   7   9
ENDBRANCH   6   7
ENDBRANCH   5   6
ENDBRANCH   4   5
ENDBRANCH   3   4
ENDBRANCH   2   3
ENDBRANCH   1   2
BRANCH   1  28
ATOM     28  O   UNL A   1      38.067  19.831  24.646  1.00  0.00    -0.377 OA
BRANCH  28  29
ATOM     29  C   UNL A   1      39.142  19.672  25.555  1.00  0.00     0.188 C 
BRANCH  29  30
ATOM     30  C   UNL A   1      39.773  20.963  26.118  1.00  0.00     0.188 C 
BRANCH  30  31
ATOM     31  O   UNL A   1      40.862  20.754  27.015  1.00  0.00    -0.376 OA
BRANCH  31  32
ATOM     32  C   UNL A   1      41.476  19.475  27.078  1.00  0.00     0.202 C 
BRANCH  32  33
ATOM     33  C   UNL A   1      42.636  19.156  26.112  1.00  0.00     0.261 C 
BRANCH  33  34
ATOM     34  O   UNL A   1      42.931  20.138  25.112  1.00  0.00    -0.460 OA
BRANCH  34  35
ATOM     35  C   UNL A   1      44.101  20.802  25.234  1.00  0.00     0.338 C 
ATOM     36  O   UNL A   1      45.170  20.477  24.744  1.00  0.00    -0.246 OA
BRANCH  35  37
ATOM     37  C   UNL A   1      43.822  22.108  25.869  1.00  0.00     0.060 A 
ATOM     38  C   UNL A   1      43.448  23.178  25.047  1.00  0.00     0.016 A 
ATOM     39  C   UNL A   1      43.898  22.275  27.255  1.00  0.00     0.016 A 
ATOM     40  C   UNL A   1      43.183  24.429  25.601  1.00  0.00     0.010 A 
ATOM     41  C   UNL A   1      43.667  23.540  27.807  1.00  0.00     0.010 A 
ATOM     42  C   UNL A   1      43.347  24.629  26.977  1.00  0.00    -0.014 A 
BRANCH  42  43
ATOM     43  C   UNL A   1      43.433  26.020  27.487  1.00  0.00     0.031 A 
ATOM     44  C   UNL A   1      44.782  26.687  27.478  1.00  0.00     0.074 A 
ATOM     45  C   UNL A   1      42.339  26.697  27.880  1.00  0.00     0.049 A 
ATOM     46  N   UNL A   1      45.123  27.884  27.877  1.00  0.00    -0.248 NA
ATOM     47  C   UNL A   1      45.897  25.887  26.947  1.00  0.00     0.031 C 
ATOM     48  C   UNL A   1      40.974  26.176  27.871  1.00  0.00     0.029 A 
ATOM     49  N   UNL A   1      42.210  27.975  28.366  1.00  0.00    -0.354 N 
ATOM     50  C   UNL A   1      46.492  27.980  27.649  1.00  0.00     0.074 A 
ATOM     51  C   UNL A   1      46.923  26.706  27.115  1.00  0.00     0.031 C 
ATOM     52  C   UNL A   1      40.144  27.126  28.339  1.00  0.00     0.029 A 
ATOM     53  C   UNL A   1      40.922  28.304  28.718  1.00  0.00     0.049 A 
ATOM     54  H   UNL A   1      42.968  28.597  28.452  1.00  0.00     0.167 HD
ATOM     55  C   UNL A   1      47.313  29.038  27.858  1.00  0.00     0.034 A 
ATOM     56  C   UNL A   1      40.437  29.418  29.305  1.00  0.00     0.034 A 
ATOM     57  C   UNL A   1      46.868  30.296  28.404  1.00  0.00     0.049 A 
ATOM     58  C   UNL A   1      41.389  30.550  29.623  1.00  0.00     0.074 A 
ATOM     59  C   UNL A   1      47.609  31.438  28.650  1.00  0.00     0.029 A 
ATOM     60  N   UNL A   1      45.567  30.572  28.807  1.00  0.00    -0.354 N 
ATOM     61  N   UNL A   1      42.681  30.634  29.398  1.00  0.00    -0.248 NA
ATOM     62  C   UNL A   1      40.813  31.740  30.264  1.00  0.00     0.031 C 
ATOM     63  C   UNL A   1      46.780  32.369  29.282  1.00  0.00     0.029 A 
ATOM     64  C   UNL A   1      45.495  31.851  29.339  1.00  0.00     0.049 A 
ATOM     65  H   UNL A   1      44.807  29.951  28.727  1.00  0.00     0.167 HD
ATOM     66  C   UNL A   1      43.064  31.900  29.839  1.00  0.00     0.074 A 
ATOM     67  C   UNL A   1      41.862  32.546  30.328  1.00  0.00     0.031 C 
ATOM     68  C   UNL A   1      44.292  32.480  29.834  1.00  0.00     0.034 A 
BRANCH  55  69
ATOM     69  C   UNL A   1      48.780  28.847  27.558  1.00  0.00     0.023 A 
ATOM     70  C   UNL A   1      49.283  28.869  26.245  1.00  0.00     0.031 A 
ATOM     71  C   UNL A   1      49.688  28.601  28.605  1.00  0.00     0.131 A 
ATOM     72  C   UNL A   1      50.634  28.574  26.008  1.00  0.00     0.055 A 
ATOM     73  C   UNL A   1      51.048  28.398  28.368  1.00  0.00     0.041 A 
ATOM     74  F   UNL A   1      49.263  28.538  29.877  1.00  0.00    -0.206 F 
ATOM     75  C   UNL A   1      51.526  28.368  27.063  1.00  0.00     0.022 A 
BRANCH  72  76
ATOM     76  S   UNL A   1      51.177  28.309  24.297  1.00  0.00     0.124 S 
ATOM     77  O   UNL A   1      52.133  27.215  24.458  1.00  0.00    -0.237 OA
ATOM     78  O   UNL A   1      49.931  27.973  23.620  1.00  0.00    -0.237 OA
ATOM     79  O   UNL A   1      51.767  29.592  23.921  1.00  0.00    -0.744 OA
ENDBRANCH  72  76
ENDBRANCH  55  69
BRANCH  56  80
ATOM     80  C   UNL A   1      38.995  29.510  29.680  1.00  0.00     0.023 A 
ATOM     81  C   UNL A   1      38.083  30.254  28.915  1.00  0.00     0.031 A 
ATOM     82  C   UNL A   1      38.520  28.903  30.858  1.00  0.00     0.131 A 
ATOM     83  C   UNL A   1      36.760  30.411  29.358  1.00  0.00     0.055 A 
ATOM     84  C   UNL A   1      37.189  29.011  31.263  1.00  0.00     0.041 A 
ATOM     85  F   UNL A   1      39.349  28.186  31.634  1.00  0.00    -0.206 F 
ATOM     86  C   UNL A   1      36.303  29.781  30.518  1.00  0.00     0.022 A 
BRANCH  83  87
ATOM     87  S   UNL A   1      35.664  31.534  28.447  1.00  0.00     0.124 S 
ATOM     88  O   UNL A   1      35.220  30.685  27.347  1.00  0.00    -0.237 OA
ATOM     89  O   UNL A   1      34.660  31.858  29.454  1.00  0.00    -0.237 OA
ATOM     90  O   UNL A   1      36.545  32.636  28.070  1.00  0.00    -0.744 OA
ENDBRANCH  83  87
ENDBRANCH  56  80
BRANCH  68  91
ATOM     91  C   UNL A   1      44.388  33.907  30.326  1.00  0.00     0.023 A 
ATOM     92  C   UNL A   1      44.190  35.006  29.472  1.00  0.00     0.031 A 
ATOM     93  C   UNL A   1      44.691  34.167  31.676  1.00  0.00     0.131 A 
ATOM     94  C   UNL A   1      44.359  36.311  29.961  1.00  0.00     0.055 A 
ATOM     95  C   UNL A   1      44.783  35.468  32.173  1.00  0.00     0.041 A 
ATOM     96  F   UNL A   1      44.895  33.158  32.538  1.00  0.00    -0.206 F 
ATOM     97  C   UNL A   1      44.633  36.549  31.310  1.00  0.00     0.022 A 
BRANCH  94  98
ATOM     98  S   UNL A   1      44.327  37.691  28.786  1.00  0.00     0.124 S 
ATOM     99  O   UNL A   1      45.517  38.444  29.172  1.00  0.00    -0.237 OA
ATOM    100  O   UNL A   1      44.396  37.007  27.498  1.00  0.00    -0.237 OA
ATOM    101  O   UNL A   1      43.056  38.354  29.068  1.00  0.00    -0.744 OA
ENDBRANCH  94  98
ENDBRANCH  68  91
ENDBRANCH  42  43
ENDBRANCH  35  37
ENDBRANCH  34  35
ENDBRANCH  33  34
ENDBRANCH  32  33
ENDBRANCH  31  32
ENDBRANCH  30  31
ENDBRANCH  29  30
ENDBRANCH  28  29
ENDBRANCH   1  28
TORSDOF 28
ENDMDL
MODEL 2
REMARK VINA RESULT:      -9.0      1.766      2.446
REMARK SMILES CN(CC(=O)N[C@H]1C=C[C@H](C(=O)OCCOCCOCCOCCOC(=O)c2ccc(-c3c4nc(c(-c5cc(S(=O)(=O)[O-])ccc5F)c5ccc([nH]5)c(-c5cc(S(=O)(=O)[O-])ccc5F)c5nc(c(-c6cc(S(=O)(=O)[O-])ccc6F)c6ccc3[nH]6)C=C5)C=C4)cc2)C1)C(=O)c1cccs1
REMARK SMILES IDX 18 1 17 2 16 3 15 4 14 5 13 6 11 7 12 8 10 9 7 10 8 11 91 12
REMARK SMILES IDX 9 13 6 14 4 15 5 16 3 18 2 19 1 20 92 21 93 22 94 23 95 24
REMARK SMILES IDX 98 25 96 26 97 27 19 28 20 29 21 30 22 31 23 32 24 33 25 34
REMARK SMILES IDX 26 35 27 36 28 37 29 38 90 39 30 40 89 41 31 42 32 43 33 44
REMARK SMILES IDX 83 45 34 46 88 47 82 48 84 49 35 50 87 51 81 52 80 53 36 55
REMARK SMILES IDX 68 56 48 57 67 58 49 59 52 60 66 61 85 62 50 63 51 64 65 66
REMARK SMILES IDX 86 67 53 68 37 69 38 70 46 71 39 72 45 73 47 74 44 75 40 76
REMARK SMILES IDX 41 77 42 78 43 79 69 80 70 81 78 82 71 83 77 84 79 85 76 86
REMARK SMILES IDX 72 87 73 88 74 89 75 90 54 91 55 92 63 93 56 94 62 95 64 96
REMARK SMILES IDX 61 97 57 98 58 99 59 100 60 101
REMARK H PARENT 6 17 84 54 52 65
REMARK Flexibility Score: inf
ROOT
ATOM      1  C   UNL A   1      37.298  21.012  24.637  1.00  0.00     0.188 C 
ENDROOT
BRANCH   1   2
ATOM      2  C   UNL A   1      35.794  20.694  24.707  1.00  0.00     0.188 C 
BRANCH   2   3
ATOM      3  O   UNL A   1      35.357  19.348  24.817  1.00  0.00    -0.376 OA
BRANCH   3   4
ATOM      4  C   UNL A   1      33.981  19.057  24.609  1.00  0.00     0.202 C 
BRANCH   4   5
ATOM      5  C   UNL A   1      32.905  19.467  25.641  1.00  0.00     0.261 C 
BRANCH   5   6
ATOM      6  O   UNL A   1      31.925  20.446  25.233  1.00  0.00    -0.463 OA
BRANCH   6   7
ATOM      7  C   UNL A   1      32.042  21.697  25.765  1.00  0.00     0.312 C 
ATOM      8  O   UNL A   1      33.074  22.147  26.253  1.00  0.00    -0.252 OA
BRANCH   7   9
ATOM      9  C   UNL A   1      30.763  22.542  25.643  1.00  0.00     0.124 C 
ATOM     10  C   UNL A   1      30.632  24.902  24.905  1.00  0.00     0.106 C 
ATOM     11  C   UNL A   1      30.666  24.784  26.364  1.00  0.00    -0.006 C 
ATOM     12  C   UNL A   1      30.655  23.441  24.404  1.00  0.00     0.048 C 
ATOM     13  C   UNL A   1      30.648  23.510  26.765  1.00  0.00    -0.014 C 
BRANCH  10  14
ATOM     14  N   UNL A   1      29.478  25.685  24.483  1.00  0.00    -0.348 N 
ATOM     15  C   UNL A   1      29.245  26.963  24.078  1.00  0.00     0.240 C 
ATOM     16  O   UNL A   1      28.138  27.142  23.547  1.00  0.00    -0.273 OA
ATOM     17  H   UNL A   1      28.652  25.150  24.494  1.00  0.00     0.164 HD
BRANCH  15  18
ATOM     18  C   UNL A   1      30.254  28.145  24.067  1.00  0.00     0.219 C 
BRANCH  18  19
ATOM     19  N   UNL A   1      31.097  28.453  22.905  1.00  0.00    -0.332 N 
ATOM     20  C   UNL A   1      30.654  29.545  22.041  1.00  0.00     0.147 C 
BRANCH  19  21
ATOM     21  C   UNL A   1      32.460  28.133  22.802  1.00  0.00     0.264 C 
ATOM     22  O   UNL A   1      33.321  28.986  23.024  1.00  0.00    -0.268 OA
BRANCH  21  23
ATOM     23  C   UNL A   1      32.814  26.748  22.568  1.00  0.00     0.092 A 
ATOM     24  C   UNL A   1      32.418  25.854  21.596  1.00  0.00     0.025 A 
ATOM     25  S   UNL A   1      33.951  26.043  23.644  1.00  0.00    -0.139 S 
ATOM     26  C   UNL A   1      32.946  24.549  21.820  1.00  0.00     0.012 A 
ATOM     27  C   UNL A   1      33.807  24.517  22.892  1.00  0.00     0.065 A 
ENDBRANCH  21  23
ENDBRANCH  19  21
ENDBRANCH  18  19
ENDBRANCH  15  18
ENDBRANCH  10  14
ENDBRANCH   7   9
ENDBRANCH   6   7
ENDBRANCH   5   6
ENDBRANCH   4   5
ENDBRANCH   3   4
ENDBRANCH   2   3
ENDBRANCH   1   2
BRANCH   1  28
ATOM     28  O   UNL A   1      38.143  19.885  24.566  1.00  0.00    -0.377 OA
BRANCH  28  29
ATOM     29  C   UNL A   1      39.091  19.785  25.614  1.00  0.00     0.188 C 
BRANCH  29  30
ATOM     30  C   UNL A   1      39.578  21.109  26.240  1.00  0.00     0.188 C 
BRANCH  30  31
ATOM     31  O   UNL A   1      40.582  20.962  27.242  1.00  0.00    -0.376 OA
BRANCH  31  32
ATOM     32  C   UNL A   1      41.226  19.707  27.403  1.00  0.00     0.202 C 
BRANCH  32  33
ATOM     33  C   UNL A   1      42.460  19.385  26.536  1.00  0.00     0.261 C 
BRANCH  33  34
ATOM     34  O   UNL A   1      42.687  20.226  25.399  1.00  0.00    -0.460 OA
BRANCH  34  35
ATOM     35  C   UNL A   1      43.835  20.938  25.386  1.00  0.00     0.338 C 
ATOM     36  O   UNL A   1      44.862  20.643  24.797  1.00  0.00    -0.246 OA
BRANCH  35  37
ATOM     37  C   UNL A   1      43.567  22.249  26.016  1.00  0.00     0.060 A 
ATOM     38  C   UNL A   1      43.191  23.317  25.192  1.00  0.00     0.016 A 
ATOM     39  C   UNL A   1      43.654  22.423  27.401  1.00  0.00     0.016 A 
ATOM     40  C   UNL A   1      42.936  24.571  25.742  1.00  0.00     0.010 A 
ATOM     41  C   UNL A   1      43.433  23.691  27.949  1.00  0.00     0.010 A 
ATOM     42  C   UNL A   1      43.112  24.778  27.115  1.00  0.00    -0.014 A 
BRANCH  42  43
ATOM     43  C   UNL A   1      43.207  26.171  27.617  1.00  0.00     0.031 A 
ATOM     44  C   UNL A   1      44.567  26.817  27.636  1.00  0.00     0.074 A 
ATOM     45  C   UNL A   1      42.116  26.868  27.981  1.00  0.00     0.049 A 
ATOM     46  N   UNL A   1      44.917  28.011  28.034  1.00  0.00    -0.248 NA
ATOM     47  C   UNL A   1      45.681  25.996  27.136  1.00  0.00     0.031 C 
ATOM     48  C   UNL A   1      40.743  26.368  27.943  1.00  0.00     0.029 A 
ATOM     49  N   UNL A   1      41.995  28.151  28.454  1.00  0.00    -0.354 N 
ATOM     50  C   UNL A   1      46.293  28.084  27.837  1.00  0.00     0.074 A 
ATOM     51  C   UNL A   1      46.715  26.800  27.322  1.00  0.00     0.031 C 
ATOM     52  C   UNL A   1      39.917  27.334  28.386  1.00  0.00     0.029 A 
ATOM     53  C   UNL A   1      40.705  28.503  28.774  1.00  0.00     0.049 A 
ATOM     54  H   UNL A   1      42.761  28.762  28.554  1.00  0.00     0.167 HD
ATOM     55  C   UNL A   1      47.125  29.131  28.058  1.00  0.00     0.034 A 
ATOM     56  C   UNL A   1      40.224  29.628  29.342  1.00  0.00     0.034 A 
ATOM     57  C   UNL A   1      46.687  30.399  28.585  1.00  0.00     0.049 A 
ATOM     58  C   UNL A   1      41.186  30.747  29.674  1.00  0.00     0.074 A 
ATOM     59  C   UNL A   1      47.441  31.531  28.840  1.00  0.00     0.029 A 
ATOM     60  N   UNL A   1      45.382  30.699  28.956  1.00  0.00    -0.354 N 
ATOM     61  N   UNL A   1      42.484  30.810  29.479  1.00  0.00    -0.248 NA
ATOM     62  C   UNL A   1      40.615  31.951  30.294  1.00  0.00     0.031 C 
ATOM     63  C   UNL A   1      46.611  32.480  29.446  1.00  0.00     0.029 A 
ATOM     64  C   UNL A   1      45.318  31.982  29.477  1.00  0.00     0.049 A 
ATOM     65  H   UNL A   1      44.615  30.089  28.862  1.00  0.00     0.167 HD
ATOM     66  C   UNL A   1      42.877  32.073  29.920  1.00  0.00     0.074 A 
ATOM     67  C   UNL A   1      41.675  32.741  30.376  1.00  0.00     0.031 C 
ATOM     68  C   UNL A   1      44.114  32.633  29.939  1.00  0.00     0.034 A 
BRANCH  55  69
ATOM     69  C   UNL A   1      48.596  28.914  27.793  1.00  0.00     0.023 A 
ATOM     70  C   UNL A   1      49.136  28.960  26.496  1.00  0.00     0.031 A 
ATOM     71  C   UNL A   1      49.468  28.620  28.858  1.00  0.00     0.131 A 
ATOM     72  C   UNL A   1      50.486  28.642  26.288  1.00  0.00     0.055 A 
ATOM     73  C   UNL A   1      50.829  28.393  28.653  1.00  0.00     0.041 A 
ATOM     74  F   UNL A   1      49.006  28.532  30.115  1.00  0.00    -0.206 F 
ATOM     75  C   UNL A   1      51.343  28.387  27.361  1.00  0.00     0.022 A 
BRANCH  72  76
ATOM     76  S   UNL A   1      51.071  28.410  24.586  1.00  0.00     0.124 S 
ATOM     77  O   UNL A   1      52.052  27.341  24.755  1.00  0.00    -0.237 OA
ATOM     78  O   UNL A   1      49.848  28.049  23.879  1.00  0.00    -0.237 OA
ATOM     79  O   UNL A   1      51.634  29.713  24.236  1.00  0.00    -0.744 OA
ENDBRANCH  72  76
ENDBRANCH  55  69
BRANCH  56  80
ATOM     80  C   UNL A   1      38.776  29.746  29.683  1.00  0.00     0.023 A 
ATOM     81  C   UNL A   1      37.886  30.467  28.872  1.00  0.00     0.031 A 
ATOM     82  C   UNL A   1      38.271  29.187  30.873  1.00  0.00     0.131 A 
ATOM     83  C   UNL A   1      36.555  30.651  29.281  1.00  0.00     0.055 A 
ATOM     84  C   UNL A   1      36.933  29.320  31.245  1.00  0.00     0.041 A 
ATOM     85  F   UNL A   1      39.078  28.493  31.693  1.00  0.00    -0.206 F 
ATOM     86  C   UNL A   1      36.069  30.068  30.453  1.00  0.00     0.022 A 
BRANCH  83  87
ATOM     87  S   UNL A   1      35.488  31.747  28.306  1.00  0.00     0.124 S 
ATOM     88  O   UNL A   1      35.051  30.858  27.235  1.00  0.00    -0.237 OA
ATOM     89  O   UNL A   1      34.472  32.125  29.281  1.00  0.00    -0.237 OA
ATOM     90  O   UNL A   1      36.388  32.822  27.897  1.00  0.00    -0.744 OA
ENDBRANCH  83  87
ENDBRANCH  56  80
BRANCH  68  91
ATOM     91  C   UNL A   1      44.221  34.062  30.424  1.00  0.00     0.023 A 
ATOM     92  C   UNL A   1      44.447  34.377  31.775  1.00  0.00     0.031 A 
ATOM     93  C   UNL A   1      44.089  35.127  29.512  1.00  0.00     0.131 A 
ATOM     94  C   UNL A   1      44.469  35.719  32.186  1.00  0.00     0.055 A 
ATOM     95  C   UNL A   1      44.187  36.459  29.916  1.00  0.00     0.041 A 
ATOM     96  F   UNL A   1      43.868  34.888  28.209  1.00  0.00    -0.206 F 
ATOM     97  C   UNL A   1      44.362  36.761  31.263  1.00  0.00     0.022 A 
BRANCH  94  98
ATOM     98  S   UNL A   1      44.527  36.085  33.961  1.00  0.00     0.124 S 
ATOM     99  O   UNL A   1      45.472  35.083  34.445  1.00  0.00    -0.237 OA
ATOM    100  O   UNL A   1      44.997  37.466  33.981  1.00  0.00    -0.237 OA
ATOM    101  O   UNL A   1      43.145  35.895  34.396  1.00  0.00    -0.744 OA
ENDBRANCH  94  98
ENDBRANCH  68  91
ENDBRANCH  42  43
ENDBRANCH  35  37
ENDBRANCH  34  35
ENDBRANCH  33  34
ENDBRANCH  32  33
ENDBRANCH  31  32
ENDBRANCH  30  31
ENDBRANCH  29  30
ENDBRANCH  28  29
ENDBRANCH   1  28
TORSDOF 28
ENDMDL
MODEL 3
REMARK VINA RESULT:      -8.7      1.172      1.820
REMARK SMILES CN(CC(=O)N[C@H]1C=C[C@H](C(=O)OCCOCCOCCOCCOC(=O)c2ccc(-c3c4nc(c(-c5cc(S(=O)(=O)[O-])ccc5F)c5ccc([nH]5)c(-c5cc(S(=O)(=O)[O-])ccc5F)c5nc(c(-c6cc(S(=O)(=O)[O-])ccc6F)c6ccc3[nH]6)C=C5)C=C4)cc2)C1)C(=O)c1cccs1
REMARK SMILES IDX 18 1 17 2 16 3 15 4 14 5 13 6 11 7 12 8 10 9 7 10 8 11 91 12
REMARK SMILES IDX 9 13 6 14 4 15 5 16 3 18 2 19 1 20 92 21 93 22 94 23 95 24
REMARK SMILES IDX 98 25 96 26 97 27 19 28 20 29 21 30 22 31 23 32 24 33 25 34
REMARK SMILES IDX 26 35 27 36 28 37 29 38 90 39 30 40 89 41 31 42 32 43 33 44
REMARK SMILES IDX 83 45 34 46 88 47 82 48 84 49 35 50 87 51 81 52 80 53 36 55
REMARK SMILES IDX 68 56 48 57 67 58 49 59 52 60 66 61 85 62 50 63 51 64 65 66
REMARK SMILES IDX 86 67 53 68 37 69 38 70 46 71 39 72 45 73 47 74 44 75 40 76
REMARK SMILES IDX 41 77 42 78 43 79 69 80 70 81 78 82 71 83 77 84 79 85 76 86
REMARK SMILES IDX 72 87 73 88 74 89 75 90 54 91 55 92 63 93 56 94 62 95 64 96
REMARK SMILES IDX 61 97 57 98 58 99 59 100 60 101
REMARK H PARENT 6 17 84 54 52 65
REMARK Flexibility Score: inf
ROOT
ATOM      1  C   UNL A   1      37.424  20.966  24.672  1.00  0.00     0.188 C 
ENDROOT
BRANCH   1   2
ATOM      2  C   UNL A   1      35.935  20.788  25.016  1.00  0.00     0.188 C 
BRANCH   2   3
ATOM      3  O   UNL A   1      35.385  19.485  25.141  1.00  0.00    -0.376 OA
BRANCH   3   4
ATOM      4  C   UNL A   1      34.102  19.229  24.584  1.00  0.00     0.202 C 
BRANCH   4   5
ATOM      5  C   UNL A   1      32.812  19.399  25.421  1.00  0.00     0.261 C 
BRANCH   5   6
ATOM      6  O   UNL A   1      31.877  20.419  25.008  1.00  0.00    -0.463 OA
BRANCH   6   7
ATOM      7  C   UNL A   1      31.998  21.643  25.597  1.00  0.00     0.312 C 
ATOM      8  O   UNL A   1      33.027  22.062  26.115  1.00  0.00    -0.252 OA
BRANCH   7   9
ATOM      9  C   UNL A   1      30.726  22.503  25.500  1.00  0.00     0.124 C 
ATOM     10  C   UNL A   1      30.635  24.935  25.044  1.00  0.00     0.106 C 
ATOM     11  C   UNL A   1      30.581  24.643  26.478  1.00  0.00    -0.006 C 
ATOM     12  C   UNL A   1      30.692  23.545  24.374  1.00  0.00     0.048 C 
ATOM     13  C   UNL A   1      30.541  23.330  26.722  1.00  0.00    -0.014 C 
BRANCH  10  14
ATOM     14  N   UNL A   1      29.507  25.769  24.650  1.00  0.00    -0.348 N 
ATOM     15  C   UNL A   1      29.296  26.804  23.792  1.00  0.00     0.240 C 
ATOM     16  O   UNL A   1      28.101  27.050  23.566  1.00  0.00    -0.273 OA
ATOM     17  H   UNL A   1      28.685  25.518  25.128  1.00  0.00     0.164 HD
BRANCH  15  18
ATOM     18  C   UNL A   1      30.363  27.579  22.971  1.00  0.00     0.219 C 
BRANCH  18  19
ATOM     19  N   UNL A   1      30.557  29.028  23.096  1.00  0.00    -0.332 N 
ATOM     20  C   UNL A   1      29.926  29.868  22.080  1.00  0.00     0.147 C 
BRANCH  19  21
ATOM     21  C   UNL A   1      30.878  29.689  24.292  1.00  0.00     0.264 C 
ATOM     22  O   UNL A   1      30.293  30.725  24.612  1.00  0.00    -0.268 OA
BRANCH  21  23
ATOM     23  C   UNL A   1      31.810  29.042  25.193  1.00  0.00     0.092 A 
ATOM     24  C   UNL A   1      31.642  28.500  26.450  1.00  0.00     0.025 A 
ATOM     25  S   UNL A   1      33.426  28.860  24.643  1.00  0.00    -0.139 S 
ATOM     26  C   UNL A   1      32.874  28.059  27.014  1.00  0.00     0.012 A 
ATOM     27  C   UNL A   1      33.921  28.184  26.130  1.00  0.00     0.065 A 
ENDBRANCH  21  23
ENDBRANCH  19  21
ENDBRANCH  18  19
ENDBRANCH  15  18
ENDBRANCH  10  14
ENDBRANCH   7   9
ENDBRANCH   6   7
ENDBRANCH   5   6
ENDBRANCH   4   5
ENDBRANCH   3   4
ENDBRANCH   2   3
ENDBRANCH   1   2
BRANCH   1  28
ATOM     28  O   UNL A   1      38.161  19.768  24.575  1.00  0.00    -0.377 OA
BRANCH  28  29
ATOM     29  C   UNL A   1      39.221  19.644  25.507  1.00  0.00     0.188 C 
BRANCH  29  30
ATOM     30  C   UNL A   1      39.797  20.956  26.082  1.00  0.00     0.188 C 
BRANCH  30  31
ATOM     31  O   UNL A   1      40.755  20.780  27.124  1.00  0.00    -0.376 OA
BRANCH  31  32
ATOM     32  C   UNL A   1      41.346  19.503  27.319  1.00  0.00     0.202 C 
BRANCH  32  33
ATOM     33  C   UNL A   1      42.639  19.155  26.554  1.00  0.00     0.261 C 
BRANCH  33  34
ATOM     34  O   UNL A   1      42.915  19.918  25.373  1.00  0.00    -0.460 OA
BRANCH  34  35
ATOM     35  C   UNL A   1      44.077  20.606  25.348  1.00  0.00     0.338 C 
ATOM     36  O   UNL A   1      45.097  20.281  24.762  1.00  0.00    -0.246 OA
BRANCH  35  37
ATOM     37  C   UNL A   1      43.837  21.931  25.960  1.00  0.00     0.060 A 
ATOM     38  C   UNL A   1      43.560  23.012  25.114  1.00  0.00     0.016 A 
ATOM     39  C   UNL A   1      43.855  22.106  27.347  1.00  0.00     0.016 A 
ATOM     40  C   UNL A   1      43.334  24.279  25.648  1.00  0.00     0.010 A 
ATOM     41  C   UNL A   1      43.665  23.386  27.880  1.00  0.00     0.010 A 
ATOM     42  C   UNL A   1      43.442  24.483  27.028  1.00  0.00    -0.014 A 
BRANCH  42  43
ATOM     43  C   UNL A   1      43.576  25.872  27.533  1.00  0.00     0.031 A 
ATOM     44  C   UNL A   1      44.944  26.499  27.503  1.00  0.00     0.074 A 
ATOM     45  C   UNL A   1      42.509  26.582  27.941  1.00  0.00     0.049 A 
ATOM     46  N   UNL A   1      45.326  27.686  27.893  1.00  0.00    -0.248 NA
ATOM     47  C   UNL A   1      46.028  25.666  26.957  1.00  0.00     0.031 C 
ATOM     48  C   UNL A   1      41.129  26.101  27.952  1.00  0.00     0.029 A 
ATOM     49  N   UNL A   1      42.424  27.864  28.424  1.00  0.00    -0.354 N 
ATOM     50  C   UNL A   1      46.694  27.741  27.644  1.00  0.00     0.074 A 
ATOM     51  C   UNL A   1      47.079  26.454  27.109  1.00  0.00     0.031 C 
ATOM     52  C   UNL A   1      40.334  27.075  28.430  1.00  0.00     0.029 A 
ATOM     53  C   UNL A   1      41.152  28.232  28.794  1.00  0.00     0.049 A 
ATOM     54  H   UNL A   1      43.201  28.464  28.498  1.00  0.00     0.167 HD
ATOM     55  C   UNL A   1      47.549  28.775  27.839  1.00  0.00     0.034 A 
ATOM     56  C   UNL A   1      40.708  29.361  29.385  1.00  0.00     0.034 A 
ATOM     57  C   UNL A   1      47.148  30.047  28.388  1.00  0.00     0.049 A 
ATOM     58  C   UNL A   1      41.697  30.465  29.686  1.00  0.00     0.074 A 
ATOM     59  C   UNL A   1      47.926  31.167  28.619  1.00  0.00     0.029 A 
ATOM     60  N   UNL A   1      45.862  30.362  28.809  1.00  0.00    -0.354 N 
ATOM     61  N   UNL A   1      42.988  30.510  29.442  1.00  0.00    -0.248 NA
ATOM     62  C   UNL A   1      41.167  31.672  30.332  1.00  0.00     0.031 C 
ATOM     63  C   UNL A   1      47.134  32.124  29.261  1.00  0.00     0.029 A 
ATOM     64  C   UNL A   1      45.836  31.644  29.338  1.00  0.00     0.049 A 
ATOM     65  H   UNL A   1      45.084  29.764  28.742  1.00  0.00     0.167 HD
ATOM     66  C   UNL A   1      43.414  31.766  29.873  1.00  0.00     0.074 A 
ATOM     67  C   UNL A   1      42.240  32.448  30.378  1.00  0.00     0.031 C 
ATOM     68  C   UNL A   1      44.659  32.309  29.849  1.00  0.00     0.034 A 
BRANCH  55  69
ATOM     69  C   UNL A   1      49.005  28.540  27.518  1.00  0.00     0.023 A 
ATOM     70  C   UNL A   1      49.519  28.704  26.220  1.00  0.00     0.031 A 
ATOM     71  C   UNL A   1      49.888  28.109  28.525  1.00  0.00     0.131 A 
ATOM     72  C   UNL A   1      50.853  28.365  25.947  1.00  0.00     0.055 A 
ATOM     73  C   UNL A   1      51.236  27.860  28.265  1.00  0.00     0.041 A 
ATOM     74  F   UNL A   1      49.449  27.906  29.777  1.00  0.00    -0.206 F 
ATOM     75  C   UNL A   1      51.723  27.973  26.967  1.00  0.00     0.022 A 
BRANCH  72  76
ATOM     76  S   UNL A   1      51.394  28.292  24.217  1.00  0.00     0.124 S 
ATOM     77  O   UNL A   1      50.380  27.422  23.627  1.00  0.00    -0.237 OA
ATOM     78  O   UNL A   1      51.348  29.692  23.813  1.00  0.00    -0.237 OA
ATOM     79  O   UNL A   1      52.732  27.709  24.300  1.00  0.00    -0.744 OA
ENDBRANCH  72  76
ENDBRANCH  55  69
BRANCH  56  80
ATOM     80  C   UNL A   1      39.275  29.496  29.781  1.00  0.00     0.023 A 
ATOM     81  C   UNL A   1      38.321  30.045  28.910  1.00  0.00     0.031 A 
ATOM     82  C   UNL A   1      38.851  29.135  31.074  1.00  0.00     0.131 A 
ATOM     83  C   UNL A   1      37.007  30.260  29.355  1.00  0.00     0.055 A 
ATOM     84  C   UNL A   1      37.529  29.294  31.492  1.00  0.00     0.041 A 
ATOM     85  F   UNL A   1      39.722  28.613  31.953  1.00  0.00    -0.206 F 
ATOM     86  C   UNL A   1      36.601  29.873  30.634  1.00  0.00     0.022 A 
BRANCH  83  87
ATOM     87  S   UNL A   1      35.854  31.145  28.270  1.00  0.00     0.124 S 
ATOM     88  O   UNL A   1      36.174  30.570  26.967  1.00  0.00    -0.237 OA
ATOM     89  O   UNL A   1      34.562  30.774  28.835  1.00  0.00    -0.237 OA
ATOM     90  O   UNL A   1      36.230  32.546  28.444  1.00  0.00    -0.744 OA
ENDBRANCH  83  87
ENDBRANCH  56  80
BRANCH  68  91
ATOM     91  C   UNL A   1      44.804  33.734  30.335  1.00  0.00     0.023 A 
ATOM     92  C   UNL A   1      44.604  34.837  29.487  1.00  0.00     0.031 A 
ATOM     93  C   UNL A   1      45.156  33.988  31.675  1.00  0.00     0.131 A 
ATOM     94  C   UNL A   1      44.819  36.138  29.968  1.00  0.00     0.055 A 
ATOM     95  C   UNL A   1      45.295  35.287  32.166  1.00  0.00     0.041 A 
ATOM     96  F   UNL A   1      45.365  32.976  32.531  1.00  0.00    -0.206 F 
ATOM     97  C   UNL A   1      45.142  36.371  31.307  1.00  0.00     0.022 A 
BRANCH  94  98
ATOM     98  S   UNL A   1      44.781  37.518  28.792  1.00  0.00     0.124 S 
ATOM     99  O   UNL A   1      45.612  37.011  27.705  1.00  0.00    -0.237 OA
ATOM    100  O   UNL A   1      43.356  37.641  28.501  1.00  0.00    -0.237 OA
ATOM    101  O   UNL A   1      45.357  38.628  29.547  1.00  0.00    -0.744 OA
ENDBRANCH  94  98
ENDBRANCH  68  91
ENDBRANCH  42  43
ENDBRANCH  35  37
ENDBRANCH  34  35
ENDBRANCH  33  34
ENDBRANCH  32  33
ENDBRANCH  31  32
ENDBRANCH  30  31
ENDBRANCH  29  30
ENDBRANCH  28  29
ENDBRANCH   1  28
TORSDOF 28
ENDMDL
