MODEL 1
REMARK VINA RESULT:      -8.3      0.000      0.000
REMARK SMILES C/C=C/C=C/C(=O)N[C@@H](C)CC(=O)OCCOCCOCCOCCOC(=O)c1ccc(-c2c3nc(c(-c4cc(S(=O)(=O)[O-])ccc4F)c4ccc([nH]4)c(-c4cc(S(=O)(=O)[O-])ccc4F)c4nc(c(-c5cc(S(=O)(=O)[O-])ccc5F)c5ccc2[nH]5)C=C4)C=C3)cc1
REMARK SMILES IDX 19 1 18 2 17 3 16 4 15 5 14 6 12 7 13 8 11 9 9 10 10 11 8 12
REMARK SMILES IDX 6 13 7 14 5 16 4 17 3 18 1 19 2 20 20 21 21 22 22 23 23 24
REMARK SMILES IDX 24 25 25 26 26 27 27 28 28 29 29 30 30 31 91 32 31 33 90 34
REMARK SMILES IDX 32 35 33 36 34 37 84 38 35 39 89 40 83 41 85 42 36 43 88 44
REMARK SMILES IDX 82 45 81 46 37 48 69 49 49 50 68 51 50 52 53 53 67 54 86 55
REMARK SMILES IDX 51 56 52 57 66 59 87 60 54 61 38 62 39 63 47 64 40 65 46 66
REMARK SMILES IDX 48 67 45 68 41 69 42 70 43 71 44 72 70 73 71 74 79 75 72 76
REMARK SMILES IDX 78 77 80 78 77 79 73 80 74 81 75 82 76 83 55 84 56 85 64 86
REMARK SMILES IDX 57 87 63 88 65 89 62 90 58 91 59 92 60 93 61 94
REMARK H PARENT 8 15 85 47 53 58
REMARK Flexibility Score: inf
ROOT
ATOM      1  C   UNL A   1      36.683  23.264  26.120  1.00  0.00     0.188 C 
ENDROOT
BRANCH   1   2
ATOM      2  C   UNL A   1      36.535  21.802  25.698  1.00  0.00     0.188 C 
BRANCH   2   3
ATOM      3  O   UNL A   1      35.306  21.152  25.949  1.00  0.00    -0.376 OA
BRANCH   3   4
ATOM      4  C   UNL A   1      34.716  20.369  24.915  1.00  0.00     0.202 C 
BRANCH   4   5
ATOM      5  C   UNL A   1      33.310  19.762  25.077  1.00  0.00     0.261 C 
BRANCH   5   6
ATOM      6  O   UNL A   1      32.254  20.346  24.277  1.00  0.00    -0.463 OA
BRANCH   6   7
ATOM      7  C   UNL A   1      31.834  21.579  24.645  1.00  0.00     0.307 C 
ATOM      8  O   UNL A   1      31.288  21.828  25.719  1.00  0.00    -0.252 OA
BRANCH   7   9
ATOM      9  C   UNL A   1      31.945  22.649  23.582  1.00  0.00     0.147 C 
BRANCH   9  10
ATOM     10  C   UNL A   1      32.232  24.113  23.940  1.00  0.00     0.090 C 
ATOM     11  C   UNL A   1      33.731  24.215  24.290  1.00  0.00     0.031 C 
BRANCH  10  12
ATOM     12  N   UNL A   1      31.485  24.607  25.088  1.00  0.00    -0.350 N 
ATOM     13  C   UNL A   1      30.697  25.705  25.244  1.00  0.00     0.244 C 
ATOM     14  O   UNL A   1      30.238  25.944  26.362  1.00  0.00    -0.270 OA
ATOM     15  H   UNL A   1      31.561  24.046  25.893  1.00  0.00     0.164 HD
BRANCH  13  16
ATOM     16  C   UNL A   1      30.272  26.584  24.121  1.00  0.00     0.071 C 
ATOM     17  C   UNL A   1      29.153  27.302  23.945  1.00  0.00     0.005 C 
BRANCH  17  18
ATOM     18  C   UNL A   1      29.011  28.245  22.856  1.00  0.00    -0.004 C 
ATOM     19  C   UNL A   1      29.314  30.564  21.941  1.00  0.00     0.035 C 
ATOM     20  C   UNL A   1      29.227  29.557  23.043  1.00  0.00    -0.030 C 
ENDBRANCH  17  18
ENDBRANCH  13  16
ENDBRANCH  10  12
ENDBRANCH   9  10
ENDBRANCH   7   9
ENDBRANCH   6   7
ENDBRANCH   5   6
ENDBRANCH   4   5
ENDBRANCH   3   4
ENDBRANCH   2   3
ENDBRANCH   1   2
BRANCH   1  21
ATOM     21  O   UNL A   1      37.939  23.859  25.858  1.00  0.00    -0.377 OA
BRANCH  21  22
ATOM     22  C   UNL A   1      38.885  24.057  26.910  1.00  0.00     0.188 C 
BRANCH  22  23
ATOM     23  C   UNL A   1      40.064  23.087  27.072  1.00  0.00     0.188 C 
BRANCH  23  24
ATOM     24  O   UNL A   1      39.793  21.687  27.180  1.00  0.00    -0.376 OA
BRANCH  24  25
ATOM     25  C   UNL A   1      39.976  20.866  26.033  1.00  0.00     0.202 C 
BRANCH  25  26
ATOM     26  C   UNL A   1      40.788  19.599  26.245  1.00  0.00     0.261 C 
BRANCH  26  27
ATOM     27  O   UNL A   1      42.112  19.937  26.666  1.00  0.00    -0.460 OA
BRANCH  27  28
ATOM     28  C   UNL A   1      43.005  20.025  25.658  1.00  0.00     0.338 C 
ATOM     29  O   UNL A   1      43.197  19.204  24.770  1.00  0.00    -0.246 OA
BRANCH  28  30
ATOM     30  C   UNL A   1      43.608  21.366  25.668  1.00  0.00     0.060 A 
ATOM     31  C   UNL A   1      44.552  21.639  26.666  1.00  0.00     0.016 A 
ATOM     32  C   UNL A   1      43.217  22.351  24.756  1.00  0.00     0.016 A 
ATOM     33  C   UNL A   1      45.043  22.927  26.817  1.00  0.00     0.010 A 
ATOM     34  C   UNL A   1      43.705  23.644  24.911  1.00  0.00     0.010 A 
ATOM     35  C   UNL A   1      44.565  23.942  25.982  1.00  0.00    -0.014 A 
BRANCH  35  36
ATOM     36  C   UNL A   1      44.729  25.347  26.401  1.00  0.00     0.031 A 
ATOM     37  C   UNL A   1      46.094  25.959  26.258  1.00  0.00     0.074 A 
ATOM     38  C   UNL A   1      43.688  26.054  26.867  1.00  0.00     0.049 A 
ATOM     39  N   UNL A   1      46.525  27.134  26.627  1.00  0.00    -0.248 NA
ATOM     40  C   UNL A   1      47.116  25.114  25.620  1.00  0.00     0.031 C 
ATOM     41  C   UNL A   1      42.316  25.564  26.968  1.00  0.00     0.029 A 
ATOM     42  N   UNL A   1      43.633  27.334  27.346  1.00  0.00    -0.354 N 
ATOM     43  C   UNL A   1      47.874  27.162  26.287  1.00  0.00     0.074 A 
ATOM     44  C   UNL A   1      48.195  25.870  25.725  1.00  0.00     0.031 C 
ATOM     45  C   UNL A   1      41.547  26.540  27.478  1.00  0.00     0.029 A 
ATOM     46  C   UNL A   1      42.385  27.696  27.789  1.00  0.00     0.049 A 
ATOM     47  H   UNL A   1      44.410  27.936  27.369  1.00  0.00     0.167 HD
ATOM     48  C   UNL A   1      48.758  28.180  26.430  1.00  0.00     0.034 A 
ATOM     49  C   UNL A   1      41.985  28.827  28.402  1.00  0.00     0.034 A 
ATOM     50  C   UNL A   1      48.400  29.446  27.017  1.00  0.00     0.049 A 
ATOM     51  C   UNL A   1      43.008  29.907  28.661  1.00  0.00     0.074 A 
ATOM     52  C   UNL A   1      49.194  30.560  27.219  1.00  0.00     0.029 A 
ATOM     53  N   UNL A   1      47.139  29.758  27.518  1.00  0.00    -0.354 N 
ATOM     54  N   UNL A   1      44.286  29.927  28.353  1.00  0.00    -0.248 NA
ATOM     55  C   UNL A   1      42.536  31.114  29.349  1.00  0.00     0.031 C 
ATOM     56  C   UNL A   1      48.440  31.506  27.922  1.00  0.00     0.029 A 
ATOM     57  C   UNL A   1      47.145  31.029  28.066  1.00  0.00     0.049 A 
ATOM     58  H   UNL A   1      46.358  29.161  27.486  1.00  0.00     0.167 HD
ATOM     59  C   UNL A   1      44.758  31.170  28.766  1.00  0.00     0.074 A 
ATOM     60  C   UNL A   1      43.631  31.864  29.355  1.00  0.00     0.031 C 
ATOM     61  C   UNL A   1      46.004  31.699  28.648  1.00  0.00     0.034 A 
BRANCH  48  62
ATOM     62  C   UNL A   1      50.189  27.913  26.022  1.00  0.00     0.023 A 
ATOM     63  C   UNL A   1      51.211  27.718  26.970  1.00  0.00     0.031 A 
ATOM     64  C   UNL A   1      50.556  27.945  24.664  1.00  0.00     0.131 A 
ATOM     65  C   UNL A   1      52.552  27.680  26.558  1.00  0.00     0.055 A 
ATOM     66  C   UNL A   1      51.884  27.799  24.254  1.00  0.00     0.041 A 
ATOM     67  F   UNL A   1      49.635  28.154  23.711  1.00  0.00    -0.206 F 
ATOM     68  C   UNL A   1      52.894  27.691  25.206  1.00  0.00     0.022 A 
BRANCH  65  69
ATOM     69  S   UNL A   1      53.848  27.836  27.820  1.00  0.00     0.124 S 
ATOM     70  O   UNL A   1      54.895  28.539  27.083  1.00  0.00    -0.237 OA
ATOM     71  O   UNL A   1      53.178  28.600  28.867  1.00  0.00    -0.237 OA
ATOM     72  O   UNL A   1      54.161  26.450  28.163  1.00  0.00    -0.744 OA
ENDBRANCH  65  69
ENDBRANCH  48  62
BRANCH  49  73
ATOM     73  C   UNL A   1      40.564  28.990  28.813  1.00  0.00     0.023 A 
ATOM     74  C   UNL A   1      40.192  28.876  30.160  1.00  0.00     0.031 A 
ATOM     75  C   UNL A   1      39.556  29.259  27.869  1.00  0.00     0.131 A 
ATOM     76  C   UNL A   1      38.843  29.004  30.526  1.00  0.00     0.055 A 
ATOM     77  C   UNL A   1      38.223  29.436  28.244  1.00  0.00     0.041 A 
ATOM     78  F   UNL A   1      39.859  29.376  26.566  1.00  0.00    -0.206 F 
ATOM     79  C   UNL A   1      37.859  29.300  29.579  1.00  0.00     0.022 A 
BRANCH  76  80
ATOM     80  S   UNL A   1      38.384  28.715  32.256  1.00  0.00     0.124 S 
ATOM     81  O   UNL A   1      36.997  29.168  32.273  1.00  0.00    -0.237 OA
ATOM     82  O   UNL A   1      38.592  27.277  32.389  1.00  0.00    -0.237 OA
ATOM     83  O   UNL A   1      39.323  29.550  33.001  1.00  0.00    -0.744 OA
ENDBRANCH  76  80
ENDBRANCH  49  73
BRANCH  61  84
ATOM     84  C   UNL A   1      46.198  33.129  29.092  1.00  0.00     0.023 A 
ATOM     85  C   UNL A   1      45.891  34.220  28.263  1.00  0.00     0.031 A 
ATOM     86  C   UNL A   1      46.659  33.392  30.395  1.00  0.00     0.131 A 
ATOM     87  C   UNL A   1      46.081  35.528  28.738  1.00  0.00     0.055 A 
ATOM     88  C   UNL A   1      46.786  34.692  30.882  1.00  0.00     0.041 A 
ATOM     89  F   UNL A   1      46.972  32.384  31.225  1.00  0.00    -0.206 F 
ATOM     90  C   UNL A   1      46.504  35.769  30.048  1.00  0.00     0.022 A 
BRANCH  87  91
ATOM     91  S   UNL A   1      45.834  36.917  27.599  1.00  0.00     0.124 S 
ATOM     92  O   UNL A   1      47.027  36.837  26.761  1.00  0.00    -0.237 OA
ATOM     93  O   UNL A   1      44.574  36.571  26.949  1.00  0.00    -0.237 OA
ATOM     94  O   UNL A   1      45.775  38.080  28.482  1.00  0.00    -0.744 OA
ENDBRANCH  87  91
ENDBRANCH  61  84
ENDBRANCH  35  36
ENDBRANCH  28  30
ENDBRANCH  27  28
ENDBRANCH  26  27
ENDBRANCH  25  26
ENDBRANCH  24  25
ENDBRANCH  23  24
ENDBRANCH  22  23
ENDBRANCH  21  22
ENDBRANCH   1  21
TORSDOF 27
ENDMDL
MODEL 2
REMARK VINA RESULT:      -7.9      3.080      3.938
REMARK SMILES C/C=C/C=C/C(=O)N[C@@H](C)CC(=O)OCCOCCOCCOCCOC(=O)c1ccc(-c2c3nc(c(-c4cc(S(=O)(=O)[O-])ccc4F)c4ccc([nH]4)c(-c4cc(S(=O)(=O)[O-])ccc4F)c4nc(c(-c5cc(S(=O)(=O)[O-])ccc5F)c5ccc2[nH]5)C=C4)C=C3)cc1
REMARK SMILES IDX 19 1 18 2 17 3 16 4 15 5 14 6 12 7 13 8 11 9 9 10 10 11 8 12
REMARK SMILES IDX 6 13 7 14 5 16 4 17 3 18 1 19 2 20 20 21 21 22 22 23 23 24
REMARK SMILES IDX 24 25 25 26 26 27 27 28 28 29 29 30 30 31 91 32 31 33 90 34
REMARK SMILES IDX 32 35 33 36 34 37 84 38 35 39 89 40 83 41 85 42 36 43 88 44
REMARK SMILES IDX 82 45 81 46 37 48 69 49 49 50 68 51 50 52 53 53 67 54 86 55
REMARK SMILES IDX 51 56 52 57 66 59 87 60 54 61 38 62 39 63 47 64 40 65 46 66
REMARK SMILES IDX 48 67 45 68 41 69 42 70 43 71 44 72 70 73 71 74 79 75 72 76
REMARK SMILES IDX 78 77 80 78 77 79 73 80 74 81 75 82 76 83 55 84 56 85 64 86
REMARK SMILES IDX 57 87 63 88 65 89 62 90 58 91 59 92 60 93 61 94
REMARK H PARENT 8 15 85 47 53 58
REMARK Flexibility Score: inf
ROOT
ATOM      1  C   UNL A   1      36.748  23.483  25.915  1.00  0.00     0.188 C 
ENDROOT
BRANCH   1   2
ATOM      2  C   UNL A   1      36.368  22.030  25.628  1.00  0.00     0.188 C 
BRANCH   2   3
ATOM      3  O   UNL A   1      35.103  21.568  26.057  1.00  0.00    -0.376 OA
BRANCH   3   4
ATOM      4  C   UNL A   1      34.152  21.156  25.079  1.00  0.00     0.202 C 
BRANCH   4   5
ATOM      5  C   UNL A   1      32.871  20.401  25.480  1.00  0.00     0.261 C 
BRANCH   5   6
ATOM      6  O   UNL A   1      31.636  21.155  25.447  1.00  0.00    -0.463 OA
BRANCH   6   7
ATOM      7  C   UNL A   1      31.609  22.297  26.173  1.00  0.00     0.307 C 
ATOM      8  O   UNL A   1      32.252  22.470  27.208  1.00  0.00    -0.252 OA
BRANCH   7   9
ATOM      9  C   UNL A   1      30.611  23.337  25.714  1.00  0.00     0.147 C 
BRANCH   9  10
ATOM     10  C   UNL A   1      31.005  24.457  24.741  1.00  0.00     0.090 C 
ATOM     11  C   UNL A   1      30.607  23.996  23.325  1.00  0.00     0.031 C 
BRANCH  10  12
ATOM     12  N   UNL A   1      32.431  24.754  24.716  1.00  0.00    -0.350 N 
ATOM     13  C   UNL A   1      33.106  25.933  24.792  1.00  0.00     0.244 C 
ATOM     14  O   UNL A   1      34.331  25.917  24.660  1.00  0.00    -0.270 OA
ATOM     15  H   UNL A   1      33.008  23.962  24.630  1.00  0.00     0.164 HD
BRANCH  13  16
ATOM     16  C   UNL A   1      32.464  27.233  25.125  1.00  0.00     0.071 C 
ATOM     17  C   UNL A   1      32.712  28.473  24.679  1.00  0.00     0.005 C 
BRANCH  17  18
ATOM     18  C   UNL A   1      31.845  29.588  24.994  1.00  0.00    -0.004 C 
ATOM     19  C   UNL A   1      31.340  31.619  26.382  1.00  0.00     0.035 C 
ATOM     20  C   UNL A   1      32.045  30.332  26.093  1.00  0.00    -0.030 C 
ENDBRANCH  17  18
ENDBRANCH  13  16
ENDBRANCH  10  12
ENDBRANCH   9  10
ENDBRANCH   7   9
ENDBRANCH   6   7
ENDBRANCH   5   6
ENDBRANCH   4   5
ENDBRANCH   3   4
ENDBRANCH   2   3
ENDBRANCH   1   2
BRANCH   1  21
ATOM     21  O   UNL A   1      38.091  23.835  25.650  1.00  0.00    -0.377 OA
BRANCH  21  22
ATOM     22  C   UNL A   1      38.921  24.371  26.681  1.00  0.00     0.188 C 
BRANCH  22  23
ATOM     23  C   UNL A   1      39.884  23.451  27.445  1.00  0.00     0.188 C 
BRANCH  23  24
ATOM     24  O   UNL A   1      39.899  22.057  27.130  1.00  0.00    -0.376 OA
BRANCH  24  25
ATOM     25  C   UNL A   1      40.638  21.621  25.996  1.00  0.00     0.202 C 
BRANCH  25  26
ATOM     26  C   UNL A   1      41.961  20.932  26.289  1.00  0.00     0.261 C 
BRANCH  26  27
ATOM     27  O   UNL A   1      42.960  21.912  26.586  1.00  0.00    -0.460 OA
BRANCH  27  28
ATOM     28  C   UNL A   1      43.433  22.562  25.502  1.00  0.00     0.338 C 
ATOM     29  O   UNL A   1      43.394  22.182  24.339  1.00  0.00    -0.246 OA
BRANCH  28  30
ATOM     30  C   UNL A   1      43.852  23.914  25.900  1.00  0.00     0.060 A 
ATOM     31  C   UNL A   1      44.381  24.070  27.188  1.00  0.00     0.016 A 
ATOM     32  C   UNL A   1      43.680  25.013  25.053  1.00  0.00     0.016 A 
ATOM     33  C   UNL A   1      44.655  25.341  27.672  1.00  0.00     0.010 A 
ATOM     34  C   UNL A   1      43.949  26.288  25.540  1.00  0.00     0.010 A 
ATOM     35  C   UNL A   1      44.373  26.452  26.870  1.00  0.00    -0.014 A 
BRANCH  35  36
ATOM     36  C   UNL A   1      44.238  27.776  27.507  1.00  0.00     0.031 A 
ATOM     37  C   UNL A   1      45.475  28.623  27.613  1.00  0.00     0.074 A 
ATOM     38  C   UNL A   1      43.050  28.211  27.950  1.00  0.00     0.049 A 
ATOM     39  N   UNL A   1      45.650  29.777  28.198  1.00  0.00    -0.248 NA
ATOM     40  C   UNL A   1      46.687  28.078  26.979  1.00  0.00     0.031 C 
ATOM     41  C   UNL A   1      41.787  27.488  27.820  1.00  0.00     0.029 A 
ATOM     42  N   UNL A   1      42.719  29.367  28.602  1.00  0.00    -0.354 N 
ATOM     43  C   UNL A   1      46.995  30.086  28.022  1.00  0.00     0.074 A 
ATOM     44  C   UNL A   1      47.596  28.976  27.317  1.00  0.00     0.031 C 
ATOM     45  C   UNL A   1      40.811  28.224  28.377  1.00  0.00     0.029 A 
ATOM     46  C   UNL A   1      41.392  29.437  28.948  1.00  0.00     0.049 A 
ATOM     47  H   UNL A   1      43.368  30.079  28.803  1.00  0.00     0.167 HD
ATOM     48  C   UNL A   1      47.661  31.199  28.414  1.00  0.00     0.034 A 
ATOM     49  C   UNL A   1      40.740  30.368  29.671  1.00  0.00     0.034 A 
ATOM     50  C   UNL A   1      47.028  32.274  29.136  1.00  0.00     0.049 A 
ATOM     51  C   UNL A   1      41.521  31.546  30.202  1.00  0.00     0.074 A 
ATOM     52  C   UNL A   1      47.583  33.456  29.589  1.00  0.00     0.029 A 
ATOM     53  N   UNL A   1      45.693  32.282  29.529  1.00  0.00    -0.354 N 
ATOM     54  N   UNL A   1      42.795  31.831  30.048  1.00  0.00    -0.248 NA
ATOM     55  C   UNL A   1      40.777  32.527  31.001  1.00  0.00     0.031 C 
ATOM     56  C   UNL A   1      46.611  34.133  30.332  1.00  0.00     0.029 A 
ATOM     57  C   UNL A   1      45.418  33.428  30.255  1.00  0.00     0.049 A 
ATOM     58  H   UNL A   1      45.040  31.576  29.321  1.00  0.00     0.167 HD
ATOM     59  C   UNL A   1      42.994  33.050  30.690  1.00  0.00     0.074 A 
ATOM     60  C   UNL A   1      41.711  33.438  31.243  1.00  0.00     0.031 C 
ATOM     61  C   UNL A   1      44.126  33.792  30.795  1.00  0.00     0.034 A 
BRANCH  48  62
ATOM     62  C   UNL A   1      49.147  31.248  28.137  1.00  0.00     0.023 A 
ATOM     63  C   UNL A   1      49.685  32.013  27.085  1.00  0.00     0.031 A 
ATOM     64  C   UNL A   1      50.032  30.445  28.879  1.00  0.00     0.131 A 
ATOM     65  C   UNL A   1      51.036  31.869  26.733  1.00  0.00     0.055 A 
ATOM     66  C   UNL A   1      51.398  30.388  28.590  1.00  0.00     0.041 A 
ATOM     67  F   UNL A   1      49.581  29.669  29.877  1.00  0.00    -0.206 F 
ATOM     68  C   UNL A   1      51.902  31.085  27.495  1.00  0.00     0.022 A 
BRANCH  65  69
ATOM     69  S   UNL A   1      51.591  32.549  25.144  1.00  0.00     0.124 S 
ATOM     70  O   UNL A   1      51.580  31.360  24.295  1.00  0.00    -0.237 OA
ATOM     71  O   UNL A   1      50.571  33.550  24.856  1.00  0.00    -0.237 OA
ATOM     72  O   UNL A   1      52.920  33.079  25.443  1.00  0.00    -0.744 OA
ENDBRANCH  65  69
ENDBRANCH  48  62
BRANCH  49  73
ATOM     73  C   UNL A   1      39.283  30.220  29.937  1.00  0.00     0.023 A 
ATOM     74  C   UNL A   1      38.343  30.945  29.191  1.00  0.00     0.031 A 
ATOM     75  C   UNL A   1      38.807  29.354  30.938  1.00  0.00     0.131 A 
ATOM     76  C   UNL A   1      36.975  30.813  29.475  1.00  0.00     0.055 A 
ATOM     77  C   UNL A   1      37.443  29.189  31.183  1.00  0.00     0.041 A 
ATOM     78  F   UNL A   1      39.666  28.637  31.681  1.00  0.00    -0.206 F 
ATOM     79  C   UNL A   1      36.518  29.929  30.454  1.00  0.00     0.022 A 
BRANCH  76  80
ATOM     80  S   UNL A   1      35.801  31.869  28.583  1.00  0.00     0.124 S 
ATOM     81  O   UNL A   1      35.339  30.973  27.529  1.00  0.00    -0.237 OA
ATOM     82  O   UNL A   1      34.830  32.191  29.624  1.00  0.00    -0.237 OA
ATOM     83  O   UNL A   1      36.624  32.990  28.134  1.00  0.00    -0.744 OA
ENDBRANCH  76  80
ENDBRANCH  49  73
BRANCH  61  84
ATOM     84  C   UNL A   1      44.016  35.141  31.464  1.00  0.00     0.023 A 
ATOM     85  C   UNL A   1      44.161  35.306  32.851  1.00  0.00     0.031 A 
ATOM     86  C   UNL A   1      43.803  36.288  30.677  1.00  0.00     0.131 A 
ATOM     87  C   UNL A   1      44.060  36.589  33.412  1.00  0.00     0.055 A 
ATOM     88  C   UNL A   1      43.767  37.565  31.233  1.00  0.00     0.041 A 
ATOM     89  F   UNL A   1      43.652  36.184  29.346  1.00  0.00    -0.206 F 
ATOM     90  C   UNL A   1      43.888  37.720  32.609  1.00  0.00     0.022 A 
BRANCH  87  91
ATOM     91  S   UNL A   1      44.090  36.759  35.217  1.00  0.00     0.124 S 
ATOM     92  O   UNL A   1      45.522  36.754  35.498  1.00  0.00    -0.237 OA
ATOM     93  O   UNL A   1      43.404  38.031  35.425  1.00  0.00    -0.237 OA
ATOM     94  O   UNL A   1      43.362  35.581  35.685  1.00  0.00    -0.744 OA
ENDBRANCH  87  91
ENDBRANCH  61  84
ENDBRANCH  35  36
ENDBRANCH  28  30
ENDBRANCH  27  28
ENDBRANCH  26  27
ENDBRANCH  25  26
ENDBRANCH  24  25
ENDBRANCH  23  24
ENDBRANCH  22  23
ENDBRANCH  21  22
ENDBRANCH   1  21
TORSDOF 27
ENDMDL
MODEL 3
REMARK VINA RESULT:      -7.9      4.728      9.813
REMARK SMILES C/C=C/C=C/C(=O)N[C@@H](C)CC(=O)OCCOCCOCCOCCOC(=O)c1ccc(-c2c3nc(c(-c4cc(S(=O)(=O)[O-])ccc4F)c4ccc([nH]4)c(-c4cc(S(=O)(=O)[O-])ccc4F)c4nc(c(-c5cc(S(=O)(=O)[O-])ccc5F)c5ccc2[nH]5)C=C4)C=C3)cc1
REMARK SMILES IDX 19 1 18 2 17 3 16 4 15 5 14 6 12 7 13 8 11 9 9 10 10 11 8 12
REMARK SMILES IDX 6 13 7 14 5 16 4 17 3 18 1 19 2 20 20 21 21 22 22 23 23 24
REMARK SMILES IDX 24 25 25 26 26 27 27 28 28 29 29 30 30 31 91 32 31 33 90 34
REMARK SMILES IDX 32 35 33 36 34 37 84 38 35 39 89 40 83 41 85 42 36 43 88 44
REMARK SMILES IDX 82 45 81 46 37 48 69 49 49 50 68 51 50 52 53 53 67 54 86 55
REMARK SMILES IDX 51 56 52 57 66 59 87 60 54 61 38 62 39 63 47 64 40 65 46 66
REMARK SMILES IDX 48 67 45 68 41 69 42 70 43 71 44 72 70 73 71 74 79 75 72 76
REMARK SMILES IDX 78 77 80 78 77 79 73 80 74 81 75 82 76 83 55 84 56 85 64 86
REMARK SMILES IDX 57 87 63 88 65 89 62 90 58 91 59 92 60 93 61 94
REMARK H PARENT 8 15 85 47 53 58
REMARK Flexibility Score: inf
ROOT
ATOM      1  C   UNL A   1      41.346  21.379  26.468  1.00  0.00     0.188 C 
ENDROOT
BRANCH   1   2
ATOM      2  C   UNL A   1      39.835  21.546  26.628  1.00  0.00     0.188 C 
BRANCH   2   3
ATOM      3  O   UNL A   1      39.096  22.056  25.536  1.00  0.00    -0.376 OA
BRANCH   3   4
ATOM      4  C   UNL A   1      37.738  21.656  25.376  1.00  0.00     0.202 C 
BRANCH   4   5
ATOM      5  C   UNL A   1      36.726  22.544  24.629  1.00  0.00     0.261 C 
BRANCH   5   6
ATOM      6  O   UNL A   1      35.529  22.916  25.354  1.00  0.00    -0.463 OA
BRANCH   6   7
ATOM      7  C   UNL A   1      35.037  24.152  25.106  1.00  0.00     0.307 C 
ATOM      8  O   UNL A   1      34.918  25.029  25.960  1.00  0.00    -0.252 OA
BRANCH   7   9
ATOM      9  C   UNL A   1      34.489  24.367  23.712  1.00  0.00     0.147 C 
BRANCH   9  10
ATOM     10  C   UNL A   1      33.404  23.455  23.123  1.00  0.00     0.090 C 
ATOM     11  C   UNL A   1      32.455  24.346  22.296  1.00  0.00     0.031 C 
BRANCH  10  12
ATOM     12  N   UNL A   1      32.595  22.767  24.120  1.00  0.00    -0.350 N 
ATOM     13  C   UNL A   1      31.769  23.241  25.092  1.00  0.00     0.244 C 
ATOM     14  O   UNL A   1      31.257  22.436  25.871  1.00  0.00    -0.270 OA
ATOM     15  H   UNL A   1      32.655  21.786  24.082  1.00  0.00     0.164 HD
BRANCH  13  16
ATOM     16  C   UNL A   1      31.366  24.669  25.210  1.00  0.00     0.071 C 
ATOM     17  C   UNL A   1      31.442  25.518  26.245  1.00  0.00     0.005 C 
BRANCH  17  18
ATOM     18  C   UNL A   1      31.162  26.930  26.098  1.00  0.00    -0.004 C 
ATOM     19  C   UNL A   1      31.912  29.233  25.430  1.00  0.00     0.035 C 
ATOM     20  C   UNL A   1      32.140  27.804  25.808  1.00  0.00    -0.030 C 
ENDBRANCH  17  18
ENDBRANCH  13  16
ENDBRANCH  10  12
ENDBRANCH   9  10
ENDBRANCH   7   9
ENDBRANCH   6   7
ENDBRANCH   5   6
ENDBRANCH   4   5
ENDBRANCH   3   4
ENDBRANCH   2   3
ENDBRANCH   1   2
BRANCH   1  21
ATOM     21  O   UNL A   1      42.145  22.379  27.068  1.00  0.00    -0.377 OA
BRANCH  21  22
ATOM     22  C   UNL A   1      43.551  22.433  26.823  1.00  0.00     0.188 C 
BRANCH  22  23
ATOM     23  C   UNL A   1      44.181  21.512  25.769  1.00  0.00     0.188 C 
BRANCH  23  24
ATOM     24  O   UNL A   1      45.512  21.785  25.322  1.00  0.00    -0.376 OA
BRANCH  24  25
ATOM     25  C   UNL A   1      45.692  22.620  24.186  1.00  0.00     0.202 C 
BRANCH  25  26
ATOM     26  C   UNL A   1      46.456  23.913  24.424  1.00  0.00     0.261 C 
BRANCH  26  27
ATOM     27  O   UNL A   1      45.823  24.664  25.463  1.00  0.00    -0.460 OA
BRANCH  27  28
ATOM     28  C   UNL A   1      45.812  25.996  25.251  1.00  0.00     0.338 C 
ATOM     29  O   UNL A   1      46.423  26.610  24.386  1.00  0.00    -0.246 OA
BRANCH  28  30
ATOM     30  C   UNL A   1      44.793  26.611  26.115  1.00  0.00     0.060 A 
ATOM     31  C   UNL A   1      44.685  28.007  26.089  1.00  0.00     0.016 A 
ATOM     32  C   UNL A   1      44.000  25.841  26.971  1.00  0.00     0.016 A 
ATOM     33  C   UNL A   1      43.848  28.650  26.989  1.00  0.00     0.010 A 
ATOM     34  C   UNL A   1      43.164  26.486  27.877  1.00  0.00     0.010 A 
ATOM     35  C   UNL A   1      43.141  27.891  27.927  1.00  0.00    -0.014 A 
BRANCH  35  36
ATOM     36  C   UNL A   1      42.616  28.557  29.134  1.00  0.00     0.031 A 
ATOM     37  C   UNL A   1      41.207  29.077  29.082  1.00  0.00     0.074 A 
ATOM     38  C   UNL A   1      43.365  28.669  30.241  1.00  0.00     0.049 A 
ATOM     39  N   UNL A   1      40.539  29.769  29.964  1.00  0.00    -0.248 NA
ATOM     40  C   UNL A   1      40.455  28.781  27.851  1.00  0.00     0.031 C 
ATOM     41  C   UNL A   1      44.711  28.127  30.405  1.00  0.00     0.029 A 
ATOM     42  N   UNL A   1      43.093  29.280  31.434  1.00  0.00    -0.354 N 
ATOM     43  C   UNL A   1      39.297  30.012  29.386  1.00  0.00     0.074 A 
ATOM     44  C   UNL A   1      39.325  29.431  28.063  1.00  0.00     0.031 C 
ATOM     45  C   UNL A   1      45.151  28.431  31.638  1.00  0.00     0.029 A 
ATOM     46  C   UNL A   1      44.138  29.233  32.322  1.00  0.00     0.049 A 
ATOM     47  H   UNL A   1      42.231  29.711  31.637  1.00  0.00     0.167 HD
ATOM     48  C   UNL A   1      38.232  30.659  29.920  1.00  0.00     0.034 A 
ATOM     49  C   UNL A   1      44.262  29.802  33.537  1.00  0.00     0.034 A 
ATOM     50  C   UNL A   1      38.255  31.244  31.236  1.00  0.00     0.049 A 
ATOM     51  C   UNL A   1      43.110  30.620  34.070  1.00  0.00     0.074 A 
ATOM     52  C   UNL A   1      37.249  31.923  31.898  1.00  0.00     0.029 A 
ATOM     53  N   UNL A   1      39.357  31.235  32.086  1.00  0.00    -0.354 N 
ATOM     54  N   UNL A   1      41.942  30.862  33.517  1.00  0.00    -0.248 NA
ATOM     55  C   UNL A   1      43.293  31.240  35.387  1.00  0.00     0.031 C 
ATOM     56  C   UNL A   1      37.771  32.402  33.105  1.00  0.00     0.029 A 
ATOM     57  C   UNL A   1      39.069  31.933  33.247  1.00  0.00     0.049 A 
ATOM     58  H   UNL A   1      40.216  30.797  31.891  1.00  0.00     0.167 HD
ATOM     59  C   UNL A   1      41.232  31.621  34.444  1.00  0.00     0.074 A 
ATOM     60  C   UNL A   1      42.109  31.807  35.583  1.00  0.00     0.031 C 
ATOM     61  C   UNL A   1      39.964  32.102  34.370  1.00  0.00     0.034 A 
BRANCH  48  62
ATOM     62  C   UNL A   1      37.015  30.828  29.039  1.00  0.00     0.023 A 
ATOM     63  C   UNL A   1      36.450  32.090  28.781  1.00  0.00     0.031 A 
ATOM     64  C   UNL A   1      36.353  29.699  28.522  1.00  0.00     0.131 A 
ATOM     65  C   UNL A   1      35.208  32.185  28.133  1.00  0.00     0.055 A 
ATOM     66  C   UNL A   1      35.171  29.808  27.785  1.00  0.00     0.041 A 
ATOM     67  F   UNL A   1      36.823  28.463  28.754  1.00  0.00    -0.206 F 
ATOM     68  C   UNL A   1      34.579  31.055  27.609  1.00  0.00     0.022 A 
BRANCH  65  69
ATOM     69  S   UNL A   1      34.328  33.772  28.179  1.00  0.00     0.124 S 
ATOM     70  O   UNL A   1      34.455  34.139  29.588  1.00  0.00    -0.237 OA
ATOM     71  O   UNL A   1      35.091  34.582  27.236  1.00  0.00    -0.237 OA
ATOM     72  O   UNL A   1      32.974  33.426  27.753  1.00  0.00    -0.744 OA
ENDBRANCH  65  69
ENDBRANCH  48  62
BRANCH  49  73
ATOM     73  C   UNL A   1      45.515  29.625  34.319  1.00  0.00     0.023 A 
ATOM     74  C   UNL A   1      46.599  30.496  34.142  1.00  0.00     0.031 A 
ATOM     75  C   UNL A   1      45.651  28.583  35.255  1.00  0.00     0.131 A 
ATOM     76  C   UNL A   1      47.783  30.296  34.868  1.00  0.00     0.055 A 
ATOM     77  C   UNL A   1      46.812  28.418  36.012  1.00  0.00     0.041 A 
ATOM     78  F   UNL A   1      44.643  27.720  35.463  1.00  0.00    -0.206 F 
ATOM     79  C   UNL A   1      47.891  29.273  35.813  1.00  0.00     0.022 A 
BRANCH  76  80
ATOM     80  S   UNL A   1      49.208  31.358  34.510  1.00  0.00     0.124 S 
ATOM     81  O   UNL A   1      49.029  31.623  33.087  1.00  0.00    -0.237 OA
ATOM     82  O   UNL A   1      48.980  32.486  35.407  1.00  0.00    -0.237 OA
ATOM     83  O   UNL A   1      50.353  30.517  34.850  1.00  0.00    -0.744 OA
ENDBRANCH  76  80
ENDBRANCH  49  73
BRANCH  61  84
ATOM     84  C   UNL A   1      39.415  32.807  35.587  1.00  0.00     0.023 A 
ATOM     85  C   UNL A   1      38.650  32.141  36.559  1.00  0.00     0.031 A 
ATOM     86  C   UNL A   1      39.709  34.167  35.790  1.00  0.00     0.131 A 
ATOM     87  C   UNL A   1      38.178  32.849  37.676  1.00  0.00     0.055 A 
ATOM     88  C   UNL A   1      39.291  34.848  36.932  1.00  0.00     0.041 A 
ATOM     89  F   UNL A   1      40.432  34.852  34.889  1.00  0.00    -0.206 F 
ATOM     90  C   UNL A   1      38.513  34.190  37.880  1.00  0.00     0.022 A 
BRANCH  87  91
ATOM     91  S   UNL A   1      37.059  32.012  38.833  1.00  0.00     0.124 S 
ATOM     92  O   UNL A   1      37.140  30.626  38.383  1.00  0.00    -0.237 OA
ATOM     93  O   UNL A   1      37.671  32.300  40.126  1.00  0.00    -0.237 OA
ATOM     94  O   UNL A   1      35.772  32.665  38.599  1.00  0.00    -0.744 OA
ENDBRANCH  87  91
ENDBRANCH  61  84
ENDBRANCH  35  36
ENDBRANCH  28  30
ENDBRANCH  27  28
ENDBRANCH  26  27
ENDBRANCH  25  26
ENDBRANCH  24  25
ENDBRANCH  23  24
ENDBRANCH  22  23
ENDBRANCH  21  22
ENDBRANCH   1  21
TORSDOF 27
ENDMDL
