MODEL 1
REMARK VINA RESULT:      -9.2      0.000      0.000
REMARK SMILES COc1ccc([C@H]2CC(c3ccc(S(C)(=O)=O)cc3)=NN2c2ccc(C(=O)OCCOCCOCCOCCOC(=O)c3ccc(-c4c5nc(c(-c6cc(S(=O)(=O)[O-])ccc6F)c6ccc([nH]6)c(-c6cc(S(=O)(=O)[O-])ccc6F)c6nc(c(-c7cc(S(=O)(=O)[O-])ccc7F)c7ccc4[nH]7)C=C6)C=C5)cc3)cc2)cc1OC
REMARK SMILES IDX 34 1 33 2 32 3 31 4 30 5 29 6 28 7 26 8 27 9 25 10 22 11
REMARK SMILES IDX 23 12 107 13 24 14 106 15 21 16 7 17 8 18 9 19 20 20 6 21
REMARK SMILES IDX 3 22 4 23 109 24 5 25 108 26 2 27 1 28 110 29 111 30 10 31
REMARK SMILES IDX 11 32 19 33 12 34 18 35 13 36 14 37 15 38 16 39 17 40 35 41
REMARK SMILES IDX 36 42 37 43 38 44 39 45 40 46 41 47 42 48 43 49 44 50 105 51
REMARK SMILES IDX 45 52 104 53 46 54 47 55 48 56 98 57 49 58 103 59 97 60
REMARK SMILES IDX 99 61 50 62 102 63 96 64 95 65 51 67 83 68 63 69 82 70 64 71
REMARK SMILES IDX 67 72 81 73 100 74 65 75 66 76 80 78 101 79 68 80 52 81
REMARK SMILES IDX 53 82 61 83 54 84 60 85 62 86 59 87 55 88 56 89 57 90 58 91
REMARK SMILES IDX 84 92 85 93 93 94 86 95 92 96 94 97 91 98 87 99 88 100
REMARK SMILES IDX 89 101 90 102 69 103 70 104 78 105 71 106 77 107 79 108
REMARK SMILES IDX 76 109 72 110 73 111 74 112 75 113
REMARK H PARENT 99 66 67 77
REMARK Flexibility Score: inf
ROOT
ATOM      1  O   UNL A   1      43.683  25.168  25.948  1.00  0.00    -0.377 OA
ENDROOT
BRANCH   1   2
ATOM      2  C   UNL A   1      44.286  24.348  26.935  1.00  0.00     0.188 C 
BRANCH   2   3
ATOM      3  C   UNL A   1      44.152  22.820  26.774  1.00  0.00     0.188 C 
BRANCH   3   4
ATOM      4  O   UNL A   1      42.822  22.381  26.565  1.00  0.00    -0.376 OA
BRANCH   4   5
ATOM      5  C   UNL A   1      41.780  22.867  27.391  1.00  0.00     0.202 C 
BRANCH   5   6
ATOM      6  C   UNL A   1      40.586  23.631  26.796  1.00  0.00     0.261 C 
BRANCH   6   7
ATOM      7  O   UNL A   1      39.286  23.076  27.022  1.00  0.00    -0.460 OA
BRANCH   7   8
ATOM      8  C   UNL A   1      38.863  22.127  26.161  1.00  0.00     0.338 C 
ATOM      9  O   UNL A   1      39.229  20.965  26.116  1.00  0.00    -0.246 OA
BRANCH   8  10
ATOM     10  C   UNL A   1      37.720  22.679  25.397  1.00  0.00     0.060 A 
ATOM     11  C   UNL A   1      35.476  23.703  24.052  1.00  0.00     0.060 A 
ATOM     12  C   UNL A   1      35.869  24.236  25.285  1.00  0.00     0.029 A 
ATOM     13  C   UNL A   1      36.286  22.722  23.458  1.00  0.00     0.029 A 
ATOM     14  C   UNL A   1      36.962  23.705  25.973  1.00  0.00     0.018 A 
ATOM     15  C   UNL A   1      37.414  22.223  24.113  1.00  0.00     0.018 A 
BRANCH  11  16
ATOM     16  N   UNL A   1      34.256  24.051  23.478  1.00  0.00    -0.257 N 
ATOM     17  C   UNL A   1      33.397  23.043  22.849  1.00  0.00     0.144 C 
ATOM     18  C   UNL A   1      32.120  23.835  22.554  1.00  0.00     0.091 C 
ATOM     19  C   UNL A   1      32.466  25.152  23.193  1.00  0.00     0.071 C 
ATOM     20  N   UNL A   1      33.644  25.242  23.725  1.00  0.00    -0.176 NA
BRANCH  17  21
ATOM     21  C   UNL A   1      33.137  21.833  23.744  1.00  0.00    -0.019 A 
ATOM     22  C   UNL A   1      32.688  19.581  25.390  1.00  0.00     0.160 A 
ATOM     23  C   UNL A   1      32.418  19.526  24.016  1.00  0.00     0.051 A 
ATOM     24  C   UNL A   1      33.210  20.751  25.953  1.00  0.00     0.161 A 
ATOM     25  C   UNL A   1      32.636  20.643  23.200  1.00  0.00     0.010 A 
ATOM     26  C   UNL A   1      33.429  21.860  25.120  1.00  0.00     0.056 A 
BRANCH  22  27
ATOM     27  O   UNL A   1      32.550  18.427  26.113  1.00  0.00    -0.493 OA
ATOM     28  C   UNL A   1      32.489  17.270  25.279  1.00  0.00     0.278 C 
ENDBRANCH  22  27
BRANCH  24  29
ATOM     29  O   UNL A   1      33.584  20.985  27.248  1.00  0.00    -0.493 OA
ATOM     30  C   UNL A   1      33.032  22.103  27.923  1.00  0.00     0.278 C 
ENDBRANCH  24  29
ENDBRANCH  17  21
BRANCH  19  31
ATOM     31  C   UNL A   1      31.510  26.266  23.138  1.00  0.00    -0.002 A 
ATOM     32  C   UNL A   1      31.916  27.486  22.586  1.00  0.00     0.011 A 
ATOM     33  C   UNL A   1      30.197  26.084  23.581  1.00  0.00     0.011 A 
ATOM     34  C   UNL A   1      30.995  28.528  22.453  1.00  0.00     0.021 A 
ATOM     35  C   UNL A   1      29.280  27.133  23.470  1.00  0.00     0.021 A 
ATOM     36  C   UNL A   1      29.683  28.348  22.904  1.00  0.00     0.067 A 
BRANCH  36  37
ATOM     37  S   UNL A   1      28.502  29.664  22.706  1.00  0.00     0.175 S 
ATOM     38  C   UNL A   1      26.968  28.977  23.266  1.00  0.00     0.163 C 
ATOM     39  O   UNL A   1      28.893  30.720  23.620  1.00  0.00    -0.224 OA
ATOM     40  O   UNL A   1      28.367  29.923  21.284  1.00  0.00    -0.224 OA
ENDBRANCH  36  37
ENDBRANCH  19  31
ENDBRANCH  11  16
ENDBRANCH   8  10
ENDBRANCH   7   8
ENDBRANCH   6   7
ENDBRANCH   5   6
ENDBRANCH   4   5
ENDBRANCH   3   4
ENDBRANCH   2   3
ENDBRANCH   1   2
BRANCH   1  41
ATOM     41  C   UNL A   1      44.194  26.475  25.691  1.00  0.00     0.188 C 
BRANCH  41  42
ATOM     42  C   UNL A   1      43.407  27.766  26.027  1.00  0.00     0.188 C 
BRANCH  42  43
ATOM     43  O   UNL A   1      43.965  28.554  27.067  1.00  0.00    -0.376 OA
BRANCH  43  44
ATOM     44  C   UNL A   1      43.403  28.435  28.360  1.00  0.00     0.202 C 
BRANCH  44  45
ATOM     45  C   UNL A   1      42.774  29.701  28.952  1.00  0.00     0.261 C 
BRANCH  45  46
ATOM     46  O   UNL A   1      41.342  29.708  29.053  1.00  0.00    -0.460 OA
BRANCH  46  47
ATOM     47  C   UNL A   1      40.790  29.011  30.070  1.00  0.00     0.338 C 
ATOM     48  O   UNL A   1      40.507  27.824  30.074  1.00  0.00    -0.246 OA
BRANCH  47  49
ATOM     49  C   UNL A   1      40.758  29.899  31.250  1.00  0.00     0.060 A 
ATOM     50  C   UNL A   1      39.924  31.025  31.244  1.00  0.00     0.016 A 
ATOM     51  C   UNL A   1      41.536  29.602  32.372  1.00  0.00     0.016 A 
ATOM     52  C   UNL A   1      39.890  31.875  32.351  1.00  0.00     0.010 A 
ATOM     53  C   UNL A   1      41.517  30.464  33.470  1.00  0.00     0.010 A 
ATOM     54  C   UNL A   1      40.717  31.621  33.454  1.00  0.00    -0.014 A 
BRANCH  54  55
ATOM     55  C   UNL A   1      40.907  32.660  34.498  1.00  0.00     0.031 A 
ATOM     56  C   UNL A   1      41.852  33.793  34.202  1.00  0.00     0.074 A 
ATOM     57  C   UNL A   1      40.254  32.609  35.672  1.00  0.00     0.049 A 
ATOM     58  N   UNL A   1      42.253  34.767  34.976  1.00  0.00    -0.248 NA
ATOM     59  C   UNL A   1      42.427  33.823  32.848  1.00  0.00     0.031 C 
ATOM     60  C   UNL A   1      39.273  31.593  36.050  1.00  0.00     0.029 A 
ATOM     61  N   UNL A   1      40.329  33.430  36.770  1.00  0.00    -0.354 N 
ATOM     62  C   UNL A   1      43.132  35.523  34.207  1.00  0.00     0.074 A 
ATOM     63  C   UNL A   1      43.234  34.869  32.920  1.00  0.00     0.031 C 
ATOM     64  C   UNL A   1      38.845  31.847  37.300  1.00  0.00     0.029 A 
ATOM     65  C   UNL A   1      39.555  33.011  37.829  1.00  0.00     0.049 A 
ATOM     66  H   UNL A   1      40.883  34.243  36.798  1.00  0.00     0.167 HD
ATOM     67  C   UNL A   1      43.788  36.661  34.541  1.00  0.00     0.034 A 
ATOM     68  C   UNL A   1      39.460  33.493  39.087  1.00  0.00     0.034 A 
ATOM     69  C   UNL A   1      43.686  37.290  35.835  1.00  0.00     0.049 A 
ATOM     70  C   UNL A   1      40.284  34.703  39.471  1.00  0.00     0.074 A 
ATOM     71  C   UNL A   1      44.301  38.448  36.279  1.00  0.00     0.029 A 
ATOM     72  N   UNL A   1      42.932  36.810  36.898  1.00  0.00    -0.354 N 
ATOM     73  N   UNL A   1      41.113  35.410  38.736  1.00  0.00    -0.248 NA
ATOM     74  C   UNL A   1      40.155  35.182  40.854  1.00  0.00     0.031 C 
ATOM     75  C   UNL A   1      43.987  38.619  37.630  1.00  0.00     0.029 A 
ATOM     76  C   UNL A   1      43.098  37.625  38.006  1.00  0.00     0.049 A 
ATOM     77  H   UNL A   1      42.363  36.006  36.869  1.00  0.00     0.167 HD
ATOM     78  C   UNL A   1      41.569  36.439  39.559  1.00  0.00     0.074 A 
ATOM     79  C   UNL A   1      40.916  36.265  40.839  1.00  0.00     0.031 C 
ATOM     80  C   UNL A   1      42.443  37.441  39.280  1.00  0.00     0.034 A 
BRANCH  67  81
ATOM     81  C   UNL A   1      44.713  37.259  33.511  1.00  0.00     0.023 A 
ATOM     82  C   UNL A   1      46.025  36.787  33.328  1.00  0.00     0.031 A 
ATOM     83  C   UNL A   1      44.284  38.335  32.713  1.00  0.00     0.131 A 
ATOM     84  C   UNL A   1      46.881  37.431  32.421  1.00  0.00     0.055 A 
ATOM     85  C   UNL A   1      45.113  38.916  31.752  1.00  0.00     0.041 A 
ATOM     86  F   UNL A   1      43.053  38.848  32.862  1.00  0.00    -0.206 F 
ATOM     87  C   UNL A   1      46.425  38.473  31.611  1.00  0.00     0.022 A 
BRANCH  84  88
ATOM     88  S   UNL A   1      48.638  36.980  32.416  1.00  0.00     0.124 S 
ATOM     89  O   UNL A   1      48.847  36.598  33.810  1.00  0.00    -0.237 OA
ATOM     90  O   UNL A   1      48.683  35.895  31.444  1.00  0.00    -0.237 OA
ATOM     91  O   UNL A   1      49.306  38.214  32.008  1.00  0.00    -0.744 OA
ENDBRANCH  84  88
ENDBRANCH  67  81
BRANCH  68  92
ATOM     92  C   UNL A   1      38.595  32.817  40.099  1.00  0.00     0.023 A 
ATOM     93  C   UNL A   1      37.205  33.018  40.121  1.00  0.00     0.031 A 
ATOM     94  C   UNL A   1      39.157  32.019  41.112  1.00  0.00     0.131 A 
ATOM     95  C   UNL A   1      36.434  32.477  41.162  1.00  0.00     0.055 A 
ATOM     96  C   UNL A   1      38.377  31.430  42.109  1.00  0.00     0.041 A 
ATOM     97  F   UNL A   1      40.481  31.800  41.149  1.00  0.00    -0.206 F 
ATOM     98  C   UNL A   1      37.008  31.671  42.146  1.00  0.00     0.022 A 
BRANCH  95  99
ATOM     99  S   UNL A   1      34.683  32.938  41.276  1.00  0.00     0.124 S 
ATOM    100  O   UNL A   1      34.260  32.841  39.883  1.00  0.00    -0.237 OA
ATOM    101  O   UNL A   1      34.159  31.919  42.180  1.00  0.00    -0.237 OA
ATOM    102  O   UNL A   1      34.722  34.292  41.824  1.00  0.00    -0.744 OA
ENDBRANCH  95  99
ENDBRANCH  68  92
BRANCH  80 103
ATOM    103  C   UNL A   1      42.695  38.465  40.362  1.00  0.00     0.023 A 
ATOM    104  C   UNL A   1      41.920  39.632  40.484  1.00  0.00     0.031 A 
ATOM    105  C   UNL A   1      43.733  38.264  41.292  1.00  0.00     0.131 A 
ATOM    106  C   UNL A   1      42.228  40.576  41.477  1.00  0.00     0.055 A 
ATOM    107  C   UNL A   1      43.990  39.173  42.319  1.00  0.00     0.041 A 
ATOM    108  F   UNL A   1      44.510  37.170  41.224  1.00  0.00    -0.206 F 
ATOM    109  C   UNL A   1      43.244  40.343  42.407  1.00  0.00     0.022 A 
BRANCH 106 110
ATOM    110  S   UNL A   1      41.347  42.162  41.475  1.00  0.00     0.124 S 
ATOM    111  O   UNL A   1      42.388  43.086  41.912  1.00  0.00    -0.237 OA
ATOM    112  O   UNL A   1      40.926  42.284  40.084  1.00  0.00    -0.237 OA
ATOM    113  O   UNL A   1      40.263  41.953  42.434  1.00  0.00    -0.744 OA
ENDBRANCH 106 110
ENDBRANCH  80 103
ENDBRANCH  54  55
ENDBRANCH  47  49
ENDBRANCH  46  47
ENDBRANCH  45  46
ENDBRANCH  44  45
ENDBRANCH  43  44
ENDBRANCH  42  43
ENDBRANCH  41  42
ENDBRANCH   1  41
TORSDOF 29
ENDMDL
MODEL 2
REMARK VINA RESULT:      -8.8      5.993     10.929
REMARK SMILES COc1ccc([C@H]2CC(c3ccc(S(C)(=O)=O)cc3)=NN2c2ccc(C(=O)OCCOCCOCCOCCOC(=O)c3ccc(-c4c5nc(c(-c6cc(S(=O)(=O)[O-])ccc6F)c6ccc([nH]6)c(-c6cc(S(=O)(=O)[O-])ccc6F)c6nc(c(-c7cc(S(=O)(=O)[O-])ccc7F)c7ccc4[nH]7)C=C6)C=C5)cc3)cc2)cc1OC
REMARK SMILES IDX 34 1 33 2 32 3 31 4 30 5 29 6 28 7 26 8 27 9 25 10 22 11
REMARK SMILES IDX 23 12 107 13 24 14 106 15 21 16 7 17 8 18 9 19 20 20 6 21
REMARK SMILES IDX 3 22 4 23 109 24 5 25 108 26 2 27 1 28 110 29 111 30 10 31
REMARK SMILES IDX 11 32 19 33 12 34 18 35 13 36 14 37 15 38 16 39 17 40 35 41
REMARK SMILES IDX 36 42 37 43 38 44 39 45 40 46 41 47 42 48 43 49 44 50 105 51
REMARK SMILES IDX 45 52 104 53 46 54 47 55 48 56 98 57 49 58 103 59 97 60
REMARK SMILES IDX 99 61 50 62 102 63 96 64 95 65 51 67 83 68 63 69 82 70 64 71
REMARK SMILES IDX 67 72 81 73 100 74 65 75 66 76 80 78 101 79 68 80 52 81
REMARK SMILES IDX 53 82 61 83 54 84 60 85 62 86 59 87 55 88 56 89 57 90 58 91
REMARK SMILES IDX 84 92 85 93 93 94 86 95 92 96 94 97 91 98 87 99 88 100
REMARK SMILES IDX 89 101 90 102 69 103 70 104 78 105 71 106 77 107 79 108
REMARK SMILES IDX 76 109 72 110 73 111 74 112 75 113
REMARK H PARENT 99 66 67 77
REMARK Flexibility Score: inf
ROOT
ATOM      1  O   UNL A   1      38.051  23.943  25.833  1.00  0.00    -0.377 OA
ENDROOT
BRANCH   1   2
ATOM      2  C   UNL A   1      36.824  23.284  25.565  1.00  0.00     0.188 C 
BRANCH   2   3
ATOM      3  C   UNL A   1      35.660  24.136  25.021  1.00  0.00     0.188 C 
BRANCH   3   4
ATOM      4  O   UNL A   1      34.381  23.678  25.419  1.00  0.00    -0.376 OA
BRANCH   4   5
ATOM      5  C   UNL A   1      33.283  24.572  25.433  1.00  0.00     0.202 C 
BRANCH   5   6
ATOM      6  C   UNL A   1      33.363  25.917  26.174  1.00  0.00     0.261 C 
BRANCH   6   7
ATOM      7  O   UNL A   1      33.494  27.092  25.368  1.00  0.00    -0.460 OA
BRANCH   7   8
ATOM      8  C   UNL A   1      33.017  28.246  25.879  1.00  0.00     0.338 C 
ATOM      9  O   UNL A   1      31.868  28.649  25.828  1.00  0.00    -0.246 OA
BRANCH   8  10
ATOM     10  C   UNL A   1      34.088  28.862  26.697  1.00  0.00     0.060 A 
ATOM     11  C   UNL A   1      36.196  29.929  28.217  1.00  0.00     0.060 A 
ATOM     12  C   UNL A   1      36.382  29.621  26.864  1.00  0.00     0.029 A 
ATOM     13  C   UNL A   1      34.912  29.790  28.765  1.00  0.00     0.029 A 
ATOM     14  C   UNL A   1      35.346  29.057  26.115  1.00  0.00     0.018 A 
ATOM     15  C   UNL A   1      33.855  29.280  28.009  1.00  0.00     0.018 A 
BRANCH  11  16
ATOM     16  N   UNL A   1      37.278  30.256  29.031  1.00  0.00    -0.257 N 
ATOM     17  C   UNL A   1      37.778  31.633  29.112  1.00  0.00     0.144 C 
ATOM     18  C   UNL A   1      38.805  31.544  30.245  1.00  0.00     0.091 C 
ATOM     19  C   UNL A   1      38.606  30.118  30.679  1.00  0.00     0.071 C 
ATOM     20  N   UNL A   1      37.734  29.429  30.012  1.00  0.00    -0.176 NA
BRANCH  17  21
ATOM     21  C   UNL A   1      36.679  32.653  29.402  1.00  0.00    -0.019 A 
ATOM     22  C   UNL A   1      34.622  34.517  29.928  1.00  0.00     0.160 A 
ATOM     23  C   UNL A   1      35.050  34.279  28.616  1.00  0.00     0.051 A 
ATOM     24  C   UNL A   1      35.196  33.809  30.989  1.00  0.00     0.161 A 
ATOM     25  C   UNL A   1      36.073  33.359  28.354  1.00  0.00     0.010 A 
ATOM     26  C   UNL A   1      36.216  32.885  30.710  1.00  0.00     0.056 A 
BRANCH  22  27
ATOM     27  O   UNL A   1      33.551  35.351  30.107  1.00  0.00    -0.493 OA
ATOM     28  C   UNL A   1      33.199  36.043  28.910  1.00  0.00     0.278 C 
ENDBRANCH  22  27
BRANCH  24  29
ATOM     29  O   UNL A   1      34.884  33.859  32.321  1.00  0.00    -0.493 OA
ATOM     30  C   UNL A   1      35.283  32.782  33.153  1.00  0.00     0.278 C 
ENDBRANCH  24  29
ENDBRANCH  17  21
BRANCH  19  31
ATOM     31  C   UNL A   1      39.422  29.563  31.767  1.00  0.00    -0.002 A 
ATOM     32  C   UNL A   1      39.385  30.175  33.025  1.00  0.00     0.011 A 
ATOM     33  C   UNL A   1      40.176  28.406  31.557  1.00  0.00     0.011 A 
ATOM     34  C   UNL A   1      40.092  29.612  34.091  1.00  0.00     0.021 A 
ATOM     35  C   UNL A   1      40.903  27.854  32.615  1.00  0.00     0.021 A 
ATOM     36  C   UNL A   1      40.855  28.458  33.877  1.00  0.00     0.067 A 
BRANCH  36  37
ATOM     37  S   UNL A   1      41.729  27.723  35.242  1.00  0.00     0.175 S 
ATOM     38  C   UNL A   1      41.162  26.045  35.285  1.00  0.00     0.163 C 
ATOM     39  O   UNL A   1      43.136  27.724  34.888  1.00  0.00    -0.224 OA
ATOM     40  O   UNL A   1      41.268  28.368  36.458  1.00  0.00    -0.224 OA
ENDBRANCH  36  37
ENDBRANCH  19  31
ENDBRANCH  11  16
ENDBRANCH   8  10
ENDBRANCH   7   8
ENDBRANCH   6   7
ENDBRANCH   5   6
ENDBRANCH   4   5
ENDBRANCH   3   4
ENDBRANCH   2   3
ENDBRANCH   1   2
BRANCH   1  41
ATOM     41  C   UNL A   1      38.969  23.393  26.777  1.00  0.00     0.188 C 
BRANCH  41  42
ATOM     42  C   UNL A   1      40.329  22.777  26.366  1.00  0.00     0.188 C 
BRANCH  42  43
ATOM     43  O   UNL A   1      41.452  23.623  26.555  1.00  0.00    -0.376 OA
BRANCH  43  44
ATOM     44  C   UNL A   1      42.727  23.017  26.644  1.00  0.00     0.202 C 
BRANCH  44  45
ATOM     45  C   UNL A   1      43.926  23.963  26.790  1.00  0.00     0.261 C 
BRANCH  45  46
ATOM     46  O   UNL A   1      44.087  24.945  25.757  1.00  0.00    -0.460 OA
BRANCH  46  47
ATOM     47  C   UNL A   1      43.298  26.040  25.815  1.00  0.00     0.338 C 
ATOM     48  O   UNL A   1      42.452  26.376  25.003  1.00  0.00    -0.246 OA
BRANCH  47  49
ATOM     49  C   UNL A   1      43.510  26.668  27.135  1.00  0.00     0.060 A 
ATOM     50  C   UNL A   1      44.670  27.420  27.363  1.00  0.00     0.016 A 
ATOM     51  C   UNL A   1      42.547  26.532  28.138  1.00  0.00     0.016 A 
ATOM     52  C   UNL A   1      44.883  28.014  28.609  1.00  0.00     0.010 A 
ATOM     53  C   UNL A   1      42.772  27.109  29.390  1.00  0.00     0.010 A 
ATOM     54  C   UNL A   1      43.955  27.827  29.642  1.00  0.00    -0.014 A 
BRANCH  54  55
ATOM     55  C   UNL A   1      44.306  28.199  31.036  1.00  0.00     0.031 A 
ATOM     56  C   UNL A   1      45.159  27.246  31.828  1.00  0.00     0.074 A 
ATOM     57  C   UNL A   1      43.889  29.354  31.585  1.00  0.00     0.049 A 
ATOM     58  N   UNL A   1      45.525  27.299  33.081  1.00  0.00    -0.248 NA
ATOM     59  C   UNL A   1      45.661  26.067  31.102  1.00  0.00     0.031 C 
ATOM     60  C   UNL A   1      43.106  30.381  30.900  1.00  0.00     0.029 A 
ATOM     61  N   UNL A   1      44.060  29.850  32.854  1.00  0.00    -0.354 N 
ATOM     62  C   UNL A   1      46.294  26.160  33.299  1.00  0.00     0.074 A 
ATOM     63  C   UNL A   1      46.307  25.417  32.056  1.00  0.00     0.031 C 
ATOM     64  C   UNL A   1      42.855  31.382  31.763  1.00  0.00     0.029 A 
ATOM     65  C   UNL A   1      43.415  31.047  33.072  1.00  0.00     0.049 A 
ATOM     66  H   UNL A   1      44.594  29.394  33.543  1.00  0.00     0.167 HD
ATOM     67  C   UNL A   1      46.936  25.773  34.428  1.00  0.00     0.034 A 
ATOM     68  C   UNL A   1      43.269  31.767  34.204  1.00  0.00     0.034 A 
ATOM     69  C   UNL A   1      46.900  26.519  35.662  1.00  0.00     0.049 A 
ATOM     70  C   UNL A   1      43.905  31.261  35.481  1.00  0.00     0.074 A 
ATOM     71  C   UNL A   1      47.518  26.223  36.864  1.00  0.00     0.029 A 
ATOM     72  N   UNL A   1      46.196  27.700  35.859  1.00  0.00    -0.354 N 
ATOM     73  N   UNL A   1      44.630  30.183  35.676  1.00  0.00    -0.248 NA
ATOM     74  C   UNL A   1      43.706  32.073  36.689  1.00  0.00     0.031 C 
ATOM     75  C   UNL A   1      47.121  27.176  37.807  1.00  0.00     0.029 A 
ATOM     76  C   UNL A   1      46.334  28.122  37.172  1.00  0.00     0.049 A 
ATOM     77  H   UNL A   1      45.674  28.169  35.167  1.00  0.00     0.167 HD
ATOM     78  C   UNL A   1      45.006  30.213  37.018  1.00  0.00     0.074 A 
ATOM     79  C   UNL A   1      44.436  31.419  37.580  1.00  0.00     0.031 C 
ATOM     80  C   UNL A   1      45.759  29.328  37.722  1.00  0.00     0.034 A 
BRANCH  67  81
ATOM     81  C   UNL A   1      47.680  24.461  34.391  1.00  0.00     0.023 A 
ATOM     82  C   UNL A   1      49.017  24.377  33.966  1.00  0.00     0.031 A 
ATOM     83  C   UNL A   1      47.033  23.270  34.766  1.00  0.00     0.131 A 
ATOM     84  C   UNL A   1      49.642  23.125  33.862  1.00  0.00     0.055 A 
ATOM     85  C   UNL A   1      47.687  22.037  34.742  1.00  0.00     0.041 A 
ATOM     86  F   UNL A   1      45.748  23.283  35.153  1.00  0.00    -0.206 F 
ATOM     87  C   UNL A   1      48.996  21.957  34.275  1.00  0.00     0.022 A 
BRANCH  84  88
ATOM     88  S   UNL A   1      51.259  23.026  33.047  1.00  0.00     0.124 S 
ATOM     89  O   UNL A   1      52.167  23.290  34.161  1.00  0.00    -0.237 OA
ATOM     90  O   UNL A   1      51.268  21.664  32.526  1.00  0.00    -0.237 OA
ATOM     91  O   UNL A   1      51.199  24.081  32.038  1.00  0.00    -0.744 OA
ENDBRANCH  84  88
ENDBRANCH  67  81
BRANCH  68  92
ATOM     92  C   UNL A   1      42.452  33.017  34.213  1.00  0.00     0.023 A 
ATOM     93  C   UNL A   1      41.142  33.028  34.720  1.00  0.00     0.031 A 
ATOM     94  C   UNL A   1      42.942  34.205  33.643  1.00  0.00     0.131 A 
ATOM     95  C   UNL A   1      40.351  34.181  34.595  1.00  0.00     0.055 A 
ATOM     96  C   UNL A   1      42.174  35.369  33.580  1.00  0.00     0.041 A 
ATOM     97  F   UNL A   1      44.184  34.253  33.133  1.00  0.00    -0.206 F 
ATOM     98  C   UNL A   1      40.863  35.356  34.044  1.00  0.00     0.022 A 
BRANCH  95  99
ATOM     99  S   UNL A   1      38.599  34.088  35.062  1.00  0.00     0.124 S 
ATOM    100  O   UNL A   1      38.631  34.592  36.431  1.00  0.00    -0.237 OA
ATOM    101  O   UNL A   1      37.975  34.957  34.071  1.00  0.00    -0.237 OA
ATOM    102  O   UNL A   1      38.287  32.666  34.927  1.00  0.00    -0.744 OA
ENDBRANCH  95  99
ENDBRANCH  68  92
BRANCH  80 103
ATOM    103  C   UNL A   1      46.063  29.665  39.164  1.00  0.00     0.023 A 
ATOM    104  C   UNL A   1      45.296  29.159  40.228  1.00  0.00     0.031 A 
ATOM    105  C   UNL A   1      47.148  30.507  39.474  1.00  0.00     0.131 A 
ATOM    106  C   UNL A   1      45.591  29.543  41.546  1.00  0.00     0.055 A 
ATOM    107  C   UNL A   1      47.478  30.829  40.791  1.00  0.00     0.041 A 
ATOM    108  F   UNL A   1      47.915  31.023  38.500  1.00  0.00    -0.206 F 
ATOM    109  C   UNL A   1      46.689  30.357  41.835  1.00  0.00     0.022 A 
BRANCH 106 110
ATOM    110  S   UNL A   1      44.458  29.045  42.873  1.00  0.00     0.124 S 
ATOM    111  O   UNL A   1      43.282  29.860  42.589  1.00  0.00    -0.237 OA
ATOM    112  O   UNL A   1      44.315  27.612  42.639  1.00  0.00    -0.237 OA
ATOM    113  O   UNL A   1      45.180  29.403  44.093  1.00  0.00    -0.744 OA
ENDBRANCH 106 110
ENDBRANCH  80 103
ENDBRANCH  54  55
ENDBRANCH  47  49
ENDBRANCH  46  47
ENDBRANCH  45  46
ENDBRANCH  44  45
ENDBRANCH  43  44
ENDBRANCH  42  43
ENDBRANCH  41  42
ENDBRANCH   1  41
TORSDOF 29
ENDMDL
MODEL 3
REMARK VINA RESULT:      -8.2      8.250     15.727
REMARK SMILES COc1ccc([C@H]2CC(c3ccc(S(C)(=O)=O)cc3)=NN2c2ccc(C(=O)OCCOCCOCCOCCOC(=O)c3ccc(-c4c5nc(c(-c6cc(S(=O)(=O)[O-])ccc6F)c6ccc([nH]6)c(-c6cc(S(=O)(=O)[O-])ccc6F)c6nc(c(-c7cc(S(=O)(=O)[O-])ccc7F)c7ccc4[nH]7)C=C6)C=C5)cc3)cc2)cc1OC
REMARK SMILES IDX 34 1 33 2 32 3 31 4 30 5 29 6 28 7 26 8 27 9 25 10 22 11
REMARK SMILES IDX 23 12 107 13 24 14 106 15 21 16 7 17 8 18 9 19 20 20 6 21
REMARK SMILES IDX 3 22 4 23 109 24 5 25 108 26 2 27 1 28 110 29 111 30 10 31
REMARK SMILES IDX 11 32 19 33 12 34 18 35 13 36 14 37 15 38 16 39 17 40 35 41
REMARK SMILES IDX 36 42 37 43 38 44 39 45 40 46 41 47 42 48 43 49 44 50 105 51
REMARK SMILES IDX 45 52 104 53 46 54 47 55 48 56 98 57 49 58 103 59 97 60
REMARK SMILES IDX 99 61 50 62 102 63 96 64 95 65 51 67 83 68 63 69 82 70 64 71
REMARK SMILES IDX 67 72 81 73 100 74 65 75 66 76 80 78 101 79 68 80 52 81
REMARK SMILES IDX 53 82 61 83 54 84 60 85 62 86 59 87 55 88 56 89 57 90 58 91
REMARK SMILES IDX 84 92 85 93 93 94 86 95 92 96 94 97 91 98 87 99 88 100
REMARK SMILES IDX 89 101 90 102 69 103 70 104 78 105 71 106 77 107 79 108
REMARK SMILES IDX 76 109 72 110 73 111 74 112 75 113
REMARK H PARENT 99 66 67 77
REMARK Flexibility Score: inf
ROOT
ATOM      1  O   UNL A   1      38.963  32.971  37.232  1.00  0.00    -0.377 OA
ENDROOT
BRANCH   1   2
ATOM      2  C   UNL A   1      39.523  34.273  37.220  1.00  0.00     0.188 C 
BRANCH   2   3
ATOM      3  C   UNL A   1      39.251  35.180  38.438  1.00  0.00     0.188 C 
BRANCH   3   4
ATOM      4  O   UNL A   1      40.416  35.778  38.977  1.00  0.00    -0.376 OA
BRANCH   4   5
ATOM      5  C   UNL A   1      40.603  37.177  38.876  1.00  0.00     0.202 C 
BRANCH   5   6
ATOM      6  C   UNL A   1      41.951  37.827  39.230  1.00  0.00     0.261 C 
BRANCH   6   7
ATOM      7  O   UNL A   1      43.124  37.224  38.675  1.00  0.00    -0.460 OA
BRANCH   7   8
ATOM      8  C   UNL A   1      43.334  37.388  37.352  1.00  0.00     0.338 C 
ATOM      9  O   UNL A   1      43.783  38.377  36.799  1.00  0.00    -0.246 OA
BRANCH   8  10
ATOM     10  C   UNL A   1      43.114  36.081  36.689  1.00  0.00     0.060 A 
ATOM     11  C   UNL A   1      42.825  33.583  35.435  1.00  0.00     0.060 A 
ATOM     12  C   UNL A   1      43.465  33.685  36.676  1.00  0.00     0.029 A 
ATOM     13  C   UNL A   1      42.242  34.736  34.886  1.00  0.00     0.029 A 
ATOM     14  C   UNL A   1      43.642  34.930  37.284  1.00  0.00     0.018 A 
ATOM     15  C   UNL A   1      42.364  35.977  35.514  1.00  0.00     0.018 A 
BRANCH  11  16
ATOM     16  N   UNL A   1      42.859  32.396  34.708  1.00  0.00    -0.257 N 
ATOM     17  C   UNL A   1      43.206  32.388  33.283  1.00  0.00     0.144 C 
ATOM     18  C   UNL A   1      43.309  30.891  32.977  1.00  0.00     0.091 C 
ATOM     19  C   UNL A   1      43.105  30.320  34.354  1.00  0.00     0.071 C 
ATOM     20  N   UNL A   1      42.886  31.173  35.305  1.00  0.00    -0.176 NA
BRANCH  17  21
ATOM     21  C   UNL A   1      44.503  33.135  32.978  1.00  0.00    -0.019 A 
ATOM     22  C   UNL A   1      46.909  34.492  32.386  1.00  0.00     0.160 A 
ATOM     23  C   UNL A   1      46.921  33.322  33.157  1.00  0.00     0.051 A 
ATOM     24  C   UNL A   1      45.701  34.983  31.880  1.00  0.00     0.161 A 
ATOM     25  C   UNL A   1      45.729  32.651  33.455  1.00  0.00     0.010 A 
ATOM     26  C   UNL A   1      44.515  34.295  32.182  1.00  0.00     0.056 A 
BRANCH  22  27
ATOM     27  O   UNL A   1      48.116  35.043  32.047  1.00  0.00    -0.493 OA
ATOM     28  C   UNL A   1      48.709  34.395  30.922  1.00  0.00     0.278 C 
ENDBRANCH  22  27
BRANCH  24  29
ATOM     29  O   UNL A   1      45.488  36.068  31.074  1.00  0.00    -0.493 OA
ATOM     30  C   UNL A   1      45.179  37.313  31.679  1.00  0.00     0.278 C 
ENDBRANCH  24  29
ENDBRANCH  17  21
BRANCH  19  31
ATOM     31  C   UNL A   1      43.105  28.864  34.549  1.00  0.00    -0.002 A 
ATOM     32  C   UNL A   1      43.143  28.027  33.428  1.00  0.00     0.011 A 
ATOM     33  C   UNL A   1      43.123  28.330  35.841  1.00  0.00     0.011 A 
ATOM     34  C   UNL A   1      43.224  26.642  33.599  1.00  0.00     0.021 A 
ATOM     35  C   UNL A   1      43.181  26.945  36.014  1.00  0.00     0.021 A 
ATOM     36  C   UNL A   1      43.234  26.109  34.893  1.00  0.00     0.067 A 
BRANCH  36  37
ATOM     37  S   UNL A   1      43.369  24.348  35.111  1.00  0.00     0.175 S 
ATOM     38  C   UNL A   1      44.149  23.772  33.627  1.00  0.00     0.163 C 
ATOM     39  O   UNL A   1      44.276  24.131  36.221  1.00  0.00    -0.224 OA
ATOM     40  O   UNL A   1      42.024  23.803  35.132  1.00  0.00    -0.224 OA
ENDBRANCH  36  37
ENDBRANCH  19  31
ENDBRANCH  11  16
ENDBRANCH   8  10
ENDBRANCH   7   8
ENDBRANCH   6   7
ENDBRANCH   5   6
ENDBRANCH   4   5
ENDBRANCH   3   4
ENDBRANCH   2   3
ENDBRANCH   1   2
BRANCH   1  41
ATOM     41  C   UNL A   1      38.780  32.256  36.011  1.00  0.00     0.188 C 
BRANCH  41  42
ATOM     42  C   UNL A   1      37.603  32.533  35.043  1.00  0.00     0.188 C 
BRANCH  42  43
ATOM     43  O   UNL A   1      37.302  33.904  34.842  1.00  0.00    -0.376 OA
BRANCH  43  44
ATOM     44  C   UNL A   1      36.012  34.233  34.361  1.00  0.00     0.202 C 
BRANCH  44  45
ATOM     45  C   UNL A   1      35.793  34.111  32.849  1.00  0.00     0.261 C 
BRANCH  45  46
ATOM     46  O   UNL A   1      36.918  34.435  32.018  1.00  0.00    -0.460 OA
BRANCH  46  47
ATOM     47  C   UNL A   1      37.506  33.419  31.349  1.00  0.00     0.338 C 
ATOM     48  O   UNL A   1      37.023  32.322  31.114  1.00  0.00    -0.246 OA
BRANCH  47  49
ATOM     49  C   UNL A   1      38.771  33.932  30.786  1.00  0.00     0.060 A 
ATOM     50  C   UNL A   1      38.836  34.263  29.425  1.00  0.00     0.016 A 
ATOM     51  C   UNL A   1      39.885  34.108  31.610  1.00  0.00     0.016 A 
ATOM     52  C   UNL A   1      40.028  34.744  28.880  1.00  0.00     0.010 A 
ATOM     53  C   UNL A   1      41.082  34.568  31.059  1.00  0.00     0.010 A 
ATOM     54  C   UNL A   1      41.169  34.860  29.685  1.00  0.00    -0.014 A 
BRANCH  54  55
ATOM     55  C   UNL A   1      42.499  35.085  29.065  1.00  0.00     0.031 A 
ATOM     56  C   UNL A   1      43.445  33.918  28.980  1.00  0.00     0.074 A 
ATOM     57  C   UNL A   1      42.859  36.287  28.581  1.00  0.00     0.049 A 
ATOM     58  N   UNL A   1      44.684  33.878  28.567  1.00  0.00    -0.248 NA
ATOM     59  C   UNL A   1      42.917  32.620  29.429  1.00  0.00     0.031 C 
ATOM     60  C   UNL A   1      42.009  37.477  28.556  1.00  0.00     0.029 A 
ATOM     61  N   UNL A   1      44.042  36.707  28.025  1.00  0.00    -0.354 N 
ATOM     62  C   UNL A   1      45.089  32.555  28.714  1.00  0.00     0.074 A 
ATOM     63  C   UNL A   1      43.973  31.835  29.290  1.00  0.00     0.031 C 
ATOM     64  C   UNL A   1      42.705  38.496  28.021  1.00  0.00     0.029 A 
ATOM     65  C   UNL A   1      44.062  38.047  27.711  1.00  0.00     0.049 A 
ATOM     66  H   UNL A   1      44.804  36.106  27.864  1.00  0.00     0.167 HD
ATOM     67  C   UNL A   1      46.278  31.991  28.390  1.00  0.00     0.034 A 
ATOM     68  C   UNL A   1      45.070  38.824  27.260  1.00  0.00     0.034 A 
ATOM     69  C   UNL A   1      47.385  32.728  27.831  1.00  0.00     0.049 A 
ATOM     70  C   UNL A   1      46.423  38.195  27.007  1.00  0.00     0.074 A 
ATOM     71  C   UNL A   1      48.632  32.256  27.460  1.00  0.00     0.029 A 
ATOM     72  N   UNL A   1      47.385  34.092  27.574  1.00  0.00    -0.354 N 
ATOM     73  N   UNL A   1      46.794  36.942  27.149  1.00  0.00    -0.248 NA
ATOM     74  C   UNL A   1      47.490  39.084  26.528  1.00  0.00     0.031 C 
ATOM     75  C   UNL A   1      49.411  33.346  27.061  1.00  0.00     0.029 A 
ATOM     76  C   UNL A   1      48.623  34.485  27.088  1.00  0.00     0.049 A 
ATOM     77  H   UNL A   1      46.618  34.694  27.717  1.00  0.00     0.167 HD
ATOM     78  C   UNL A   1      48.125  36.890  26.737  1.00  0.00     0.074 A 
ATOM     79  C   UNL A   1      48.486  38.233  26.333  1.00  0.00     0.031 C 
ATOM     80  C   UNL A   1      48.971  35.829  26.689  1.00  0.00     0.034 A 
BRANCH  67  81
ATOM     81  C   UNL A   1      46.456  30.523  28.689  1.00  0.00     0.023 A 
ATOM     82  C   UNL A   1      46.161  29.531  27.738  1.00  0.00     0.031 A 
ATOM     83  C   UNL A   1      46.909  30.108  29.954  1.00  0.00     0.131 A 
ATOM     84  C   UNL A   1      46.256  28.175  28.089  1.00  0.00     0.055 A 
ATOM     85  C   UNL A   1      47.083  28.760  30.269  1.00  0.00     0.041 A 
ATOM     86  F   UNL A   1      47.180  31.008  30.913  1.00  0.00    -0.206 F 
ATOM     87  C   UNL A   1      46.743  27.783  29.338  1.00  0.00     0.022 A 
BRANCH  84  88
ATOM     88  S   UNL A   1      45.600  26.933  26.941  1.00  0.00     0.124 S 
ATOM     89  O   UNL A   1      46.798  26.159  26.628  1.00  0.00    -0.237 OA
ATOM     90  O   UNL A   1      44.595  26.255  27.751  1.00  0.00    -0.237 OA
ATOM     91  O   UNL A   1      45.076  27.733  25.836  1.00  0.00    -0.744 OA
ENDBRANCH  84  88
ENDBRANCH  67  81
BRANCH  68  92
ATOM     92  C   UNL A   1      44.872  40.290  27.059  1.00  0.00     0.023 A 
ATOM     93  C   UNL A   1      44.401  40.802  25.839  1.00  0.00     0.031 A 
ATOM     94  C   UNL A   1      45.225  41.211  28.062  1.00  0.00     0.131 A 
ATOM     95  C   UNL A   1      44.350  42.190  25.633  1.00  0.00     0.055 A 
ATOM     96  C   UNL A   1      45.111  42.590  27.875  1.00  0.00     0.041 A 
ATOM     97  F   UNL A   1      45.691  40.782  29.246  1.00  0.00    -0.206 F 
ATOM     98  C   UNL A   1      44.686  43.087  26.648  1.00  0.00     0.022 A 
BRANCH  95  99
ATOM     99  S   UNL A   1      43.945  42.808  23.975  1.00  0.00     0.124 S 
ATOM    100  O   UNL A   1      42.662  42.161  23.724  1.00  0.00    -0.237 OA
ATOM    101  O   UNL A   1      43.906  44.251  24.191  1.00  0.00    -0.237 OA
ATOM    102  O   UNL A   1      45.057  42.332  23.155  1.00  0.00    -0.744 OA
ENDBRANCH  95  99
ENDBRANCH  68  92
BRANCH  80 103
ATOM    103  C   UNL A   1      50.353  36.064  26.123  1.00  0.00     0.023 A 
ATOM    104  C   UNL A   1      51.482  36.219  26.946  1.00  0.00     0.031 A 
ATOM    105  C   UNL A   1      50.539  36.129  24.729  1.00  0.00     0.131 A 
ATOM    106  C   UNL A   1      52.735  36.485  26.371  1.00  0.00     0.055 A 
ATOM    107  C   UNL A   1      51.798  36.326  24.161  1.00  0.00     0.041 A 
ATOM    108  F   UNL A   1      49.497  35.992  23.892  1.00  0.00    -0.206 F 
ATOM    109  C   UNL A   1      52.903  36.519  24.983  1.00  0.00     0.022 A 
BRANCH 106 110
ATOM    110  S   UNL A   1      54.128  36.888  27.461  1.00  0.00     0.124 S 
ATOM    111  O   UNL A   1      53.618  38.047  28.188  1.00  0.00    -0.237 OA
ATOM    112  O   UNL A   1      54.280  35.663  28.239  1.00  0.00    -0.237 OA
ATOM    113  O   UNL A   1      55.220  37.172  26.532  1.00  0.00    -0.744 OA
ENDBRANCH 106 110
ENDBRANCH  80 103
ENDBRANCH  54  55
ENDBRANCH  47  49
ENDBRANCH  46  47
ENDBRANCH  45  46
ENDBRANCH  44  45
ENDBRANCH  43  44
ENDBRANCH  42  43
ENDBRANCH  41  42
ENDBRANCH   1  41
TORSDOF 29
ENDMDL
