MODEL 1
REMARK VINA RESULT:      -8.3      0.000      0.000
REMARK SMILES CC[C@H](NC(=O)NC[C@@]1(C)CCCO1)C(=O)OCCOCCOCCOCCOC(=O)c1ccc(-c2c3nc(c(-c4cc(S(=O)(=O)[O-])ccc4F)c4ccc([nH]4)c(-c4cc(S(=O)(=O)[O-])ccc4F)c4nc(c(-c5cc(S(=O)(=O)[O-])ccc5F)c5ccc2[nH]5)C=C4)C=C3)cc1
REMARK SMILES IDX 23 1 22 2 21 3 20 4 19 5 18 6 17 7 15 8 16 9 3 10 2 11 1 12
REMARK SMILES IDX 4 13 5 14 6 16 7 17 8 19 9 20 10 21 11 22 14 23 12 24 13 25
REMARK SMILES IDX 24 26 25 27 26 28 27 29 28 30 29 31 30 32 31 33 32 34 33 35
REMARK SMILES IDX 94 36 34 37 93 38 35 39 36 40 37 41 87 42 38 43 92 44 86 45
REMARK SMILES IDX 88 46 39 47 91 48 85 49 84 50 40 52 72 53 52 54 71 55 53 56
REMARK SMILES IDX 56 57 70 58 89 59 54 60 55 61 69 63 90 64 57 65 41 66 42 67
REMARK SMILES IDX 50 68 43 69 49 70 51 71 48 72 44 73 45 74 46 75 47 76 73 77
REMARK SMILES IDX 74 78 82 79 75 80 81 81 83 82 80 83 76 84 77 85 78 86 79 87
REMARK SMILES IDX 58 88 59 89 67 90 60 91 66 92 68 93 65 94 61 95 62 96 63 97
REMARK SMILES IDX 64 98
REMARK H PARENT 4 15 7 18 88 51 56 62
REMARK Flexibility Score: inf
ROOT
ATOM      1  O   UNL A   1      32.705  23.982  25.615  1.00  0.00    -0.377 OA
ENDROOT
BRANCH   1   2
ATOM      2  C   UNL A   1      31.936  23.027  26.310  1.00  0.00     0.188 C 
BRANCH   2   3
ATOM      3  C   UNL A   1      30.417  23.245  26.250  1.00  0.00     0.188 C 
BRANCH   3   4
ATOM      4  O   UNL A   1      29.805  24.396  26.812  1.00  0.00    -0.376 OA
BRANCH   4   5
ATOM      5  C   UNL A   1      29.669  25.601  26.070  1.00  0.00     0.202 C 
BRANCH   5   6
ATOM      6  C   UNL A   1      29.908  25.651  24.551  1.00  0.00     0.261 C 
BRANCH   6   7
ATOM      7  O   UNL A   1      30.755  26.714  24.078  1.00  0.00    -0.462 OA
BRANCH   7   8
ATOM      8  C   UNL A   1      31.177  26.604  22.796  1.00  0.00     0.328 C 
ATOM      9  O   UNL A   1      30.722  27.256  21.859  1.00  0.00    -0.250 OA
BRANCH   8  10
ATOM     10  C   UNL A   1      32.327  25.589  22.599  1.00  0.00     0.193 C 
BRANCH  10  11
ATOM     11  C   UNL A   1      33.088  26.023  21.343  1.00  0.00     0.033 C 
ATOM     12  C   UNL A   1      32.525  25.377  20.091  1.00  0.00     0.007 C 
ENDBRANCH  10  11
BRANCH  10  13
ATOM     13  N   UNL A   1      31.987  24.164  22.491  1.00  0.00    -0.325 N 
ATOM     14  C   UNL A   1      32.651  23.008  22.555  1.00  0.00     0.315 C 
ATOM     15  H   UNL A   1      31.025  24.028  22.330  1.00  0.00     0.166 HD
ATOM     16  O   UNL A   1      32.042  21.977  22.255  1.00  0.00    -0.249 OA
ATOM     17  N   UNL A   1      33.917  22.840  22.944  1.00  0.00    -0.335 N 
ATOM     18  H   UNL A   1      34.181  21.894  22.863  1.00  0.00     0.165 HD
BRANCH  17  19
ATOM     19  C   UNL A   1      35.027  23.638  23.451  1.00  0.00     0.152 C 
BRANCH  19  20
ATOM     20  C   UNL A   1      35.968  22.883  24.430  1.00  0.00     0.083 C 
ATOM     21  C   UNL A   1      36.633  23.855  25.410  1.00  0.00     0.044 C 
ATOM     22  C   UNL A   1      35.298  21.718  25.164  1.00  0.00     0.039 C 
ATOM     23  O   UNL A   1      37.032  22.260  23.667  1.00  0.00    -0.373 OA
ATOM     24  C   UNL A   1      36.459  20.796  25.460  1.00  0.00     0.031 C 
ATOM     25  C   UNL A   1      37.331  20.973  24.235  1.00  0.00     0.161 C 
ENDBRANCH  19  20
ENDBRANCH  17  19
ENDBRANCH  10  13
ENDBRANCH   8  10
ENDBRANCH   7   8
ENDBRANCH   6   7
ENDBRANCH   5   6
ENDBRANCH   4   5
ENDBRANCH   3   4
ENDBRANCH   2   3
ENDBRANCH   1   2
BRANCH   1  26
ATOM     26  C   UNL A   1      33.234  25.049  26.394  1.00  0.00     0.188 C 
BRANCH  26  27
ATOM     27  C   UNL A   1      34.018  26.152  25.650  1.00  0.00     0.188 C 
BRANCH  27  28
ATOM     28  O   UNL A   1      33.426  27.445  25.725  1.00  0.00    -0.376 OA
BRANCH  28  29
ATOM     29  C   UNL A   1      32.658  27.779  26.871  1.00  0.00     0.202 C 
BRANCH  29  30
ATOM     30  C   UNL A   1      32.523  29.264  27.258  1.00  0.00     0.261 C 
BRANCH  30  31
ATOM     31  O   UNL A   1      33.508  29.795  28.157  1.00  0.00    -0.460 OA
BRANCH  31  32
ATOM     32  C   UNL A   1      34.416  30.664  27.667  1.00  0.00     0.338 C 
ATOM     33  O   UNL A   1      34.188  31.640  26.972  1.00  0.00    -0.246 OA
BRANCH  32  34
ATOM     34  C   UNL A   1      35.720  30.360  28.298  1.00  0.00     0.060 A 
ATOM     35  C   UNL A   1      36.893  30.834  27.695  1.00  0.00     0.016 A 
ATOM     36  C   UNL A   1      35.787  29.617  29.479  1.00  0.00     0.016 A 
ATOM     37  C   UNL A   1      38.137  30.533  28.248  1.00  0.00     0.010 A 
ATOM     38  C   UNL A   1      37.037  29.294  30.019  1.00  0.00     0.010 A 
ATOM     39  C   UNL A   1      38.218  29.720  29.385  1.00  0.00    -0.014 A 
BRANCH  39  40
ATOM     40  C   UNL A   1      39.527  29.137  29.779  1.00  0.00     0.031 A 
ATOM     41  C   UNL A   1      40.305  29.821  30.872  1.00  0.00     0.074 A 
ATOM     42  C   UNL A   1      40.002  28.016  29.210  1.00  0.00     0.049 A 
ATOM     43  N   UNL A   1      41.493  29.549  31.345  1.00  0.00    -0.248 NA
ATOM     44  C   UNL A   1      39.650  30.973  31.510  1.00  0.00     0.031 C 
ATOM     45  C   UNL A   1      39.314  27.232  28.185  1.00  0.00     0.029 A 
ATOM     46  N   UNL A   1      41.183  27.345  29.410  1.00  0.00    -0.354 N 
ATOM     47  C   UNL A   1      41.731  30.498  32.334  1.00  0.00     0.074 A 
ATOM     48  C   UNL A   1      40.582  31.377  32.359  1.00  0.00     0.031 C 
ATOM     49  C   UNL A   1      40.094  26.194  27.837  1.00  0.00     0.029 A 
ATOM     50  C   UNL A   1      41.353  26.263  28.578  1.00  0.00     0.049 A 
ATOM     51  H   UNL A   1      41.846  27.612  30.087  1.00  0.00     0.167 HD
ATOM     52  C   UNL A   1      42.804  30.618  33.153  1.00  0.00     0.034 A 
ATOM     53  C   UNL A   1      42.416  25.448  28.411  1.00  0.00     0.034 A 
ATOM     54  C   UNL A   1      43.951  29.746  33.101  1.00  0.00     0.049 A 
ATOM     55  C   UNL A   1      43.649  25.666  29.257  1.00  0.00     0.074 A 
ATOM     56  C   UNL A   1      45.093  29.776  33.882  1.00  0.00     0.029 A 
ATOM     57  N   UNL A   1      44.112  28.693  32.208  1.00  0.00    -0.354 N 
ATOM     58  N   UNL A   1      43.866  26.568  30.189  1.00  0.00    -0.248 NA
ATOM     59  C   UNL A   1      44.779  24.754  29.036  1.00  0.00     0.031 C 
ATOM     60  C   UNL A   1      45.976  28.801  33.406  1.00  0.00     0.029 A 
ATOM     61  C   UNL A   1      45.347  28.093  32.394  1.00  0.00     0.049 A 
ATOM     62  H   UNL A   1      43.444  28.413  31.540  1.00  0.00     0.167 HD
ATOM     63  C   UNL A   1      45.142  26.304  30.686  1.00  0.00     0.074 A 
ATOM     64  C   UNL A   1      45.638  25.154  29.960  1.00  0.00     0.031 C 
ATOM     65  C   UNL A   1      45.837  26.950  31.658  1.00  0.00     0.034 A 
BRANCH  52  66
ATOM     66  C   UNL A   1      42.805  31.771  34.129  1.00  0.00     0.023 A 
ATOM     67  C   UNL A   1      42.334  31.628  35.446  1.00  0.00     0.031 A 
ATOM     68  C   UNL A   1      43.249  33.043  33.726  1.00  0.00     0.131 A 
ATOM     69  C   UNL A   1      42.245  32.749  36.284  1.00  0.00     0.055 A 
ATOM     70  C   UNL A   1      43.242  34.136  34.593  1.00  0.00     0.041 A 
ATOM     71  F   UNL A   1      43.684  33.249  32.472  1.00  0.00    -0.206 F 
ATOM     72  C   UNL A   1      42.723  33.997  35.877  1.00  0.00     0.022 A 
BRANCH  69  73
ATOM     73  S   UNL A   1      41.351  32.589  37.854  1.00  0.00     0.124 S 
ATOM     74  O   UNL A   1      42.118  31.541  38.524  1.00  0.00    -0.237 OA
ATOM     75  O   UNL A   1      41.466  33.927  38.422  1.00  0.00    -0.237 OA
ATOM     76  O   UNL A   1      40.004  32.198  37.442  1.00  0.00    -0.744 OA
ENDBRANCH  69  73
ENDBRANCH  52  66
BRANCH  53  77
ATOM     77  C   UNL A   1      42.393  24.380  27.366  1.00  0.00     0.023 A 
ATOM     78  C   UNL A   1      41.789  23.135  27.605  1.00  0.00     0.031 A 
ATOM     79  C   UNL A   1      43.036  24.571  26.129  1.00  0.00     0.131 A 
ATOM     80  C   UNL A   1      41.881  22.116  26.644  1.00  0.00     0.055 A 
ATOM     81  C   UNL A   1      43.071  23.575  25.151  1.00  0.00     0.041 A 
ATOM     82  F   UNL A   1      43.640  25.738  25.850  1.00  0.00    -0.206 F 
ATOM     83  C   UNL A   1      42.503  22.333  25.412  1.00  0.00     0.022 A 
BRANCH  80  84
ATOM     84  S   UNL A   1      41.259  20.464  27.064  1.00  0.00     0.124 S 
ATOM     85  O   UNL A   1      40.155  20.316  26.123  1.00  0.00    -0.237 OA
ATOM     86  O   UNL A   1      42.430  19.628  26.818  1.00  0.00    -0.237 OA
ATOM     87  O   UNL A   1      40.872  20.593  28.468  1.00  0.00    -0.744 OA
ENDBRANCH  80  84
ENDBRANCH  53  77
BRANCH  65  88
ATOM     88  C   UNL A   1      47.190  26.389  32.035  1.00  0.00     0.023 A 
ATOM     89  C   UNL A   1      48.371  26.788  31.384  1.00  0.00     0.031 A 
ATOM     90  C   UNL A   1      47.296  25.437  33.066  1.00  0.00     0.131 A 
ATOM     91  C   UNL A   1      49.595  26.195  31.730  1.00  0.00     0.055 A 
ATOM     92  C   UNL A   1      48.526  24.904  33.453  1.00  0.00     0.041 A 
ATOM     93  F   UNL A   1      46.204  25.014  33.721  1.00  0.00    -0.206 F 
ATOM     94  C   UNL A   1      49.683  25.271  32.775  1.00  0.00     0.022 A 
BRANCH  91  95
ATOM     95  S   UNL A   1      51.060  26.567  30.726  1.00  0.00     0.124 S 
ATOM     96  O   UNL A   1      51.015  25.508  29.722  1.00  0.00    -0.237 OA
ATOM     97  O   UNL A   1      50.776  27.914  30.245  1.00  0.00    -0.237 OA
ATOM     98  O   UNL A   1      52.163  26.470  31.680  1.00  0.00    -0.744 OA
ENDBRANCH  91  95
ENDBRANCH  65  88
ENDBRANCH  39  40
ENDBRANCH  32  34
ENDBRANCH  31  32
ENDBRANCH  30  31
ENDBRANCH  29  30
ENDBRANCH  28  29
ENDBRANCH  27  28
ENDBRANCH  26  27
ENDBRANCH   1  26
TORSDOF 27
ENDMDL
MODEL 2
REMARK VINA RESULT:      -7.9      1.914      2.233
REMARK SMILES CC[C@H](NC(=O)NC[C@@]1(C)CCCO1)C(=O)OCCOCCOCCOCCOC(=O)c1ccc(-c2c3nc(c(-c4cc(S(=O)(=O)[O-])ccc4F)c4ccc([nH]4)c(-c4cc(S(=O)(=O)[O-])ccc4F)c4nc(c(-c5cc(S(=O)(=O)[O-])ccc5F)c5ccc2[nH]5)C=C4)C=C3)cc1
REMARK SMILES IDX 23 1 22 2 21 3 20 4 19 5 18 6 17 7 15 8 16 9 3 10 2 11 1 12
REMARK SMILES IDX 4 13 5 14 6 16 7 17 8 19 9 20 10 21 11 22 14 23 12 24 13 25
REMARK SMILES IDX 24 26 25 27 26 28 27 29 28 30 29 31 30 32 31 33 32 34 33 35
REMARK SMILES IDX 94 36 34 37 93 38 35 39 36 40 37 41 87 42 38 43 92 44 86 45
REMARK SMILES IDX 88 46 39 47 91 48 85 49 84 50 40 52 72 53 52 54 71 55 53 56
REMARK SMILES IDX 56 57 70 58 89 59 54 60 55 61 69 63 90 64 57 65 41 66 42 67
REMARK SMILES IDX 50 68 43 69 49 70 51 71 48 72 44 73 45 74 46 75 47 76 73 77
REMARK SMILES IDX 74 78 82 79 75 80 81 81 83 82 80 83 76 84 77 85 78 86 79 87
REMARK SMILES IDX 58 88 59 89 67 90 60 91 66 92 68 93 65 94 61 95 62 96 63 97
REMARK SMILES IDX 64 98
REMARK H PARENT 4 15 7 18 88 51 56 62
REMARK Flexibility Score: inf
ROOT
ATOM      1  O   UNL A   1      32.791  24.026  25.588  1.00  0.00    -0.377 OA
ENDROOT
BRANCH   1   2
ATOM      2  C   UNL A   1      32.026  23.042  26.246  1.00  0.00     0.188 C 
BRANCH   2   3
ATOM      3  C   UNL A   1      30.505  23.246  26.178  1.00  0.00     0.188 C 
BRANCH   3   4
ATOM      4  O   UNL A   1      29.874  24.367  26.779  1.00  0.00    -0.376 OA
BRANCH   4   5
ATOM      5  C   UNL A   1      29.656  25.572  26.057  1.00  0.00     0.202 C 
BRANCH   5   6
ATOM      6  C   UNL A   1      29.873  25.658  24.536  1.00  0.00     0.261 C 
BRANCH   6   7
ATOM      7  O   UNL A   1      30.606  26.803  24.065  1.00  0.00    -0.462 OA
BRANCH   7   8
ATOM      8  C   UNL A   1      31.052  26.732  22.789  1.00  0.00     0.328 C 
ATOM      9  O   UNL A   1      30.623  27.421  21.866  1.00  0.00    -0.250 OA
BRANCH   8  10
ATOM     10  C   UNL A   1      32.194  25.711  22.579  1.00  0.00     0.193 C 
BRANCH  10  11
ATOM     11  C   UNL A   1      32.934  26.131  21.306  1.00  0.00     0.033 C 
ATOM     12  C   UNL A   1      32.462  25.348  20.095  1.00  0.00     0.007 C 
ENDBRANCH  10  11
BRANCH  10  13
ATOM     13  N   UNL A   1      31.847  24.287  22.490  1.00  0.00    -0.325 N 
ATOM     14  C   UNL A   1      32.515  23.131  22.493  1.00  0.00     0.315 C 
ATOM     15  H   UNL A   1      30.875  24.151  22.405  1.00  0.00     0.166 HD
ATOM     16  O   UNL A   1      31.883  22.101  22.235  1.00  0.00    -0.249 OA
ATOM     17  N   UNL A   1      33.807  22.961  22.778  1.00  0.00    -0.335 N 
ATOM     18  H   UNL A   1      34.064  22.016  22.671  1.00  0.00     0.165 HD
BRANCH  17  19
ATOM     19  C   UNL A   1      34.954  23.757  23.200  1.00  0.00     0.152 C 
BRANCH  19  20
ATOM     20  C   UNL A   1      35.950  23.008  24.128  1.00  0.00     0.083 C 
ATOM     21  C   UNL A   1      37.058  22.335  23.312  1.00  0.00     0.044 C 
ATOM     22  C   UNL A   1      36.528  23.874  25.250  1.00  0.00     0.039 C 
ATOM     23  O   UNL A   1      35.238  21.952  24.821  1.00  0.00    -0.373 OA
ATOM     24  C   UNL A   1      36.852  22.860  26.324  1.00  0.00     0.031 C 
ATOM     25  C   UNL A   1      35.727  21.859  26.171  1.00  0.00     0.161 C 
ENDBRANCH  19  20
ENDBRANCH  17  19
ENDBRANCH  10  13
ENDBRANCH   8  10
ENDBRANCH   7   8
ENDBRANCH   6   7
ENDBRANCH   5   6
ENDBRANCH   4   5
ENDBRANCH   3   4
ENDBRANCH   2   3
ENDBRANCH   1   2
BRANCH   1  26
ATOM     26  C   UNL A   1      33.357  25.039  26.412  1.00  0.00     0.188 C 
BRANCH  26  27
ATOM     27  C   UNL A   1      33.820  26.341  25.723  1.00  0.00     0.188 C 
BRANCH  27  28
ATOM     28  O   UNL A   1      32.912  27.430  25.857  1.00  0.00    -0.376 OA
BRANCH  28  29
ATOM     29  C   UNL A   1      32.383  27.723  27.141  1.00  0.00     0.202 C 
BRANCH  29  30
ATOM     30  C   UNL A   1      32.131  29.197  27.512  1.00  0.00     0.261 C 
BRANCH  30  31
ATOM     31  O   UNL A   1      33.241  29.932  28.051  1.00  0.00    -0.460 OA
BRANCH  31  32
ATOM     32  C   UNL A   1      34.236  30.288  27.212  1.00  0.00     0.338 C 
ATOM     33  O   UNL A   1      34.119  30.893  26.159  1.00  0.00    -0.246 OA
BRANCH  32  34
ATOM     34  C   UNL A   1      35.521  30.016  27.894  1.00  0.00     0.060 A 
ATOM     35  C   UNL A   1      36.718  30.304  27.225  1.00  0.00     0.016 A 
ATOM     36  C   UNL A   1      35.547  29.487  29.187  1.00  0.00     0.016 A 
ATOM     37  C   UNL A   1      37.944  30.024  27.830  1.00  0.00     0.010 A 
ATOM     38  C   UNL A   1      36.776  29.184  29.782  1.00  0.00     0.010 A 
ATOM     39  C   UNL A   1      37.979  29.417  29.091  1.00  0.00    -0.014 A 
BRANCH  39  40
ATOM     40  C   UNL A   1      39.250  28.830  29.588  1.00  0.00     0.031 A 
ATOM     41  C   UNL A   1      39.930  29.499  30.754  1.00  0.00     0.074 A 
ATOM     42  C   UNL A   1      39.774  27.717  29.046  1.00  0.00     0.049 A 
ATOM     43  N   UNL A   1      41.073  29.220  31.323  1.00  0.00    -0.248 NA
ATOM     44  C   UNL A   1      39.220  30.641  31.350  1.00  0.00     0.031 C 
ATOM     45  C   UNL A   1      39.179  26.948  27.955  1.00  0.00     0.029 A 
ATOM     46  N   UNL A   1      40.935  27.044  29.338  1.00  0.00    -0.354 N 
ATOM     47  C   UNL A   1      41.223  30.156  32.343  1.00  0.00     0.074 A 
ATOM     48  C   UNL A   1      40.074  31.033  32.281  1.00  0.00     0.031 C 
ATOM     49  C   UNL A   1      39.989  25.915  27.660  1.00  0.00     0.029 A 
ATOM     50  C   UNL A   1      41.178  25.975  28.508  1.00  0.00     0.049 A 
ATOM     51  H   UNL A   1      41.537  27.303  30.074  1.00  0.00     0.167 HD
ATOM     52  C   UNL A   1      42.221  30.265  33.253  1.00  0.00     0.034 A 
ATOM     53  C   UNL A   1      42.253  25.163  28.422  1.00  0.00     0.034 A 
ATOM     54  C   UNL A   1      43.370  29.394  33.288  1.00  0.00     0.049 A 
ATOM     55  C   UNL A   1      43.409  25.370  29.375  1.00  0.00     0.074 A 
ATOM     56  C   UNL A   1      44.441  29.414  34.165  1.00  0.00     0.029 A 
ATOM     57  N   UNL A   1      43.609  28.355  32.398  1.00  0.00    -0.354 N 
ATOM     58  N   UNL A   1      43.543  26.259  30.334  1.00  0.00    -0.248 NA
ATOM     59  C   UNL A   1      44.555  24.462  29.238  1.00  0.00     0.031 C 
ATOM     60  C   UNL A   1      45.363  28.446  33.753  1.00  0.00     0.029 A 
ATOM     61  C   UNL A   1      44.825  27.753  32.681  1.00  0.00     0.049 A 
ATOM     62  H   UNL A   1      43.002  28.084  31.670  1.00  0.00     0.167 HD
ATOM     63  C   UNL A   1      44.772  25.989  30.935  1.00  0.00     0.074 A 
ATOM     64  C   UNL A   1      45.331  24.849  30.239  1.00  0.00     0.031 C 
ATOM     65  C   UNL A   1      45.379  26.620  31.974  1.00  0.00     0.034 A 
BRANCH  52  66
ATOM     66  C   UNL A   1      42.135  31.403  34.242  1.00  0.00     0.023 A 
ATOM     67  C   UNL A   1      42.584  32.697  33.924  1.00  0.00     0.031 A 
ATOM     68  C   UNL A   1      41.630  31.184  35.536  1.00  0.00     0.131 A 
ATOM     69  C   UNL A   1      42.592  33.698  34.908  1.00  0.00     0.055 A 
ATOM     70  C   UNL A   1      41.557  32.207  36.482  1.00  0.00     0.041 A 
ATOM     71  F   UNL A   1      41.211  29.964  35.908  1.00  0.00    -0.206 F 
ATOM     72  C   UNL A   1      42.055  33.470  36.176  1.00  0.00     0.022 A 
BRANCH  69  73
ATOM     73  S   UNL A   1      43.460  35.251  34.556  1.00  0.00     0.124 S 
ATOM     74  O   UNL A   1      43.847  35.683  35.897  1.00  0.00    -0.237 OA
ATOM     75  O   UNL A   1      44.546  34.817  33.686  1.00  0.00    -0.237 OA
ATOM     76  O   UNL A   1      42.437  36.077  33.916  1.00  0.00    -0.744 OA
ENDBRANCH  69  73
ENDBRANCH  52  66
BRANCH  53  77
ATOM     77  C   UNL A   1      42.324  24.111  27.364  1.00  0.00     0.023 A 
ATOM     78  C   UNL A   1      41.777  22.833  27.566  1.00  0.00     0.031 A 
ATOM     79  C   UNL A   1      42.999  24.352  26.153  1.00  0.00     0.131 A 
ATOM     80  C   UNL A   1      41.955  21.834  26.596  1.00  0.00     0.055 A 
ATOM     81  C   UNL A   1      43.120  23.373  25.165  1.00  0.00     0.041 A 
ATOM     82  F   UNL A   1      43.550  25.552  25.910  1.00  0.00    -0.206 F 
ATOM     83  C   UNL A   1      42.608  22.100  25.390  1.00  0.00     0.022 A 
BRANCH  80  84
ATOM     84  S   UNL A   1      41.406  20.146  26.974  1.00  0.00     0.124 S 
ATOM     85  O   UNL A   1      40.783  20.324  28.280  1.00  0.00    -0.237 OA
ATOM     86  O   UNL A   1      40.502  19.865  25.864  1.00  0.00    -0.237 OA
ATOM     87  O   UNL A   1      42.649  19.376  26.973  1.00  0.00    -0.744 OA
ENDBRANCH  80  84
ENDBRANCH  53  77
BRANCH  65  88
ATOM     88  C   UNL A   1      46.696  26.056  32.457  1.00  0.00     0.023 A 
ATOM     89  C   UNL A   1      46.763  25.074  33.462  1.00  0.00     0.031 A 
ATOM     90  C   UNL A   1      47.905  26.512  31.901  1.00  0.00     0.131 A 
ATOM     91  C   UNL A   1      48.012  24.624  33.918  1.00  0.00     0.055 A 
ATOM     92  C   UNL A   1      49.141  26.009  32.309  1.00  0.00     0.041 A 
ATOM     93  F   UNL A   1      47.905  27.451  30.942  1.00  0.00    -0.206 F 
ATOM     94  C   UNL A   1      49.201  25.070  33.333  1.00  0.00     0.022 A 
BRANCH  91  95
ATOM     95  S   UNL A   1      48.070  23.525  35.360  1.00  0.00     0.124 S 
ATOM     96  O   UNL A   1      49.368  23.856  35.940  1.00  0.00    -0.237 OA
ATOM     97  O   UNL A   1      46.903  23.950  36.125  1.00  0.00    -0.237 OA
ATOM     98  O   UNL A   1      47.975  22.188  34.776  1.00  0.00    -0.744 OA
ENDBRANCH  91  95
ENDBRANCH  65  88
ENDBRANCH  39  40
ENDBRANCH  32  34
ENDBRANCH  31  32
ENDBRANCH  30  31
ENDBRANCH  29  30
ENDBRANCH  28  29
ENDBRANCH  27  28
ENDBRANCH  26  27
ENDBRANCH   1  26
TORSDOF 27
ENDMDL
MODEL 3
REMARK VINA RESULT:      -7.4      2.425      3.107
REMARK SMILES CC[C@H](NC(=O)NC[C@@]1(C)CCCO1)C(=O)OCCOCCOCCOCCOC(=O)c1ccc(-c2c3nc(c(-c4cc(S(=O)(=O)[O-])ccc4F)c4ccc([nH]4)c(-c4cc(S(=O)(=O)[O-])ccc4F)c4nc(c(-c5cc(S(=O)(=O)[O-])ccc5F)c5ccc2[nH]5)C=C4)C=C3)cc1
REMARK SMILES IDX 23 1 22 2 21 3 20 4 19 5 18 6 17 7 15 8 16 9 3 10 2 11 1 12
REMARK SMILES IDX 4 13 5 14 6 16 7 17 8 19 9 20 10 21 11 22 14 23 12 24 13 25
REMARK SMILES IDX 24 26 25 27 26 28 27 29 28 30 29 31 30 32 31 33 32 34 33 35
REMARK SMILES IDX 94 36 34 37 93 38 35 39 36 40 37 41 87 42 38 43 92 44 86 45
REMARK SMILES IDX 88 46 39 47 91 48 85 49 84 50 40 52 72 53 52 54 71 55 53 56
REMARK SMILES IDX 56 57 70 58 89 59 54 60 55 61 69 63 90 64 57 65 41 66 42 67
REMARK SMILES IDX 50 68 43 69 49 70 51 71 48 72 44 73 45 74 46 75 47 76 73 77
REMARK SMILES IDX 74 78 82 79 75 80 81 81 83 82 80 83 76 84 77 85 78 86 79 87
REMARK SMILES IDX 58 88 59 89 67 90 60 91 66 92 68 93 65 94 61 95 62 96 63 97
REMARK SMILES IDX 64 98
REMARK H PARENT 4 15 7 18 88 51 56 62
REMARK Flexibility Score: inf
ROOT
ATOM      1  O   UNL A   1      32.679  24.174  25.800  1.00  0.00    -0.377 OA
ENDROOT
BRANCH   1   2
ATOM      2  C   UNL A   1      31.937  23.201  26.500  1.00  0.00     0.188 C 
BRANCH   2   3
ATOM      3  C   UNL A   1      30.415  23.278  26.305  1.00  0.00     0.188 C 
BRANCH   3   4
ATOM      4  O   UNL A   1      29.638  24.309  26.897  1.00  0.00    -0.376 OA
BRANCH   4   5
ATOM      5  C   UNL A   1      29.523  25.591  26.293  1.00  0.00     0.202 C 
BRANCH   5   6
ATOM      6  C   UNL A   1      29.550  25.775  24.765  1.00  0.00     0.261 C 
BRANCH   6   7
ATOM      7  O   UNL A   1      30.246  26.936  24.280  1.00  0.00    -0.462 OA
BRANCH   7   8
ATOM      8  C   UNL A   1      30.708  26.858  23.010  1.00  0.00     0.328 C 
ATOM      9  O   UNL A   1      30.292  27.542  22.078  1.00  0.00    -0.250 OA
BRANCH   8  10
ATOM     10  C   UNL A   1      31.852  25.833  22.822  1.00  0.00     0.193 C 
BRANCH  10  11
ATOM     11  C   UNL A   1      32.586  26.223  21.535  1.00  0.00     0.033 C 
ATOM     12  C   UNL A   1      33.727  27.185  21.806  1.00  0.00     0.007 C 
ENDBRANCH  10  11
BRANCH  10  13
ATOM     13  N   UNL A   1      31.506  24.407  22.768  1.00  0.00    -0.325 N 
ATOM     14  C   UNL A   1      32.179  23.254  22.723  1.00  0.00     0.315 C 
ATOM     15  H   UNL A   1      30.532  24.265  22.764  1.00  0.00     0.166 HD
ATOM     16  O   UNL A   1      31.535  22.220  22.524  1.00  0.00    -0.249 OA
ATOM     17  N   UNL A   1      33.491  23.093  22.902  1.00  0.00    -0.335 N 
ATOM     18  H   UNL A   1      33.744  22.149  22.780  1.00  0.00     0.165 HD
BRANCH  17  19
ATOM     19  C   UNL A   1      34.664  23.898  23.225  1.00  0.00     0.152 C 
BRANCH  19  20
ATOM     20  C   UNL A   1      35.720  23.172  24.105  1.00  0.00     0.083 C 
ATOM     21  C   UNL A   1      36.836  22.576  23.240  1.00  0.00     0.044 C 
ATOM     22  C   UNL A   1      36.288  24.033  25.235  1.00  0.00     0.039 C 
ATOM     23  O   UNL A   1      35.078  22.065  24.785  1.00  0.00    -0.373 OA
ATOM     24  C   UNL A   1      36.689  23.007  26.270  1.00  0.00     0.031 C 
ATOM     25  C   UNL A   1      35.609  21.957  26.118  1.00  0.00     0.161 C 
ENDBRANCH  19  20
ENDBRANCH  17  19
ENDBRANCH  10  13
ENDBRANCH   8  10
ENDBRANCH   7   8
ENDBRANCH   6   7
ENDBRANCH   5   6
ENDBRANCH   4   5
ENDBRANCH   3   4
ENDBRANCH   2   3
ENDBRANCH   1   2
BRANCH   1  26
ATOM     26  C   UNL A   1      33.256  25.210  26.587  1.00  0.00     0.188 C 
BRANCH  26  27
ATOM     27  C   UNL A   1      33.557  26.552  25.885  1.00  0.00     0.188 C 
BRANCH  27  28
ATOM     28  O   UNL A   1      32.487  27.489  25.927  1.00  0.00    -0.376 OA
BRANCH  28  29
ATOM     29  C   UNL A   1      32.030  27.949  27.190  1.00  0.00     0.202 C 
BRANCH  29  30
ATOM     30  C   UNL A   1      31.605  29.423  27.326  1.00  0.00     0.261 C 
BRANCH  30  31
ATOM     31  O   UNL A   1      32.632  30.369  27.660  1.00  0.00    -0.460 OA
BRANCH  31  32
ATOM     32  C   UNL A   1      33.724  30.430  26.869  1.00  0.00     0.338 C 
ATOM     33  O   UNL A   1      33.743  30.664  25.672  1.00  0.00    -0.246 OA
BRANCH  32  34
ATOM     34  C   UNL A   1      34.917  30.384  27.742  1.00  0.00     0.060 A 
ATOM     35  C   UNL A   1      35.890  31.385  27.615  1.00  0.00     0.016 A 
ATOM     36  C   UNL A   1      35.076  29.365  28.685  1.00  0.00     0.016 A 
ATOM     37  C   UNL A   1      37.042  31.347  28.400  1.00  0.00     0.010 A 
ATOM     38  C   UNL A   1      36.243  29.314  29.454  1.00  0.00     0.010 A 
ATOM     39  C   UNL A   1      37.248  30.285  29.289  1.00  0.00    -0.014 A 
BRANCH  39  40
ATOM     40  C   UNL A   1      38.596  30.070  29.876  1.00  0.00     0.031 A 
ATOM     41  C   UNL A   1      38.890  30.689  31.217  1.00  0.00     0.074 A 
ATOM     42  C   UNL A   1      39.526  29.322  29.258  1.00  0.00     0.049 A 
ATOM     43  N   UNL A   1      40.002  30.702  31.903  1.00  0.00    -0.248 NA
ATOM     44  C   UNL A   1      37.771  31.391  31.866  1.00  0.00     0.031 C 
ATOM     45  C   UNL A   1      39.341  28.624  27.987  1.00  0.00     0.029 A 
ATOM     46  N   UNL A   1      40.819  29.031  29.616  1.00  0.00    -0.354 N 
ATOM     47  C   UNL A   1      39.720  31.418  33.063  1.00  0.00     0.074 A 
ATOM     48  C   UNL A   1      38.346  31.858  32.963  1.00  0.00     0.031 C 
ATOM     49  C   UNL A   1      40.485  27.997  27.665  1.00  0.00     0.029 A 
ATOM     50  C   UNL A   1      41.498  28.285  28.680  1.00  0.00     0.049 A 
ATOM     51  H   UNL A   1      41.224  29.328  30.463  1.00  0.00     0.167 HD
ATOM     52  C   UNL A   1      40.531  31.676  34.118  1.00  0.00     0.034 A 
ATOM     53  C   UNL A   1      42.793  27.910  28.634  1.00  0.00     0.034 A 
ATOM     54  C   UNL A   1      41.907  31.248  34.193  1.00  0.00     0.049 A 
ATOM     55  C   UNL A   1      43.712  28.302  29.770  1.00  0.00     0.074 A 
ATOM     56  C   UNL A   1      42.819  31.453  35.214  1.00  0.00     0.029 A 
ATOM     57  N   UNL A   1      42.575  30.540  33.202  1.00  0.00    -0.354 N 
ATOM     58  N   UNL A   1      43.437  28.981  30.861  1.00  0.00    -0.248 NA
ATOM     59  C   UNL A   1      45.113  27.871  29.671  1.00  0.00     0.031 C 
ATOM     60  C   UNL A   1      44.056  30.947  34.804  1.00  0.00     0.029 A 
ATOM     61  C   UNL A   1      43.895  30.335  33.571  1.00  0.00     0.049 A 
ATOM     62  H   UNL A   1      42.170  30.228  32.360  1.00  0.00     0.167 HD
ATOM     63  C   UNL A   1      44.625  29.025  31.592  1.00  0.00     0.074 A 
ATOM     64  C   UNL A   1      45.610  28.293  30.823  1.00  0.00     0.031 C 
ATOM     65  C   UNL A   1      44.875  29.610  32.792  1.00  0.00     0.034 A 
BRANCH  52  66
ATOM     66  C   UNL A   1      39.961  32.507  35.242  1.00  0.00     0.023 A 
ATOM     67  C   UNL A   1      40.209  33.888  35.344  1.00  0.00     0.031 A 
ATOM     68  C   UNL A   1      39.187  31.905  36.250  1.00  0.00     0.131 A 
ATOM     69  C   UNL A   1      39.757  34.601  36.465  1.00  0.00     0.055 A 
ATOM     70  C   UNL A   1      38.663  32.637  37.316  1.00  0.00     0.041 A 
ATOM     71  F   UNL A   1      38.938  30.585  36.223  1.00  0.00    -0.206 F 
ATOM     72  C   UNL A   1      38.960  33.991  37.437  1.00  0.00     0.022 A 
BRANCH  69  73
ATOM     73  S   UNL A   1      40.356  36.293  36.714  1.00  0.00     0.124 S 
ATOM     74  O   UNL A   1      39.577  36.715  37.876  1.00  0.00    -0.237 OA
ATOM     75  O   UNL A   1      41.783  36.094  36.940  1.00  0.00    -0.237 OA
ATOM     76  O   UNL A   1      40.010  36.968  35.464  1.00  0.00    -0.744 OA
ENDBRANCH  69  73
ENDBRANCH  52  66
BRANCH  53  77
ATOM     77  C   UNL A   1      43.324  27.166  27.453  1.00  0.00     0.023 A 
ATOM     78  C   UNL A   1      43.258  25.765  27.380  1.00  0.00     0.031 A 
ATOM     79  C   UNL A   1      43.966  27.848  26.403  1.00  0.00     0.131 A 
ATOM     80  C   UNL A   1      43.864  25.090  26.308  1.00  0.00     0.055 A 
ATOM     81  C   UNL A   1      44.512  27.176  25.308  1.00  0.00     0.041 A 
ATOM     82  F   UNL A   1      44.068  29.187  26.424  1.00  0.00    -0.206 F 
ATOM     83  C   UNL A   1      44.475  25.786  25.264  1.00  0.00     0.022 A 
BRANCH  80  84
ATOM     84  S   UNL A   1      43.928  23.277  26.346  1.00  0.00     0.124 S 
ATOM     85  O   UNL A   1      42.932  22.925  25.340  1.00  0.00    -0.237 OA
ATOM     86  O   UNL A   1      45.319  23.015  25.992  1.00  0.00    -0.237 OA
ATOM     87  O   UNL A   1      43.567  22.952  27.725  1.00  0.00    -0.744 OA
ENDBRANCH  80  84
ENDBRANCH  53  77
BRANCH  65  88
ATOM     88  C   UNL A   1      46.258  29.434  33.377  1.00  0.00     0.023 A 
ATOM     89  C   UNL A   1      46.595  28.327  34.176  1.00  0.00     0.031 A 
ATOM     90  C   UNL A   1      47.256  30.395  33.128  1.00  0.00     0.131 A 
ATOM     91  C   UNL A   1      47.876  28.238  34.745  1.00  0.00     0.055 A 
ATOM     92  C   UNL A   1      48.548  30.264  33.638  1.00  0.00     0.041 A 
ATOM     93  F   UNL A   1      46.992  31.475  32.377  1.00  0.00    -0.206 F 
ATOM     94  C   UNL A   1      48.861  29.189  34.463  1.00  0.00     0.022 A 
BRANCH  91  95
ATOM     95  S   UNL A   1      48.209  26.918  35.943  1.00  0.00     0.124 S 
ATOM     96  O   UNL A   1      46.984  26.127  35.870  1.00  0.00    -0.237 OA
ATOM     97  O   UNL A   1      49.406  26.292  35.395  1.00  0.00    -0.237 OA
ATOM     98  O   UNL A   1      48.407  27.638  37.200  1.00  0.00    -0.744 OA
ENDBRANCH  91  95
ENDBRANCH  65  88
ENDBRANCH  39  40
ENDBRANCH  32  34
ENDBRANCH  31  32
ENDBRANCH  30  31
ENDBRANCH  29  30
ENDBRANCH  28  29
ENDBRANCH  27  28
ENDBRANCH  26  27
ENDBRANCH   1  26
TORSDOF 27
ENDMDL
