MODEL 1
REMARK VINA RESULT:      -9.7      0.000      0.000
REMARK SMILES CCC1(C(=O)N[C@H]2C=C[C@H](C(=O)OCCOCCOCCOCCOC(=O)c3ccc(-c4c5nc(c(-c6cc(S(=O)(=O)[O-])ccc6F)c6ccc([nH]6)c(-c6cc(S(=O)(=O)[O-])ccc6F)c6nc(c(-c7cc(S(=O)(=O)[O-])ccc7F)c7ccc4[nH]7)C=C6)C=C5)cc3)C2)CC[NH2+]CC1
REMARK SMILES IDX 19 1 18 2 17 3 16 4 15 5 14 6 13 7 11 8 12 9 10 10 7 11 8 12
REMARK SMILES IDX 91 13 9 14 6 15 4 16 5 17 3 19 92 20 96 21 93 22 95 23 94 24
REMARK SMILES IDX 2 27 1 28 20 29 21 30 22 31 23 32 24 33 25 34 26 35 27 36
REMARK SMILES IDX 28 37 29 38 90 39 30 40 89 41 31 42 32 43 33 44 83 45 34 46
REMARK SMILES IDX 88 47 82 48 84 49 35 50 87 51 81 52 80 53 36 55 68 56 48 57
REMARK SMILES IDX 67 58 49 59 52 60 66 61 85 62 50 63 51 64 65 66 86 67 53 68
REMARK SMILES IDX 37 69 38 70 46 71 39 72 45 73 47 74 44 75 40 76 41 77 42 78
REMARK SMILES IDX 43 79 69 80 70 81 78 82 71 83 77 84 79 85 76 86 72 87 73 88
REMARK SMILES IDX 74 89 75 90 54 91 55 92 63 93 56 94 62 95 64 96 61 97 57 98
REMARK SMILES IDX 58 99 59 100 60 101
REMARK H PARENT 6 18 94 25 94 26 84 54 52 65
REMARK Flexibility Score: inf
ROOT
ATOM      1  O   UNL A   1      34.184  31.978  28.073  1.00  0.00    -0.377 OA
ENDROOT
BRANCH   1   2
ATOM      2  C   UNL A   1      35.162  30.970  27.857  1.00  0.00     0.188 C 
BRANCH   2   3
ATOM      3  C   UNL A   1      34.778  29.471  27.708  1.00  0.00     0.188 C 
BRANCH   3   4
ATOM      4  O   UNL A   1      33.834  29.197  26.689  1.00  0.00    -0.376 OA
BRANCH   4   5
ATOM      5  C   UNL A   1      33.133  27.973  26.594  1.00  0.00     0.202 C 
BRANCH   5   6
ATOM      6  C   UNL A   1      31.625  27.960  26.780  1.00  0.00     0.261 C 
BRANCH   6   7
ATOM      7  O   UNL A   1      30.936  27.614  25.593  1.00  0.00    -0.463 OA
BRANCH   7   8
ATOM      8  C   UNL A   1      30.993  28.354  24.449  1.00  0.00     0.312 C 
ATOM      9  O   UNL A   1      30.904  29.568  24.376  1.00  0.00    -0.252 OA
BRANCH   8  10
ATOM     10  C   UNL A   1      31.285  27.370  23.302  1.00  0.00     0.124 C 
ATOM     11  C   UNL A   1      33.232  25.990  23.777  1.00  0.00     0.106 C 
ATOM     12  C   UNL A   1      33.596  27.309  23.246  1.00  0.00    -0.006 C 
ATOM     13  C   UNL A   1      31.697  25.957  23.696  1.00  0.00     0.048 C 
ATOM     14  C   UNL A   1      32.546  27.939  22.730  1.00  0.00    -0.014 C 
BRANCH  11  15
ATOM     15  N   UNL A   1      33.890  24.910  23.038  1.00  0.00    -0.349 N 
ATOM     16  C   UNL A   1      34.323  23.628  23.187  1.00  0.00     0.227 C 
ATOM     17  O   UNL A   1      35.026  23.289  22.223  1.00  0.00    -0.274 OA
ATOM     18  H   UNL A   1      34.084  25.214  22.122  1.00  0.00     0.164 HD
BRANCH  16  19
ATOM     19  C   UNL A   1      34.061  22.626  24.378  1.00  0.00     0.060 C 
ATOM     20  C   UNL A   1      35.346  21.767  24.540  1.00  0.00     0.078 C 
ATOM     21  C   UNL A   1      33.642  23.363  25.682  1.00  0.00     0.078 C 
ATOM     22  C   UNL A   1      35.446  21.062  25.887  1.00  0.00     0.261 C 
ATOM     23  C   UNL A   1      34.063  22.686  26.998  1.00  0.00     0.261 C 
ATOM     24  N   UNL A   1      35.366  22.036  26.961  1.00  0.00    -0.346 N 
ATOM     25  H   UNL A   1      36.085  22.744  26.820  1.00  0.00     0.346 HD
ATOM     26  H   UNL A   1      35.504  21.547  27.846  1.00  0.00     0.346 HD
BRANCH  19  27
ATOM     27  C   UNL A   1      32.885  21.582  24.142  1.00  0.00     0.014 C 
ATOM     28  C   UNL A   1      32.122  21.606  22.829  1.00  0.00     0.005 C 
ENDBRANCH  19  27
ENDBRANCH  16  19
ENDBRANCH  11  15
ENDBRANCH   8  10
ENDBRANCH   7   8
ENDBRANCH   6   7
ENDBRANCH   5   6
ENDBRANCH   4   5
ENDBRANCH   3   4
ENDBRANCH   2   3
ENDBRANCH   1   2
BRANCH   1  29
ATOM     29  C   UNL A   1      34.548  33.350  28.020  1.00  0.00     0.188 C 
BRANCH  29  30
ATOM     30  C   UNL A   1      33.629  34.421  28.651  1.00  0.00     0.188 C 
BRANCH  30  31
ATOM     31  O   UNL A   1      33.391  34.247  30.039  1.00  0.00    -0.376 OA
BRANCH  31  32
ATOM     32  C   UNL A   1      34.501  34.145  30.906  1.00  0.00     0.202 C 
BRANCH  32  33
ATOM     33  C   UNL A   1      34.206  33.804  32.373  1.00  0.00     0.261 C 
BRANCH  33  34
ATOM     34  O   UNL A   1      34.727  32.553  32.842  1.00  0.00    -0.460 OA
BRANCH  34  35
ATOM     35  C   UNL A   1      35.953  32.589  33.404  1.00  0.00     0.338 C 
ATOM     36  O   UNL A   1      36.232  33.004  34.521  1.00  0.00    -0.246 OA
BRANCH  35  37
ATOM     37  C   UNL A   1      36.876  31.842  32.531  1.00  0.00     0.060 A 
ATOM     38  C   UNL A   1      37.810  30.979  33.120  1.00  0.00     0.016 A 
ATOM     39  C   UNL A   1      36.819  31.987  31.143  1.00  0.00     0.016 A 
ATOM     40  C   UNL A   1      38.715  30.287  32.322  1.00  0.00     0.010 A 
ATOM     41  C   UNL A   1      37.748  31.313  30.345  1.00  0.00     0.010 A 
ATOM     42  C   UNL A   1      38.724  30.491  30.936  1.00  0.00    -0.014 A 
BRANCH  42  43
ATOM     43  C   UNL A   1      39.882  29.994  30.158  1.00  0.00     0.031 A 
ATOM     44  C   UNL A   1      41.109  30.860  30.074  1.00  0.00     0.074 A 
ATOM     45  C   UNL A   1      39.876  28.761  29.621  1.00  0.00     0.049 A 
ATOM     46  N   UNL A   1      42.262  30.618  29.508  1.00  0.00    -0.248 NA
ATOM     47  C   UNL A   1      41.021  32.180  30.720  1.00  0.00     0.031 C 
ATOM     48  C   UNL A   1      38.759  27.820  29.685  1.00  0.00     0.029 A 
ATOM     49  N   UNL A   1      40.848  28.086  28.929  1.00  0.00    -0.354 N 
ATOM     50  C   UNL A   1      43.040  31.750  29.732  1.00  0.00     0.074 A 
ATOM     51  C   UNL A   1      42.208  32.696  30.444  1.00  0.00     0.031 C 
ATOM     52  C   UNL A   1      39.114  26.683  29.063  1.00  0.00     0.029 A 
ATOM     53  C   UNL A   1      40.466  26.827  28.528  1.00  0.00     0.049 A 
ATOM     54  H   UNL A   1      41.736  28.466  28.737  1.00  0.00     0.167 HD
ATOM     55  C   UNL A   1      44.332  31.971  29.389  1.00  0.00     0.034 A 
ATOM     56  C   UNL A   1      41.131  25.906  27.802  1.00  0.00     0.034 A 
ATOM     57  C   UNL A   1      45.139  31.021  28.663  1.00  0.00     0.049 A 
ATOM     58  C   UNL A   1      42.542  26.212  27.357  1.00  0.00     0.074 A 
ATOM     59  C   UNL A   1      46.459  31.138  28.264  1.00  0.00     0.029 A 
ATOM     60  N   UNL A   1      44.699  29.781  28.212  1.00  0.00    -0.354 N 
ATOM     61  N   UNL A   1      43.272  27.281  27.586  1.00  0.00    -0.248 NA
ATOM     62  C   UNL A   1      43.222  25.176  26.570  1.00  0.00     0.031 C 
ATOM     63  C   UNL A   1      46.789  30.012  27.501  1.00  0.00     0.029 A 
ATOM     64  C   UNL A   1      45.709  29.143  27.506  1.00  0.00     0.049 A 
ATOM     65  H   UNL A   1      43.802  29.410  28.370  1.00  0.00     0.167 HD
ATOM     66  C   UNL A   1      44.509  27.029  26.996  1.00  0.00     0.074 A 
ATOM     67  C   UNL A   1      44.431  25.697  26.432  1.00  0.00     0.031 C 
ATOM     68  C   UNL A   1      45.610  27.823  26.924  1.00  0.00     0.034 A 
BRANCH  55  69
ATOM     69  C   UNL A   1      44.924  33.316  29.744  1.00  0.00     0.023 A 
ATOM     70  C   UNL A   1      45.583  33.541  30.966  1.00  0.00     0.031 A 
ATOM     71  C   UNL A   1      44.799  34.399  28.856  1.00  0.00     0.131 A 
ATOM     72  C   UNL A   1      46.028  34.832  31.295  1.00  0.00     0.055 A 
ATOM     73  C   UNL A   1      45.320  35.660  29.153  1.00  0.00     0.041 A 
ATOM     74  F   UNL A   1      44.154  34.256  27.688  1.00  0.00    -0.206 F 
ATOM     75  C   UNL A   1      45.927  35.886  30.384  1.00  0.00     0.022 A 
BRANCH  72  76
ATOM     76  S   UNL A   1      46.605  35.147  32.986  1.00  0.00     0.124 S 
ATOM     77  O   UNL A   1      46.230  33.908  33.661  1.00  0.00    -0.237 OA
ATOM     78  O   UNL A   1      48.034  35.366  32.796  1.00  0.00    -0.237 OA
ATOM     79  O   UNL A   1      45.842  36.325  33.394  1.00  0.00    -0.744 OA
ENDBRANCH  72  76
ENDBRANCH  55  69
BRANCH  56  80
ATOM     80  C   UNL A   1      40.473  24.622  27.417  1.00  0.00     0.023 A 
ATOM     81  C   UNL A   1      41.096  23.384  27.641  1.00  0.00     0.031 A 
ATOM     82  C   UNL A   1      39.231  24.623  26.757  1.00  0.00     0.131 A 
ATOM     83  C   UNL A   1      40.503  22.205  27.161  1.00  0.00     0.055 A 
ATOM     84  C   UNL A   1      38.616  23.443  26.337  1.00  0.00     0.041 A 
ATOM     85  F   UNL A   1      38.591  25.778  26.512  1.00  0.00    -0.206 F 
ATOM     86  C   UNL A   1      39.260  22.225  26.525  1.00  0.00     0.022 A 
BRANCH  83  87
ATOM     87  S   UNL A   1      41.429  20.651  27.291  1.00  0.00     0.124 S 
ATOM     88  O   UNL A   1      41.105  20.004  26.025  1.00  0.00    -0.237 OA
ATOM     89  O   UNL A   1      42.800  21.127  27.437  1.00  0.00    -0.237 OA
ATOM     90  O   UNL A   1      40.863  20.016  28.481  1.00  0.00    -0.744 OA
ENDBRANCH  83  87
ENDBRANCH  56  80
BRANCH  68  91
ATOM     91  C   UNL A   1      46.826  27.243  26.236  1.00  0.00     0.023 A 
ATOM     92  C   UNL A   1      47.899  26.698  26.965  1.00  0.00     0.031 A 
ATOM     93  C   UNL A   1      46.942  27.288  24.834  1.00  0.00     0.131 A 
ATOM     94  C   UNL A   1      49.076  26.317  26.302  1.00  0.00     0.055 A 
ATOM     95  C   UNL A   1      48.081  26.824  24.174  1.00  0.00     0.041 A 
ATOM     96  F   UNL A   1      45.954  27.797  24.081  1.00  0.00    -0.206 F 
ATOM     97  C   UNL A   1      49.166  26.358  24.909  1.00  0.00     0.022 A 
BRANCH  94  98
ATOM     98  S   UNL A   1      50.542  25.927  27.297  1.00  0.00     0.124 S 
ATOM     99  O   UNL A   1      51.587  26.671  26.598  1.00  0.00    -0.237 OA
ATOM    100  O   UNL A   1      50.169  26.436  28.613  1.00  0.00    -0.237 OA
ATOM    101  O   UNL A   1      50.645  24.474  27.199  1.00  0.00    -0.744 OA
ENDBRANCH  94  98
ENDBRANCH  68  91
ENDBRANCH  42  43
ENDBRANCH  35  37
ENDBRANCH  34  35
ENDBRANCH  33  34
ENDBRANCH  32  33
ENDBRANCH  31  32
ENDBRANCH  30  31
ENDBRANCH  29  30
ENDBRANCH   1  29
TORSDOF 26
ENDMDL
MODEL 2
REMARK VINA RESULT:      -9.5      3.619     10.260
REMARK SMILES CCC1(C(=O)N[C@H]2C=C[C@H](C(=O)OCCOCCOCCOCCOC(=O)c3ccc(-c4c5nc(c(-c6cc(S(=O)(=O)[O-])ccc6F)c6ccc([nH]6)c(-c6cc(S(=O)(=O)[O-])ccc6F)c6nc(c(-c7cc(S(=O)(=O)[O-])ccc7F)c7ccc4[nH]7)C=C6)C=C5)cc3)C2)CC[NH2+]CC1
REMARK SMILES IDX 19 1 18 2 17 3 16 4 15 5 14 6 13 7 11 8 12 9 10 10 7 11 8 12
REMARK SMILES IDX 91 13 9 14 6 15 4 16 5 17 3 19 92 20 96 21 93 22 95 23 94 24
REMARK SMILES IDX 2 27 1 28 20 29 21 30 22 31 23 32 24 33 25 34 26 35 27 36
REMARK SMILES IDX 28 37 29 38 90 39 30 40 89 41 31 42 32 43 33 44 83 45 34 46
REMARK SMILES IDX 88 47 82 48 84 49 35 50 87 51 81 52 80 53 36 55 68 56 48 57
REMARK SMILES IDX 67 58 49 59 52 60 66 61 85 62 50 63 51 64 65 66 86 67 53 68
REMARK SMILES IDX 37 69 38 70 46 71 39 72 45 73 47 74 44 75 40 76 41 77 42 78
REMARK SMILES IDX 43 79 69 80 70 81 78 82 71 83 77 84 79 85 76 86 72 87 73 88
REMARK SMILES IDX 74 89 75 90 54 91 55 92 63 93 56 94 62 95 64 96 61 97 57 98
REMARK SMILES IDX 58 99 59 100 60 101
REMARK H PARENT 6 18 94 25 94 26 84 54 52 65
REMARK Flexibility Score: inf
ROOT
ATOM      1  O   UNL A   1      39.811  21.229  26.695  1.00  0.00    -0.377 OA
ENDROOT
BRANCH   1   2
ATOM      2  C   UNL A   1      40.464  22.468  26.929  1.00  0.00     0.188 C 
BRANCH   2   3
ATOM      3  C   UNL A   1      39.671  23.775  27.216  1.00  0.00     0.188 C 
BRANCH   3   4
ATOM      4  O   UNL A   1      38.807  24.187  26.174  1.00  0.00    -0.376 OA
BRANCH   4   5
ATOM      5  C   UNL A   1      37.405  24.022  26.222  1.00  0.00     0.202 C 
BRANCH   5   6
ATOM      6  C   UNL A   1      36.792  22.706  25.774  1.00  0.00     0.261 C 
BRANCH   6   7
ATOM      7  O   UNL A   1      35.383  22.773  25.665  1.00  0.00    -0.463 OA
BRANCH   7   8
ATOM      8  C   UNL A   1      34.631  21.816  25.050  1.00  0.00     0.312 C 
ATOM      9  O   UNL A   1      34.205  20.797  25.569  1.00  0.00    -0.252 OA
BRANCH   8  10
ATOM     10  C   UNL A   1      34.353  22.322  23.624  1.00  0.00     0.124 C 
ATOM     11  C   UNL A   1      32.927  24.293  23.633  1.00  0.00     0.106 C 
ATOM     12  C   UNL A   1      32.161  23.047  23.748  1.00  0.00    -0.006 C 
ATOM     13  C   UNL A   1      34.376  23.831  23.413  1.00  0.00     0.048 C 
ATOM     14  C   UNL A   1      32.904  21.984  23.460  1.00  0.00    -0.014 C 
BRANCH  11  15
ATOM     15  N   UNL A   1      32.407  25.150  22.564  1.00  0.00    -0.349 N 
ATOM     16  C   UNL A   1      31.547  26.184  22.351  1.00  0.00     0.227 C 
ATOM     17  O   UNL A   1      31.361  26.355  21.138  1.00  0.00    -0.274 OA
ATOM     18  H   UNL A   1      32.821  24.891  21.710  1.00  0.00     0.164 HD
BRANCH  16  19
ATOM     19  C   UNL A   1      30.807  27.091  23.411  1.00  0.00     0.060 C 
ATOM     20  C   UNL A   1      31.902  27.724  24.313  1.00  0.00     0.078 C 
ATOM     21  C   UNL A   1      29.880  28.142  22.735  1.00  0.00     0.078 C 
ATOM     22  C   UNL A   1      31.426  28.942  25.093  1.00  0.00     0.261 C 
ATOM     23  C   UNL A   1      29.707  29.468  23.495  1.00  0.00     0.261 C 
ATOM     24  N   UNL A   1      30.904  29.941  24.178  1.00  0.00    -0.346 N 
ATOM     25  H   UNL A   1      31.617  30.159  23.484  1.00  0.00     0.346 HD
ATOM     26  H   UNL A   1      30.655  30.770  24.719  1.00  0.00     0.346 HD
BRANCH  19  27
ATOM     27  C   UNL A   1      29.837  26.319  24.407  1.00  0.00     0.014 C 
ATOM     28  C   UNL A   1      30.394  25.763  25.706  1.00  0.00     0.005 C 
ENDBRANCH  19  27
ENDBRANCH  16  19
ENDBRANCH  11  15
ENDBRANCH   8  10
ENDBRANCH   7   8
ENDBRANCH   6   7
ENDBRANCH   5   6
ENDBRANCH   4   5
ENDBRANCH   3   4
ENDBRANCH   2   3
ENDBRANCH   1   2
BRANCH   1  29
ATOM     29  C   UNL A   1      40.545  20.013  26.742  1.00  0.00     0.188 C 
BRANCH  29  30
ATOM     30  C   UNL A   1      42.011  19.974  26.254  1.00  0.00     0.188 C 
BRANCH  30  31
ATOM     31  O   UNL A   1      42.427  18.718  25.742  1.00  0.00    -0.376 OA
BRANCH  31  32
ATOM     32  C   UNL A   1      43.585  18.118  26.285  1.00  0.00     0.202 C 
BRANCH  32  33
ATOM     33  C   UNL A   1      44.829  18.073  25.388  1.00  0.00     0.261 C 
BRANCH  33  34
ATOM     34  O   UNL A   1      45.530  19.314  25.229  1.00  0.00    -0.460 OA
BRANCH  34  35
ATOM     35  C   UNL A   1      45.056  20.150  24.281  1.00  0.00     0.338 C 
ATOM     36  O   UNL A   1      44.535  19.830  23.221  1.00  0.00    -0.246 OA
BRANCH  35  37
ATOM     37  C   UNL A   1      45.070  21.517  24.831  1.00  0.00     0.060 A 
ATOM     38  C   UNL A   1      44.599  22.569  24.034  1.00  0.00     0.016 A 
ATOM     39  C   UNL A   1      45.541  21.760  26.124  1.00  0.00     0.016 A 
ATOM     40  C   UNL A   1      44.633  23.874  24.516  1.00  0.00     0.010 A 
ATOM     41  C   UNL A   1      45.600  23.075  26.595  1.00  0.00     0.010 A 
ATOM     42  C   UNL A   1      45.182  24.139  25.777  1.00  0.00    -0.014 A 
BRANCH  42  43
ATOM     43  C   UNL A   1      45.490  25.545  26.130  1.00  0.00     0.031 A 
ATOM     44  C   UNL A   1      44.401  26.381  26.745  1.00  0.00     0.074 A 
ATOM     45  C   UNL A   1      46.735  26.034  25.994  1.00  0.00     0.049 A 
ATOM     46  N   UNL A   1      44.446  27.609  27.191  1.00  0.00    -0.248 NA
ATOM     47  C   UNL A   1      43.082  25.741  26.875  1.00  0.00     0.031 C 
ATOM     48  C   UNL A   1      47.876  25.295  25.454  1.00  0.00     0.029 A 
ATOM     49  N   UNL A   1      47.249  27.264  26.312  1.00  0.00    -0.354 N 
ATOM     50  C   UNL A   1      43.166  27.888  27.660  1.00  0.00     0.074 A 
ATOM     51  C   UNL A   1      42.358  26.717  27.398  1.00  0.00     0.031 C 
ATOM     52  C   UNL A   1      48.961  26.088  25.489  1.00  0.00     0.029 A 
ATOM     53  C   UNL A   1      48.585  27.397  26.018  1.00  0.00     0.049 A 
ATOM     54  H   UNL A   1      46.712  27.984  26.715  1.00  0.00     0.167 HD
ATOM     55  C   UNL A   1      42.714  29.013  28.267  1.00  0.00     0.034 A 
ATOM     56  C   UNL A   1      49.404  28.460  26.151  1.00  0.00     0.034 A 
ATOM     57  C   UNL A   1      43.532  30.177  28.503  1.00  0.00     0.049 A 
ATOM     58  C   UNL A   1      48.853  29.732  26.751  1.00  0.00     0.074 A 
ATOM     59  C   UNL A   1      43.180  31.370  29.110  1.00  0.00     0.029 A 
ATOM     60  N   UNL A   1      44.866  30.304  28.129  1.00  0.00    -0.354 N 
ATOM     61  N   UNL A   1      47.644  29.980  27.203  1.00  0.00    -0.248 NA
ATOM     62  C   UNL A   1      49.785  30.859  26.874  1.00  0.00     0.031 C 
ATOM     63  C   UNL A   1      44.269  32.244  29.027  1.00  0.00     0.029 A 
ATOM     64  C   UNL A   1      45.336  31.567  28.458  1.00  0.00     0.049 A 
ATOM     65  H   UNL A   1      45.398  29.599  27.695  1.00  0.00     0.167 HD
ATOM     66  C   UNL A   1      47.682  31.285  27.692  1.00  0.00     0.074 A 
ATOM     67  C   UNL A   1      49.041  31.752  27.508  1.00  0.00     0.031 C 
ATOM     68  C   UNL A   1      46.689  32.031  28.244  1.00  0.00     0.034 A 
BRANCH  55  69
ATOM     69  C   UNL A   1      41.254  29.051  28.657  1.00  0.00     0.023 A 
ATOM     70  C   UNL A   1      40.837  28.934  29.995  1.00  0.00     0.031 A 
ATOM     71  C   UNL A   1      40.261  29.176  27.669  1.00  0.00     0.131 A 
ATOM     72  C   UNL A   1      39.467  28.874  30.300  1.00  0.00     0.055 A 
ATOM     73  C   UNL A   1      38.902  29.202  27.987  1.00  0.00     0.041 A 
ATOM     74  F   UNL A   1      40.594  29.260  26.372  1.00  0.00    -0.206 F 
ATOM     75  C   UNL A   1      38.497  29.036  29.308  1.00  0.00     0.022 A 
BRANCH  72  76
ATOM     76  S   UNL A   1      38.971  28.431  31.988  1.00  0.00     0.124 S 
ATOM     77  O   UNL A   1      38.166  27.235  31.754  1.00  0.00    -0.237 OA
ATOM     78  O   UNL A   1      40.254  28.219  32.648  1.00  0.00    -0.237 OA
ATOM     79  O   UNL A   1      38.220  29.599  32.443  1.00  0.00    -0.744 OA
ENDBRANCH  72  76
ENDBRANCH  55  69
BRANCH  56  80
ATOM     80  C   UNL A   1      50.820  28.391  25.682  1.00  0.00     0.023 A 
ATOM     81  C   UNL A   1      51.154  28.581  24.331  1.00  0.00     0.031 A 
ATOM     82  C   UNL A   1      51.857  28.067  26.575  1.00  0.00     0.131 A 
ATOM     83  C   UNL A   1      52.479  28.394  23.904  1.00  0.00     0.055 A 
ATOM     84  C   UNL A   1      53.182  27.943  26.157  1.00  0.00     0.041 A 
ATOM     85  F   UNL A   1      51.596  27.868  27.878  1.00  0.00    -0.206 F 
ATOM     86  C   UNL A   1      53.497  28.092  24.811  1.00  0.00     0.022 A 
BRANCH  83  87
ATOM     87  S   UNL A   1      52.836  28.452  22.127  1.00  0.00     0.124 S 
ATOM     88  O   UNL A   1      52.282  27.183  21.670  1.00  0.00    -0.237 OA
ATOM     89  O   UNL A   1      52.117  29.652  21.713  1.00  0.00    -0.237 OA
ATOM     90  O   UNL A   1      54.293  28.554  22.076  1.00  0.00    -0.744 OA
ENDBRANCH  83  87
ENDBRANCH  56  80
BRANCH  68  91
ATOM     91  C   UNL A   1      47.060  33.420  28.715  1.00  0.00     0.023 A 
ATOM     92  C   UNL A   1      47.084  34.518  27.836  1.00  0.00     0.031 A 
ATOM     93  C   UNL A   1      47.453  33.639  30.049  1.00  0.00     0.131 A 
ATOM     94  C   UNL A   1      47.587  35.754  28.271  1.00  0.00     0.055 A 
ATOM     95  C   UNL A   1      47.867  34.894  30.498  1.00  0.00     0.041 A 
ATOM     96  F   UNL A   1      47.454  32.632  30.937  1.00  0.00    -0.206 F 
ATOM     97  C   UNL A   1      47.960  35.955  29.602  1.00  0.00     0.022 A 
BRANCH  94  98
ATOM     98  S   UNL A   1      47.902  37.043  27.035  1.00  0.00     0.124 S 
ATOM     99  O   UNL A   1      47.217  38.194  27.617  1.00  0.00    -0.237 OA
ATOM    100  O   UNL A   1      49.359  37.109  27.019  1.00  0.00    -0.237 OA
ATOM    101  O   UNL A   1      47.291  36.509  25.820  1.00  0.00    -0.744 OA
ENDBRANCH  94  98
ENDBRANCH  68  91
ENDBRANCH  42  43
ENDBRANCH  35  37
ENDBRANCH  34  35
ENDBRANCH  33  34
ENDBRANCH  32  33
ENDBRANCH  31  32
ENDBRANCH  30  31
ENDBRANCH  29  30
ENDBRANCH   1  29
TORSDOF 26
ENDMDL
MODEL 3
REMARK VINA RESULT:      -9.4      4.583      8.897
REMARK SMILES CCC1(C(=O)N[C@H]2C=C[C@H](C(=O)OCCOCCOCCOCCOC(=O)c3ccc(-c4c5nc(c(-c6cc(S(=O)(=O)[O-])ccc6F)c6ccc([nH]6)c(-c6cc(S(=O)(=O)[O-])ccc6F)c6nc(c(-c7cc(S(=O)(=O)[O-])ccc7F)c7ccc4[nH]7)C=C6)C=C5)cc3)C2)CC[NH2+]CC1
REMARK SMILES IDX 19 1 18 2 17 3 16 4 15 5 14 6 13 7 11 8 12 9 10 10 7 11 8 12
REMARK SMILES IDX 91 13 9 14 6 15 4 16 5 17 3 19 92 20 96 21 93 22 95 23 94 24
REMARK SMILES IDX 2 27 1 28 20 29 21 30 22 31 23 32 24 33 25 34 26 35 27 36
REMARK SMILES IDX 28 37 29 38 90 39 30 40 89 41 31 42 32 43 33 44 83 45 34 46
REMARK SMILES IDX 88 47 82 48 84 49 35 50 87 51 81 52 80 53 36 55 68 56 48 57
REMARK SMILES IDX 67 58 49 59 52 60 66 61 85 62 50 63 51 64 65 66 86 67 53 68
REMARK SMILES IDX 37 69 38 70 46 71 39 72 45 73 47 74 44 75 40 76 41 77 42 78
REMARK SMILES IDX 43 79 69 80 70 81 78 82 71 83 77 84 79 85 76 86 72 87 73 88
REMARK SMILES IDX 74 89 75 90 54 91 55 92 63 93 56 94 62 95 64 96 61 97 57 98
REMARK SMILES IDX 58 99 59 100 60 101
REMARK H PARENT 6 18 94 25 94 26 84 54 52 65
REMARK Flexibility Score: inf
ROOT
ATOM      1  O   UNL A   1      31.874  28.578  27.265  1.00  0.00    -0.377 OA
ENDROOT
BRANCH   1   2
ATOM      2  C   UNL A   1      32.169  27.220  27.554  1.00  0.00     0.188 C 
BRANCH   2   3
ATOM      3  C   UNL A   1      32.141  26.119  26.456  1.00  0.00     0.188 C 
BRANCH   3   4
ATOM      4  O   UNL A   1      30.997  25.286  26.478  1.00  0.00    -0.376 OA
BRANCH   4   5
ATOM      5  C   UNL A   1      30.064  25.227  25.418  1.00  0.00     0.202 C 
BRANCH   5   6
ATOM      6  C   UNL A   1      29.660  26.506  24.705  1.00  0.00     0.261 C 
BRANCH   6   7
ATOM      7  O   UNL A   1      29.868  26.437  23.308  1.00  0.00    -0.463 OA
BRANCH   7   8
ATOM      8  C   UNL A   1      30.627  27.335  22.616  1.00  0.00     0.312 C 
ATOM      9  O   UNL A   1      30.544  28.550  22.691  1.00  0.00    -0.252 OA
BRANCH   8  10
ATOM     10  C   UNL A   1      31.654  26.519  21.812  1.00  0.00     0.124 C 
ATOM     11  C   UNL A   1      33.180  25.310  23.272  1.00  0.00     0.106 C 
ATOM     12  C   UNL A   1      33.577  26.710  23.083  1.00  0.00    -0.006 C 
ATOM     13  C   UNL A   1      31.980  25.123  22.330  1.00  0.00     0.048 C 
ATOM     14  C   UNL A   1      32.918  27.277  22.078  1.00  0.00    -0.014 C 
BRANCH  11  15
ATOM     15  N   UNL A   1      34.291  24.393  23.009  1.00  0.00    -0.349 N 
ATOM     16  C   UNL A   1      34.864  23.251  23.480  1.00  0.00     0.227 C 
ATOM     17  O   UNL A   1      35.964  23.059  22.942  1.00  0.00    -0.274 OA
ATOM     18  H   UNL A   1      34.795  24.709  22.226  1.00  0.00     0.164 HD
BRANCH  16  19
ATOM     19  C   UNL A   1      34.320  22.247  24.571  1.00  0.00     0.060 C 
ATOM     20  C   UNL A   1      34.451  22.957  25.947  1.00  0.00     0.078 C 
ATOM     21  C   UNL A   1      32.874  21.768  24.257  1.00  0.00     0.078 C 
ATOM     22  C   UNL A   1      33.594  22.334  27.042  1.00  0.00     0.261 C 
ATOM     23  C   UNL A   1      31.998  21.442  25.479  1.00  0.00     0.261 C 
ATOM     24  N   UNL A   1      32.202  22.314  26.628  1.00  0.00    -0.346 N 
ATOM     25  H   UNL A   1      31.917  23.261  26.379  1.00  0.00     0.346 HD
ATOM     26  H   UNL A   1      31.644  21.957  27.403  1.00  0.00     0.346 HD
BRANCH  19  27
ATOM     27  C   UNL A   1      35.142  20.893  24.718  1.00  0.00     0.014 C 
ATOM     28  C   UNL A   1      36.517  20.923  25.361  1.00  0.00     0.005 C 
ENDBRANCH  19  27
ENDBRANCH  16  19
ENDBRANCH  11  15
ENDBRANCH   8  10
ENDBRANCH   7   8
ENDBRANCH   6   7
ENDBRANCH   5   6
ENDBRANCH   4   5
ENDBRANCH   3   4
ENDBRANCH   2   3
ENDBRANCH   1   2
BRANCH   1  29
ATOM     29  C   UNL A   1      32.000  29.071  25.938  1.00  0.00     0.188 C 
BRANCH  29  30
ATOM     30  C   UNL A   1      31.719  30.560  25.634  1.00  0.00     0.188 C 
BRANCH  30  31
ATOM     31  O   UNL A   1      31.372  31.337  26.770  1.00  0.00    -0.376 OA
BRANCH  31  32
ATOM     32  C   UNL A   1      31.831  32.671  26.842  1.00  0.00     0.202 C 
BRANCH  32  33
ATOM     33  C   UNL A   1      33.138  32.915  27.609  1.00  0.00     0.261 C 
BRANCH  33  34
ATOM     34  O   UNL A   1      33.117  33.996  28.550  1.00  0.00    -0.460 OA
BRANCH  34  35
ATOM     35  C   UNL A   1      34.175  34.833  28.522  1.00  0.00     0.338 C 
ATOM     36  O   UNL A   1      34.231  35.920  27.961  1.00  0.00    -0.246 OA
BRANCH  35  37
ATOM     37  C   UNL A   1      35.186  34.322  29.464  1.00  0.00     0.060 A 
ATOM     38  C   UNL A   1      36.541  34.432  29.125  1.00  0.00     0.016 A 
ATOM     39  C   UNL A   1      34.801  33.742  30.676  1.00  0.00     0.016 A 
ATOM     40  C   UNL A   1      37.514  33.928  29.982  1.00  0.00     0.010 A 
ATOM     41  C   UNL A   1      35.779  33.211  31.522  1.00  0.00     0.010 A 
ATOM     42  C   UNL A   1      37.136  33.268  31.158  1.00  0.00    -0.014 A 
BRANCH  42  43
ATOM     43  C   UNL A   1      38.158  32.476  31.882  1.00  0.00     0.031 A 
ATOM     44  C   UNL A   1      38.786  31.306  31.175  1.00  0.00     0.074 A 
ATOM     45  C   UNL A   1      38.585  32.849  33.101  1.00  0.00     0.049 A 
ATOM     46  N   UNL A   1      39.739  30.506  31.575  1.00  0.00    -0.248 NA
ATOM     47  C   UNL A   1      38.266  31.000  29.832  1.00  0.00     0.031 C 
ATOM     48  C   UNL A   1      38.080  33.994  33.857  1.00  0.00     0.029 A 
ATOM     49  N   UNL A   1      39.551  32.310  33.911  1.00  0.00    -0.354 N 
ATOM     50  C   UNL A   1      39.939  29.605  30.533  1.00  0.00     0.074 A 
ATOM     51  C   UNL A   1      38.972  29.930  29.506  1.00  0.00     0.031 C 
ATOM     52  C   UNL A   1      38.750  34.077  35.019  1.00  0.00     0.029 A 
ATOM     53  C   UNL A   1      39.703  32.973  35.105  1.00  0.00     0.049 A 
ATOM     54  H   UNL A   1      40.086  31.522  33.660  1.00  0.00     0.167 HD
ATOM     55  C   UNL A   1      40.854  28.609  30.438  1.00  0.00     0.034 A 
ATOM     56  C   UNL A   1      40.512  32.708  36.151  1.00  0.00     0.034 A 
ATOM     57  C   UNL A   1      41.797  28.290  31.482  1.00  0.00     0.049 A 
ATOM     58  C   UNL A   1      41.464  31.539  36.055  1.00  0.00     0.074 A 
ATOM     59  C   UNL A   1      42.770  27.305  31.493  1.00  0.00     0.029 A 
ATOM     60  N   UNL A   1      41.878  28.939  32.709  1.00  0.00    -0.354 N 
ATOM     61  N   UNL A   1      41.653  30.701  35.060  1.00  0.00    -0.248 NA
ATOM     62  C   UNL A   1      42.323  31.293  37.219  1.00  0.00     0.031 C 
ATOM     63  C   UNL A   1      43.377  27.303  32.754  1.00  0.00     0.029 A 
ATOM     64  C   UNL A   1      42.856  28.350  33.497  1.00  0.00     0.049 A 
ATOM     65  H   UNL A   1      41.323  29.705  32.979  1.00  0.00     0.167 HD
ATOM     66  C   UNL A   1      42.676  29.848  35.470  1.00  0.00     0.074 A 
ATOM     67  C   UNL A   1      43.081  30.298  36.787  1.00  0.00     0.031 C 
ATOM     68  C   UNL A   1      43.233  28.791  34.822  1.00  0.00     0.034 A 
BRANCH  55  69
ATOM     69  C   UNL A   1      40.830  27.762  29.187  1.00  0.00     0.023 A 
ATOM     70  C   UNL A   1      41.762  27.938  28.149  1.00  0.00     0.031 A 
ATOM     71  C   UNL A   1      39.837  26.781  29.016  1.00  0.00     0.131 A 
ATOM     72  C   UNL A   1      41.641  27.196  26.963  1.00  0.00     0.055 A 
ATOM     73  C   UNL A   1      39.772  25.987  27.870  1.00  0.00     0.041 A 
ATOM     74  F   UNL A   1      38.900  26.586  29.957  1.00  0.00    -0.206 F 
ATOM     75  C   UNL A   1      40.668  26.202  26.829  1.00  0.00     0.022 A 
BRANCH  72  76
ATOM     76  S   UNL A   1      42.672  27.653  25.542  1.00  0.00     0.124 S 
ATOM     77  O   UNL A   1      43.964  27.890  26.180  1.00  0.00    -0.237 OA
ATOM     78  O   UNL A   1      42.585  26.469  24.695  1.00  0.00    -0.237 OA
ATOM     79  O   UNL A   1      42.018  28.848  25.013  1.00  0.00    -0.744 OA
ENDBRANCH  72  76
ENDBRANCH  55  69
BRANCH  56  80
ATOM     80  C   UNL A   1      40.444  33.534  37.393  1.00  0.00     0.023 A 
ATOM     81  C   UNL A   1      41.375  34.555  37.645  1.00  0.00     0.031 A 
ATOM     82  C   UNL A   1      39.479  33.267  38.380  1.00  0.00     0.131 A 
ATOM     83  C   UNL A   1      41.354  35.234  38.874  1.00  0.00     0.055 A 
ATOM     84  C   UNL A   1      39.423  33.986  39.574  1.00  0.00     0.041 A 
ATOM     85  F   UNL A   1      38.567  32.298  38.195  1.00  0.00    -0.206 F 
ATOM     86  C   UNL A   1      40.374  34.967  39.833  1.00  0.00     0.022 A 
BRANCH  83  87
ATOM     87  S   UNL A   1      42.689  36.404  39.244  1.00  0.00     0.124 S 
ATOM     88  O   UNL A   1      42.934  36.139  40.657  1.00  0.00    -0.237 OA
ATOM     89  O   UNL A   1      43.733  35.975  38.319  1.00  0.00    -0.237 OA
ATOM     90  O   UNL A   1      42.093  37.706  38.946  1.00  0.00    -0.744 OA
ENDBRANCH  83  87
ENDBRANCH  56  80
BRANCH  68  91
ATOM     91  C   UNL A   1      44.365  28.077  35.528  1.00  0.00     0.023 A 
ATOM     92  C   UNL A   1      45.697  28.517  35.422  1.00  0.00     0.031 A 
ATOM     93  C   UNL A   1      44.118  26.906  36.268  1.00  0.00     0.131 A 
ATOM     94  C   UNL A   1      46.736  27.740  35.956  1.00  0.00     0.055 A 
ATOM     95  C   UNL A   1      45.149  26.186  36.873  1.00  0.00     0.041 A 
ATOM     96  F   UNL A   1      42.869  26.433  36.405  1.00  0.00    -0.206 F 
ATOM     97  C   UNL A   1      46.470  26.588  36.698  1.00  0.00     0.022 A 
BRANCH  94  98
ATOM     98  S   UNL A   1      48.446  28.167  35.524  1.00  0.00     0.124 S 
ATOM     99  O   UNL A   1      49.200  27.493  36.577  1.00  0.00    -0.237 OA
ATOM    100  O   UNL A   1      48.578  27.603  34.185  1.00  0.00    -0.237 OA
ATOM    101  O   UNL A   1      48.460  29.626  35.588  1.00  0.00    -0.744 OA
ENDBRANCH  94  98
ENDBRANCH  68  91
ENDBRANCH  42  43
ENDBRANCH  35  37
ENDBRANCH  34  35
ENDBRANCH  33  34
ENDBRANCH  32  33
ENDBRANCH  31  32
ENDBRANCH  30  31
ENDBRANCH  29  30
ENDBRANCH   1  29
TORSDOF 26
ENDMDL
