MODEL 1
REMARK VINA RESULT:      -8.1      0.000      0.000
REMARK SMILES COc1cc(C)c(S(=O)(=O)Nc2cc(C(=O)OCCOCCOCCOCCOC(=O)c3ccc(-c4c5nc(c(-c6cc(S(=O)(=O)[O-])ccc6F)c6ccc([nH]6)c(-c6cc(S(=O)(=O)[O-])ccc6F)c6nc(c(-c7cc(S(=O)(=O)[O-])ccc7F)c7ccc4[nH]7)C=C6)C=C5)cc3)ccc2F)cc1OC
REMARK SMILES IDX 22 1 21 2 20 3 19 4 18 5 17 6 15 7 16 8 14 9 12 10 13 11
REMARK SMILES IDX 97 12 96 13 98 14 95 15 11 16 8 18 9 19 10 20 7 21 3 22 4 23
REMARK SMILES IDX 100 24 5 25 99 26 6 27 2 28 1 29 101 30 102 31 23 32 24 33
REMARK SMILES IDX 25 34 26 35 27 36 28 37 29 38 30 39 31 40 32 41 33 42 94 43
REMARK SMILES IDX 34 44 93 45 35 46 36 47 37 48 87 49 38 50 92 51 86 52 88 53
REMARK SMILES IDX 39 54 91 55 85 56 84 57 40 59 72 60 52 61 71 62 53 63 56 64
REMARK SMILES IDX 70 65 89 66 54 67 55 68 69 70 90 71 57 72 41 73 42 74 50 75
REMARK SMILES IDX 43 76 49 77 51 78 48 79 44 80 45 81 46 82 47 83 73 84 74 85
REMARK SMILES IDX 82 86 75 87 81 88 83 89 80 90 76 91 77 92 78 93 79 94 58 95
REMARK SMILES IDX 59 96 67 97 60 98 66 99 68 100 65 101 61 102 62 103 63 104
REMARK SMILES IDX 64 105
REMARK H PARENT 11 17 88 58 56 69
REMARK Flexibility Score: inf
ROOT
ATOM      1  C   UNL A   1      39.350  28.278  28.500  1.00  0.00     0.188 C 
ENDROOT
BRANCH   1   2
ATOM      2  C   UNL A   1      38.593  29.355  27.699  1.00  0.00     0.188 C 
BRANCH   2   3
ATOM      3  O   UNL A   1      37.625  30.178  28.331  1.00  0.00    -0.376 OA
BRANCH   3   4
ATOM      4  C   UNL A   1      38.120  31.130  29.274  1.00  0.00     0.202 C 
BRANCH   4   5
ATOM      5  C   UNL A   1      37.142  31.618  30.327  1.00  0.00     0.261 C 
BRANCH   5   6
ATOM      6  O   UNL A   1      36.266  32.547  29.695  1.00  0.00    -0.460 OA
BRANCH   6   7
ATOM      7  C   UNL A   1      34.988  32.401  30.055  1.00  0.00     0.338 C 
ATOM      8  O   UNL A   1      34.494  32.511  31.156  1.00  0.00    -0.246 OA
BRANCH   7   9
ATOM      9  C   UNL A   1      34.189  32.410  28.820  1.00  0.00     0.062 A 
ATOM     10  C   UNL A   1      32.857  31.267  27.234  1.00  0.00     0.085 A 
ATOM     11  C   UNL A   1      33.959  31.246  28.072  1.00  0.00     0.045 A 
ATOM     12  C   UNL A   1      32.228  32.494  26.927  1.00  0.00     0.147 A 
ATOM     13  C   UNL A   1      32.570  33.678  27.560  1.00  0.00     0.042 A 
ATOM     14  F   UNL A   1      31.164  32.502  26.105  1.00  0.00    -0.205 F 
ATOM     15  C   UNL A   1      33.522  33.623  28.559  1.00  0.00     0.019 A 
BRANCH  10  16
ATOM     16  N   UNL A   1      32.136  30.122  26.822  1.00  0.00    -0.277 N 
ATOM     17  H   UNL A   1      31.251  30.312  26.437  1.00  0.00     0.180 HD
BRANCH  16  18
ATOM     18  S   UNL A   1      32.531  28.515  26.882  1.00  0.00     0.262 S 
ATOM     19  O   UNL A   1      31.638  27.900  27.839  1.00  0.00    -0.201 OA
ATOM     20  O   UNL A   1      33.961  28.535  27.142  1.00  0.00    -0.201 OA
BRANCH  18  21
ATOM     21  C   UNL A   1      32.349  27.606  25.353  1.00  0.00     0.094 A 
ATOM     22  C   UNL A   1      31.855  26.614  22.733  1.00  0.00     0.161 A 
ATOM     23  C   UNL A   1      32.874  26.096  23.544  1.00  0.00     0.055 A 
ATOM     24  C   UNL A   1      31.033  27.614  23.262  1.00  0.00     0.162 A 
ATOM     25  C   UNL A   1      33.064  26.497  24.890  1.00  0.00    -0.027 A 
ATOM     26  C   UNL A   1      31.316  28.119  24.538  1.00  0.00     0.073 A 
ATOM     27  C   UNL A   1      33.953  25.608  25.700  1.00  0.00     0.046 C 
BRANCH  22  28
ATOM     28  O   UNL A   1      31.629  26.210  21.451  1.00  0.00    -0.493 OA
ATOM     29  C   UNL A   1      32.625  25.537  20.692  1.00  0.00     0.278 C 
ENDBRANCH  22  28
BRANCH  24  30
ATOM     30  O   UNL A   1      29.932  28.204  22.695  1.00  0.00    -0.493 OA
ATOM     31  C   UNL A   1      29.984  29.595  22.402  1.00  0.00     0.278 C 
ENDBRANCH  24  30
ENDBRANCH  18  21
ENDBRANCH  16  18
ENDBRANCH  10  16
ENDBRANCH   7   9
ENDBRANCH   6   7
ENDBRANCH   5   6
ENDBRANCH   4   5
ENDBRANCH   3   4
ENDBRANCH   2   3
ENDBRANCH   1   2
BRANCH   1  32
ATOM     32  O   UNL A   1      40.706  28.553  28.813  1.00  0.00    -0.377 OA
BRANCH  32  33
ATOM     33  C   UNL A   1      41.486  28.772  27.630  1.00  0.00     0.188 C 
BRANCH  33  34
ATOM     34  C   UNL A   1      41.579  27.500  26.798  1.00  0.00     0.188 C 
BRANCH  34  35
ATOM     35  O   UNL A   1      42.638  26.610  27.140  1.00  0.00    -0.376 OA
BRANCH  35  36
ATOM     36  C   UNL A   1      43.964  26.924  26.749  1.00  0.00     0.202 C 
BRANCH  36  37
ATOM     37  C   UNL A   1      44.101  27.437  25.314  1.00  0.00     0.261 C 
BRANCH  37  38
ATOM     38  O   UNL A   1      45.257  26.830  24.701  1.00  0.00    -0.460 OA
BRANCH  38  39
ATOM     39  C   UNL A   1      46.349  27.640  24.590  1.00  0.00     0.338 C 
ATOM     40  O   UNL A   1      46.505  28.480  23.722  1.00  0.00    -0.246 OA
BRANCH  39  41
ATOM     41  C   UNL A   1      47.398  27.224  25.569  1.00  0.00     0.060 A 
ATOM     42  C   UNL A   1      47.445  25.897  26.029  1.00  0.00     0.016 A 
ATOM     43  C   UNL A   1      48.100  28.205  26.256  1.00  0.00     0.016 A 
ATOM     44  C   UNL A   1      48.005  25.602  27.286  1.00  0.00     0.010 A 
ATOM     45  C   UNL A   1      48.568  27.918  27.525  1.00  0.00     0.010 A 
ATOM     46  C   UNL A   1      48.456  26.639  28.097  1.00  0.00    -0.014 A 
BRANCH  46  47
ATOM     47  C   UNL A   1      48.612  26.560  29.572  1.00  0.00     0.031 A 
ATOM     48  C   UNL A   1      47.376  26.670  30.430  1.00  0.00     0.074 A 
ATOM     49  C   UNL A   1      49.770  26.048  30.090  1.00  0.00     0.049 A 
ATOM     50  N   UNL A   1      47.336  26.486  31.701  1.00  0.00    -0.248 NA
ATOM     51  C   UNL A   1      46.031  26.926  29.908  1.00  0.00     0.031 C 
ATOM     52  C   UNL A   1      49.978  25.435  31.401  1.00  0.00     0.029 A 
ATOM     53  N   UNL A   1      51.054  25.962  29.533  1.00  0.00    -0.354 N 
ATOM     54  C   UNL A   1      46.027  26.300  32.114  1.00  0.00     0.074 A 
ATOM     55  C   UNL A   1      45.247  26.601  30.946  1.00  0.00     0.031 C 
ATOM     56  C   UNL A   1      51.274  25.194  31.645  1.00  0.00     0.029 A 
ATOM     57  C   UNL A   1      51.992  25.866  30.598  1.00  0.00     0.049 A 
ATOM     58  H   UNL A   1      51.269  25.968  28.573  1.00  0.00     0.167 HD
ATOM     59  C   UNL A   1      45.814  25.820  33.379  1.00  0.00     0.034 A 
ATOM     60  C   UNL A   1      52.840  26.906  30.849  1.00  0.00     0.034 A 
ATOM     61  C   UNL A   1      47.070  25.885  34.122  1.00  0.00     0.049 A 
ATOM     62  C   UNL A   1      52.354  27.694  32.072  1.00  0.00     0.074 A 
ATOM     63  C   UNL A   1      47.969  24.921  34.531  1.00  0.00     0.029 A 
ATOM     64  N   UNL A   1      47.727  27.114  34.214  1.00  0.00    -0.354 N 
ATOM     65  N   UNL A   1      51.118  27.662  32.527  1.00  0.00    -0.248 NA
ATOM     66  C   UNL A   1      53.237  28.422  32.975  1.00  0.00     0.031 C 
ATOM     67  C   UNL A   1      49.233  25.567  34.589  1.00  0.00     0.029 A 
ATOM     68  C   UNL A   1      49.077  26.933  34.432  1.00  0.00     0.049 A 
ATOM     69  H   UNL A   1      47.286  27.991  34.134  1.00  0.00     0.167 HD
ATOM     70  C   UNL A   1      51.062  28.179  33.797  1.00  0.00     0.074 A 
ATOM     71  C   UNL A   1      52.405  28.712  33.995  1.00  0.00     0.031 C 
ATOM     72  C   UNL A   1      49.979  28.060  34.641  1.00  0.00     0.034 A 
BRANCH  59  73
ATOM     73  C   UNL A   1      44.582  25.135  33.964  1.00  0.00     0.023 A 
ATOM     74  C   UNL A   1      43.750  25.865  34.856  1.00  0.00     0.031 A 
ATOM     75  C   UNL A   1      44.209  23.789  33.786  1.00  0.00     0.131 A 
ATOM     76  C   UNL A   1      42.654  25.273  35.522  1.00  0.00     0.055 A 
ATOM     77  C   UNL A   1      43.101  23.206  34.428  1.00  0.00     0.041 A 
ATOM     78  F   UNL A   1      44.900  22.957  33.000  1.00  0.00    -0.206 F 
ATOM     79  C   UNL A   1      42.319  23.943  35.303  1.00  0.00     0.022 A 
BRANCH  76  80
ATOM     80  S   UNL A   1      41.670  26.262  36.692  1.00  0.00     0.124 S 
ATOM     81  O   UNL A   1      40.472  25.446  36.857  1.00  0.00    -0.237 OA
ATOM     82  O   UNL A   1      42.553  26.352  37.849  1.00  0.00    -0.237 OA
ATOM     83  O   UNL A   1      41.462  27.523  35.980  1.00  0.00    -0.744 OA
ENDBRANCH  76  80
ENDBRANCH  59  73
BRANCH  60  84
ATOM     84  C   UNL A   1      53.478  27.314  29.552  1.00  0.00     0.023 A 
ATOM     85  C   UNL A   1      53.470  26.296  28.553  1.00  0.00     0.031 A 
ATOM     86  C   UNL A   1      53.393  28.643  29.117  1.00  0.00     0.131 A 
ATOM     87  C   UNL A   1      53.073  26.599  27.237  1.00  0.00     0.055 A 
ATOM     88  C   UNL A   1      53.075  28.942  27.781  1.00  0.00     0.041 A 
ATOM     89  F   UNL A   1      53.397  29.653  30.000  1.00  0.00    -0.206 F 
ATOM     90  C   UNL A   1      52.831  27.920  26.861  1.00  0.00     0.022 A 
BRANCH  87  91
ATOM     91  S   UNL A   1      52.576  25.247  26.114  1.00  0.00     0.124 S 
ATOM     92  O   UNL A   1      52.348  25.956  24.861  1.00  0.00    -0.237 OA
ATOM     93  O   UNL A   1      53.727  24.351  26.143  1.00  0.00    -0.237 OA
ATOM     94  O   UNL A   1      51.383  24.693  26.753  1.00  0.00    -0.744 OA
ENDBRANCH  87  91
ENDBRANCH  60  84
BRANCH  72  95
ATOM     95  C   UNL A   1      49.739  28.893  35.889  1.00  0.00     0.023 A 
ATOM     96  C   UNL A   1      49.684  28.320  37.158  1.00  0.00     0.031 A 
ATOM     97  C   UNL A   1      49.649  30.313  35.866  1.00  0.00     0.131 A 
ATOM     98  C   UNL A   1      49.429  29.098  38.297  1.00  0.00     0.055 A 
ATOM     99  C   UNL A   1      49.537  31.097  37.016  1.00  0.00     0.041 A 
ATOM    100  F   UNL A   1      49.669  31.023  34.729  1.00  0.00    -0.206 F 
ATOM    101  C   UNL A   1      49.400  30.487  38.248  1.00  0.00     0.022 A 
BRANCH  98 102
ATOM    102  S   UNL A   1      49.022  28.221  39.821  1.00  0.00     0.124 S 
ATOM    103  O   UNL A   1      49.628  26.915  39.572  1.00  0.00    -0.237 OA
ATOM    104  O   UNL A   1      49.675  29.036  40.841  1.00  0.00    -0.237 OA
ATOM    105  O   UNL A   1      47.563  28.241  39.847  1.00  0.00    -0.744 OA
ENDBRANCH  98 102
ENDBRANCH  72  95
ENDBRANCH  46  47
ENDBRANCH  39  41
ENDBRANCH  38  39
ENDBRANCH  37  38
ENDBRANCH  36  37
ENDBRANCH  35  36
ENDBRANCH  34  35
ENDBRANCH  33  34
ENDBRANCH  32  33
ENDBRANCH   1  32
TORSDOF 28
ENDMDL
MODEL 2
REMARK VINA RESULT:      -8.0      4.801      6.943
REMARK SMILES COc1cc(C)c(S(=O)(=O)Nc2cc(C(=O)OCCOCCOCCOCCOC(=O)c3ccc(-c4c5nc(c(-c6cc(S(=O)(=O)[O-])ccc6F)c6ccc([nH]6)c(-c6cc(S(=O)(=O)[O-])ccc6F)c6nc(c(-c7cc(S(=O)(=O)[O-])ccc7F)c7ccc4[nH]7)C=C6)C=C5)cc3)ccc2F)cc1OC
REMARK SMILES IDX 22 1 21 2 20 3 19 4 18 5 17 6 15 7 16 8 14 9 12 10 13 11
REMARK SMILES IDX 97 12 96 13 98 14 95 15 11 16 8 18 9 19 10 20 7 21 3 22 4 23
REMARK SMILES IDX 100 24 5 25 99 26 6 27 2 28 1 29 101 30 102 31 23 32 24 33
REMARK SMILES IDX 25 34 26 35 27 36 28 37 29 38 30 39 31 40 32 41 33 42 94 43
REMARK SMILES IDX 34 44 93 45 35 46 36 47 37 48 87 49 38 50 92 51 86 52 88 53
REMARK SMILES IDX 39 54 91 55 85 56 84 57 40 59 72 60 52 61 71 62 53 63 56 64
REMARK SMILES IDX 70 65 89 66 54 67 55 68 69 70 90 71 57 72 41 73 42 74 50 75
REMARK SMILES IDX 43 76 49 77 51 78 48 79 44 80 45 81 46 82 47 83 73 84 74 85
REMARK SMILES IDX 82 86 75 87 81 88 83 89 80 90 76 91 77 92 78 93 79 94 58 95
REMARK SMILES IDX 59 96 67 97 60 98 66 99 68 100 65 101 61 102 62 103 63 104
REMARK SMILES IDX 64 105
REMARK H PARENT 11 17 88 58 56 69
REMARK Flexibility Score: inf
ROOT
ATOM      1  C   UNL A   1      39.664  28.088  28.856  1.00  0.00     0.188 C 
ENDROOT
BRANCH   1   2
ATOM      2  C   UNL A   1      38.299  28.670  28.439  1.00  0.00     0.188 C 
BRANCH   2   3
ATOM      3  O   UNL A   1      38.137  30.069  28.256  1.00  0.00    -0.376 OA
BRANCH   3   4
ATOM      4  C   UNL A   1      36.793  30.552  28.226  1.00  0.00     0.202 C 
BRANCH   4   5
ATOM      5  C   UNL A   1      35.714  29.545  27.876  1.00  0.00     0.261 C 
BRANCH   5   6
ATOM      6  O   UNL A   1      34.766  30.207  27.044  1.00  0.00    -0.460 OA
BRANCH   6   7
ATOM      7  C   UNL A   1      33.616  29.541  26.914  1.00  0.00     0.338 C 
ATOM      8  O   UNL A   1      32.563  29.731  27.481  1.00  0.00    -0.246 OA
BRANCH   7   9
ATOM      9  C   UNL A   1      33.728  28.723  25.697  1.00  0.00     0.062 A 
ATOM     10  C   UNL A   1      33.658  26.609  24.637  1.00  0.00     0.085 A 
ATOM     11  C   UNL A   1      34.028  27.353  25.745  1.00  0.00     0.045 A 
ATOM     12  C   UNL A   1      33.311  27.261  23.433  1.00  0.00     0.147 A 
ATOM     13  C   UNL A   1      33.169  28.637  23.353  1.00  0.00     0.042 A 
ATOM     14  F   UNL A   1      32.962  26.526  22.363  1.00  0.00    -0.205 F 
ATOM     15  C   UNL A   1      33.323  29.369  24.513  1.00  0.00     0.019 A 
BRANCH  10  16
ATOM     16  N   UNL A   1      33.364  25.225  24.659  1.00  0.00    -0.277 N 
ATOM     17  H   UNL A   1      32.423  25.010  24.844  1.00  0.00     0.180 HD
BRANCH  16  18
ATOM     18  S   UNL A   1      34.340  23.908  24.426  1.00  0.00     0.262 S 
ATOM     19  O   UNL A   1      35.508  24.100  25.257  1.00  0.00    -0.201 OA
ATOM     20  O   UNL A   1      34.486  23.855  22.981  1.00  0.00    -0.201 OA
BRANCH  18  21
ATOM     21  C   UNL A   1      33.642  22.326  24.879  1.00  0.00     0.094 A 
ATOM     22  C   UNL A   1      32.637  19.674  25.097  1.00  0.00     0.161 A 
ATOM     23  C   UNL A   1      33.150  20.365  26.201  1.00  0.00     0.055 A 
ATOM     24  C   UNL A   1      32.576  20.338  23.868  1.00  0.00     0.162 A 
ATOM     25  C   UNL A   1      33.551  21.724  26.138  1.00  0.00    -0.027 A 
ATOM     26  C   UNL A   1      33.113  21.629  23.770  1.00  0.00     0.073 A 
ATOM     27  C   UNL A   1      33.740  22.394  27.463  1.00  0.00     0.046 C 
BRANCH  22  28
ATOM     28  O   UNL A   1      32.205  18.381  25.147  1.00  0.00    -0.493 OA
ATOM     29  C   UNL A   1      33.087  17.311  25.462  1.00  0.00     0.278 C 
ENDBRANCH  22  28
BRANCH  24  30
ATOM     30  O   UNL A   1      32.040  19.901  22.684  1.00  0.00    -0.493 OA
ATOM     31  C   UNL A   1      31.792  20.855  21.658  1.00  0.00     0.278 C 
ENDBRANCH  24  30
ENDBRANCH  18  21
ENDBRANCH  16  18
ENDBRANCH  10  16
ENDBRANCH   7   9
ENDBRANCH   6   7
ENDBRANCH   5   6
ENDBRANCH   4   5
ENDBRANCH   3   4
ENDBRANCH   2   3
ENDBRANCH   1   2
BRANCH   1  32
ATOM     32  O   UNL A   1      40.779  28.441  28.054  1.00  0.00    -0.377 OA
BRANCH  32  33
ATOM     33  C   UNL A   1      40.664  27.907  26.728  1.00  0.00     0.188 C 
BRANCH  33  34
ATOM     34  C   UNL A   1      41.046  26.433  26.702  1.00  0.00     0.188 C 
BRANCH  34  35
ATOM     35  O   UNL A   1      42.295  26.104  27.304  1.00  0.00    -0.376 OA
BRANCH  35  36
ATOM     36  C   UNL A   1      43.481  26.715  26.823  1.00  0.00     0.202 C 
BRANCH  36  37
ATOM     37  C   UNL A   1      43.903  26.273  25.421  1.00  0.00     0.261 C 
BRANCH  37  38
ATOM     38  O   UNL A   1      45.086  25.453  25.517  1.00  0.00    -0.460 OA
BRANCH  38  39
ATOM     39  C   UNL A   1      46.268  26.120  25.385  1.00  0.00     0.338 C 
ATOM     40  O   UNL A   1      46.749  26.479  24.325  1.00  0.00    -0.246 OA
BRANCH  39  41
ATOM     41  C   UNL A   1      46.971  26.185  26.702  1.00  0.00     0.060 A 
ATOM     42  C   UNL A   1      47.319  27.429  27.254  1.00  0.00     0.016 A 
ATOM     43  C   UNL A   1      47.560  25.032  27.204  1.00  0.00     0.016 A 
ATOM     44  C   UNL A   1      48.404  27.532  28.143  1.00  0.00     0.010 A 
ATOM     45  C   UNL A   1      48.677  25.156  28.009  1.00  0.00     0.010 A 
ATOM     46  C   UNL A   1      49.170  26.405  28.424  1.00  0.00    -0.014 A 
BRANCH  46  47
ATOM     47  C   UNL A   1      50.570  26.430  28.922  1.00  0.00     0.031 A 
ATOM     48  C   UNL A   1      50.814  26.162  30.386  1.00  0.00     0.074 A 
ATOM     49  C   UNL A   1      51.595  26.339  28.022  1.00  0.00     0.049 A 
ATOM     50  N   UNL A   1      51.969  26.018  30.932  1.00  0.00    -0.248 NA
ATOM     51  C   UNL A   1      49.753  25.951  31.374  1.00  0.00     0.031 C 
ATOM     52  C   UNL A   1      52.961  25.871  28.255  1.00  0.00     0.029 A 
ATOM     53  N   UNL A   1      51.636  26.656  26.657  1.00  0.00    -0.354 N 
ATOM     54  C   UNL A   1      51.836  25.431  32.180  1.00  0.00     0.074 A 
ATOM     55  C   UNL A   1      50.418  25.423  32.412  1.00  0.00     0.031 C 
ATOM     56  C   UNL A   1      53.751  26.072  27.190  1.00  0.00     0.029 A 
ATOM     57  C   UNL A   1      52.991  26.905  26.302  1.00  0.00     0.049 A 
ATOM     58  H   UNL A   1      50.862  26.699  26.050  1.00  0.00     0.167 HD
ATOM     59  C   UNL A   1      52.965  24.950  32.788  1.00  0.00     0.034 A 
ATOM     60  C   UNL A   1      53.383  28.172  25.977  1.00  0.00     0.034 A 
ATOM     61  C   UNL A   1      54.133  25.445  32.064  1.00  0.00     0.049 A 
ATOM     62  C   UNL A   1      54.145  28.800  27.151  1.00  0.00     0.074 A 
ATOM     63  C   UNL A   1      55.033  24.839  31.211  1.00  0.00     0.029 A 
ATOM     64  N   UNL A   1      54.272  26.822  31.884  1.00  0.00    -0.354 N 
ATOM     65  N   UNL A   1      54.053  28.384  28.397  1.00  0.00    -0.248 NA
ATOM     66  C   UNL A   1      55.190  29.805  26.999  1.00  0.00     0.031 C 
ATOM     67  C   UNL A   1      55.491  25.861  30.337  1.00  0.00     0.029 A 
ATOM     68  C   UNL A   1      55.051  27.096  30.779  1.00  0.00     0.049 A 
ATOM     69  H   UNL A   1      53.870  27.506  32.468  1.00  0.00     0.167 HD
ATOM     70  C   UNL A   1      55.079  28.898  29.150  1.00  0.00     0.074 A 
ATOM     71  C   UNL A   1      55.714  29.844  28.240  1.00  0.00     0.031 C 
ATOM     72  C   UNL A   1      55.413  28.462  30.414  1.00  0.00     0.034 A 
BRANCH  59  73
ATOM     73  C   UNL A   1      53.103  23.923  33.908  1.00  0.00     0.023 A 
ATOM     74  C   UNL A   1      52.974  22.544  33.594  1.00  0.00     0.031 A 
ATOM     75  C   UNL A   1      53.259  24.198  35.280  1.00  0.00     0.131 A 
ATOM     76  C   UNL A   1      52.982  21.539  34.586  1.00  0.00     0.055 A 
ATOM     77  C   UNL A   1      53.295  23.196  36.267  1.00  0.00     0.041 A 
ATOM     78  F   UNL A   1      53.369  25.446  35.749  1.00  0.00    -0.206 F 
ATOM     79  C   UNL A   1      53.152  21.860  35.927  1.00  0.00     0.022 A 
BRANCH  76  80
ATOM     80  S   UNL A   1      52.756  19.797  34.107  1.00  0.00     0.124 S 
ATOM     81  O   UNL A   1      53.043  19.093  35.352  1.00  0.00    -0.237 OA
ATOM     82  O   UNL A   1      51.370  19.771  33.656  1.00  0.00    -0.237 OA
ATOM     83  O   UNL A   1      53.749  19.605  33.049  1.00  0.00    -0.744 OA
ENDBRANCH  76  80
ENDBRANCH  59  73
BRANCH  60  84
ATOM     84  C   UNL A   1      52.412  28.721  24.972  1.00  0.00     0.023 A 
ATOM     85  C   UNL A   1      51.976  30.051  25.250  1.00  0.00     0.031 A 
ATOM     86  C   UNL A   1      52.506  28.343  23.626  1.00  0.00     0.131 A 
ATOM     87  C   UNL A   1      51.957  31.017  24.227  1.00  0.00     0.055 A 
ATOM     88  C   UNL A   1      52.405  29.301  22.603  1.00  0.00     0.041 A 
ATOM     89  F   UNL A   1      52.906  27.107  23.290  1.00  0.00    -0.206 F 
ATOM     90  C   UNL A   1      52.217  30.651  22.907  1.00  0.00     0.022 A 
BRANCH  87  91
ATOM     91  S   UNL A   1      51.901  32.790  24.666  1.00  0.00     0.124 S 
ATOM     92  O   UNL A   1      53.008  32.909  25.608  1.00  0.00    -0.237 OA
ATOM     93  O   UNL A   1      52.079  33.456  23.380  1.00  0.00    -0.237 OA
ATOM     94  O   UNL A   1      50.565  32.958  25.237  1.00  0.00    -0.744 OA
ENDBRANCH  87  91
ENDBRANCH  60  84
BRANCH  72  95
ATOM     95  C   UNL A   1      56.290  29.214  31.402  1.00  0.00     0.023 A 
ATOM     96  C   UNL A   1      57.407  28.625  31.992  1.00  0.00     0.031 A 
ATOM     97  C   UNL A   1      56.094  30.586  31.722  1.00  0.00     0.131 A 
ATOM     98  C   UNL A   1      58.188  29.321  32.926  1.00  0.00     0.055 A 
ATOM     99  C   UNL A   1      56.956  31.317  32.543  1.00  0.00     0.041 A 
ATOM    100  F   UNL A   1      55.060  31.300  31.254  1.00  0.00    -0.206 F 
ATOM    101  C   UNL A   1      58.003  30.676  33.176  1.00  0.00     0.022 A 
BRANCH  98 102
ATOM    102  S   UNL A   1      59.376  28.361  33.886  1.00  0.00     0.124 S 
ATOM    103  O   UNL A   1      60.277  29.409  34.360  1.00  0.00    -0.237 OA
ATOM    104  O   UNL A   1      58.535  27.742  34.906  1.00  0.00    -0.237 OA
ATOM    105  O   UNL A   1      59.945  27.441  32.905  1.00  0.00    -0.744 OA
ENDBRANCH  98 102
ENDBRANCH  72  95
ENDBRANCH  46  47
ENDBRANCH  39  41
ENDBRANCH  38  39
ENDBRANCH  37  38
ENDBRANCH  36  37
ENDBRANCH  35  36
ENDBRANCH  34  35
ENDBRANCH  33  34
ENDBRANCH  32  33
ENDBRANCH   1  32
TORSDOF 28
ENDMDL
MODEL 3
REMARK VINA RESULT:      -7.6      5.784     14.049
REMARK SMILES COc1cc(C)c(S(=O)(=O)Nc2cc(C(=O)OCCOCCOCCOCCOC(=O)c3ccc(-c4c5nc(c(-c6cc(S(=O)(=O)[O-])ccc6F)c6ccc([nH]6)c(-c6cc(S(=O)(=O)[O-])ccc6F)c6nc(c(-c7cc(S(=O)(=O)[O-])ccc7F)c7ccc4[nH]7)C=C6)C=C5)cc3)ccc2F)cc1OC
REMARK SMILES IDX 22 1 21 2 20 3 19 4 18 5 17 6 15 7 16 8 14 9 12 10 13 11
REMARK SMILES IDX 97 12 96 13 98 14 95 15 11 16 8 18 9 19 10 20 7 21 3 22 4 23
REMARK SMILES IDX 100 24 5 25 99 26 6 27 2 28 1 29 101 30 102 31 23 32 24 33
REMARK SMILES IDX 25 34 26 35 27 36 28 37 29 38 30 39 31 40 32 41 33 42 94 43
REMARK SMILES IDX 34 44 93 45 35 46 36 47 37 48 87 49 38 50 92 51 86 52 88 53
REMARK SMILES IDX 39 54 91 55 85 56 84 57 40 59 72 60 52 61 71 62 53 63 56 64
REMARK SMILES IDX 70 65 89 66 54 67 55 68 69 70 90 71 57 72 41 73 42 74 50 75
REMARK SMILES IDX 43 76 49 77 51 78 48 79 44 80 45 81 46 82 47 83 73 84 74 85
REMARK SMILES IDX 82 86 75 87 81 88 83 89 80 90 76 91 77 92 78 93 79 94 58 95
REMARK SMILES IDX 59 96 67 97 60 98 66 99 68 100 65 101 61 102 62 103 63 104
REMARK SMILES IDX 64 105
REMARK H PARENT 11 17 88 58 56 69
REMARK Flexibility Score: inf
ROOT
ATOM      1  C   UNL A   1      42.373  26.883  34.286  1.00  0.00     0.188 C 
ENDROOT
BRANCH   1   2
ATOM      2  C   UNL A   1      43.343  25.809  34.816  1.00  0.00     0.188 C 
BRANCH   2   3
ATOM      3  O   UNL A   1      43.015  24.431  34.724  1.00  0.00    -0.376 OA
BRANCH   3   4
ATOM      4  C   UNL A   1      43.780  23.542  35.538  1.00  0.00     0.202 C 
BRANCH   4   5
ATOM      5  C   UNL A   1      44.739  24.177  36.527  1.00  0.00     0.261 C 
BRANCH   5   6
ATOM      6  O   UNL A   1      46.056  23.773  36.163  1.00  0.00    -0.460 OA
BRANCH   6   7
ATOM      7  C   UNL A   1      47.012  24.555  36.672  1.00  0.00     0.338 C 
ATOM      8  O   UNL A   1      47.095  25.019  37.788  1.00  0.00    -0.246 OA
BRANCH   7   9
ATOM      9  C   UNL A   1      48.154  24.498  35.747  1.00  0.00     0.062 A 
ATOM     10  C   UNL A   1      50.213  23.535  35.093  1.00  0.00     0.085 A 
ATOM     11  C   UNL A   1      49.393  23.959  36.125  1.00  0.00     0.045 A 
ATOM     12  C   UNL A   1      49.939  23.933  33.765  1.00  0.00     0.147 A 
ATOM     13  C   UNL A   1      48.780  24.608  33.421  1.00  0.00     0.042 A 
ATOM     14  F   UNL A   1      50.749  23.522  32.774  1.00  0.00    -0.205 F 
ATOM     15  C   UNL A   1      47.851  24.842  34.416  1.00  0.00     0.019 A 
BRANCH  10  16
ATOM     16  N   UNL A   1      51.197  22.526  35.209  1.00  0.00    -0.277 N 
ATOM     17  H   UNL A   1      52.123  22.844  35.116  1.00  0.00     0.180 HD
BRANCH  16  18
ATOM     18  S   UNL A   1      51.052  20.898  35.473  1.00  0.00     0.262 S 
ATOM     19  O   UNL A   1      52.208  20.495  36.244  1.00  0.00    -0.201 OA
ATOM     20  O   UNL A   1      50.856  20.362  34.137  1.00  0.00    -0.201 OA
BRANCH  18  21
ATOM     21  C   UNL A   1      49.613  20.379  36.398  1.00  0.00     0.094 A 
ATOM     22  C   UNL A   1      47.640  19.603  38.295  1.00  0.00     0.161 A 
ATOM     23  C   UNL A   1      47.302  20.200  37.074  1.00  0.00     0.055 A 
ATOM     24  C   UNL A   1      48.989  19.340  38.552  1.00  0.00     0.162 A 
ATOM     25  C   UNL A   1      48.259  20.491  36.069  1.00  0.00    -0.027 A 
ATOM     26  C   UNL A   1      49.950  19.766  37.625  1.00  0.00     0.073 A 
ATOM     27  C   UNL A   1      47.692  20.796  34.718  1.00  0.00     0.046 C 
BRANCH  22  28
ATOM     28  O   UNL A   1      46.729  19.276  39.256  1.00  0.00    -0.493 OA
ATOM     29  C   UNL A   1      46.080  18.011  39.270  1.00  0.00     0.278 C 
ENDBRANCH  22  28
BRANCH  24  30
ATOM     30  O   UNL A   1      49.545  18.693  39.626  1.00  0.00    -0.493 OA
ATOM     31  C   UNL A   1      50.945  18.441  39.616  1.00  0.00     0.278 C 
ENDBRANCH  24  30
ENDBRANCH  18  21
ENDBRANCH  16  18
ENDBRANCH  10  16
ENDBRANCH   7   9
ENDBRANCH   6   7
ENDBRANCH   5   6
ENDBRANCH   4   5
ENDBRANCH   3   4
ENDBRANCH   2   3
ENDBRANCH   1   2
BRANCH   1  32
ATOM     32  O   UNL A   1      41.395  27.362  35.194  1.00  0.00    -0.377 OA
BRANCH  32  33
ATOM     33  C   UNL A   1      41.506  28.778  35.391  1.00  0.00     0.188 C 
BRANCH  33  34
ATOM     34  C   UNL A   1      41.591  29.505  34.055  1.00  0.00     0.188 C 
BRANCH  34  35
ATOM     35  O   UNL A   1      40.562  30.457  33.801  1.00  0.00    -0.376 OA
BRANCH  35  36
ATOM     36  C   UNL A   1      39.208  30.086  33.993  1.00  0.00     0.202 C 
BRANCH  36  37
ATOM     37  C   UNL A   1      38.490  29.613  32.727  1.00  0.00     0.261 C 
BRANCH  37  38
ATOM     38  O   UNL A   1      39.113  30.215  31.574  1.00  0.00    -0.460 OA
BRANCH  38  39
ATOM     39  C   UNL A   1      39.205  29.410  30.477  1.00  0.00     0.338 C 
ATOM     40  O   UNL A   1      38.626  28.347  30.345  1.00  0.00    -0.246 OA
BRANCH  39  41
ATOM     41  C   UNL A   1      40.254  29.928  29.547  1.00  0.00     0.060 A 
ATOM     42  C   UNL A   1      40.644  29.168  28.432  1.00  0.00     0.016 A 
ATOM     43  C   UNL A   1      41.057  30.982  29.963  1.00  0.00     0.016 A 
ATOM     44  C   UNL A   1      41.929  29.324  27.881  1.00  0.00     0.010 A 
ATOM     45  C   UNL A   1      42.346  31.066  29.471  1.00  0.00     0.010 A 
ATOM     46  C   UNL A   1      42.834  30.191  28.486  1.00  0.00    -0.014 A 
BRANCH  46  47
ATOM     47  C   UNL A   1      44.312  30.114  28.344  1.00  0.00     0.031 A 
ATOM     48  C   UNL A   1      44.990  31.070  27.395  1.00  0.00     0.074 A 
ATOM     49  C   UNL A   1      45.035  29.457  29.300  1.00  0.00     0.049 A 
ATOM     50  N   UNL A   1      46.261  31.213  27.269  1.00  0.00    -0.248 NA
ATOM     51  C   UNL A   1      44.281  32.027  26.541  1.00  0.00     0.031 C 
ATOM     52  C   UNL A   1      46.444  29.641  29.650  1.00  0.00     0.029 A 
ATOM     53  N   UNL A   1      44.653  28.449  30.196  1.00  0.00    -0.354 N 
ATOM     54  C   UNL A   1      46.544  32.396  26.606  1.00  0.00     0.074 A 
ATOM     55  C   UNL A   1      45.260  32.861  26.160  1.00  0.00     0.031 C 
ATOM     56  C   UNL A   1      46.872  28.713  30.518  1.00  0.00     0.029 A 
ATOM     57  C   UNL A   1      45.822  27.737  30.585  1.00  0.00     0.049 A 
ATOM     58  H   UNL A   1      43.736  28.265  30.502  1.00  0.00     0.167 HD
ATOM     59  C   UNL A   1      47.836  32.850  26.623  1.00  0.00     0.034 A 
ATOM     60  C   UNL A   1      45.999  26.448  30.171  1.00  0.00     0.034 A 
ATOM     61  C   UNL A   1      48.700  31.783  27.124  1.00  0.00     0.049 A 
ATOM     62  C   UNL A   1      47.014  26.403  29.022  1.00  0.00     0.074 A 
ATOM     63  C   UNL A   1      49.360  31.596  28.321  1.00  0.00     0.029 A 
ATOM     64  N   UNL A   1      48.668  30.544  26.482  1.00  0.00    -0.354 N 
ATOM     65  N   UNL A   1      47.321  27.438  28.268  1.00  0.00    -0.248 NA
ATOM     66  C   UNL A   1      47.884  25.266  28.749  1.00  0.00     0.031 C 
ATOM     67  C   UNL A   1      49.460  30.189  28.495  1.00  0.00     0.029 A 
ATOM     68  C   UNL A   1      49.068  29.538  27.338  1.00  0.00     0.049 A 
ATOM     69  H   UNL A   1      48.398  30.405  25.545  1.00  0.00     0.167 HD
ATOM     70  C   UNL A   1      48.476  27.194  27.568  1.00  0.00     0.074 A 
ATOM     71  C   UNL A   1      48.741  25.788  27.849  1.00  0.00     0.031 C 
ATOM     72  C   UNL A   1      49.197  28.156  26.892  1.00  0.00     0.034 A 
BRANCH  59  73
ATOM     73  C   UNL A   1      48.376  34.254  26.370  1.00  0.00     0.023 A 
ATOM     74  C   UNL A   1      47.576  35.372  26.732  1.00  0.00     0.031 A 
ATOM     75  C   UNL A   1      49.578  34.583  25.716  1.00  0.00     0.131 A 
ATOM     76  C   UNL A   1      47.955  36.700  26.435  1.00  0.00     0.055 A 
ATOM     77  C   UNL A   1      49.969  35.907  25.444  1.00  0.00     0.041 A 
ATOM     78  F   UNL A   1      50.433  33.650  25.286  1.00  0.00    -0.206 F 
ATOM     79  C   UNL A   1      49.159  36.974  25.798  1.00  0.00     0.022 A 
BRANCH  76  80
ATOM     80  S   UNL A   1      46.848  38.075  26.883  1.00  0.00     0.124 S 
ATOM     81  O   UNL A   1      45.539  37.554  26.507  1.00  0.00    -0.237 OA
ATOM     82  O   UNL A   1      47.096  38.225  28.312  1.00  0.00    -0.237 OA
ATOM     83  O   UNL A   1      47.331  39.182  26.057  1.00  0.00    -0.744 OA
ENDBRANCH  76  80
ENDBRANCH  59  73
BRANCH  60  84
ATOM     84  C   UNL A   1      44.736  25.686  30.456  1.00  0.00     0.023 A 
ATOM     85  C   UNL A   1      43.967  25.378  29.294  1.00  0.00     0.031 A 
ATOM     86  C   UNL A   1      44.693  24.772  31.517  1.00  0.00     0.131 A 
ATOM     87  C   UNL A   1      43.460  24.079  29.106  1.00  0.00     0.055 A 
ATOM     88  C   UNL A   1      44.112  23.503  31.348  1.00  0.00     0.041 A 
ATOM     89  F   UNL A   1      45.389  24.998  32.642  1.00  0.00    -0.206 F 
ATOM     90  C   UNL A   1      43.572  23.125  30.117  1.00  0.00     0.022 A 
BRANCH  87  91
ATOM     91  S   UNL A   1      42.937  23.551  27.436  1.00  0.00     0.124 S 
ATOM     92  O   UNL A   1      42.247  24.736  26.941  1.00  0.00    -0.237 OA
ATOM     93  O   UNL A   1      44.199  23.224  26.781  1.00  0.00    -0.237 OA
ATOM     94  O   UNL A   1      42.090  22.388  27.697  1.00  0.00    -0.744 OA
ENDBRANCH  87  91
ENDBRANCH  60  84
BRANCH  72  95
ATOM     95  C   UNL A   1      50.258  27.883  25.838  1.00  0.00     0.023 A 
ATOM     96  C   UNL A   1      51.619  27.933  26.134  1.00  0.00     0.031 A 
ATOM     97  C   UNL A   1      49.944  27.468  24.514  1.00  0.00     0.131 A 
ATOM     98  C   UNL A   1      52.586  27.710  25.144  1.00  0.00     0.055 A 
ATOM     99  C   UNL A   1      50.909  27.110  23.570  1.00  0.00     0.041 A 
ATOM    100  F   UNL A   1      48.686  27.381  24.059  1.00  0.00    -0.206 F 
ATOM    101  C   UNL A   1      52.249  27.254  23.874  1.00  0.00     0.022 A 
BRANCH  98 102
ATOM    102  S   UNL A   1      54.291  28.150  25.542  1.00  0.00     0.124 S 
ATOM    103  O   UNL A   1      54.993  26.914  25.207  1.00  0.00    -0.237 OA
ATOM    104  O   UNL A   1      54.543  29.280  24.653  1.00  0.00    -0.237 OA
ATOM    105  O   UNL A   1      54.236  28.476  26.964  1.00  0.00    -0.744 OA
ENDBRANCH  98 102
ENDBRANCH  72  95
ENDBRANCH  46  47
ENDBRANCH  39  41
ENDBRANCH  38  39
ENDBRANCH  37  38
ENDBRANCH  36  37
ENDBRANCH  35  36
ENDBRANCH  34  35
ENDBRANCH  33  34
ENDBRANCH  32  33
ENDBRANCH   1  32
TORSDOF 28
ENDMDL
