MODEL 1
REMARK VINA RESULT:     -10.1      0.000      0.000
REMARK SMILES O=C(Cn1cnc(-c2ccccc2)c1-c1ccccc1)OCCOCCOCCOCCOC(=O)c1ccc(-c2c3nc(c(-c4cc(S(=O)(=O)[O-])ccc4F)c4ccc([nH]4)c(-c4cc(S(=O)(=O)[O-])ccc4F)c4nc(c(-c5cc(S(=O)(=O)[O-])ccc5F)c5ccc2[nH]5)C=C4)C=C3)cc1
REMARK SMILES IDX 28 1 27 2 26 3 25 4 24 5 23 6 22 7 21 8 2 9 1 10 3 11 4 12
REMARK SMILES IDX 5 13 14 14 6 15 7 16 15 17 16 18 20 19 17 20 19 21 18 22
REMARK SMILES IDX 8 23 9 24 13 25 10 26 12 27 11 28 29 29 30 30 31 31 32 32
REMARK SMILES IDX 33 33 34 34 35 35 36 36 37 37 98 38 38 39 97 40 39 41 40 42
REMARK SMILES IDX 41 43 91 44 42 45 96 46 90 47 92 48 43 49 95 50 89 51 88 52
REMARK SMILES IDX 44 54 76 55 56 56 75 57 57 58 60 59 74 60 93 61 58 62 59 63
REMARK SMILES IDX 73 65 94 66 61 67 45 68 46 69 54 70 47 71 53 72 55 73 52 74
REMARK SMILES IDX 48 75 49 76 50 77 51 78 77 79 78 80 86 81 79 82 85 83 87 84
REMARK SMILES IDX 84 85 80 86 81 87 82 88 83 89 62 90 63 91 71 92 64 93 70 94
REMARK SMILES IDX 72 95 69 96 65 97 66 98 67 99 68 100
REMARK H PARENT 92 53 60 64
REMARK Flexibility Score: inf
ROOT
ATOM      1  C   UNL A   1      38.604  21.476  25.658  1.00  0.00     0.188 C 
ENDROOT
BRANCH   1   2
ATOM      2  O   UNL A   1      37.782  22.466  25.077  1.00  0.00    -0.377 OA
BRANCH   2   3
ATOM      3  C   UNL A   1      36.532  22.129  24.505  1.00  0.00     0.188 C 
BRANCH   3   4
ATOM      4  C   UNL A   1      35.231  22.161  25.326  1.00  0.00     0.188 C 
BRANCH   4   5
ATOM      5  O   UNL A   1      34.189  21.345  24.833  1.00  0.00    -0.376 OA
BRANCH   5   6
ATOM      6  C   UNL A   1      32.966  21.894  24.362  1.00  0.00     0.202 C 
BRANCH   6   7
ATOM      7  C   UNL A   1      32.691  21.904  22.859  1.00  0.00     0.261 C 
BRANCH   7   8
ATOM      8  O   UNL A   1      32.625  23.165  22.135  1.00  0.00    -0.462 OA
BRANCH   8   9
ATOM      9  C   UNL A   1      33.253  24.348  22.260  1.00  0.00     0.326 C 
ATOM     10  O   UNL A   1      34.397  24.374  22.715  1.00  0.00    -0.250 OA
BRANCH   9  11
ATOM     11  C   UNL A   1      32.580  25.625  21.862  1.00  0.00     0.246 C 
BRANCH  11  12
ATOM     12  N   UNL A   1      32.981  26.794  22.615  1.00  0.00    -0.319 N 
ATOM     13  C   UNL A   1      33.746  27.826  22.143  1.00  0.00     0.201 A 
ATOM     14  C   UNL A   1      32.623  27.093  23.922  1.00  0.00     0.076 A 
ATOM     15  N   UNL A   1      33.897  28.772  23.031  1.00  0.00    -0.236 NA
ATOM     16  C   UNL A   1      33.266  28.304  24.153  1.00  0.00     0.096 A 
BRANCH  14  17
ATOM     17  C   UNL A   1      31.774  26.282  24.804  1.00  0.00     0.000 A 
ATOM     18  C   UNL A   1      32.355  25.332  25.657  1.00  0.00     0.010 A 
ATOM     19  C   UNL A   1      30.377  26.385  24.780  1.00  0.00     0.010 A 
ATOM     20  C   UNL A   1      31.563  24.514  26.468  1.00  0.00     0.001 A 
ATOM     21  C   UNL A   1      29.584  25.587  25.611  1.00  0.00     0.001 A 
ATOM     22  C   UNL A   1      30.177  24.648  26.450  1.00  0.00     0.000 A 
ENDBRANCH  14  17
BRANCH  16  23
ATOM     23  C   UNL A   1      33.395  28.983  25.422  1.00  0.00     0.002 A 
ATOM     24  C   UNL A   1      32.522  30.019  25.763  1.00  0.00     0.010 A 
ATOM     25  C   UNL A   1      34.467  28.667  26.265  1.00  0.00     0.010 A 
ATOM     26  C   UNL A   1      32.720  30.731  26.947  1.00  0.00     0.001 A 
ATOM     27  C   UNL A   1      34.669  29.386  27.440  1.00  0.00     0.001 A 
ATOM     28  C   UNL A   1      33.796  30.419  27.780  1.00  0.00     0.000 A 
ENDBRANCH  16  23
ENDBRANCH  11  12
ENDBRANCH   9  11
ENDBRANCH   8   9
ENDBRANCH   7   8
ENDBRANCH   6   7
ENDBRANCH   5   6
ENDBRANCH   4   5
ENDBRANCH   3   4
ENDBRANCH   2   3
ENDBRANCH   1   2
BRANCH   1  29
ATOM     29  C   UNL A   1      39.738  21.820  26.658  1.00  0.00     0.188 C 
BRANCH  29  30
ATOM     30  O   UNL A   1      40.565  20.899  27.351  1.00  0.00    -0.376 OA
BRANCH  30  31
ATOM     31  C   UNL A   1      41.931  20.652  27.069  1.00  0.00     0.202 C 
BRANCH  31  32
ATOM     32  C   UNL A   1      42.398  19.593  26.073  1.00  0.00     0.261 C 
BRANCH  32  33
ATOM     33  O   UNL A   1      43.797  19.593  25.898  1.00  0.00    -0.460 OA
BRANCH  33  34
ATOM     34  C   UNL A   1      44.174  19.994  24.666  1.00  0.00     0.338 C 
ATOM     35  O   UNL A   1      44.179  19.326  23.648  1.00  0.00    -0.246 OA
BRANCH  34  36
ATOM     36  C   UNL A   1      44.614  21.390  24.728  1.00  0.00     0.060 A 
ATOM     37  C   UNL A   1      45.726  21.636  25.533  1.00  0.00     0.016 A 
ATOM     38  C   UNL A   1      43.774  22.412  24.265  1.00  0.00     0.016 A 
ATOM     39  C   UNL A   1      45.824  22.868  26.125  1.00  0.00     0.010 A 
ATOM     40  C   UNL A   1      43.861  23.638  24.871  1.00  0.00     0.010 A 
ATOM     41  C   UNL A   1      44.815  23.800  25.872  1.00  0.00    -0.014 A 
BRANCH  41  42
ATOM     42  C   UNL A   1      44.735  24.929  26.762  1.00  0.00     0.031 A 
ATOM     43  C   UNL A   1      45.841  25.880  26.634  1.00  0.00     0.074 A 
ATOM     44  C   UNL A   1      43.689  25.101  27.587  1.00  0.00     0.049 A 
ATOM     45  N   UNL A   1      46.785  26.105  27.482  1.00  0.00    -0.248 NA
ATOM     46  C   UNL A   1      46.009  26.546  25.336  1.00  0.00     0.031 C 
ATOM     47  C   UNL A   1      42.416  24.376  27.575  1.00  0.00     0.029 A 
ATOM     48  N   UNL A   1      43.505  26.055  28.537  1.00  0.00    -0.354 N 
ATOM     49  C   UNL A   1      47.526  27.134  26.925  1.00  0.00     0.074 A 
ATOM     50  C   UNL A   1      47.157  27.190  25.537  1.00  0.00     0.031 C 
ATOM     51  C   UNL A   1      41.519  25.060  28.318  1.00  0.00     0.029 A 
ATOM     52  C   UNL A   1      42.185  26.196  28.937  1.00  0.00     0.049 A 
ATOM     53  H   UNL A   1      44.239  26.597  28.906  1.00  0.00     0.167 HD
ATOM     54  C   UNL A   1      48.160  28.039  27.715  1.00  0.00     0.034 A 
ATOM     55  C   UNL A   1      41.664  27.231  29.641  1.00  0.00     0.034 A 
ATOM     56  C   UNL A   1      48.344  27.524  29.057  1.00  0.00     0.049 A 
ATOM     57  C   UNL A   1      42.785  27.892  30.358  1.00  0.00     0.074 A 
ATOM     58  C   UNL A   1      48.921  26.378  29.575  1.00  0.00     0.029 A 
ATOM     59  N   UNL A   1      47.578  28.043  30.078  1.00  0.00    -0.354 N 
ATOM     60  N   UNL A   1      43.464  27.327  31.320  1.00  0.00    -0.248 NA
ATOM     61  C   UNL A   1      43.447  29.026  29.729  1.00  0.00     0.031 C 
ATOM     62  C   UNL A   1      48.114  26.020  30.694  1.00  0.00     0.029 A 
ATOM     63  C   UNL A   1      47.121  26.991  30.836  1.00  0.00     0.049 A 
ATOM     64  H   UNL A   1      47.390  28.997  30.236  1.00  0.00     0.167 HD
ATOM     65  C   UNL A   1      44.773  27.743  31.134  1.00  0.00     0.074 A 
ATOM     66  C   UNL A   1      44.679  28.880  30.225  1.00  0.00     0.031 C 
ATOM     67  C   UNL A   1      45.828  26.954  31.498  1.00  0.00     0.034 A 
BRANCH  54  68
ATOM     68  C   UNL A   1      48.271  29.508  27.371  1.00  0.00     0.023 A 
ATOM     69  C   UNL A   1      49.557  30.069  27.409  1.00  0.00     0.031 A 
ATOM     70  C   UNL A   1      47.202  30.434  27.286  1.00  0.00     0.131 A 
ATOM     71  C   UNL A   1      49.734  31.461  27.477  1.00  0.00     0.055 A 
ATOM     72  C   UNL A   1      47.389  31.818  27.270  1.00  0.00     0.041 A 
ATOM     73  F   UNL A   1      45.913  30.074  27.307  1.00  0.00    -0.206 F 
ATOM     74  C   UNL A   1      48.660  32.341  27.403  1.00  0.00     0.022 A 
BRANCH  71  75
ATOM     75  S   UNL A   1      51.386  32.082  27.873  1.00  0.00     0.124 S 
ATOM     76  O   UNL A   1      51.782  32.679  26.602  1.00  0.00    -0.237 OA
ATOM     77  O   UNL A   1      51.100  33.009  28.961  1.00  0.00    -0.237 OA
ATOM     78  O   UNL A   1      52.117  30.875  28.252  1.00  0.00    -0.744 OA
ENDBRANCH  71  75
ENDBRANCH  54  68
BRANCH  55  79
ATOM     79  C   UNL A   1      40.309  27.817  29.477  1.00  0.00     0.023 A 
ATOM     80  C   UNL A   1      39.495  28.131  30.581  1.00  0.00     0.031 A 
ATOM     81  C   UNL A   1      39.872  28.281  28.214  1.00  0.00     0.131 A 
ATOM     82  C   UNL A   1      38.300  28.861  30.396  1.00  0.00     0.055 A 
ATOM     83  C   UNL A   1      38.676  28.976  28.032  1.00  0.00     0.041 A 
ATOM     84  F   UNL A   1      40.634  28.151  27.117  1.00  0.00    -0.206 F 
ATOM     85  C   UNL A   1      37.885  29.276  29.128  1.00  0.00     0.022 A 
BRANCH  82  86
ATOM     86  S   UNL A   1      37.327  29.394  31.838  1.00  0.00     0.124 S 
ATOM     87  O   UNL A   1      37.527  28.290  32.769  1.00  0.00    -0.237 OA
ATOM     88  O   UNL A   1      37.955  30.662  32.187  1.00  0.00    -0.237 OA
ATOM     89  O   UNL A   1      35.969  29.512  31.304  1.00  0.00    -0.744 OA
ENDBRANCH  82  86
ENDBRANCH  55  79
BRANCH  67  90
ATOM     90  C   UNL A   1      45.579  25.807  32.460  1.00  0.00     0.023 A 
ATOM     91  C   UNL A   1      45.693  25.898  33.864  1.00  0.00     0.031 A 
ATOM     92  C   UNL A   1      45.095  24.600  31.924  1.00  0.00     0.131 A 
ATOM     93  C   UNL A   1      45.345  24.799  34.673  1.00  0.00     0.055 A 
ATOM     94  C   UNL A   1      44.733  23.520  32.730  1.00  0.00     0.041 A 
ATOM     95  F   UNL A   1      44.932  24.459  30.598  1.00  0.00    -0.206 F 
ATOM     96  C   UNL A   1      44.863  23.614  34.110  1.00  0.00     0.022 A 
BRANCH  93  97
ATOM     97  S   UNL A   1      45.525  24.889  36.484  1.00  0.00     0.124 S 
ATOM     98  O   UNL A   1      44.444  25.778  36.893  1.00  0.00    -0.237 OA
ATOM     99  O   UNL A   1      45.389  23.490  36.880  1.00  0.00    -0.237 OA
ATOM    100  O   UNL A   1      46.869  25.442  36.662  1.00  0.00    -0.744 OA
ENDBRANCH  93  97
ENDBRANCH  67  90
ENDBRANCH  41  42
ENDBRANCH  34  36
ENDBRANCH  33  34
ENDBRANCH  32  33
ENDBRANCH  31  32
ENDBRANCH  30  31
ENDBRANCH  29  30
ENDBRANCH   1  29
TORSDOF 26
ENDMDL
MODEL 2
REMARK VINA RESULT:      -9.6      3.333      9.283
REMARK SMILES O=C(Cn1cnc(-c2ccccc2)c1-c1ccccc1)OCCOCCOCCOCCOC(=O)c1ccc(-c2c3nc(c(-c4cc(S(=O)(=O)[O-])ccc4F)c4ccc([nH]4)c(-c4cc(S(=O)(=O)[O-])ccc4F)c4nc(c(-c5cc(S(=O)(=O)[O-])ccc5F)c5ccc2[nH]5)C=C4)C=C3)cc1
REMARK SMILES IDX 28 1 27 2 26 3 25 4 24 5 23 6 22 7 21 8 2 9 1 10 3 11 4 12
REMARK SMILES IDX 5 13 14 14 6 15 7 16 15 17 16 18 20 19 17 20 19 21 18 22
REMARK SMILES IDX 8 23 9 24 13 25 10 26 12 27 11 28 29 29 30 30 31 31 32 32
REMARK SMILES IDX 33 33 34 34 35 35 36 36 37 37 98 38 38 39 97 40 39 41 40 42
REMARK SMILES IDX 41 43 91 44 42 45 96 46 90 47 92 48 43 49 95 50 89 51 88 52
REMARK SMILES IDX 44 54 76 55 56 56 75 57 57 58 60 59 74 60 93 61 58 62 59 63
REMARK SMILES IDX 73 65 94 66 61 67 45 68 46 69 54 70 47 71 53 72 55 73 52 74
REMARK SMILES IDX 48 75 49 76 50 77 51 78 77 79 78 80 86 81 79 82 85 83 87 84
REMARK SMILES IDX 84 85 80 86 81 87 82 88 83 89 62 90 63 91 71 92 64 93 70 94
REMARK SMILES IDX 72 95 69 96 65 97 66 98 67 99 68 100
REMARK H PARENT 92 53 60 64
REMARK Flexibility Score: inf
ROOT
ATOM      1  C   UNL A   1      32.607  31.968  27.413  1.00  0.00     0.188 C 
ENDROOT
BRANCH   1   2
ATOM      2  O   UNL A   1      31.855  31.269  26.442  1.00  0.00    -0.377 OA
BRANCH   2   3
ATOM      3  C   UNL A   1      32.351  30.080  25.857  1.00  0.00     0.188 C 
BRANCH   3   4
ATOM      4  C   UNL A   1      31.444  29.133  25.054  1.00  0.00     0.188 C 
BRANCH   4   5
ATOM      5  O   UNL A   1      31.807  27.769  25.101  1.00  0.00    -0.376 OA
BRANCH   5   6
ATOM      6  C   UNL A   1      30.985  26.795  25.730  1.00  0.00     0.202 C 
BRANCH   6   7
ATOM      7  C   UNL A   1      30.622  25.527  24.961  1.00  0.00     0.261 C 
BRANCH   7   8
ATOM      8  O   UNL A   1      29.957  24.424  25.640  1.00  0.00    -0.462 OA
BRANCH   8   9
ATOM      9  C   UNL A   1      30.389  23.378  26.367  1.00  0.00     0.326 C 
ATOM     10  O   UNL A   1      30.226  23.389  27.587  1.00  0.00    -0.250 OA
BRANCH   9  11
ATOM     11  C   UNL A   1      31.066  22.212  25.716  1.00  0.00     0.246 C 
BRANCH  11  12
ATOM     12  N   UNL A   1      32.460  22.035  26.066  1.00  0.00    -0.319 N 
ATOM     13  C   UNL A   1      32.930  21.342  27.149  1.00  0.00     0.201 A 
ATOM     14  C   UNL A   1      33.553  22.491  25.345  1.00  0.00     0.076 A 
ATOM     15  N   UNL A   1      34.236  21.301  27.176  1.00  0.00    -0.236 NA
ATOM     16  C   UNL A   1      34.633  22.059  26.107  1.00  0.00     0.096 A 
BRANCH  14  17
ATOM     17  C   UNL A   1      33.517  23.251  24.089  1.00  0.00     0.000 A 
ATOM     18  C   UNL A   1      33.801  24.625  24.093  1.00  0.00     0.010 A 
ATOM     19  C   UNL A   1      33.146  22.654  22.877  1.00  0.00     0.010 A 
ATOM     20  C   UNL A   1      33.724  25.378  22.917  1.00  0.00     0.001 A 
ATOM     21  C   UNL A   1      33.096  23.400  21.695  1.00  0.00     0.001 A 
ATOM     22  C   UNL A   1      33.379  24.763  21.717  1.00  0.00     0.000 A 
ENDBRANCH  14  17
BRANCH  16  23
ATOM     23  C   UNL A   1      36.018  22.426  25.924  1.00  0.00     0.002 A 
ATOM     24  C   UNL A   1      36.956  21.472  25.518  1.00  0.00     0.010 A 
ATOM     25  C   UNL A   1      36.438  23.718  26.258  1.00  0.00     0.010 A 
ATOM     26  C   UNL A   1      38.306  21.816  25.441  1.00  0.00     0.001 A 
ATOM     27  C   UNL A   1      37.787  24.056  26.191  1.00  0.00     0.001 A 
ATOM     28  C   UNL A   1      38.721  23.104  25.784  1.00  0.00     0.000 A 
ENDBRANCH  16  23
ENDBRANCH  11  12
ENDBRANCH   9  11
ENDBRANCH   8   9
ENDBRANCH   7   8
ENDBRANCH   6   7
ENDBRANCH   5   6
ENDBRANCH   4   5
ENDBRANCH   3   4
ENDBRANCH   2   3
ENDBRANCH   1   2
BRANCH   1  29
ATOM     29  C   UNL A   1      32.495  33.504  27.603  1.00  0.00     0.188 C 
BRANCH  29  30
ATOM     30  O   UNL A   1      33.000  34.262  28.691  1.00  0.00    -0.376 OA
BRANCH  30  31
ATOM     31  C   UNL A   1      34.371  34.425  29.007  1.00  0.00     0.202 C 
BRANCH  31  32
ATOM     32  C   UNL A   1      35.069  33.642  30.117  1.00  0.00     0.261 C 
BRANCH  32  33
ATOM     33  O   UNL A   1      35.059  32.250  29.887  1.00  0.00    -0.460 OA
BRANCH  33  34
ATOM     34  C   UNL A   1      35.847  31.569  30.745  1.00  0.00     0.338 C 
ATOM     35  O   UNL A   1      35.653  31.394  31.935  1.00  0.00    -0.246 OA
BRANCH  34  36
ATOM     36  C   UNL A   1      37.022  31.070  30.028  1.00  0.00     0.060 A 
ATOM     37  C   UNL A   1      36.923  29.766  29.542  1.00  0.00     0.016 A 
ATOM     38  C   UNL A   1      38.243  31.752  30.120  1.00  0.00     0.016 A 
ATOM     39  C   UNL A   1      38.078  29.038  29.434  1.00  0.00     0.010 A 
ATOM     40  C   UNL A   1      39.397  31.019  30.029  1.00  0.00     0.010 A 
ATOM     41  C   UNL A   1      39.278  29.651  29.800  1.00  0.00    -0.014 A 
BRANCH  41  42
ATOM     42  C   UNL A   1      40.408  28.785  30.026  1.00  0.00     0.031 A 
ATOM     43  C   UNL A   1      40.742  28.583  31.437  1.00  0.00     0.074 A 
ATOM     44  C   UNL A   1      41.043  28.179  29.009  1.00  0.00     0.049 A 
ATOM     45  N   UNL A   1      41.776  29.018  32.069  1.00  0.00    -0.248 NA
ATOM     46  C   UNL A   1      39.722  27.955  32.287  1.00  0.00     0.031 C 
ATOM     47  C   UNL A   1      40.605  28.086  27.615  1.00  0.00     0.029 A 
ATOM     48  N   UNL A   1      42.163  27.410  29.046  1.00  0.00    -0.354 N 
ATOM     49  C   UNL A   1      41.659  28.497  33.347  1.00  0.00     0.074 A 
ATOM     50  C   UNL A   1      40.293  28.072  33.484  1.00  0.00     0.031 C 
ATOM     51  C   UNL A   1      41.327  27.127  26.996  1.00  0.00     0.029 A 
ATOM     52  C   UNL A   1      42.337  26.627  27.916  1.00  0.00     0.049 A 
ATOM     53  H   UNL A   1      42.790  27.408  29.804  1.00  0.00     0.167 HD
ATOM     54  C   UNL A   1      42.764  28.193  34.076  1.00  0.00     0.034 A 
ATOM     55  C   UNL A   1      43.184  25.576  27.789  1.00  0.00     0.034 A 
ATOM     56  C   UNL A   1      43.930  28.893  33.576  1.00  0.00     0.049 A 
ATOM     57  C   UNL A   1      44.244  25.730  28.819  1.00  0.00     0.074 A 
ATOM     58  C   UNL A   1      44.221  30.223  33.331  1.00  0.00     0.029 A 
ATOM     59  N   UNL A   1      44.895  28.176  32.900  1.00  0.00    -0.354 N 
ATOM     60  N   UNL A   1      45.128  26.691  28.812  1.00  0.00    -0.248 NA
ATOM     61  C   UNL A   1      44.071  25.069  30.105  1.00  0.00     0.031 C 
ATOM     62  C   UNL A   1      45.037  30.225  32.163  1.00  0.00     0.029 A 
ATOM     63  C   UNL A   1      45.248  28.898  31.785  1.00  0.00     0.049 A 
ATOM     64  H   UNL A   1      45.265  27.304  33.169  1.00  0.00     0.167 HD
ATOM     65  C   UNL A   1      45.302  27.035  30.143  1.00  0.00     0.074 A 
ATOM     66  C   UNL A   1      44.727  25.924  30.895  1.00  0.00     0.031 C 
ATOM     67  C   UNL A   1      45.629  28.310  30.511  1.00  0.00     0.034 A 
BRANCH  54  68
ATOM     68  C   UNL A   1      42.850  26.991  34.991  1.00  0.00     0.023 A 
ATOM     69  C   UNL A   1      43.635  25.916  34.548  1.00  0.00     0.031 A 
ATOM     70  C   UNL A   1      42.015  26.722  36.104  1.00  0.00     0.131 A 
ATOM     71  C   UNL A   1      43.492  24.638  35.113  1.00  0.00     0.055 A 
ATOM     72  C   UNL A   1      41.939  25.468  36.716  1.00  0.00     0.041 A 
ATOM     73  F   UNL A   1      41.155  27.612  36.611  1.00  0.00    -0.206 F 
ATOM     74  C   UNL A   1      42.653  24.406  36.198  1.00  0.00     0.022 A 
BRANCH  71  75
ATOM     75  S   UNL A   1      44.274  23.247  34.262  1.00  0.00     0.124 S 
ATOM     76  O   UNL A   1      44.360  22.263  35.337  1.00  0.00    -0.237 OA
ATOM     77  O   UNL A   1      43.310  22.967  33.205  1.00  0.00    -0.237 OA
ATOM     78  O   UNL A   1      45.551  23.800  33.817  1.00  0.00    -0.744 OA
ENDBRANCH  71  75
ENDBRANCH  54  68
BRANCH  55  79
ATOM     79  C   UNL A   1      42.938  24.331  27.016  1.00  0.00     0.023 A 
ATOM     80  C   UNL A   1      43.789  23.920  25.975  1.00  0.00     0.031 A 
ATOM     81  C   UNL A   1      41.958  23.402  27.439  1.00  0.00     0.131 A 
ATOM     82  C   UNL A   1      43.634  22.642  25.395  1.00  0.00     0.055 A 
ATOM     83  C   UNL A   1      41.790  22.152  26.843  1.00  0.00     0.041 A 
ATOM     84  F   UNL A   1      41.181  23.639  28.507  1.00  0.00    -0.206 F 
ATOM     85  C   UNL A   1      42.635  21.762  25.819  1.00  0.00     0.022 A 
BRANCH  82  86
ATOM     86  S   UNL A   1      44.828  22.055  24.154  1.00  0.00     0.124 S 
ATOM     87  O   UNL A   1      44.139  22.344  22.902  1.00  0.00    -0.237 OA
ATOM     88  O   UNL A   1      46.007  22.861  24.449  1.00  0.00    -0.237 OA
ATOM     89  O   UNL A   1      44.969  20.632  24.466  1.00  0.00    -0.744 OA
ENDBRANCH  82  86
ENDBRANCH  55  79
BRANCH  67  90
ATOM     90  C   UNL A   1      46.188  29.248  29.459  1.00  0.00     0.023 A 
ATOM     91  C   UNL A   1      45.405  30.003  28.558  1.00  0.00     0.031 A 
ATOM     92  C   UNL A   1      47.577  29.466  29.452  1.00  0.00     0.131 A 
ATOM     93  C   UNL A   1      46.020  30.920  27.685  1.00  0.00     0.055 A 
ATOM     94  C   UNL A   1      48.182  30.389  28.598  1.00  0.00     0.041 A 
ATOM     95  F   UNL A   1      48.376  28.804  30.305  1.00  0.00    -0.206 F 
ATOM     96  C   UNL A   1      47.404  31.116  27.705  1.00  0.00     0.022 A 
BRANCH  93  97
ATOM     97  S   UNL A   1      45.027  31.871  26.490  1.00  0.00     0.124 S 
ATOM     98  O   UNL A   1      43.763  31.145  26.440  1.00  0.00    -0.237 OA
ATOM     99  O   UNL A   1      44.982  33.194  27.107  1.00  0.00    -0.237 OA
ATOM    100  O   UNL A   1      45.818  31.801  25.261  1.00  0.00    -0.744 OA
ENDBRANCH  93  97
ENDBRANCH  67  90
ENDBRANCH  41  42
ENDBRANCH  34  36
ENDBRANCH  33  34
ENDBRANCH  32  33
ENDBRANCH  31  32
ENDBRANCH  30  31
ENDBRANCH  29  30
ENDBRANCH   1  29
TORSDOF 26
ENDMDL
MODEL 3
REMARK VINA RESULT:      -9.3      1.669      2.229
REMARK SMILES O=C(Cn1cnc(-c2ccccc2)c1-c1ccccc1)OCCOCCOCCOCCOC(=O)c1ccc(-c2c3nc(c(-c4cc(S(=O)(=O)[O-])ccc4F)c4ccc([nH]4)c(-c4cc(S(=O)(=O)[O-])ccc4F)c4nc(c(-c5cc(S(=O)(=O)[O-])ccc5F)c5ccc2[nH]5)C=C4)C=C3)cc1
REMARK SMILES IDX 28 1 27 2 26 3 25 4 24 5 23 6 22 7 21 8 2 9 1 10 3 11 4 12
REMARK SMILES IDX 5 13 14 14 6 15 7 16 15 17 16 18 20 19 17 20 19 21 18 22
REMARK SMILES IDX 8 23 9 24 13 25 10 26 12 27 11 28 29 29 30 30 31 31 32 32
REMARK SMILES IDX 33 33 34 34 35 35 36 36 37 37 98 38 38 39 97 40 39 41 40 42
REMARK SMILES IDX 41 43 91 44 42 45 96 46 90 47 92 48 43 49 95 50 89 51 88 52
REMARK SMILES IDX 44 54 76 55 56 56 75 57 57 58 60 59 74 60 93 61 58 62 59 63
REMARK SMILES IDX 73 65 94 66 61 67 45 68 46 69 54 70 47 71 53 72 55 73 52 74
REMARK SMILES IDX 48 75 49 76 50 77 51 78 77 79 78 80 86 81 79 82 85 83 87 84
REMARK SMILES IDX 84 85 80 86 81 87 82 88 83 89 62 90 63 91 71 92 64 93 70 94
REMARK SMILES IDX 72 95 69 96 65 97 66 98 67 99 68 100
REMARK H PARENT 92 53 60 64
REMARK Flexibility Score: inf
ROOT
ATOM      1  C   UNL A   1      36.986  21.698  25.372  1.00  0.00     0.188 C 
ENDROOT
BRANCH   1   2
ATOM      2  O   UNL A   1      36.122  22.185  24.366  1.00  0.00    -0.377 OA
BRANCH   2   3
ATOM      3  C   UNL A   1      34.759  21.807  24.333  1.00  0.00     0.188 C 
BRANCH   3   4
ATOM      4  C   UNL A   1      34.057  21.200  25.561  1.00  0.00     0.188 C 
BRANCH   4   5
ATOM      5  O   UNL A   1      32.734  21.646  25.777  1.00  0.00    -0.376 OA
BRANCH   5   6
ATOM      6  C   UNL A   1      32.423  22.617  26.766  1.00  0.00     0.202 C 
BRANCH   6   7
ATOM      7  C   UNL A   1      31.140  23.434  26.623  1.00  0.00     0.261 C 
BRANCH   7   8
ATOM      8  O   UNL A   1      30.823  24.085  25.361  1.00  0.00    -0.462 OA
BRANCH   8   9
ATOM      9  C   UNL A   1      31.201  23.885  24.085  1.00  0.00     0.326 C 
ATOM     10  O   UNL A   1      30.650  23.001  23.429  1.00  0.00    -0.250 OA
BRANCH   9  11
ATOM     11  C   UNL A   1      32.279  24.715  23.461  1.00  0.00     0.246 C 
BRANCH  11  12
ATOM     12  N   UNL A   1      32.913  25.669  24.346  1.00  0.00    -0.319 N 
ATOM     13  C   UNL A   1      33.984  25.416  25.159  1.00  0.00     0.201 A 
ATOM     14  C   UNL A   1      32.578  27.008  24.487  1.00  0.00     0.076 A 
ATOM     15  N   UNL A   1      34.377  26.485  25.800  1.00  0.00    -0.236 NA
ATOM     16  C   UNL A   1      33.480  27.457  25.445  1.00  0.00     0.096 A 
BRANCH  14  17
ATOM     17  C   UNL A   1      31.511  27.723  23.775  1.00  0.00     0.000 A 
ATOM     18  C   UNL A   1      30.166  27.441  24.061  1.00  0.00     0.010 A 
ATOM     19  C   UNL A   1      31.793  28.649  22.762  1.00  0.00     0.010 A 
ATOM     20  C   UNL A   1      29.135  28.072  23.360  1.00  0.00     0.001 A 
ATOM     21  C   UNL A   1      30.762  29.302  22.079  1.00  0.00     0.001 A 
ATOM     22  C   UNL A   1      29.434  29.009  22.374  1.00  0.00     0.000 A 
ENDBRANCH  14  17
BRANCH  16  23
ATOM     23  C   UNL A   1      33.459  28.736  26.117  1.00  0.00     0.002 A 
ATOM     24  C   UNL A   1      34.587  29.196  26.800  1.00  0.00     0.010 A 
ATOM     25  C   UNL A   1      32.266  29.467  26.167  1.00  0.00     0.010 A 
ATOM     26  C   UNL A   1      34.521  30.386  27.526  1.00  0.00     0.001 A 
ATOM     27  C   UNL A   1      32.200  30.648  26.901  1.00  0.00     0.001 A 
ATOM     28  C   UNL A   1      33.327  31.107  27.581  1.00  0.00     0.000 A 
ENDBRANCH  16  23
ENDBRANCH  11  12
ENDBRANCH   9  11
ENDBRANCH   8   9
ENDBRANCH   7   8
ENDBRANCH   6   7
ENDBRANCH   5   6
ENDBRANCH   4   5
ENDBRANCH   3   4
ENDBRANCH   2   3
ENDBRANCH   1   2
BRANCH   1  29
ATOM     29  C   UNL A   1      38.275  22.448  25.795  1.00  0.00     0.188 C 
BRANCH  29  30
ATOM     30  O   UNL A   1      39.294  21.964  26.655  1.00  0.00    -0.376 OA
BRANCH  30  31
ATOM     31  C   UNL A   1      40.673  21.903  26.337  1.00  0.00     0.202 C 
BRANCH  31  32
ATOM     32  C   UNL A   1      41.369  20.618  25.894  1.00  0.00     0.261 C 
BRANCH  32  33
ATOM     33  O   UNL A   1      42.709  20.551  26.328  1.00  0.00    -0.460 OA
BRANCH  33  34
ATOM     34  C   UNL A   1      43.596  20.649  25.315  1.00  0.00     0.338 C 
ATOM     35  O   UNL A   1      43.865  19.792  24.492  1.00  0.00    -0.246 OA
BRANCH  34  36
ATOM     36  C   UNL A   1      44.232  21.968  25.357  1.00  0.00     0.060 A 
ATOM     37  C   UNL A   1      45.214  22.132  26.333  1.00  0.00     0.016 A 
ATOM     38  C   UNL A   1      43.654  23.048  24.675  1.00  0.00     0.016 A 
ATOM     39  C   UNL A   1      45.400  23.390  26.844  1.00  0.00     0.010 A 
ATOM     40  C   UNL A   1      43.827  24.303  25.198  1.00  0.00     0.010 A 
ATOM     41  C   UNL A   1      44.608  24.425  26.343  1.00  0.00    -0.014 A 
BRANCH  41  42
ATOM     42  C   UNL A   1      44.555  25.637  27.121  1.00  0.00     0.031 A 
ATOM     43  C   UNL A   1      45.614  26.600  26.814  1.00  0.00     0.074 A 
ATOM     44  C   UNL A   1      43.567  25.863  28.003  1.00  0.00     0.049 A 
ATOM     45  N   UNL A   1      46.609  26.936  27.560  1.00  0.00    -0.248 NA
ATOM     46  C   UNL A   1      45.662  27.135  25.448  1.00  0.00     0.031 C 
ATOM     47  C   UNL A   1      42.323  25.106  28.160  1.00  0.00     0.029 A 
ATOM     48  N   UNL A   1      43.420  26.903  28.865  1.00  0.00    -0.354 N 
ATOM     49  C   UNL A   1      47.271  27.924  26.848  1.00  0.00     0.074 A 
ATOM     50  C   UNL A   1      46.798  27.828  25.494  1.00  0.00     0.031 C 
ATOM     51  C   UNL A   1      41.460  25.836  28.898  1.00  0.00     0.029 A 
ATOM     52  C   UNL A   1      42.130  27.047  29.349  1.00  0.00     0.049 A 
ATOM     53  H   UNL A   1      44.160  27.499  29.120  1.00  0.00     0.167 HD
ATOM     54  C   UNL A   1      47.929  28.921  27.494  1.00  0.00     0.034 A 
ATOM     55  C   UNL A   1      41.625  28.133  29.984  1.00  0.00     0.034 A 
ATOM     56  C   UNL A   1      48.230  28.550  28.862  1.00  0.00     0.049 A 
ATOM     57  C   UNL A   1      42.772  28.895  30.544  1.00  0.00     0.074 A 
ATOM     58  C   UNL A   1      48.883  27.479  29.445  1.00  0.00     0.029 A 
ATOM     59  N   UNL A   1      47.523  29.149  29.882  1.00  0.00    -0.354 N 
ATOM     60  N   UNL A   1      43.540  28.450  31.503  1.00  0.00    -0.248 NA
ATOM     61  C   UNL A   1      43.345  29.977  29.756  1.00  0.00     0.031 C 
ATOM     62  C   UNL A   1      48.174  27.215  30.653  1.00  0.00     0.029 A 
ATOM     63  C   UNL A   1      47.161  28.167  30.774  1.00  0.00     0.049 A 
ATOM     64  H   UNL A   1      47.314  30.108  29.959  1.00  0.00     0.167 HD
ATOM     65  C   UNL A   1      44.816  28.880  31.176  1.00  0.00     0.074 A 
ATOM     66  C   UNL A   1      44.615  29.916  30.168  1.00  0.00     0.031 C 
ATOM     67  C   UNL A   1      45.922  28.162  31.534  1.00  0.00     0.034 A 
BRANCH  54  68
ATOM     68  C   UNL A   1      47.962  30.350  26.998  1.00  0.00     0.023 A 
ATOM     69  C   UNL A   1      49.206  30.999  27.029  1.00  0.00     0.031 A 
ATOM     70  C   UNL A   1      46.841  31.186  26.769  1.00  0.00     0.131 A 
ATOM     71  C   UNL A   1      49.291  32.399  26.954  1.00  0.00     0.055 A 
ATOM     72  C   UNL A   1      46.940  32.571  26.611  1.00  0.00     0.041 A 
ATOM     73  F   UNL A   1      45.579  30.743  26.775  1.00  0.00    -0.206 F 
ATOM     74  C   UNL A   1      48.167  33.191  26.741  1.00  0.00     0.022 A 
BRANCH  71  75
ATOM     75  S   UNL A   1      50.878  33.171  27.349  1.00  0.00     0.124 S 
ATOM     76  O   UNL A   1      51.614  32.971  26.105  1.00  0.00    -0.237 OA
ATOM     77  O   UNL A   1      50.475  34.539  27.649  1.00  0.00    -0.237 OA
ATOM     78  O   UNL A   1      51.355  32.393  28.490  1.00  0.00    -0.744 OA
ENDBRANCH  71  75
ENDBRANCH  54  68
BRANCH  55  79
ATOM     79  C   UNL A   1      40.243  28.662  29.869  1.00  0.00     0.023 A 
ATOM     80  C   UNL A   1      39.418  28.846  30.993  1.00  0.00     0.031 A 
ATOM     81  C   UNL A   1      39.777  29.203  28.646  1.00  0.00     0.131 A 
ATOM     82  C   UNL A   1      38.187  29.527  30.867  1.00  0.00     0.055 A 
ATOM     83  C   UNL A   1      38.547  29.849  28.521  1.00  0.00     0.041 A 
ATOM     84  F   UNL A   1      40.540  29.199  27.543  1.00  0.00    -0.206 F 
ATOM     85  C   UNL A   1      37.747  30.021  29.637  1.00  0.00     0.022 A 
BRANCH  82  86
ATOM     86  S   UNL A   1      37.195  29.894  32.347  1.00  0.00     0.124 S 
ATOM     87  O   UNL A   1      37.267  28.639  33.085  1.00  0.00    -0.237 OA
ATOM     88  O   UNL A   1      37.903  31.030  32.925  1.00  0.00    -0.237 OA
ATOM     89  O   UNL A   1      35.875  30.212  31.799  1.00  0.00    -0.744 OA
ENDBRANCH  82  86
ENDBRANCH  55  79
BRANCH  67  90
ATOM     90  C   UNL A   1      45.786  27.112  32.621  1.00  0.00     0.023 A 
ATOM     91  C   UNL A   1      45.154  25.861  32.455  1.00  0.00     0.031 A 
ATOM     92  C   UNL A   1      46.429  27.357  33.848  1.00  0.00     0.131 A 
ATOM     93  C   UNL A   1      45.167  24.918  33.501  1.00  0.00     0.055 A 
ATOM     94  C   UNL A   1      46.457  26.413  34.875  1.00  0.00     0.041 A 
ATOM     95  F   UNL A   1      47.076  28.515  34.060  1.00  0.00    -0.206 F 
ATOM     96  C   UNL A   1      45.819  25.191  34.707  1.00  0.00     0.022 A 
BRANCH  93  97
ATOM     97  S   UNL A   1      44.322  23.316  33.314  1.00  0.00     0.124 S 
ATOM     98  O   UNL A   1      45.278  22.358  33.857  1.00  0.00    -0.237 OA
ATOM     99  O   UNL A   1      43.102  23.515  34.092  1.00  0.00    -0.237 OA
ATOM    100  O   UNL A   1      44.109  23.212  31.869  1.00  0.00    -0.744 OA
ENDBRANCH  93  97
ENDBRANCH  67  90
ENDBRANCH  41  42
ENDBRANCH  34  36
ENDBRANCH  33  34
ENDBRANCH  32  33
ENDBRANCH  31  32
ENDBRANCH  30  31
ENDBRANCH  29  30
ENDBRANCH   1  29
TORSDOF 26
ENDMDL
