MODEL 1
REMARK VINA RESULT:     -10.0      0.000      0.000
REMARK SMILES C[C@H](C[C@@H]1CCCC[NH2+]1)Nc1cc(C(=O)OCCOCCOCCOCCOC(=O)c2ccc(-c3c4nc(c(-c5cc(S(=O)(=O)[O-])ccc5F)c5ccc([nH]5)c(-c5cc(S(=O)(=O)[O-])ccc5F)c5nc(c(-c6cc(S(=O)(=O)[O-])ccc6F)c6ccc3[nH]6)C=C5)C=C4)cc2)ccc1F
REMARK SMILES IDX 21 1 20 2 19 3 18 4 17 5 16 6 14 7 15 8 13 9 11 10 12 11
REMARK SMILES IDX 96 12 95 13 97 14 94 15 10 16 2 18 1 19 3 20 4 21 5 22 9 23
REMARK SMILES IDX 6 24 8 25 7 28 22 29 23 30 24 31 25 32 26 33 27 34 28 35
REMARK SMILES IDX 29 36 30 37 31 38 32 39 93 40 33 41 92 42 34 43 35 44 36 45
REMARK SMILES IDX 86 46 37 47 91 48 85 49 87 50 38 51 90 52 84 53 83 54 39 56
REMARK SMILES IDX 71 57 51 58 70 59 52 60 55 61 69 62 88 63 53 64 54 65 68 67
REMARK SMILES IDX 89 68 56 69 40 70 41 71 49 72 42 73 48 74 50 75 47 76 43 77
REMARK SMILES IDX 44 78 45 79 46 80 72 81 73 82 81 83 74 84 80 85 82 86 79 87
REMARK SMILES IDX 75 88 76 89 77 90 78 91 57 92 58 93 66 94 59 95 65 96 67 97
REMARK SMILES IDX 64 98 60 99 61 100 62 101 63 102
REMARK H PARENT 10 17 9 26 9 27 87 55 55 66
REMARK Flexibility Score: inf
ROOT
ATOM      1  C   UNL A   1      36.425  23.340  24.466  1.00  0.00     0.188 C 
ENDROOT
BRANCH   1   2
ATOM      2  C   UNL A   1      35.799  23.168  23.069  1.00  0.00     0.188 C 
BRANCH   2   3
ATOM      3  O   UNL A   1      34.445  23.560  22.970  1.00  0.00    -0.376 OA
BRANCH   3   4
ATOM      4  C   UNL A   1      34.056  24.862  22.571  1.00  0.00     0.202 C 
BRANCH   4   5
ATOM      5  C   UNL A   1      32.854  25.222  21.676  1.00  0.00     0.261 C 
BRANCH   5   6
ATOM      6  O   UNL A   1      31.545  24.922  22.153  1.00  0.00    -0.460 OA
BRANCH   6   7
ATOM      7  C   UNL A   1      31.008  25.762  23.057  1.00  0.00     0.338 C 
ATOM      8  O   UNL A   1      30.675  26.922  22.887  1.00  0.00    -0.246 OA
BRANCH   7   9
ATOM      9  C   UNL A   1      30.673  24.957  24.253  1.00  0.00     0.062 A 
ATOM     10  C   UNL A   1      30.904  22.833  25.417  1.00  0.00     0.071 A 
ATOM     11  C   UNL A   1      31.124  23.631  24.292  1.00  0.00     0.044 A 
ATOM     12  C   UNL A   1      30.178  23.390  26.482  1.00  0.00     0.146 A 
ATOM     13  C   UNL A   1      29.759  24.719  26.470  1.00  0.00     0.042 A 
ATOM     14  F   UNL A   1      29.912  22.664  27.579  1.00  0.00    -0.205 F 
ATOM     15  C   UNL A   1      30.014  25.514  25.355  1.00  0.00     0.019 A 
BRANCH  10  16
ATOM     16  N   UNL A   1      31.365  21.528  25.397  1.00  0.00    -0.380 N 
ATOM     17  H   UNL A   1      30.875  20.836  25.895  1.00  0.00     0.160 HD
BRANCH  16  18
ATOM     18  C   UNL A   1      32.568  21.156  24.648  1.00  0.00     0.082 C 
ATOM     19  C   UNL A   1      32.157  20.867  23.204  1.00  0.00     0.031 C 
BRANCH  18  20
ATOM     20  C   UNL A   1      33.282  20.027  25.461  1.00  0.00     0.089 C 
BRANCH  20  21
ATOM     21  C   UNL A   1      33.341  18.591  24.906  1.00  0.00     0.184 C 
ATOM     22  C   UNL A   1      32.495  17.629  25.755  1.00  0.00     0.065 C 
ATOM     23  N   UNL A   1      34.740  18.206  24.718  1.00  0.00    -0.344 N 
ATOM     24  C   UNL A   1      32.763  16.170  25.410  1.00  0.00     0.012 C 
ATOM     25  C   UNL A   1      34.972  16.800  24.435  1.00  0.00     0.260 C 
ATOM     26  H   UNL A   1      35.247  18.441  25.570  1.00  0.00     0.346 HD
ATOM     27  H   UNL A   1      35.059  18.712  23.893  1.00  0.00     0.346 HD
ATOM     28  C   UNL A   1      34.259  15.896  25.433  1.00  0.00     0.062 C 
ENDBRANCH  20  21
ENDBRANCH  18  20
ENDBRANCH  16  18
ENDBRANCH  10  16
ENDBRANCH   7   9
ENDBRANCH   6   7
ENDBRANCH   5   6
ENDBRANCH   4   5
ENDBRANCH   3   4
ENDBRANCH   2   3
ENDBRANCH   1   2
BRANCH   1  29
ATOM     29  O   UNL A   1      35.498  23.296  25.536  1.00  0.00    -0.377 OA
BRANCH  29  30
ATOM     30  C   UNL A   1      35.047  24.522  26.111  1.00  0.00     0.188 C 
BRANCH  30  31
ATOM     31  C   UNL A   1      33.567  24.976  26.061  1.00  0.00     0.188 C 
BRANCH  31  32
ATOM     32  O   UNL A   1      33.296  26.209  26.713  1.00  0.00    -0.376 OA
BRANCH  32  33
ATOM     33  C   UNL A   1      33.082  27.359  25.914  1.00  0.00     0.202 C 
BRANCH  33  34
ATOM     34  C   UNL A   1      32.614  28.620  26.653  1.00  0.00     0.261 C 
BRANCH  34  35
ATOM     35  O   UNL A   1      33.015  29.868  26.067  1.00  0.00    -0.460 OA
BRANCH  35  36
ATOM     36  C   UNL A   1      33.140  30.916  26.908  1.00  0.00     0.338 C 
ATOM     37  O   UNL A   1      32.278  31.739  27.183  1.00  0.00    -0.246 OA
BRANCH  36  38
ATOM     38  C   UNL A   1      34.441  30.802  27.595  1.00  0.00     0.060 A 
ATOM     39  C   UNL A   1      35.321  29.786  27.205  1.00  0.00     0.016 A 
ATOM     40  C   UNL A   1      34.786  31.686  28.620  1.00  0.00     0.016 A 
ATOM     41  C   UNL A   1      36.531  29.620  27.877  1.00  0.00     0.010 A 
ATOM     42  C   UNL A   1      35.992  31.508  29.303  1.00  0.00     0.010 A 
ATOM     43  C   UNL A   1      36.850  30.448  28.962  1.00  0.00    -0.014 A 
BRANCH  43  44
ATOM     44  C   UNL A   1      37.980  30.074  29.848  1.00  0.00     0.031 A 
ATOM     45  C   UNL A   1      39.037  29.149  29.305  1.00  0.00     0.074 A 
ATOM     46  C   UNL A   1      38.102  30.595  31.082  1.00  0.00     0.049 A 
ATOM     47  N   UNL A   1      40.116  28.693  29.885  1.00  0.00    -0.248 NA
ATOM     48  C   UNL A   1      38.853  28.677  27.922  1.00  0.00     0.031 C 
ATOM     49  C   UNL A   1      37.171  31.541  31.693  1.00  0.00     0.029 A 
ATOM     50  N   UNL A   1      39.070  30.409  32.038  1.00  0.00    -0.354 N 
ATOM     51  C   UNL A   1      40.738  27.882  28.942  1.00  0.00     0.074 A 
ATOM     52  C   UNL A   1      39.898  27.878  27.766  1.00  0.00     0.031 C 
ATOM     53  C   UNL A   1      37.617  31.859  32.921  1.00  0.00     0.029 A 
ATOM     54  C   UNL A   1      38.844  31.112  33.198  1.00  0.00     0.049 A 
ATOM     55  H   UNL A   1      39.852  29.826  31.906  1.00  0.00     0.167 HD
ATOM     56  C   UNL A   1      41.908  27.210  29.047  1.00  0.00     0.034 A 
ATOM     57  C   UNL A   1      39.534  31.137  34.357  1.00  0.00     0.034 A 
ATOM     58  C   UNL A   1      42.738  27.226  30.224  1.00  0.00     0.049 A 
ATOM     59  C   UNL A   1      40.791  30.311  34.485  1.00  0.00     0.074 A 
ATOM     60  C   UNL A   1      43.956  26.599  30.420  1.00  0.00     0.029 A 
ATOM     61  N   UNL A   1      42.433  27.887  31.405  1.00  0.00    -0.354 N 
ATOM     62  N   UNL A   1      41.362  29.539  33.589  1.00  0.00    -0.248 NA
ATOM     63  C   UNL A   1      41.493  30.354  35.774  1.00  0.00     0.031 C 
ATOM     64  C   UNL A   1      44.347  26.814  31.744  1.00  0.00     0.029 A 
ATOM     65  C   UNL A   1      43.418  27.648  32.348  1.00  0.00     0.049 A 
ATOM     66  H   UNL A   1      41.635  28.445  31.550  1.00  0.00     0.167 HD
ATOM     67  C   UNL A   1      42.502  29.024  34.200  1.00  0.00     0.074 A 
ATOM     68  C   UNL A   1      42.538  29.570  35.541  1.00  0.00     0.031 C 
ATOM     69  C   UNL A   1      43.437  28.185  33.689  1.00  0.00     0.034 A 
BRANCH  56  70
ATOM     70  C   UNL A   1      42.341  26.363  27.879  1.00  0.00     0.023 A 
ATOM     71  C   UNL A   1      41.903  25.036  27.721  1.00  0.00     0.031 A 
ATOM     72  C   UNL A   1      43.183  26.906  26.893  1.00  0.00     0.131 A 
ATOM     73  C   UNL A   1      42.341  24.285  26.619  1.00  0.00     0.055 A 
ATOM     74  C   UNL A   1      43.563  26.174  25.767  1.00  0.00     0.041 A 
ATOM     75  F   UNL A   1      43.647  28.160  27.006  1.00  0.00    -0.206 F 
ATOM     76  C   UNL A   1      43.146  24.853  25.629  1.00  0.00     0.022 A 
BRANCH  73  77
ATOM     77  S   UNL A   1      41.908  22.526  26.537  1.00  0.00     0.124 S 
ATOM     78  O   UNL A   1      40.453  22.576  26.648  1.00  0.00    -0.237 OA
ATOM     79  O   UNL A   1      42.436  22.129  25.238  1.00  0.00    -0.237 OA
ATOM     80  O   UNL A   1      42.595  21.950  27.692  1.00  0.00    -0.744 OA
ENDBRANCH  73  77
ENDBRANCH  56  70
BRANCH  57  81
ATOM     81  C   UNL A   1      39.027  31.949  35.497  1.00  0.00     0.023 A 
ATOM     82  C   UNL A   1      38.326  31.361  36.561  1.00  0.00     0.031 A 
ATOM     83  C   UNL A   1      39.265  33.335  35.547  1.00  0.00     0.131 A 
ATOM     84  C   UNL A   1      37.884  32.158  37.630  1.00  0.00     0.055 A 
ATOM     85  C   UNL A   1      38.855  34.116  36.628  1.00  0.00     0.041 A 
ATOM     86  F   UNL A   1      39.933  33.944  34.553  1.00  0.00    -0.206 F 
ATOM     87  C   UNL A   1      38.158  33.528  37.678  1.00  0.00     0.022 A 
BRANCH  84  88
ATOM     88  S   UNL A   1      36.934  31.382  38.968  1.00  0.00     0.124 S 
ATOM     89  O   UNL A   1      37.887  31.423  40.070  1.00  0.00    -0.237 OA
ATOM     90  O   UNL A   1      35.782  32.272  39.079  1.00  0.00    -0.237 OA
ATOM     91  O   UNL A   1      36.637  30.050  38.446  1.00  0.00    -0.744 OA
ENDBRANCH  84  88
ENDBRANCH  57  81
BRANCH  69  92
ATOM     92  C   UNL A   1      44.609  27.812  34.561  1.00  0.00     0.023 A 
ATOM     93  C   UNL A   1      44.638  26.607  35.280  1.00  0.00     0.031 A 
ATOM     94  C   UNL A   1      45.750  28.634  34.591  1.00  0.00     0.131 A 
ATOM     95  C   UNL A   1      45.785  26.262  36.012  1.00  0.00     0.055 A 
ATOM     96  C   UNL A   1      46.903  28.264  35.282  1.00  0.00     0.041 A 
ATOM     97  F   UNL A   1      45.774  29.795  33.914  1.00  0.00    -0.206 F 
ATOM     98  C   UNL A   1      46.925  27.072  35.999  1.00  0.00     0.022 A 
BRANCH  95  99
ATOM     99  S   UNL A   1      45.770  24.738  36.996  1.00  0.00     0.124 S 
ATOM    100  O   UNL A   1      45.700  23.711  35.960  1.00  0.00    -0.237 OA
ATOM    101  O   UNL A   1      47.030  24.820  37.728  1.00  0.00    -0.237 OA
ATOM    102  O   UNL A   1      44.568  24.873  37.817  1.00  0.00    -0.744 OA
ENDBRANCH  95  99
ENDBRANCH  69  92
ENDBRANCH  43  44
ENDBRANCH  36  38
ENDBRANCH  35  36
ENDBRANCH  34  35
ENDBRANCH  33  34
ENDBRANCH  32  33
ENDBRANCH  31  32
ENDBRANCH  30  31
ENDBRANCH  29  30
ENDBRANCH   1  29
TORSDOF 27
ENDMDL
MODEL 2
REMARK VINA RESULT:      -9.7      4.556     10.040
REMARK SMILES C[C@H](C[C@@H]1CCCC[NH2+]1)Nc1cc(C(=O)OCCOCCOCCOCCOC(=O)c2ccc(-c3c4nc(c(-c5cc(S(=O)(=O)[O-])ccc5F)c5ccc([nH]5)c(-c5cc(S(=O)(=O)[O-])ccc5F)c5nc(c(-c6cc(S(=O)(=O)[O-])ccc6F)c6ccc3[nH]6)C=C5)C=C4)cc2)ccc1F
REMARK SMILES IDX 21 1 20 2 19 3 18 4 17 5 16 6 14 7 15 8 13 9 11 10 12 11
REMARK SMILES IDX 96 12 95 13 97 14 94 15 10 16 2 18 1 19 3 20 4 21 5 22 9 23
REMARK SMILES IDX 6 24 8 25 7 28 22 29 23 30 24 31 25 32 26 33 27 34 28 35
REMARK SMILES IDX 29 36 30 37 31 38 32 39 93 40 33 41 92 42 34 43 35 44 36 45
REMARK SMILES IDX 86 46 37 47 91 48 85 49 87 50 38 51 90 52 84 53 83 54 39 56
REMARK SMILES IDX 71 57 51 58 70 59 52 60 55 61 69 62 88 63 53 64 54 65 68 67
REMARK SMILES IDX 89 68 56 69 40 70 41 71 49 72 42 73 48 74 50 75 47 76 43 77
REMARK SMILES IDX 44 78 45 79 46 80 72 81 73 82 81 83 74 84 80 85 82 86 79 87
REMARK SMILES IDX 75 88 76 89 77 90 78 91 57 92 58 93 66 94 59 95 65 96 67 97
REMARK SMILES IDX 64 98 60 99 61 100 62 101 63 102
REMARK H PARENT 10 17 9 26 9 27 87 55 55 66
REMARK Flexibility Score: inf
ROOT
ATOM      1  C   UNL A   1      37.777  28.735  30.153  1.00  0.00     0.188 C 
ENDROOT
BRANCH   1   2
ATOM      2  C   UNL A   1      37.748  29.267  28.707  1.00  0.00     0.188 C 
BRANCH   2   3
ATOM      3  O   UNL A   1      36.727  30.206  28.438  1.00  0.00    -0.376 OA
BRANCH   3   4
ATOM      4  C   UNL A   1      35.837  30.071  27.345  1.00  0.00     0.202 C 
BRANCH   4   5
ATOM      5  C   UNL A   1      34.412  29.487  27.394  1.00  0.00     0.261 C 
BRANCH   5   6
ATOM      6  O   UNL A   1      33.614  29.557  26.216  1.00  0.00    -0.460 OA
BRANCH   6   7
ATOM      7  C   UNL A   1      32.298  29.795  26.372  1.00  0.00     0.338 C 
ATOM      8  O   UNL A   1      31.775  30.798  26.825  1.00  0.00    -0.246 OA
BRANCH   7   9
ATOM      9  C   UNL A   1      31.574  28.706  25.681  1.00  0.00     0.062 A 
ATOM     10  C   UNL A   1      30.573  26.494  25.840  1.00  0.00     0.071 A 
ATOM     11  C   UNL A   1      31.311  27.536  26.406  1.00  0.00     0.044 A 
ATOM     12  C   UNL A   1      30.147  26.641  24.509  1.00  0.00     0.146 A 
ATOM     13  C   UNL A   1      30.371  27.815  23.793  1.00  0.00     0.042 A 
ATOM     14  F   UNL A   1      29.458  25.663  23.903  1.00  0.00    -0.205 F 
ATOM     15  C   UNL A   1      31.079  28.860  24.381  1.00  0.00     0.019 A 
BRANCH  10  16
ATOM     16  N   UNL A   1      30.349  25.359  26.600  1.00  0.00    -0.380 N 
ATOM     17  H   UNL A   1      29.886  25.442  27.465  1.00  0.00     0.160 HD
BRANCH  16  18
ATOM     18  C   UNL A   1      30.786  24.038  26.144  1.00  0.00     0.082 C 
ATOM     19  C   UNL A   1      30.082  22.984  26.998  1.00  0.00     0.031 C 
BRANCH  18  20
ATOM     20  C   UNL A   1      32.350  24.056  26.120  1.00  0.00     0.089 C 
BRANCH  20  21
ATOM     21  C   UNL A   1      33.103  24.207  24.785  1.00  0.00     0.184 C 
ATOM     22  C   UNL A   1      33.708  25.613  24.641  1.00  0.00     0.065 C 
ATOM     23  N   UNL A   1      32.233  23.779  23.690  1.00  0.00    -0.344 N 
ATOM     24  C   UNL A   1      34.203  25.885  23.226  1.00  0.00     0.012 C 
ATOM     25  C   UNL A   1      32.705  24.090  22.353  1.00  0.00     0.260 C 
ATOM     26  H   UNL A   1      31.327  24.230  23.816  1.00  0.00     0.346 HD
ATOM     27  H   UNL A   1      32.199  22.761  23.744  1.00  0.00     0.346 HD
ATOM     28  C   UNL A   1      33.110  25.552  22.221  1.00  0.00     0.062 C 
ENDBRANCH  20  21
ENDBRANCH  18  20
ENDBRANCH  16  18
ENDBRANCH  10  16
ENDBRANCH   7   9
ENDBRANCH   6   7
ENDBRANCH   5   6
ENDBRANCH   4   5
ENDBRANCH   3   4
ENDBRANCH   2   3
ENDBRANCH   1   2
BRANCH   1  29
ATOM     29  O   UNL A   1      36.641  29.074  30.927  1.00  0.00    -0.377 OA
BRANCH  29  30
ATOM     30  C   UNL A   1      36.775  30.047  31.962  1.00  0.00     0.188 C 
BRANCH  30  31
ATOM     31  C   UNL A   1      36.496  31.554  31.737  1.00  0.00     0.188 C 
BRANCH  31  32
ATOM     32  O   UNL A   1      35.162  31.869  31.364  1.00  0.00    -0.376 OA
BRANCH  32  33
ATOM     33  C   UNL A   1      34.946  32.985  30.520  1.00  0.00     0.202 C 
BRANCH  33  34
ATOM     34  C   UNL A   1      34.363  34.237  31.189  1.00  0.00     0.261 C 
BRANCH  34  35
ATOM     35  O   UNL A   1      34.333  34.217  32.624  1.00  0.00    -0.460 OA
BRANCH  35  36
ATOM     36  C   UNL A   1      35.073  35.152  33.257  1.00  0.00     0.338 C 
ATOM     37  O   UNL A   1      34.750  36.310  33.482  1.00  0.00    -0.246 OA
BRANCH  36  38
ATOM     38  C   UNL A   1      36.273  34.493  33.806  1.00  0.00     0.060 A 
ATOM     39  C   UNL A   1      36.151  33.738  34.978  1.00  0.00     0.016 A 
ATOM     40  C   UNL A   1      37.512  34.625  33.173  1.00  0.00     0.016 A 
ATOM     41  C   UNL A   1      37.279  33.154  35.550  1.00  0.00     0.010 A 
ATOM     42  C   UNL A   1      38.646  34.053  33.756  1.00  0.00     0.010 A 
ATOM     43  C   UNL A   1      38.540  33.350  34.969  1.00  0.00    -0.014 A 
BRANCH  43  44
ATOM     44  C   UNL A   1      39.755  32.986  35.741  1.00  0.00     0.031 A 
ATOM     45  C   UNL A   1      40.310  33.991  36.715  1.00  0.00     0.074 A 
ATOM     46  C   UNL A   1      40.314  31.768  35.630  1.00  0.00     0.049 A 
ATOM     47  N   UNL A   1      41.347  33.895  37.503  1.00  0.00    -0.248 NA
ATOM     48  C   UNL A   1      39.595  35.276  36.815  1.00  0.00     0.031 C 
ATOM     49  C   UNL A   1      39.832  30.696  34.761  1.00  0.00     0.029 A 
ATOM     50  N   UNL A   1      41.404  31.224  36.264  1.00  0.00    -0.354 N 
ATOM     51  C   UNL A   1      41.413  35.102  38.190  1.00  0.00     0.074 A 
ATOM     52  C   UNL A   1      40.333  35.929  37.701  1.00  0.00     0.031 C 
ATOM     53  C   UNL A   1      40.620  29.618  34.922  1.00  0.00     0.029 A 
ATOM     54  C   UNL A   1      41.683  29.935  35.875  1.00  0.00     0.049 A 
ATOM     55  H   UNL A   1      41.936  31.712  36.933  1.00  0.00     0.167 HD
ATOM     56  C   UNL A   1      42.290  35.481  39.150  1.00  0.00     0.034 A 
ATOM     57  C   UNL A   1      42.690  29.111  36.232  1.00  0.00     0.034 A 
ATOM     58  C   UNL A   1      43.359  34.646  39.632  1.00  0.00     0.049 A 
ATOM     59  C   UNL A   1      43.709  29.585  37.239  1.00  0.00     0.074 A 
ATOM     60  C   UNL A   1      44.285  34.928  40.620  1.00  0.00     0.029 A 
ATOM     61  N   UNL A   1      43.656  33.377  39.156  1.00  0.00    -0.354 N 
ATOM     62  N   UNL A   1      43.767  30.733  37.873  1.00  0.00    -0.248 NA
ATOM     63  C   UNL A   1      44.800  28.659  37.577  1.00  0.00     0.031 C 
ATOM     64  C   UNL A   1      45.189  33.865  40.685  1.00  0.00     0.029 A 
ATOM     65  C   UNL A   1      44.776  32.881  39.800  1.00  0.00     0.049 A 
ATOM     66  H   UNL A   1      43.144  32.899  38.464  1.00  0.00     0.167 HD
ATOM     67  C   UNL A   1      44.884  30.659  38.700  1.00  0.00     0.074 A 
ATOM     68  C   UNL A   1      45.474  29.353  38.485  1.00  0.00     0.031 C 
ATOM     69  C   UNL A   1      45.367  31.584  39.566  1.00  0.00     0.034 A 
BRANCH  56  70
ATOM     70  C   UNL A   1      42.162  36.874  39.709  1.00  0.00     0.023 A 
ATOM     71  C   UNL A   1      41.436  37.139  40.884  1.00  0.00     0.031 A 
ATOM     72  C   UNL A   1      42.803  37.949  39.068  1.00  0.00     0.131 A 
ATOM     73  C   UNL A   1      41.340  38.455  41.361  1.00  0.00     0.055 A 
ATOM     74  C   UNL A   1      42.756  39.245  39.584  1.00  0.00     0.041 A 
ATOM     75  F   UNL A   1      43.490  37.754  37.933  1.00  0.00    -0.206 F 
ATOM     76  C   UNL A   1      42.017  39.505  40.734  1.00  0.00     0.022 A 
BRANCH  73  77
ATOM     77  S   UNL A   1      40.252  38.793  42.772  1.00  0.00     0.124 S 
ATOM     78  O   UNL A   1      41.219  39.086  43.826  1.00  0.00    -0.237 OA
ATOM     79  O   UNL A   1      39.461  39.923  42.299  1.00  0.00    -0.237 OA
ATOM     80  O   UNL A   1      39.514  37.543  42.941  1.00  0.00    -0.744 OA
ENDBRANCH  73  77
ENDBRANCH  56  70
BRANCH  57  81
ATOM     81  C   UNL A   1      42.797  27.766  35.602  1.00  0.00     0.023 A 
ATOM     82  C   UNL A   1      43.596  27.549  34.469  1.00  0.00     0.031 A 
ATOM     83  C   UNL A   1      42.114  26.665  36.151  1.00  0.00     0.131 A 
ATOM     84  C   UNL A   1      43.689  26.260  33.918  1.00  0.00     0.055 A 
ATOM     85  C   UNL A   1      42.238  25.380  35.622  1.00  0.00     0.041 A 
ATOM     86  F   UNL A   1      41.339  26.822  37.237  1.00  0.00    -0.206 F 
ATOM     87  C   UNL A   1      43.028  25.173  34.497  1.00  0.00     0.022 A 
BRANCH  84  88
ATOM     88  S   UNL A   1      44.685  26.017  32.421  1.00  0.00     0.124 S 
ATOM     89  O   UNL A   1      45.956  26.615  32.810  1.00  0.00    -0.237 OA
ATOM     90  O   UNL A   1      44.674  24.564  32.280  1.00  0.00    -0.237 OA
ATOM     91  O   UNL A   1      43.940  26.743  31.395  1.00  0.00    -0.744 OA
ENDBRANCH  84  88
ENDBRANCH  57  81
BRANCH  69  92
ATOM     92  C   UNL A   1      46.583  31.226  40.381  1.00  0.00     0.023 A 
ATOM     93  C   UNL A   1      46.479  30.525  41.593  1.00  0.00     0.031 A 
ATOM     94  C   UNL A   1      47.869  31.509  39.885  1.00  0.00     0.131 A 
ATOM     95  C   UNL A   1      47.643  30.139  42.276  1.00  0.00     0.055 A 
ATOM     96  C   UNL A   1      49.021  31.083  40.544  1.00  0.00     0.041 A 
ATOM     97  F   UNL A   1      48.022  32.172  38.726  1.00  0.00    -0.206 F 
ATOM     98  C   UNL A   1      48.912  30.395  41.748  1.00  0.00     0.022 A 
BRANCH  95  99
ATOM     99  S   UNL A   1      47.481  29.304  43.878  1.00  0.00     0.124 S 
ATOM    100  O   UNL A   1      48.873  29.210  44.310  1.00  0.00    -0.237 OA
ATOM    101  O   UNL A   1      46.641  30.227  44.634  1.00  0.00    -0.237 OA
ATOM    102  O   UNL A   1      46.850  28.030  43.539  1.00  0.00    -0.744 OA
ENDBRANCH  95  99
ENDBRANCH  69  92
ENDBRANCH  43  44
ENDBRANCH  36  38
ENDBRANCH  35  36
ENDBRANCH  34  35
ENDBRANCH  33  34
ENDBRANCH  32  33
ENDBRANCH  31  32
ENDBRANCH  30  31
ENDBRANCH  29  30
ENDBRANCH   1  29
TORSDOF 27
ENDMDL
MODEL 3
REMARK VINA RESULT:      -9.6      3.129      8.160
REMARK SMILES C[C@H](C[C@@H]1CCCC[NH2+]1)Nc1cc(C(=O)OCCOCCOCCOCCOC(=O)c2ccc(-c3c4nc(c(-c5cc(S(=O)(=O)[O-])ccc5F)c5ccc([nH]5)c(-c5cc(S(=O)(=O)[O-])ccc5F)c5nc(c(-c6cc(S(=O)(=O)[O-])ccc6F)c6ccc3[nH]6)C=C5)C=C4)cc2)ccc1F
REMARK SMILES IDX 21 1 20 2 19 3 18 4 17 5 16 6 14 7 15 8 13 9 11 10 12 11
REMARK SMILES IDX 96 12 95 13 97 14 94 15 10 16 2 18 1 19 3 20 4 21 5 22 9 23
REMARK SMILES IDX 6 24 8 25 7 28 22 29 23 30 24 31 25 32 26 33 27 34 28 35
REMARK SMILES IDX 29 36 30 37 31 38 32 39 93 40 33 41 92 42 34 43 35 44 36 45
REMARK SMILES IDX 86 46 37 47 91 48 85 49 87 50 38 51 90 52 84 53 83 54 39 56
REMARK SMILES IDX 71 57 51 58 70 59 52 60 55 61 69 62 88 63 53 64 54 65 68 67
REMARK SMILES IDX 89 68 56 69 40 70 41 71 49 72 42 73 48 74 50 75 47 76 43 77
REMARK SMILES IDX 44 78 45 79 46 80 72 81 73 82 81 83 74 84 80 85 82 86 79 87
REMARK SMILES IDX 75 88 76 89 77 90 78 91 57 92 58 93 66 94 59 95 65 96 67 97
REMARK SMILES IDX 64 98 60 99 61 100 62 101 63 102
REMARK H PARENT 10 17 9 26 9 27 87 55 55 66
REMARK Flexibility Score: inf
ROOT
ATOM      1  C   UNL A   1      31.705  27.827  25.764  1.00  0.00     0.188 C 
ENDROOT
BRANCH   1   2
ATOM      2  C   UNL A   1      31.292  28.551  24.469  1.00  0.00     0.188 C 
BRANCH   2   3
ATOM      3  O   UNL A   1      32.282  29.395  23.917  1.00  0.00    -0.376 OA
BRANCH   3   4
ATOM      4  C   UNL A   1      33.427  28.892  23.251  1.00  0.00     0.202 C 
BRANCH   4   5
ATOM      5  C   UNL A   1      33.558  27.515  22.573  1.00  0.00     0.261 C 
BRANCH   5   6
ATOM      6  O   UNL A   1      32.446  27.019  21.833  1.00  0.00    -0.460 OA
BRANCH   6   7
ATOM      7  C   UNL A   1      32.582  25.819  21.239  1.00  0.00     0.338 C 
ATOM      8  O   UNL A   1      33.063  25.584  20.144  1.00  0.00    -0.246 OA
BRANCH   7   9
ATOM      9  C   UNL A   1      32.251  24.792  22.251  1.00  0.00     0.062 A 
ATOM     10  C   UNL A   1      33.008  22.869  23.534  1.00  0.00     0.071 A 
ATOM     11  C   UNL A   1      33.225  23.828  22.542  1.00  0.00     0.044 A 
ATOM     12  C   UNL A   1      31.767  22.877  24.193  1.00  0.00     0.146 A 
ATOM     13  C   UNL A   1      30.807  23.855  23.938  1.00  0.00     0.042 A 
ATOM     14  F   UNL A   1      31.491  21.965  25.136  1.00  0.00    -0.205 F 
ATOM     15  C   UNL A   1      31.050  24.826  22.970  1.00  0.00     0.019 A 
BRANCH  10  16
ATOM     16  N   UNL A   1      34.002  21.936  23.775  1.00  0.00    -0.380 N 
ATOM     17  H   UNL A   1      34.307  21.357  23.040  1.00  0.00     0.160 HD
BRANCH  16  18
ATOM     18  C   UNL A   1      34.610  21.794  25.100  1.00  0.00     0.082 C 
ATOM     19  C   UNL A   1      35.571  22.963  25.310  1.00  0.00     0.031 C 
BRANCH  18  20
ATOM     20  C   UNL A   1      35.174  20.338  25.191  1.00  0.00     0.089 C 
BRANCH  20  21
ATOM     21  C   UNL A   1      34.344  19.150  24.666  1.00  0.00     0.184 C 
ATOM     22  C   UNL A   1      33.026  19.004  25.444  1.00  0.00     0.065 C 
ATOM     23  N   UNL A   1      35.188  17.957  24.621  1.00  0.00    -0.344 N 
ATOM     24  C   UNL A   1      32.328  17.683  25.149  1.00  0.00     0.012 C 
ATOM     25  C   UNL A   1      34.493  16.704  24.384  1.00  0.00     0.260 C 
ATOM     26  H   UNL A   1      35.672  17.882  25.516  1.00  0.00     0.346 HD
ATOM     27  H   UNL A   1      35.810  18.086  23.824  1.00  0.00     0.346 HD
ATOM     28  C   UNL A   1      33.305  16.529  25.322  1.00  0.00     0.062 C 
ENDBRANCH  20  21
ENDBRANCH  18  20
ENDBRANCH  16  18
ENDBRANCH  10  16
ENDBRANCH   7   9
ENDBRANCH   6   7
ENDBRANCH   5   6
ENDBRANCH   4   5
ENDBRANCH   3   4
ENDBRANCH   2   3
ENDBRANCH   1   2
BRANCH   1  29
ATOM     29  O   UNL A   1      31.740  28.652  26.914  1.00  0.00    -0.377 OA
BRANCH  29  30
ATOM     30  C   UNL A   1      32.967  29.289  27.271  1.00  0.00     0.188 C 
BRANCH  30  31
ATOM     31  C   UNL A   1      33.139  30.828  27.289  1.00  0.00     0.188 C 
BRANCH  31  32
ATOM     32  O   UNL A   1      34.140  31.309  28.175  1.00  0.00    -0.376 OA
BRANCH  32  33
ATOM     33  C   UNL A   1      34.768  32.543  27.873  1.00  0.00     0.202 C 
BRANCH  33  34
ATOM     34  C   UNL A   1      36.250  32.659  28.253  1.00  0.00     0.261 C 
BRANCH  34  35
ATOM     35  O   UNL A   1      36.527  33.385  29.460  1.00  0.00    -0.460 OA
BRANCH  35  36
ATOM     36  C   UNL A   1      36.403  32.703  30.618  1.00  0.00     0.338 C 
ATOM     37  O   UNL A   1      35.363  32.455  31.211  1.00  0.00    -0.246 OA
BRANCH  36  38
ATOM     38  C   UNL A   1      37.721  32.134  30.959  1.00  0.00     0.060 A 
ATOM     39  C   UNL A   1      38.870  32.727  30.423  1.00  0.00     0.016 A 
ATOM     40  C   UNL A   1      37.821  31.020  31.797  1.00  0.00     0.016 A 
ATOM     41  C   UNL A   1      40.122  32.174  30.683  1.00  0.00     0.010 A 
ATOM     42  C   UNL A   1      39.076  30.457  32.044  1.00  0.00     0.010 A 
ATOM     43  C   UNL A   1      40.227  31.007  31.453  1.00  0.00    -0.014 A 
BRANCH  43  44
ATOM     44  C   UNL A   1      41.513  30.266  31.469  1.00  0.00     0.031 A 
ATOM     45  C   UNL A   1      42.506  30.582  32.557  1.00  0.00     0.074 A 
ATOM     46  C   UNL A   1      41.768  29.288  30.582  1.00  0.00     0.049 A 
ATOM     47  N   UNL A   1      43.683  30.061  32.781  1.00  0.00    -0.248 NA
ATOM     48  C   UNL A   1      42.116  31.624  33.522  1.00  0.00     0.031 C 
ATOM     49  C   UNL A   1      40.860  28.858  29.520  1.00  0.00     0.029 A 
ATOM     50  N   UNL A   1      42.863  28.472  30.441  1.00  0.00    -0.354 N 
ATOM     51  C   UNL A   1      44.175  30.710  33.907  1.00  0.00     0.074 A 
ATOM     52  C   UNL A   1      43.186  31.688  34.300  1.00  0.00     0.031 C 
ATOM     53  C   UNL A   1      41.434  27.850  28.839  1.00  0.00     0.029 A 
ATOM     54  C   UNL A   1      42.762  27.588  29.393  1.00  0.00     0.049 A 
ATOM     55  H   UNL A   1      43.646  28.516  31.035  1.00  0.00     0.167 HD
ATOM     56  C   UNL A   1      45.343  30.501  34.560  1.00  0.00     0.034 A 
ATOM     57  C   UNL A   1      43.646  26.685  28.920  1.00  0.00     0.034 A 
ATOM     58  C   UNL A   1      46.318  29.520  34.160  1.00  0.00     0.049 A 
ATOM     59  C   UNL A   1      44.980  26.527  29.609  1.00  0.00     0.074 A 
ATOM     60  C   UNL A   1      47.522  29.213  34.771  1.00  0.00     0.029 A 
ATOM     61  N   UNL A   1      46.214  28.700  33.047  1.00  0.00    -0.354 N 
ATOM     62  N   UNL A   1      45.437  27.156  30.667  1.00  0.00    -0.248 NA
ATOM     63  C   UNL A   1      45.916  25.547  29.042  1.00  0.00     0.031 C 
ATOM     64  C   UNL A   1      48.180  28.266  33.982  1.00  0.00     0.029 A 
ATOM     65  C   UNL A   1      47.350  27.917  32.928  1.00  0.00     0.049 A 
ATOM     66  H   UNL A   1      45.444  28.676  32.432  1.00  0.00     0.167 HD
ATOM     67  C   UNL A   1      46.705  26.630  30.906  1.00  0.00     0.074 A 
ATOM     68  C   UNL A   1      46.941  25.635  29.880  1.00  0.00     0.031 C 
ATOM     69  C   UNL A   1      47.583  26.938  31.891  1.00  0.00     0.034 A 
BRANCH  56  70
ATOM     70  C   UNL A   1      45.654  31.378  35.745  1.00  0.00     0.023 A 
ATOM     71  C   UNL A   1      45.236  31.046  37.045  1.00  0.00     0.031 A 
ATOM     72  C   UNL A   1      46.407  32.552  35.569  1.00  0.00     0.131 A 
ATOM     73  C   UNL A   1      45.544  31.900  38.115  1.00  0.00     0.055 A 
ATOM     74  C   UNL A   1      46.765  33.364  36.647  1.00  0.00     0.041 A 
ATOM     75  F   UNL A   1      46.812  32.927  34.346  1.00  0.00    -0.206 F 
ATOM     76  C   UNL A   1      46.328  33.042  37.929  1.00  0.00     0.022 A 
BRANCH  73  77
ATOM     77  S   UNL A   1      44.840  31.541  39.747  1.00  0.00     0.124 S 
ATOM     78  O   UNL A   1      45.015  32.819  40.431  1.00  0.00    -0.237 OA
ATOM     79  O   UNL A   1      43.466  31.172  39.425  1.00  0.00    -0.237 OA
ATOM     80  O   UNL A   1      45.677  30.453  40.248  1.00  0.00    -0.744 OA
ENDBRANCH  73  77
ENDBRANCH  56  70
BRANCH  57  81
ATOM     81  C   UNL A   1      43.305  25.886  27.711  1.00  0.00     0.023 A 
ATOM     82  C   UNL A   1      42.670  24.639  27.811  1.00  0.00     0.031 A 
ATOM     83  C   UNL A   1      43.589  26.383  26.425  1.00  0.00     0.131 A 
ATOM     84  C   UNL A   1      42.343  23.927  26.645  1.00  0.00     0.055 A 
ATOM     85  C   UNL A   1      43.230  25.689  25.269  1.00  0.00     0.041 A 
ATOM     86  F   UNL A   1      44.193  27.573  26.277  1.00  0.00    -0.206 F 
ATOM     87  C   UNL A   1      42.604  24.452  25.375  1.00  0.00     0.022 A 
BRANCH  84  88
ATOM     88  S   UNL A   1      41.572  22.292  26.803  1.00  0.00     0.124 S 
ATOM     89  O   UNL A   1      40.212  22.561  26.351  1.00  0.00    -0.237 OA
ATOM     90  O   UNL A   1      42.396  21.479  25.914  1.00  0.00    -0.237 OA
ATOM     91  O   UNL A   1      41.710  21.987  28.225  1.00  0.00    -0.744 OA
ENDBRANCH  84  88
ENDBRANCH  57  81
BRANCH  69  92
ATOM     92  C   UNL A   1      48.885  26.180  31.945  1.00  0.00     0.023 A 
ATOM     93  C   UNL A   1      49.056  25.068  32.786  1.00  0.00     0.031 A 
ATOM     94  C   UNL A   1      49.931  26.519  31.069  1.00  0.00     0.131 A 
ATOM     95  C   UNL A   1      50.255  24.341  32.742  1.00  0.00     0.055 A 
ATOM     96  C   UNL A   1      51.102  25.765  30.996  1.00  0.00     0.041 A 
ATOM     97  F   UNL A   1      49.814  27.570  30.239  1.00  0.00    -0.206 F 
ATOM     98  C   UNL A   1      51.270  24.669  31.837  1.00  0.00     0.022 A 
BRANCH  95  99
ATOM     99  S   UNL A   1      50.483  22.958  33.893  1.00  0.00     0.124 S 
ATOM    100  O   UNL A   1      51.765  23.289  34.510  1.00  0.00    -0.237 OA
ATOM    101  O   UNL A   1      49.313  23.069  34.758  1.00  0.00    -0.237 OA
ATOM    102  O   UNL A   1      50.499  21.785  33.022  1.00  0.00    -0.744 OA
ENDBRANCH  95  99
ENDBRANCH  69  92
ENDBRANCH  43  44
ENDBRANCH  36  38
ENDBRANCH  35  36
ENDBRANCH  34  35
ENDBRANCH  33  34
ENDBRANCH  32  33
ENDBRANCH  31  32
ENDBRANCH  30  31
ENDBRANCH  29  30
ENDBRANCH   1  29
TORSDOF 27
ENDMDL
