MODEL 1
REMARK VINA RESULT:      -8.9      0.000      0.000
REMARK SMILES O=C(N[C@@H](Cc1ccccc1)C(=O)N[C@@H](CS)C(=O)N[C@@H](CO)C(=O)OCCOCCOCCOCCOC(=O)c1ccc(-c2c3nc(c(-c4cc(S(=O)(=O)[O-])ccc4F)c4ccc([nH]4)c(-c4cc(S(=O)(=O)[O-])ccc4F)c4nc(c(-c5cc(S(=O)(=O)[O-])ccc5F)c5ccc2[nH]5)C=C4)C=C3)cc1)c1ccc(F)cc1
REMARK SMILES IDX 30 1 29 2 28 3 27 4 26 5 24 6 25 7 21 8 20 9 18 10 19 11
REMARK SMILES IDX 15 13 14 14 12 15 13 16 4 18 3 19 1 20 2 21 104 23 105 24
REMARK SMILES IDX 110 25 106 26 109 27 107 28 108 29 5 30 6 31 7 32 11 33 8 34
REMARK SMILES IDX 10 35 9 36 16 37 17 38 22 40 23 41 31 43 32 44 33 45 34 46
REMARK SMILES IDX 35 47 36 48 37 49 38 50 39 51 40 52 41 53 42 54 103 55 43 56
REMARK SMILES IDX 102 57 44 58 45 59 46 60 96 61 47 62 101 63 95 64 97 65
REMARK SMILES IDX 48 66 100 67 94 68 93 69 49 71 81 72 61 73 80 74 62 75 65 76
REMARK SMILES IDX 79 77 98 78 63 79 64 80 78 82 99 83 66 84 50 85 51 86 59 87
REMARK SMILES IDX 52 88 58 89 60 90 57 91 53 92 54 93 55 94 56 95 82 96 83 97
REMARK SMILES IDX 91 98 84 99 90 100 92 101 89 102 85 103 86 104 87 105 88 106
REMARK SMILES IDX 67 107 68 108 76 109 69 110 75 111 77 112 74 113 70 114
REMARK SMILES IDX 71 115 72 116 73 117
REMARK H PARENT 20 12 14 17 3 22 17 39 23 42 97 70 65 81
REMARK Flexibility Score: inf
ROOT
ATOM      1  C   UNL A   1      30.116  25.995  25.592  1.00  0.00     0.188 C 
ENDROOT
BRANCH   1   2
ATOM      2  O   UNL A   1      29.588  25.896  24.278  1.00  0.00    -0.376 OA
BRANCH   2   3
ATOM      3  C   UNL A   1      28.660  26.860  23.800  1.00  0.00     0.202 C 
BRANCH   3   4
ATOM      4  C   UNL A   1      29.083  28.071  22.946  1.00  0.00     0.261 C 
BRANCH   4   5
ATOM      5  O   UNL A   1      30.229  27.880  22.106  1.00  0.00    -0.462 OA
BRANCH   5   6
ATOM      6  C   UNL A   1      31.433  28.266  22.607  1.00  0.00     0.331 C 
ATOM      7  O   UNL A   1      31.717  29.402  22.966  1.00  0.00    -0.250 OA
BRANCH   6   8
ATOM      8  C   UNL A   1      32.435  27.103  22.662  1.00  0.00     0.218 C 
BRANCH   8   9
ATOM      9  N   UNL A   1      32.258  26.052  21.661  1.00  0.00    -0.339 N 
ATOM     10  C   UNL A   1      32.800  24.815  21.592  1.00  0.00     0.244 C 
ATOM     11  O   UNL A   1      33.221  24.478  20.481  1.00  0.00    -0.273 OA
ATOM     12  H   UNL A   1      31.650  26.281  20.921  1.00  0.00     0.164 HD
BRANCH  10  13
ATOM     13  C   UNL A   1      33.013  23.885  22.812  1.00  0.00     0.181 C 
BRANCH  13  14
ATOM     14  N   UNL A   1      31.764  23.566  23.470  1.00  0.00    -0.342 N 
ATOM     15  C   UNL A   1      31.549  22.635  24.445  1.00  0.00     0.243 C 
ATOM     16  O   UNL A   1      30.514  22.775  25.108  1.00  0.00    -0.273 OA
ATOM     17  H   UNL A   1      30.976  24.081  23.180  1.00  0.00     0.164 HD
BRANCH  15  18
ATOM     18  C   UNL A   1      32.462  21.391  24.686  1.00  0.00     0.176 C 
BRANCH  18  19
ATOM     19  N   UNL A   1      32.613  21.099  26.113  1.00  0.00    -0.340 N 
ATOM     20  O   UNL A   1      33.680  20.851  28.079  1.00  0.00    -0.269 OA
ATOM     21  C   UNL A   1      33.692  21.302  26.938  1.00  0.00     0.251 C 
ATOM     22  H   UNL A   1      31.825  20.697  26.546  1.00  0.00     0.164 HD
BRANCH  21  23
ATOM     23  C   UNL A   1      34.886  22.029  26.453  1.00  0.00     0.040 A 
ATOM     24  C   UNL A   1      35.993  21.343  25.934  1.00  0.00     0.017 A 
ATOM     25  C   UNL A   1      34.883  23.429  26.497  1.00  0.00     0.017 A 
ATOM     26  C   UNL A   1      37.130  22.053  25.548  1.00  0.00     0.040 A 
ATOM     27  C   UNL A   1      36.016  24.136  26.088  1.00  0.00     0.040 A 
ATOM     28  C   UNL A   1      37.133  23.441  25.634  1.00  0.00     0.123 A 
ATOM     29  F   UNL A   1      38.228  24.120  25.269  1.00  0.00    -0.207 F 
ENDBRANCH  21  23
ENDBRANCH  18  19
BRANCH  18  30
ATOM     30  C   UNL A   1      32.391  20.156  23.751  1.00  0.00     0.070 C 
BRANCH  30  31
ATOM     31  C   UNL A   1      32.790  18.755  24.157  1.00  0.00    -0.045 A 
ATOM     32  C   UNL A   1      32.554  18.195  25.418  1.00  0.00     0.004 A 
ATOM     33  C   UNL A   1      33.474  17.968  23.210  1.00  0.00     0.004 A 
ATOM     34  C   UNL A   1      32.783  16.834  25.645  1.00  0.00     0.000 A 
ATOM     35  C   UNL A   1      33.756  16.627  23.455  1.00  0.00     0.000 A 
ATOM     36  C   UNL A   1      33.363  16.046  24.653  1.00  0.00     0.000 A 
ENDBRANCH  30  31
ENDBRANCH  18  30
ENDBRANCH  15  18
ENDBRANCH  13  14
BRANCH  13  37
ATOM     37  C   UNL A   1      34.082  22.788  22.800  1.00  0.00     0.101 C 
BRANCH  37  38
ATOM     38  S   UNL A   1      35.828  23.246  22.605  1.00  0.00    -0.177 SA
ATOM     39  H   UNL A   1      36.594  22.472  23.421  1.00  0.00     0.102 HD
ENDBRANCH  37  38
ENDBRANCH  13  37
ENDBRANCH  10  13
ENDBRANCH   8   9
BRANCH   8  40
ATOM     40  C   UNL A   1      33.845  27.684  22.510  1.00  0.00     0.193 C 
BRANCH  40  41
ATOM     41  O   UNL A   1      33.998  28.364  21.265  1.00  0.00    -0.394 OA
ATOM     42  H   UNL A   1      34.474  29.197  21.407  1.00  0.00     0.210 HD
ENDBRANCH  40  41
ENDBRANCH   8  40
ENDBRANCH   6   8
ENDBRANCH   5   6
ENDBRANCH   4   5
ENDBRANCH   3   4
ENDBRANCH   2   3
ENDBRANCH   1   2
BRANCH   1  43
ATOM     43  C   UNL A   1      31.153  27.071  25.954  1.00  0.00     0.188 C 
BRANCH  43  44
ATOM     44  O   UNL A   1      31.243  27.324  27.337  1.00  0.00    -0.377 OA
BRANCH  44  45
ATOM     45  C   UNL A   1      31.968  28.499  27.683  1.00  0.00     0.188 C 
BRANCH  45  46
ATOM     46  C   UNL A   1      31.894  29.695  26.703  1.00  0.00     0.188 C 
BRANCH  46  47
ATOM     47  O   UNL A   1      33.159  30.308  26.475  1.00  0.00    -0.376 OA
BRANCH  47  48
ATOM     48  C   UNL A   1      33.979  30.653  27.576  1.00  0.00     0.202 C 
BRANCH  48  49
ATOM     49  C   UNL A   1      34.146  32.127  27.980  1.00  0.00     0.261 C 
BRANCH  49  50
ATOM     50  O   UNL A   1      35.361  32.497  28.636  1.00  0.00    -0.460 OA
BRANCH  50  51
ATOM     51  C   UNL A   1      35.358  32.458  29.987  1.00  0.00     0.338 C 
ATOM     52  O   UNL A   1      34.379  32.578  30.707  1.00  0.00    -0.246 OA
BRANCH  51  53
ATOM     53  C   UNL A   1      36.697  32.019  30.437  1.00  0.00     0.060 A 
ATOM     54  C   UNL A   1      37.823  32.627  29.865  1.00  0.00     0.016 A 
ATOM     55  C   UNL A   1      36.849  31.048  31.431  1.00  0.00     0.016 A 
ATOM     56  C   UNL A   1      39.104  32.256  30.273  1.00  0.00     0.010 A 
ATOM     57  C   UNL A   1      38.137  30.651  31.812  1.00  0.00     0.010 A 
ATOM     58  C   UNL A   1      39.269  31.237  31.218  1.00  0.00    -0.014 A 
BRANCH  58  59
ATOM     59  C   UNL A   1      40.616  30.653  31.438  1.00  0.00     0.031 A 
ATOM     60  C   UNL A   1      41.067  29.546  30.525  1.00  0.00     0.074 A 
ATOM     61  C   UNL A   1      41.429  31.109  32.407  1.00  0.00     0.049 A 
ATOM     62  N   UNL A   1      42.156  28.825  30.565  1.00  0.00    -0.248 NA
ATOM     63  C   UNL A   1      40.160  29.213  29.416  1.00  0.00     0.031 C 
ATOM     64  C   UNL A   1      41.132  32.223  33.305  1.00  0.00     0.029 A 
ATOM     65  N   UNL A   1      42.672  30.679  32.804  1.00  0.00    -0.354 N 
ATOM     66  C   UNL A   1      42.065  27.946  29.492  1.00  0.00     0.074 A 
ATOM     67  C   UNL A   1      40.798  28.205  28.841  1.00  0.00     0.031 C 
ATOM     68  C   UNL A   1      42.159  32.378  34.159  1.00  0.00     0.029 A 
ATOM     69  C   UNL A   1      43.162  31.345  33.903  1.00  0.00     0.049 A 
ATOM     70  H   UNL A   1      43.166  29.962  32.344  1.00  0.00     0.167 HD
ATOM     71  C   UNL A   1      42.958  27.011  29.085  1.00  0.00     0.034 A 
ATOM     72  C   UNL A   1      44.271  31.120  34.637  1.00  0.00     0.034 A 
ATOM     73  C   UNL A   1      44.206  26.753  29.760  1.00  0.00     0.049 A 
ATOM     74  C   UNL A   1      45.192  29.985  34.242  1.00  0.00     0.074 A 
ATOM     75  C   UNL A   1      45.188  25.834  29.433  1.00  0.00     0.029 A 
ATOM     76  N   UNL A   1      44.637  27.400  30.913  1.00  0.00    -0.354 N 
ATOM     77  N   UNL A   1      45.098  29.157  33.227  1.00  0.00    -0.248 NA
ATOM     78  C   UNL A   1      46.367  29.755  35.095  1.00  0.00     0.031 C 
ATOM     79  C   UNL A   1      46.166  25.865  30.432  1.00  0.00     0.029 A 
ATOM     80  C   UNL A   1      45.845  26.868  31.334  1.00  0.00     0.049 A 
ATOM     81  H   UNL A   1      44.153  28.129  31.364  1.00  0.00     0.167 HD
ATOM     82  C   UNL A   1      46.218  28.331  33.303  1.00  0.00     0.074 A 
ATOM     83  C   UNL A   1      46.979  28.770  34.454  1.00  0.00     0.031 C 
ATOM     84  C   UNL A   1      46.588  27.307  32.492  1.00  0.00     0.034 A 
BRANCH  71  85
ATOM     85  C   UNL A   1      42.583  26.163  27.896  1.00  0.00     0.023 A 
ATOM     86  C   UNL A   1      42.095  24.852  28.043  1.00  0.00     0.031 A 
ATOM     87  C   UNL A   1      42.744  26.662  26.591  1.00  0.00     0.131 A 
ATOM     88  C   UNL A   1      41.854  24.064  26.908  1.00  0.00     0.055 A 
ATOM     89  C   UNL A   1      42.421  25.901  25.467  1.00  0.00     0.041 A 
ATOM     90  F   UNL A   1      43.233  27.895  26.387  1.00  0.00    -0.206 F 
ATOM     91  C   UNL A   1      41.986  24.589  25.621  1.00  0.00     0.022 A 
BRANCH  88  92
ATOM     92  S   UNL A   1      41.511  22.298  27.138  1.00  0.00     0.124 S 
ATOM     93  O   UNL A   1      42.023  21.733  25.892  1.00  0.00    -0.237 OA
ATOM     94  O   UNL A   1      42.271  21.982  28.342  1.00  0.00    -0.237 OA
ATOM     95  O   UNL A   1      40.058  22.248  27.285  1.00  0.00    -0.744 OA
ENDBRANCH  88  92
ENDBRANCH  71  85
BRANCH  72  96
ATOM     96  C   UNL A   1      44.556  31.934  35.855  1.00  0.00     0.023 A 
ATOM     97  C   UNL A   1      43.970  31.620  37.092  1.00  0.00     0.031 A 
ATOM     98  C   UNL A   1      45.366  33.082  35.785  1.00  0.00     0.131 A 
ATOM     99  C   UNL A   1      44.162  32.469  38.193  1.00  0.00     0.055 A 
ATOM    100  C   UNL A   1      45.604  33.890  36.899  1.00  0.00     0.041 A 
ATOM    101  F   UNL A   1      45.944  33.436  34.626  1.00  0.00    -0.206 F 
ATOM    102  C   UNL A   1      44.988  33.592  38.110  1.00  0.00     0.022 A 
BRANCH  99 103
ATOM    103  S   UNL A   1      43.230  32.140  39.715  1.00  0.00     0.124 S 
ATOM    104  O   UNL A   1      43.946  30.992  40.259  1.00  0.00    -0.237 OA
ATOM    105  O   UNL A   1      43.384  33.397  40.441  1.00  0.00    -0.237 OA
ATOM    106  O   UNL A   1      41.879  31.863  39.233  1.00  0.00    -0.744 OA
ENDBRANCH  99 103
ENDBRANCH  72  96
BRANCH  84 107
ATOM    107  C   UNL A   1      47.897  26.617  32.797  1.00  0.00     0.023 A 
ATOM    108  C   UNL A   1      47.963  25.477  33.617  1.00  0.00     0.031 A 
ATOM    109  C   UNL A   1      49.098  27.103  32.246  1.00  0.00     0.131 A 
ATOM    110  C   UNL A   1      49.206  24.891  33.902  1.00  0.00     0.055 A 
ATOM    111  C   UNL A   1      50.323  26.476  32.479  1.00  0.00     0.041 A 
ATOM    112  F   UNL A   1      49.097  28.190  31.458  1.00  0.00    -0.206 F 
ATOM    113  C   UNL A   1      50.383  25.371  33.321  1.00  0.00     0.022 A 
BRANCH 110 114
ATOM    114  S   UNL A   1      49.278  23.541  35.111  1.00  0.00     0.124 S 
ATOM    115  O   UNL A   1      48.235  23.926  36.056  1.00  0.00    -0.237 OA
ATOM    116  O   UNL A   1      48.992  22.369  34.289  1.00  0.00    -0.237 OA
ATOM    117  O   UNL A   1      50.643  23.616  35.628  1.00  0.00    -0.744 OA
ENDBRANCH 110 114
ENDBRANCH  84 107
ENDBRANCH  58  59
ENDBRANCH  51  53
ENDBRANCH  50  51
ENDBRANCH  49  50
ENDBRANCH  48  49
ENDBRANCH  47  48
ENDBRANCH  46  47
ENDBRANCH  45  46
ENDBRANCH  44  45
ENDBRANCH  43  44
ENDBRANCH   1  43
TORSDOF 35
ENDMDL
MODEL 2
REMARK VINA RESULT:      -8.0      2.971      7.891
REMARK SMILES O=C(N[C@@H](Cc1ccccc1)C(=O)N[C@@H](CS)C(=O)N[C@@H](CO)C(=O)OCCOCCOCCOCCOC(=O)c1ccc(-c2c3nc(c(-c4cc(S(=O)(=O)[O-])ccc4F)c4ccc([nH]4)c(-c4cc(S(=O)(=O)[O-])ccc4F)c4nc(c(-c5cc(S(=O)(=O)[O-])ccc5F)c5ccc2[nH]5)C=C4)C=C3)cc1)c1ccc(F)cc1
REMARK SMILES IDX 30 1 29 2 28 3 27 4 26 5 24 6 25 7 21 8 20 9 18 10 19 11
REMARK SMILES IDX 15 13 14 14 12 15 13 16 4 18 3 19 1 20 2 21 104 23 105 24
REMARK SMILES IDX 110 25 106 26 109 27 107 28 108 29 5 30 6 31 7 32 11 33 8 34
REMARK SMILES IDX 10 35 9 36 16 37 17 38 22 40 23 41 31 43 32 44 33 45 34 46
REMARK SMILES IDX 35 47 36 48 37 49 38 50 39 51 40 52 41 53 42 54 103 55 43 56
REMARK SMILES IDX 102 57 44 58 45 59 46 60 96 61 47 62 101 63 95 64 97 65
REMARK SMILES IDX 48 66 100 67 94 68 93 69 49 71 81 72 61 73 80 74 62 75 65 76
REMARK SMILES IDX 79 77 98 78 63 79 64 80 78 82 99 83 66 84 50 85 51 86 59 87
REMARK SMILES IDX 52 88 58 89 60 90 57 91 53 92 54 93 55 94 56 95 82 96 83 97
REMARK SMILES IDX 91 98 84 99 90 100 92 101 89 102 85 103 86 104 87 105 88 106
REMARK SMILES IDX 67 107 68 108 76 109 69 110 75 111 77 112 74 113 70 114
REMARK SMILES IDX 71 115 72 116 73 117
REMARK H PARENT 20 12 14 17 3 22 17 39 23 42 97 70 65 81
REMARK Flexibility Score: inf
ROOT
ATOM      1  C   UNL A   1      30.730  26.131  26.163  1.00  0.00     0.188 C 
ENDROOT
BRANCH   1   2
ATOM      2  O   UNL A   1      29.387  25.673  26.177  1.00  0.00    -0.376 OA
BRANCH   2   3
ATOM      3  C   UNL A   1      29.048  24.452  26.820  1.00  0.00     0.202 C 
BRANCH   3   4
ATOM      4  C   UNL A   1      30.005  23.245  26.872  1.00  0.00     0.261 C 
BRANCH   4   5
ATOM      5  O   UNL A   1      30.539  22.810  25.614  1.00  0.00    -0.462 OA
BRANCH   5   6
ATOM      6  C   UNL A   1      31.847  22.438  25.594  1.00  0.00     0.331 C 
ATOM      7  O   UNL A   1      32.668  22.693  26.467  1.00  0.00    -0.250 OA
BRANCH   6   8
ATOM      8  C   UNL A   1      32.205  21.657  24.320  1.00  0.00     0.218 C 
BRANCH   8   9
ATOM      9  N   UNL A   1      31.963  20.215  24.360  1.00  0.00    -0.339 N 
ATOM     10  C   UNL A   1      32.806  19.185  24.121  1.00  0.00     0.244 C 
ATOM     11  O   UNL A   1      32.352  18.276  23.419  1.00  0.00    -0.273 OA
ATOM     12  H   UNL A   1      31.044  19.953  24.597  1.00  0.00     0.164 HD
BRANCH  10  13
ATOM     13  C   UNL A   1      34.287  19.145  24.570  1.00  0.00     0.181 C 
BRANCH  13  14
ATOM     14  N   UNL A   1      34.499  19.888  25.795  1.00  0.00    -0.342 N 
ATOM     15  C   UNL A   1      35.259  21.008  25.971  1.00  0.00     0.243 C 
ATOM     16  O   UNL A   1      35.016  21.673  26.985  1.00  0.00    -0.273 OA
ATOM     17  H   UNL A   1      34.041  19.544  26.596  1.00  0.00     0.164 HD
BRANCH  15  18
ATOM     18  C   UNL A   1      36.444  21.418  25.040  1.00  0.00     0.176 C 
BRANCH  18  19
ATOM     19  N   UNL A   1      37.500  20.402  25.029  1.00  0.00    -0.340 N 
ATOM     20  O   UNL A   1      39.576  19.565  25.254  1.00  0.00    -0.269 OA
ATOM     21  C   UNL A   1      38.791  20.477  25.490  1.00  0.00     0.251 C 
ATOM     22  H   UNL A   1      37.247  19.538  24.631  1.00  0.00     0.164 HD
BRANCH  21  23
ATOM     23  C   UNL A   1      39.257  21.666  26.238  1.00  0.00     0.040 A 
ATOM     24  C   UNL A   1      40.374  21.601  27.082  1.00  0.00     0.017 A 
ATOM     25  C   UNL A   1      38.573  22.877  26.068  1.00  0.00     0.017 A 
ATOM     26  C   UNL A   1      40.749  22.721  27.825  1.00  0.00     0.040 A 
ATOM     27  C   UNL A   1      38.966  24.000  26.797  1.00  0.00     0.040 A 
ATOM     28  C   UNL A   1      40.038  23.907  27.681  1.00  0.00     0.123 A 
ATOM     29  F   UNL A   1      40.395  24.979  28.400  1.00  0.00    -0.207 F 
ENDBRANCH  21  23
ENDBRANCH  18  19
BRANCH  18  30
ATOM     30  C   UNL A   1      36.188  22.135  23.691  1.00  0.00     0.070 C 
BRANCH  30  31
ATOM     31  C   UNL A   1      35.282  23.334  23.519  1.00  0.00    -0.045 A 
ATOM     32  C   UNL A   1      34.515  23.594  22.378  1.00  0.00     0.004 A 
ATOM     33  C   UNL A   1      35.231  24.272  24.568  1.00  0.00     0.004 A 
ATOM     34  C   UNL A   1      33.564  24.620  22.379  1.00  0.00     0.000 A 
ATOM     35  C   UNL A   1      34.325  25.330  24.547  1.00  0.00     0.000 A 
ATOM     36  C   UNL A   1      33.455  25.472  23.475  1.00  0.00     0.000 A 
ENDBRANCH  30  31
ENDBRANCH  18  30
ENDBRANCH  15  18
ENDBRANCH  13  14
BRANCH  13  37
ATOM     37  C   UNL A   1      35.147  17.893  24.370  1.00  0.00     0.101 C 
BRANCH  37  38
ATOM     38  S   UNL A   1      34.530  16.286  24.947  1.00  0.00    -0.177 SA
ATOM     39  H   UNL A   1      35.578  15.442  25.144  1.00  0.00     0.102 HD
ENDBRANCH  37  38
ENDBRANCH  13  37
ENDBRANCH  10  13
ENDBRANCH   8   9
BRANCH   8  40
ATOM     40  C   UNL A   1      31.401  22.251  23.158  1.00  0.00     0.193 C 
BRANCH  40  41
ATOM     41  O   UNL A   1      31.456  21.414  22.003  1.00  0.00    -0.394 OA
ATOM     42  H   UNL A   1      30.941  20.607  22.164  1.00  0.00     0.210 HD
ENDBRANCH  40  41
ENDBRANCH   8  40
ENDBRANCH   6   8
ENDBRANCH   5   6
ENDBRANCH   4   5
ENDBRANCH   3   4
ENDBRANCH   2   3
ENDBRANCH   1   2
BRANCH   1  43
ATOM     43  C   UNL A   1      31.065  27.606  25.881  1.00  0.00     0.188 C 
BRANCH  43  44
ATOM     44  O   UNL A   1      31.699  27.811  24.639  1.00  0.00    -0.377 OA
BRANCH  44  45
ATOM     45  C   UNL A   1      32.754  28.766  24.659  1.00  0.00     0.188 C 
BRANCH  45  46
ATOM     46  C   UNL A   1      33.234  29.267  26.043  1.00  0.00     0.188 C 
BRANCH  46  47
ATOM     47  O   UNL A   1      33.228  30.687  26.154  1.00  0.00    -0.376 OA
BRANCH  47  48
ATOM     48  C   UNL A   1      32.073  31.348  26.636  1.00  0.00     0.202 C 
BRANCH  48  49
ATOM     49  C   UNL A   1      32.210  32.524  27.617  1.00  0.00     0.261 C 
BRANCH  49  50
ATOM     50  O   UNL A   1      33.532  32.951  27.950  1.00  0.00    -0.460 OA
BRANCH  50  51
ATOM     51  C   UNL A   1      33.646  33.838  28.964  1.00  0.00     0.338 C 
ATOM     52  O   UNL A   1      32.836  34.704  29.255  1.00  0.00    -0.246 OA
BRANCH  51  53
ATOM     53  C   UNL A   1      34.800  33.437  29.798  1.00  0.00     0.060 A 
ATOM     54  C   UNL A   1      35.969  34.205  29.729  1.00  0.00     0.016 A 
ATOM     55  C   UNL A   1      34.727  32.342  30.664  1.00  0.00     0.016 A 
ATOM     56  C   UNL A   1      37.075  33.874  30.511  1.00  0.00     0.010 A 
ATOM     57  C   UNL A   1      35.851  31.988  31.420  1.00  0.00     0.010 A 
ATOM     58  C   UNL A   1      37.037  32.739  31.330  1.00  0.00    -0.014 A 
BRANCH  58  59
ATOM     59  C   UNL A   1      38.293  32.230  31.936  1.00  0.00     0.031 A 
ATOM     60  C   UNL A   1      38.554  32.532  33.386  1.00  0.00     0.074 A 
ATOM     61  C   UNL A   1      39.168  31.497  31.226  1.00  0.00     0.049 A 
ATOM     62  N   UNL A   1      39.606  32.271  34.115  1.00  0.00    -0.248 NA
ATOM     63  C   UNL A   1      37.475  33.224  34.108  1.00  0.00     0.031 C 
ATOM     64  C   UNL A   1      38.989  31.079  29.837  1.00  0.00     0.029 A 
ATOM     65  N   UNL A   1      40.392  30.982  31.577  1.00  0.00    -0.354 N 
ATOM     66  C   UNL A   1      39.322  32.771  35.381  1.00  0.00     0.074 A 
ATOM     67  C   UNL A   1      38.010  33.380  35.308  1.00  0.00     0.031 C 
ATOM     68  C   UNL A   1      40.074  30.385  29.450  1.00  0.00     0.029 A 
ATOM     69  C   UNL A   1      41.044  30.353  30.544  1.00  0.00     0.049 A 
ATOM     70  H   UNL A   1      40.767  31.057  32.485  1.00  0.00     0.167 HD
ATOM     71  C   UNL A   1      40.084  32.724  36.500  1.00  0.00     0.034 A 
ATOM     72  C   UNL A   1      42.292  29.844  30.479  1.00  0.00     0.034 A 
ATOM     73  C   UNL A   1      41.398  32.132  36.547  1.00  0.00     0.049 A 
ATOM     74  C   UNL A   1      43.176  29.918  31.705  1.00  0.00     0.074 A 
ATOM     75  C   UNL A   1      42.255  32.024  37.628  1.00  0.00     0.029 A 
ATOM     76  N   UNL A   1      42.055  31.565  35.461  1.00  0.00    -0.354 N 
ATOM     77  N   UNL A   1      42.900  30.395  32.898  1.00  0.00    -0.248 NA
ATOM     78  C   UNL A   1      44.541  29.386  31.575  1.00  0.00     0.031 C 
ATOM     79  C   UNL A   1      43.460  31.473  37.178  1.00  0.00     0.029 A 
ATOM     80  C   UNL A   1      43.323  31.150  35.836  1.00  0.00     0.049 A 
ATOM     81  H   UNL A   1      41.675  31.473  34.558  1.00  0.00     0.167 HD
ATOM     82  C   UNL A   1      44.045  30.190  33.665  1.00  0.00     0.074 A 
ATOM     83  C   UNL A   1      45.009  29.535  32.805  1.00  0.00     0.031 C 
ATOM     84  C   UNL A   1      44.279  30.508  34.965  1.00  0.00     0.034 A 
BRANCH  71  85
ATOM     85  C   UNL A   1      39.537  33.385  37.741  1.00  0.00     0.023 A 
ATOM     86  C   UNL A   1      38.806  32.667  38.704  1.00  0.00     0.031 A 
ATOM     87  C   UNL A   1      39.724  34.763  37.950  1.00  0.00     0.131 A 
ATOM     88  C   UNL A   1      38.230  33.341  39.791  1.00  0.00     0.055 A 
ATOM     89  C   UNL A   1      39.220  35.411  39.079  1.00  0.00     0.041 A 
ATOM     90  F   UNL A   1      40.388  35.506  37.051  1.00  0.00    -0.206 F 
ATOM     91  C   UNL A   1      38.456  34.703  40.000  1.00  0.00     0.022 A 
BRANCH  88  92
ATOM     92  S   UNL A   1      37.057  32.443  40.844  1.00  0.00     0.124 S 
ATOM     93  O   UNL A   1      35.785  32.746  40.193  1.00  0.00    -0.237 OA
ATOM     94  O   UNL A   1      37.521  31.065  40.729  1.00  0.00    -0.237 OA
ATOM     95  O   UNL A   1      37.238  33.056  42.158  1.00  0.00    -0.744 OA
ENDBRANCH  88  92
ENDBRANCH  71  85
BRANCH  72  96
ATOM     96  C   UNL A   1      42.817  29.275  29.203  1.00  0.00     0.023 A 
ATOM     97  C   UNL A   1      42.918  27.888  29.014  1.00  0.00     0.031 A 
ATOM     98  C   UNL A   1      43.290  30.114  28.177  1.00  0.00     0.131 A 
ATOM     99  C   UNL A   1      43.522  27.381  27.852  1.00  0.00     0.055 A 
ATOM    100  C   UNL A   1      43.833  29.605  26.996  1.00  0.00     0.041 A 
ATOM    101  F   UNL A   1      43.227  31.449  28.308  1.00  0.00    -0.206 F 
ATOM    102  C   UNL A   1      43.965  28.229  26.835  1.00  0.00     0.022 A 
BRANCH  99 103
ATOM    103  S   UNL A   1      43.816  25.595  27.735  1.00  0.00     0.124 S 
ATOM    104  O   UNL A   1      45.259  25.544  27.529  1.00  0.00    -0.237 OA
ATOM    105  O   UNL A   1      43.334  25.124  29.030  1.00  0.00    -0.237 OA
ATOM    106  O   UNL A   1      43.007  25.192  26.587  1.00  0.00    -0.744 OA
ENDBRANCH  99 103
ENDBRANCH  72  96
BRANCH  84 107
ATOM    107  C   UNL A   1      45.615  30.112  35.548  1.00  0.00     0.023 A 
ATOM    108  C   UNL A   1      45.819  28.859  36.154  1.00  0.00     0.031 A 
ATOM    109  C   UNL A   1      46.706  30.998  35.484  1.00  0.00     0.131 A 
ATOM    110  C   UNL A   1      47.067  28.549  36.714  1.00  0.00     0.055 A 
ATOM    111  C   UNL A   1      47.964  30.657  35.983  1.00  0.00     0.041 A 
ATOM    112  F   UNL A   1      46.570  32.209  34.919  1.00  0.00    -0.206 F 
ATOM    113  C   UNL A   1      48.147  29.431  36.613  1.00  0.00     0.022 A 
BRANCH 110 114
ATOM    114  S   UNL A   1      47.243  27.006  37.654  1.00  0.00     0.124 S 
ATOM    115  O   UNL A   1      47.215  26.003  36.595  1.00  0.00    -0.237 OA
ATOM    116  O   UNL A   1      48.528  27.191  38.321  1.00  0.00    -0.237 OA
ATOM    117  O   UNL A   1      46.080  27.009  38.539  1.00  0.00    -0.744 OA
ENDBRANCH 110 114
ENDBRANCH  84 107
ENDBRANCH  58  59
ENDBRANCH  51  53
ENDBRANCH  50  51
ENDBRANCH  49  50
ENDBRANCH  48  49
ENDBRANCH  47  48
ENDBRANCH  46  47
ENDBRANCH  45  46
ENDBRANCH  44  45
ENDBRANCH  43  44
ENDBRANCH   1  43
TORSDOF 35
ENDMDL
MODEL 3
REMARK VINA RESULT:      -7.2      6.620     12.711
REMARK SMILES O=C(N[C@@H](Cc1ccccc1)C(=O)N[C@@H](CS)C(=O)N[C@@H](CO)C(=O)OCCOCCOCCOCCOC(=O)c1ccc(-c2c3nc(c(-c4cc(S(=O)(=O)[O-])ccc4F)c4ccc([nH]4)c(-c4cc(S(=O)(=O)[O-])ccc4F)c4nc(c(-c5cc(S(=O)(=O)[O-])ccc5F)c5ccc2[nH]5)C=C4)C=C3)cc1)c1ccc(F)cc1
REMARK SMILES IDX 30 1 29 2 28 3 27 4 26 5 24 6 25 7 21 8 20 9 18 10 19 11
REMARK SMILES IDX 15 13 14 14 12 15 13 16 4 18 3 19 1 20 2 21 104 23 105 24
REMARK SMILES IDX 110 25 106 26 109 27 107 28 108 29 5 30 6 31 7 32 11 33 8 34
REMARK SMILES IDX 10 35 9 36 16 37 17 38 22 40 23 41 31 43 32 44 33 45 34 46
REMARK SMILES IDX 35 47 36 48 37 49 38 50 39 51 40 52 41 53 42 54 103 55 43 56
REMARK SMILES IDX 102 57 44 58 45 59 46 60 96 61 47 62 101 63 95 64 97 65
REMARK SMILES IDX 48 66 100 67 94 68 93 69 49 71 81 72 61 73 80 74 62 75 65 76
REMARK SMILES IDX 79 77 98 78 63 79 64 80 78 82 99 83 66 84 50 85 51 86 59 87
REMARK SMILES IDX 52 88 58 89 60 90 57 91 53 92 54 93 55 94 56 95 82 96 83 97
REMARK SMILES IDX 91 98 84 99 90 100 92 101 89 102 85 103 86 104 87 105 88 106
REMARK SMILES IDX 67 107 68 108 76 109 69 110 75 111 77 112 74 113 70 114
REMARK SMILES IDX 71 115 72 116 73 117
REMARK H PARENT 20 12 14 17 3 22 17 39 23 42 97 70 65 81
REMARK Flexibility Score: inf
ROOT
ATOM      1  C   UNL A   1      45.508  22.298  25.544  1.00  0.00     0.188 C 
ENDROOT
BRANCH   1   2
ATOM      2  O   UNL A   1      45.650  23.523  24.841  1.00  0.00    -0.376 OA
BRANCH   2   3
ATOM      3  C   UNL A   1      46.882  24.231  24.868  1.00  0.00     0.202 C 
BRANCH   3   4
ATOM      4  C   UNL A   1      46.980  25.743  24.584  1.00  0.00     0.261 C 
BRANCH   4   5
ATOM      5  O   UNL A   1      46.413  26.608  25.576  1.00  0.00    -0.462 OA
BRANCH   5   6
ATOM      6  C   UNL A   1      46.632  27.942  25.430  1.00  0.00     0.331 C 
ATOM      7  O   UNL A   1      46.138  28.649  24.560  1.00  0.00    -0.250 OA
BRANCH   6   8
ATOM      8  C   UNL A   1      47.605  28.486  26.488  1.00  0.00     0.218 C 
BRANCH   8   9
ATOM      9  N   UNL A   1      49.028  28.354  26.182  1.00  0.00    -0.339 N 
ATOM     10  C   UNL A   1      50.111  28.770  26.879  1.00  0.00     0.244 C 
ATOM     11  O   UNL A   1      50.996  29.316  26.213  1.00  0.00    -0.273 OA
ATOM     12  H   UNL A   1      49.231  27.891  25.337  1.00  0.00     0.164 HD
BRANCH  10  13
ATOM     13  C   UNL A   1      50.237  28.700  28.420  1.00  0.00     0.181 C 
BRANCH  13  14
ATOM     14  N   UNL A   1      50.366  27.337  28.889  1.00  0.00    -0.342 N 
ATOM     15  C   UNL A   1      49.400  26.552  29.449  1.00  0.00     0.243 C 
ATOM     16  O   UNL A   1      49.620  25.335  29.441  1.00  0.00    -0.273 OA
ATOM     17  H   UNL A   1      51.256  26.927  28.794  1.00  0.00     0.164 HD
BRANCH  15  18
ATOM     18  C   UNL A   1      48.125  27.105  30.162  1.00  0.00     0.176 C 
BRANCH  18  19
ATOM     19  N   UNL A   1      48.463  28.113  31.171  1.00  0.00    -0.340 N 
ATOM     20  O   UNL A   1      48.304  29.242  33.110  1.00  0.00    -0.269 OA
ATOM     21  C   UNL A   1      48.021  28.239  32.464  1.00  0.00     0.251 C 
ATOM     22  H   UNL A   1      49.102  28.803  30.878  1.00  0.00     0.164 HD
BRANCH  21  23
ATOM     23  C   UNL A   1      47.172  27.192  33.077  1.00  0.00     0.040 A 
ATOM     24  C   UNL A   1      46.862  26.013  32.387  1.00  0.00     0.017 A 
ATOM     25  C   UNL A   1      46.701  27.390  34.381  1.00  0.00     0.017 A 
ATOM     26  C   UNL A   1      46.005  25.075  32.966  1.00  0.00     0.040 A 
ATOM     27  C   UNL A   1      45.862  26.439  34.964  1.00  0.00     0.040 A 
ATOM     28  C   UNL A   1      45.509  25.300  34.246  1.00  0.00     0.123 A 
ATOM     29  F   UNL A   1      44.682  24.403  34.796  1.00  0.00    -0.207 F 
ENDBRANCH  21  23
ENDBRANCH  18  19
BRANCH  18  30
ATOM     30  C   UNL A   1      46.816  27.358  29.373  1.00  0.00     0.070 C 
BRANCH  30  31
ATOM     31  C   UNL A   1      45.683  26.363  29.255  1.00  0.00    -0.045 A 
ATOM     32  C   UNL A   1      45.816  25.065  28.746  1.00  0.00     0.004 A 
ATOM     33  C   UNL A   1      44.400  26.780  29.654  1.00  0.00     0.004 A 
ATOM     34  C   UNL A   1      44.763  24.151  28.850  1.00  0.00     0.000 A 
ATOM     35  C   UNL A   1      43.333  25.886  29.704  1.00  0.00     0.000 A 
ATOM     36  C   UNL A   1      43.528  24.558  29.352  1.00  0.00     0.000 A 
ENDBRANCH  30  31
ENDBRANCH  18  30
ENDBRANCH  15  18
ENDBRANCH  13  14
BRANCH  13  37
ATOM     37  C   UNL A   1      51.001  29.772  29.206  1.00  0.00     0.101 C 
BRANCH  37  38
ATOM     38  S   UNL A   1      52.443  29.291  30.199  1.00  0.00    -0.177 SA
ATOM     39  H   UNL A   1      52.027  28.623  31.309  1.00  0.00     0.102 HD
ENDBRANCH  37  38
ENDBRANCH  13  37
ENDBRANCH  10  13
ENDBRANCH   8   9
BRANCH   8  40
ATOM     40  C   UNL A   1      47.291  29.971  26.702  1.00  0.00     0.193 C 
BRANCH  40  41
ATOM     41  O   UNL A   1      45.913  30.173  27.015  1.00  0.00    -0.394 OA
ATOM     42  H   UNL A   1      45.400  29.402  26.727  1.00  0.00     0.210 HD
ENDBRANCH  40  41
ENDBRANCH   8  40
ENDBRANCH   6   8
ENDBRANCH   5   6
ENDBRANCH   4   5
ENDBRANCH   3   4
ENDBRANCH   2   3
ENDBRANCH   1   2
BRANCH   1  43
ATOM     43  C   UNL A   1      45.000  21.030  24.836  1.00  0.00     0.188 C 
BRANCH  43  44
ATOM     44  O   UNL A   1      43.630  20.777  25.051  1.00  0.00    -0.377 OA
BRANCH  44  45
ATOM     45  C   UNL A   1      43.092  21.369  26.229  1.00  0.00     0.188 C 
BRANCH  45  46
ATOM     46  C   UNL A   1      41.993  22.444  26.047  1.00  0.00     0.188 C 
BRANCH  46  47
ATOM     47  O   UNL A   1      42.458  23.764  26.308  1.00  0.00    -0.376 OA
BRANCH  47  48
ATOM     48  C   UNL A   1      41.533  24.835  26.360  1.00  0.00     0.202 C 
BRANCH  48  49
ATOM     49  C   UNL A   1      41.587  25.951  25.304  1.00  0.00     0.261 C 
BRANCH  49  50
ATOM     50  O   UNL A   1      40.964  27.196  25.630  1.00  0.00    -0.460 OA
BRANCH  50  51
ATOM     51  C   UNL A   1      41.785  28.252  25.824  1.00  0.00     0.338 C 
ATOM     52  O   UNL A   1      42.388  28.863  24.956  1.00  0.00    -0.246 OA
BRANCH  51  53
ATOM     53  C   UNL A   1      41.651  28.685  27.232  1.00  0.00     0.060 A 
ATOM     54  C   UNL A   1      40.656  28.088  28.019  1.00  0.00     0.016 A 
ATOM     55  C   UNL A   1      42.510  29.637  27.787  1.00  0.00     0.016 A 
ATOM     56  C   UNL A   1      40.505  28.453  29.356  1.00  0.00     0.010 A 
ATOM     57  C   UNL A   1      42.333  30.029  29.120  1.00  0.00     0.010 A 
ATOM     58  C   UNL A   1      41.315  29.455  29.903  1.00  0.00    -0.014 A 
BRANCH  58  59
ATOM     59  C   UNL A   1      40.971  30.037  31.224  1.00  0.00     0.031 A 
ATOM     60  C   UNL A   1      39.708  30.846  31.336  1.00  0.00     0.074 A 
ATOM     61  C   UNL A   1      41.744  29.832  32.305  1.00  0.00     0.049 A 
ATOM     62  N   UNL A   1      39.237  31.520  32.351  1.00  0.00    -0.248 NA
ATOM     63  C   UNL A   1      38.865  30.899  30.131  1.00  0.00     0.031 C 
ATOM     64  C   UNL A   1      42.950  29.006  32.337  1.00  0.00     0.029 A 
ATOM     65  N   UNL A   1      41.633  30.315  33.586  1.00  0.00    -0.354 N 
ATOM     66  C   UNL A   1      38.045  32.083  31.910  1.00  0.00     0.074 A 
ATOM     67  C   UNL A   1      37.885  31.698  30.524  1.00  0.00     0.031 C 
ATOM     68  C   UNL A   1      43.476  29.054  33.573  1.00  0.00     0.029 A 
ATOM     69  C   UNL A   1      42.676  29.952  34.406  1.00  0.00     0.049 A 
ATOM     70  H   UNL A   1      40.877  30.868  33.889  1.00  0.00     0.167 HD
ATOM     71  C   UNL A   1      37.165  32.849  32.599  1.00  0.00     0.034 A 
ATOM     72  C   UNL A   1      42.967  30.332  35.667  1.00  0.00     0.034 A 
ATOM     73  C   UNL A   1      37.353  33.240  33.974  1.00  0.00     0.049 A 
ATOM     74  C   UNL A   1      42.037  31.292  36.376  1.00  0.00     0.074 A 
ATOM     75  C   UNL A   1      36.523  34.010  34.771  1.00  0.00     0.029 A 
ATOM     76  N   UNL A   1      38.457  32.912  34.751  1.00  0.00    -0.354 N 
ATOM     77  N   UNL A   1      40.913  31.822  35.950  1.00  0.00    -0.248 NA
ATOM     78  C   UNL A   1      42.417  31.706  37.734  1.00  0.00     0.031 C 
ATOM     79  C   UNL A   1      37.164  34.217  35.997  1.00  0.00     0.029 A 
ATOM     80  C   UNL A   1      38.352  33.501  36.002  1.00  0.00     0.049 A 
ATOM     81  H   UNL A   1      39.205  32.344  34.457  1.00  0.00     0.167 HD
ATOM     82  C   UNL A   1      40.438  32.605  37.001  1.00  0.00     0.074 A 
ATOM     83  C   UNL A   1      41.390  32.467  38.083  1.00  0.00     0.031 C 
ATOM     84  C   UNL A   1      39.315  33.365  37.069  1.00  0.00     0.034 A 
BRANCH  71  85
ATOM     85  C   UNL A   1      35.957  33.360  31.854  1.00  0.00     0.023 A 
ATOM     86  C   UNL A   1      35.458  34.660  32.052  1.00  0.00     0.031 A 
ATOM     87  C   UNL A   1      35.276  32.525  30.951  1.00  0.00     0.131 A 
ATOM     88  C   UNL A   1      34.274  35.059  31.413  1.00  0.00     0.055 A 
ATOM     89  C   UNL A   1      34.147  32.959  30.254  1.00  0.00     0.041 A 
ATOM     90  F   UNL A   1      35.688  31.264  30.743  1.00  0.00    -0.206 F 
ATOM     91  C   UNL A   1      33.631  34.228  30.494  1.00  0.00     0.022 A 
BRANCH  88  92
ATOM     92  S   UNL A   1      33.505  36.623  31.916  1.00  0.00     0.124 S 
ATOM     93  O   UNL A   1      32.461  36.159  32.826  1.00  0.00    -0.237 OA
ATOM     94  O   UNL A   1      34.617  37.339  32.531  1.00  0.00    -0.237 OA
ATOM     95  O   UNL A   1      33.020  37.186  30.658  1.00  0.00    -0.744 OA
ENDBRANCH  88  92
ENDBRANCH  71  85
BRANCH  72  96
ATOM     96  C   UNL A   1      44.218  29.863  36.332  1.00  0.00     0.023 A 
ATOM     97  C   UNL A   1      44.209  28.762  37.204  1.00  0.00     0.031 A 
ATOM     98  C   UNL A   1      45.432  30.553  36.160  1.00  0.00     0.131 A 
ATOM     99  C   UNL A   1      45.375  28.414  37.905  1.00  0.00     0.055 A 
ATOM    100  C   UNL A   1      46.604  30.165  36.812  1.00  0.00     0.041 A 
ATOM    101  F   UNL A   1      45.497  31.619  35.347  1.00  0.00    -0.206 F 
ATOM    102  C   UNL A   1      46.576  29.097  37.703  1.00  0.00     0.022 A 
BRANCH  99 103
ATOM    103  S   UNL A   1      45.272  27.115  39.168  1.00  0.00     0.124 S 
ATOM    104  O   UNL A   1      46.674  26.741  39.322  1.00  0.00    -0.237 OA
ATOM    105  O   UNL A   1      44.671  27.831  40.288  1.00  0.00    -0.237 OA
ATOM    106  O   UNL A   1      44.421  26.103  38.547  1.00  0.00    -0.744 OA
ENDBRANCH  99 103
ENDBRANCH  72  96
BRANCH  84 107
ATOM    107  C   UNL A   1      39.032  34.072  38.374  1.00  0.00     0.023 A 
ATOM    108  C   UNL A   1      38.379  33.428  39.441  1.00  0.00     0.031 A 
ATOM    109  C   UNL A   1      39.433  35.408  38.556  1.00  0.00     0.131 A 
ATOM    110  C   UNL A   1      38.105  34.135  40.621  1.00  0.00     0.055 A 
ATOM    111  C   UNL A   1      39.217  36.085  39.757  1.00  0.00     0.041 A 
ATOM    112  F   UNL A   1      40.058  36.074  37.571  1.00  0.00    -0.206 F 
ATOM    113  C   UNL A   1      38.539  35.453  40.794  1.00  0.00     0.022 A 
BRANCH 110 114
ATOM    114  S   UNL A   1      37.097  33.338  41.902  1.00  0.00     0.124 S 
ATOM    115  O   UNL A   1      36.338  32.364  41.126  1.00  0.00    -0.237 OA
ATOM    116  O   UNL A   1      38.109  32.788  42.799  1.00  0.00    -0.237 OA
ATOM    117  O   UNL A   1      36.313  34.440  42.456  1.00  0.00    -0.744 OA
ENDBRANCH 110 114
ENDBRANCH  84 107
ENDBRANCH  58  59
ENDBRANCH  51  53
ENDBRANCH  50  51
ENDBRANCH  49  50
ENDBRANCH  48  49
ENDBRANCH  47  48
ENDBRANCH  46  47
ENDBRANCH  45  46
ENDBRANCH  44  45
ENDBRANCH  43  44
ENDBRANCH   1  43
TORSDOF 35
ENDMDL
