MODEL 1
REMARK VINA RESULT:      -8.4      0.000      0.000
REMARK SMILES CC[C@@H](NS(=O)(=O)c1cc(C)ccc1C)C(=O)OCCOCCOCCOCCOC(=O)c1ccc(-c2c3nc(c(-c4cc(S(=O)(=O)[O-])ccc4F)c4ccc([nH]4)c(-c4cc(S(=O)(=O)[O-])ccc4F)c4nc(c(-c5cc(S(=O)(=O)[O-])ccc5F)c5ccc2[nH]5)C=C4)C=C3)cc1
REMARK SMILES IDX 24 1 23 2 22 3 21 4 20 5 19 6 18 7 16 8 17 9 3 10 2 11 1 12
REMARK SMILES IDX 4 13 5 15 6 16 7 17 8 18 9 19 14 20 10 21 13 22 15 23 11 24
REMARK SMILES IDX 12 25 25 26 26 27 27 28 28 29 29 30 30 31 31 32 32 33 33 34
REMARK SMILES IDX 34 35 95 36 35 37 94 38 36 39 37 40 38 41 88 42 39 43 93 44
REMARK SMILES IDX 87 45 89 46 40 47 92 48 86 49 85 50 41 52 73 53 53 54 72 55
REMARK SMILES IDX 54 56 57 57 71 58 90 59 55 60 56 61 70 63 91 64 58 65 42 66
REMARK SMILES IDX 43 67 51 68 44 69 50 70 52 71 49 72 45 73 46 74 47 75 48 76
REMARK SMILES IDX 74 77 75 78 83 79 76 80 82 81 84 82 81 83 77 84 78 85 79 86
REMARK SMILES IDX 80 87 59 88 60 89 68 90 61 91 67 92 69 93 66 94 62 95 63 96
REMARK SMILES IDX 64 97 65 98
REMARK H PARENT 4 14 89 51 57 62
REMARK Flexibility Score: inf
ROOT
ATOM      1  O   UNL A   1      33.326  32.642  27.649  1.00  0.00    -0.377 OA
ENDROOT
BRANCH   1   2
ATOM      2  C   UNL A   1      33.952  31.487  28.182  1.00  0.00     0.188 C 
BRANCH   2   3
ATOM      3  C   UNL A   1      34.464  30.371  27.271  1.00  0.00     0.188 C 
BRANCH   3   4
ATOM      4  O   UNL A   1      33.671  30.011  26.151  1.00  0.00    -0.376 OA
BRANCH   4   5
ATOM      5  C   UNL A   1      32.410  29.425  26.409  1.00  0.00     0.202 C 
BRANCH   5   6
ATOM      6  C   UNL A   1      32.085  28.383  25.353  1.00  0.00     0.261 C 
BRANCH   6   7
ATOM      7  O   UNL A   1      32.421  28.717  23.999  1.00  0.00    -0.462 OA
BRANCH   7   8
ATOM      8  C   UNL A   1      33.125  27.899  23.162  1.00  0.00     0.324 C 
ATOM      9  O   UNL A   1      34.065  28.240  22.461  1.00  0.00    -0.250 OA
BRANCH   8  10
ATOM     10  C   UNL A   1      32.488  26.529  23.085  1.00  0.00     0.179 C 
BRANCH  10  11
ATOM     11  C   UNL A   1      31.751  26.341  21.723  1.00  0.00     0.028 C 
ATOM     12  C   UNL A   1      32.547  25.608  20.642  1.00  0.00     0.006 C 
ENDBRANCH  10  11
BRANCH  10  13
ATOM     13  N   UNL A   1      33.695  25.627  23.264  1.00  0.00    -0.197 NA
ATOM     14  H   UNL A   1      34.516  26.223  23.370  1.00  0.00     0.142 HD
BRANCH  13  15
ATOM     15  S   UNL A   1      33.641  24.550  24.621  1.00  0.00     0.241 S 
ATOM     16  O   UNL A   1      34.455  25.145  25.632  1.00  0.00    -0.207 OA
ATOM     17  O   UNL A   1      32.205  24.301  24.748  1.00  0.00    -0.207 OA
BRANCH  15  18
ATOM     18  C   UNL A   1      34.244  22.872  24.486  1.00  0.00     0.085 A 
ATOM     19  C   UNL A   1      33.250  21.872  24.457  1.00  0.00     0.025 A 
ATOM     20  C   UNL A   1      35.549  22.439  24.431  1.00  0.00    -0.031 A 
ATOM     21  C   UNL A   1      33.570  20.507  24.558  1.00  0.00    -0.050 A 
ATOM     22  C   UNL A   1      35.859  21.117  24.809  1.00  0.00     0.005 A 
ATOM     23  C   UNL A   1      36.659  23.237  23.888  1.00  0.00     0.046 C 
ATOM     24  C   UNL A   1      32.585  19.420  24.256  1.00  0.00     0.044 C 
ATOM     25  C   UNL A   1      34.868  20.156  24.896  1.00  0.00     0.004 A 
ENDBRANCH  15  18
ENDBRANCH  13  15
ENDBRANCH  10  13
ENDBRANCH   8  10
ENDBRANCH   7   8
ENDBRANCH   6   7
ENDBRANCH   5   6
ENDBRANCH   4   5
ENDBRANCH   3   4
ENDBRANCH   2   3
ENDBRANCH   1   2
BRANCH   1  26
ATOM     26  C   UNL A   1      33.605  33.923  28.193  1.00  0.00     0.188 C 
BRANCH  26  27
ATOM     27  C   UNL A   1      34.210  34.097  29.593  1.00  0.00     0.188 C 
BRANCH  27  28
ATOM     28  O   UNL A   1      33.323  34.657  30.537  1.00  0.00    -0.376 OA
BRANCH  28  29
ATOM     29  C   UNL A   1      33.889  35.240  31.685  1.00  0.00     0.202 C 
BRANCH  29  30
ATOM     30  C   UNL A   1      35.364  34.860  31.816  1.00  0.00     0.261 C 
BRANCH  30  31
ATOM     31  O   UNL A   1      35.915  35.039  33.144  1.00  0.00    -0.460 OA
BRANCH  31  32
ATOM     32  C   UNL A   1      36.271  33.921  33.835  1.00  0.00     0.338 C 
ATOM     33  O   UNL A   1      35.640  33.456  34.769  1.00  0.00    -0.246 OA
BRANCH  32  34
ATOM     34  C   UNL A   1      37.546  33.370  33.279  1.00  0.00     0.060 A 
ATOM     35  C   UNL A   1      37.540  32.715  32.051  1.00  0.00     0.016 A 
ATOM     36  C   UNL A   1      38.703  33.322  34.077  1.00  0.00     0.016 A 
ATOM     37  C   UNL A   1      38.611  31.869  31.736  1.00  0.00     0.010 A 
ATOM     38  C   UNL A   1      39.734  32.425  33.797  1.00  0.00     0.010 A 
ATOM     39  C   UNL A   1      39.662  31.625  32.661  1.00  0.00    -0.014 A 
BRANCH  39  40
ATOM     40  C   UNL A   1      40.819  30.801  32.220  1.00  0.00     0.031 A 
ATOM     41  C   UNL A   1      41.593  31.645  31.300  1.00  0.00     0.074 A 
ATOM     42  C   UNL A   1      41.256  29.555  32.573  1.00  0.00     0.049 A 
ATOM     43  N   UNL A   1      41.780  31.435  30.041  1.00  0.00    -0.248 NA
ATOM     44  C   UNL A   1      41.951  33.017  31.751  1.00  0.00     0.031 C 
ATOM     45  C   UNL A   1      40.599  28.672  33.535  1.00  0.00     0.029 A 
ATOM     46  N   UNL A   1      42.401  28.812  32.216  1.00  0.00    -0.354 N 
ATOM     47  C   UNL A   1      42.660  32.439  29.715  1.00  0.00     0.074 A 
ATOM     48  C   UNL A   1      42.446  33.528  30.626  1.00  0.00     0.031 C 
ATOM     49  C   UNL A   1      41.398  27.622  33.824  1.00  0.00     0.029 A 
ATOM     50  C   UNL A   1      42.646  27.709  33.084  1.00  0.00     0.049 A 
ATOM     51  H   UNL A   1      42.974  29.033  31.445  1.00  0.00     0.167 HD
ATOM     52  C   UNL A   1      43.838  32.073  29.179  1.00  0.00     0.034 A 
ATOM     53  C   UNL A   1      43.767  26.932  33.254  1.00  0.00     0.034 A 
ATOM     54  C   UNL A   1      43.811  30.830  28.466  1.00  0.00     0.049 A 
ATOM     55  C   UNL A   1      44.623  27.015  32.058  1.00  0.00     0.074 A 
ATOM     56  C   UNL A   1      43.542  30.496  27.169  1.00  0.00     0.029 A 
ATOM     57  N   UNL A   1      44.003  29.658  29.155  1.00  0.00    -0.354 N 
ATOM     58  N   UNL A   1      44.414  26.304  30.992  1.00  0.00    -0.248 NA
ATOM     59  C   UNL A   1      45.640  28.053  31.942  1.00  0.00     0.031 C 
ATOM     60  C   UNL A   1      43.723  29.098  27.063  1.00  0.00     0.029 A 
ATOM     61  C   UNL A   1      44.044  28.564  28.300  1.00  0.00     0.049 A 
ATOM     62  H   UNL A   1      44.097  29.600  30.133  1.00  0.00     0.167 HD
ATOM     63  C   UNL A   1      44.930  27.077  29.981  1.00  0.00     0.074 A 
ATOM     64  C   UNL A   1      45.812  28.045  30.619  1.00  0.00     0.031 C 
ATOM     65  C   UNL A   1      44.237  27.210  28.820  1.00  0.00     0.034 A 
BRANCH  52  66
ATOM     66  C   UNL A   1      45.136  32.678  29.578  1.00  0.00     0.023 A 
ATOM     67  C   UNL A   1      45.631  32.266  30.810  1.00  0.00     0.031 A 
ATOM     68  C   UNL A   1      45.709  33.830  28.991  1.00  0.00     0.131 A 
ATOM     69  C   UNL A   1      46.582  33.040  31.472  1.00  0.00     0.055 A 
ATOM     70  C   UNL A   1      46.729  34.547  29.613  1.00  0.00     0.041 A 
ATOM     71  F   UNL A   1      45.245  34.368  27.855  1.00  0.00    -0.206 F 
ATOM     72  C   UNL A   1      47.145  34.172  30.882  1.00  0.00     0.022 A 
BRANCH  69  73
ATOM     73  S   UNL A   1      46.907  32.621  33.194  1.00  0.00     0.124 S 
ATOM     74  O   UNL A   1      46.108  33.614  33.901  1.00  0.00    -0.237 OA
ATOM     75  O   UNL A   1      46.423  31.244  33.260  1.00  0.00    -0.237 OA
ATOM     76  O   UNL A   1      48.354  32.780  33.308  1.00  0.00    -0.744 OA
ENDBRANCH  69  73
ENDBRANCH  52  66
BRANCH  53  77
ATOM     77  C   UNL A   1      44.267  26.090  34.407  1.00  0.00     0.023 A 
ATOM     78  C   UNL A   1      44.675  26.654  35.656  1.00  0.00     0.031 A 
ATOM     79  C   UNL A   1      44.088  24.695  34.401  1.00  0.00     0.131 A 
ATOM     80  C   UNL A   1      44.826  25.843  36.812  1.00  0.00     0.055 A 
ATOM     81  C   UNL A   1      44.247  23.900  35.541  1.00  0.00     0.041 A 
ATOM     82  F   UNL A   1      43.656  24.049  33.310  1.00  0.00    -0.206 F 
ATOM     83  C   UNL A   1      44.591  24.471  36.754  1.00  0.00     0.022 A 
BRANCH  80  84
ATOM     84  S   UNL A   1      45.176  26.557  38.464  1.00  0.00     0.124 S 
ATOM     85  O   UNL A   1      44.845  25.456  39.359  1.00  0.00    -0.237 OA
ATOM     86  O   UNL A   1      46.583  26.925  38.370  1.00  0.00    -0.237 OA
ATOM     87  O   UNL A   1      44.258  27.698  38.537  1.00  0.00    -0.744 OA
ENDBRANCH  80  84
ENDBRANCH  53  77
BRANCH  65  88
ATOM     88  C   UNL A   1      43.582  25.967  28.207  1.00  0.00     0.023 A 
ATOM     89  C   UNL A   1      42.193  25.657  28.215  1.00  0.00     0.031 A 
ATOM     90  C   UNL A   1      44.407  25.038  27.547  1.00  0.00     0.131 A 
ATOM     91  C   UNL A   1      41.680  24.544  27.503  1.00  0.00     0.055 A 
ATOM     92  C   UNL A   1      43.906  23.951  26.825  1.00  0.00     0.041 A 
ATOM     93  F   UNL A   1      45.744  25.150  27.584  1.00  0.00    -0.206 F 
ATOM     94  C   UNL A   1      42.542  23.699  26.799  1.00  0.00     0.022 A 
BRANCH  91  95
ATOM     95  S   UNL A   1      39.872  24.255  27.352  1.00  0.00     0.124 S 
ATOM     96  O   UNL A   1      39.332  24.900  28.541  1.00  0.00    -0.237 OA
ATOM     97  O   UNL A   1      39.502  24.873  26.074  1.00  0.00    -0.237 OA
ATOM     98  O   UNL A   1      39.749  22.795  27.351  1.00  0.00    -0.744 OA
ENDBRANCH  91  95
ENDBRANCH  65  88
ENDBRANCH  39  40
ENDBRANCH  32  34
ENDBRANCH  31  32
ENDBRANCH  30  31
ENDBRANCH  29  30
ENDBRANCH  28  29
ENDBRANCH  27  28
ENDBRANCH  26  27
ENDBRANCH   1  26
TORSDOF 27
ENDMDL
MODEL 2
REMARK VINA RESULT:      -8.4      2.823      7.620
REMARK SMILES CC[C@@H](NS(=O)(=O)c1cc(C)ccc1C)C(=O)OCCOCCOCCOCCOC(=O)c1ccc(-c2c3nc(c(-c4cc(S(=O)(=O)[O-])ccc4F)c4ccc([nH]4)c(-c4cc(S(=O)(=O)[O-])ccc4F)c4nc(c(-c5cc(S(=O)(=O)[O-])ccc5F)c5ccc2[nH]5)C=C4)C=C3)cc1
REMARK SMILES IDX 24 1 23 2 22 3 21 4 20 5 19 6 18 7 16 8 17 9 3 10 2 11 1 12
REMARK SMILES IDX 4 13 5 15 6 16 7 17 8 18 9 19 14 20 10 21 13 22 15 23 11 24
REMARK SMILES IDX 12 25 25 26 26 27 27 28 28 29 29 30 30 31 31 32 32 33 33 34
REMARK SMILES IDX 34 35 95 36 35 37 94 38 36 39 37 40 38 41 88 42 39 43 93 44
REMARK SMILES IDX 87 45 89 46 40 47 92 48 86 49 85 50 41 52 73 53 53 54 72 55
REMARK SMILES IDX 54 56 57 57 71 58 90 59 55 60 56 61 70 63 91 64 58 65 42 66
REMARK SMILES IDX 43 67 51 68 44 69 50 70 52 71 49 72 45 73 46 74 47 75 48 76
REMARK SMILES IDX 74 77 75 78 83 79 76 80 82 81 84 82 81 83 77 84 78 85 79 86
REMARK SMILES IDX 80 87 59 88 60 89 68 90 61 91 67 92 69 93 66 94 62 95 63 96
REMARK SMILES IDX 64 97 65 98
REMARK H PARENT 4 14 89 51 57 62
REMARK Flexibility Score: inf
ROOT
ATOM      1  O   UNL A   1      32.562  32.215  27.389  1.00  0.00    -0.377 OA
ENDROOT
BRANCH   1   2
ATOM      2  C   UNL A   1      33.324  31.025  27.507  1.00  0.00     0.188 C 
BRANCH   2   3
ATOM      3  C   UNL A   1      33.523  30.089  26.314  1.00  0.00     0.188 C 
BRANCH   3   4
ATOM      4  O   UNL A   1      32.379  29.434  25.787  1.00  0.00    -0.376 OA
BRANCH   4   5
ATOM      5  C   UNL A   1      31.810  28.396  26.561  1.00  0.00     0.202 C 
BRANCH   5   6
ATOM      6  C   UNL A   1      31.692  27.126  25.738  1.00  0.00     0.261 C 
BRANCH   6   7
ATOM      7  O   UNL A   1      31.874  27.262  24.322  1.00  0.00    -0.462 OA
BRANCH   7   8
ATOM      8  C   UNL A   1      33.061  27.046  23.680  1.00  0.00     0.324 C 
ATOM      9  O   UNL A   1      34.042  27.772  23.739  1.00  0.00    -0.250 OA
BRANCH   8  10
ATOM     10  C   UNL A   1      32.960  25.864  22.743  1.00  0.00     0.179 C 
BRANCH  10  11
ATOM     11  C   UNL A   1      32.873  26.343  21.261  1.00  0.00     0.028 C 
ATOM     12  C   UNL A   1      32.601  25.246  20.230  1.00  0.00     0.006 C 
ENDBRANCH  10  11
BRANCH  10  13
ATOM     13  N   UNL A   1      34.235  25.110  23.075  1.00  0.00    -0.197 NA
ATOM     14  H   UNL A   1      34.795  25.700  23.689  1.00  0.00     0.142 HD
BRANCH  13  15
ATOM     15  S   UNL A   1      34.026  23.576  23.855  1.00  0.00     0.241 S 
ATOM     16  O   UNL A   1      33.079  23.790  24.902  1.00  0.00    -0.207 OA
ATOM     17  O   UNL A   1      33.817  22.685  22.712  1.00  0.00    -0.207 OA
BRANCH  15  18
ATOM     18  C   UNL A   1      35.401  22.756  24.651  1.00  0.00     0.085 A 
ATOM     19  C   UNL A   1      36.434  23.604  25.101  1.00  0.00     0.025 A 
ATOM     20  C   UNL A   1      35.584  21.407  24.856  1.00  0.00    -0.031 A 
ATOM     21  C   UNL A   1      37.661  23.096  25.559  1.00  0.00    -0.050 A 
ATOM     22  C   UNL A   1      36.886  20.904  25.043  1.00  0.00     0.005 A 
ATOM     23  C   UNL A   1      34.484  20.442  25.009  1.00  0.00     0.046 C 
ATOM     24  C   UNL A   1      38.662  23.935  26.293  1.00  0.00     0.044 C 
ATOM     25  C   UNL A   1      37.931  21.749  25.371  1.00  0.00     0.004 A 
ENDBRANCH  15  18
ENDBRANCH  13  15
ENDBRANCH  10  13
ENDBRANCH   8  10
ENDBRANCH   7   8
ENDBRANCH   6   7
ENDBRANCH   5   6
ENDBRANCH   4   5
ENDBRANCH   3   4
ENDBRANCH   2   3
ENDBRANCH   1   2
BRANCH   1  26
ATOM     26  C   UNL A   1      33.095  33.453  27.834  1.00  0.00     0.188 C 
BRANCH  26  27
ATOM     27  C   UNL A   1      34.254  33.526  28.836  1.00  0.00     0.188 C 
BRANCH  27  28
ATOM     28  O   UNL A   1      33.865  33.894  30.142  1.00  0.00    -0.376 OA
BRANCH  28  29
ATOM     29  C   UNL A   1      34.883  34.035  31.102  1.00  0.00     0.202 C 
BRANCH  29  30
ATOM     30  C   UNL A   1      34.579  33.196  32.343  1.00  0.00     0.261 C 
BRANCH  30  31
ATOM     31  O   UNL A   1      35.449  32.051  32.522  1.00  0.00    -0.460 OA
BRANCH  31  32
ATOM     32  C   UNL A   1      36.641  32.258  33.148  1.00  0.00     0.338 C 
ATOM     33  O   UNL A   1      36.776  32.872  34.193  1.00  0.00    -0.246 OA
BRANCH  32  34
ATOM     34  C   UNL A   1      37.742  31.630  32.352  1.00  0.00     0.060 A 
ATOM     35  C   UNL A   1      38.558  30.667  32.939  1.00  0.00     0.016 A 
ATOM     36  C   UNL A   1      38.092  32.154  31.095  1.00  0.00     0.016 A 
ATOM     37  C   UNL A   1      39.799  30.391  32.352  1.00  0.00     0.010 A 
ATOM     38  C   UNL A   1      39.358  31.934  30.550  1.00  0.00     0.010 A 
ATOM     39  C   UNL A   1      40.261  31.111  31.217  1.00  0.00    -0.014 A 
BRANCH  39  40
ATOM     40  C   UNL A   1      41.539  30.693  30.582  1.00  0.00     0.031 A 
ATOM     41  C   UNL A   1      41.379  29.274  30.238  1.00  0.00     0.074 A 
ATOM     42  C   UNL A   1      42.670  31.380  30.240  1.00  0.00     0.049 A 
ATOM     43  N   UNL A   1      42.042  28.285  30.736  1.00  0.00    -0.248 NA
ATOM     44  C   UNL A   1      40.161  28.876  29.484  1.00  0.00     0.031 C 
ATOM     45  C   UNL A   1      42.893  32.806  30.469  1.00  0.00     0.029 A 
ATOM     46  N   UNL A   1      43.847  30.998  29.561  1.00  0.00    -0.354 N 
ATOM     47  C   UNL A   1      41.585  27.231  29.981  1.00  0.00     0.074 A 
ATOM     48  C   UNL A   1      40.259  27.549  29.534  1.00  0.00     0.031 C 
ATOM     49  C   UNL A   1      44.002  33.216  29.818  1.00  0.00     0.029 A 
ATOM     50  C   UNL A   1      44.615  32.107  29.105  1.00  0.00     0.049 A 
ATOM     51  H   UNL A   1      44.111  30.060  29.418  1.00  0.00     0.167 HD
ATOM     52  C   UNL A   1      42.503  26.520  29.301  1.00  0.00     0.034 A 
ATOM     53  C   UNL A   1      45.641  32.174  28.192  1.00  0.00     0.034 A 
ATOM     54  C   UNL A   1      43.813  26.524  29.881  1.00  0.00     0.049 A 
ATOM     55  C   UNL A   1      46.266  30.849  28.039  1.00  0.00     0.074 A 
ATOM     56  C   UNL A   1      44.433  25.733  30.807  1.00  0.00     0.029 A 
ATOM     57  N   UNL A   1      44.681  27.541  29.570  1.00  0.00    -0.354 N 
ATOM     58  N   UNL A   1      47.161  30.393  28.862  1.00  0.00    -0.248 NA
ATOM     59  C   UNL A   1      45.761  29.896  27.058  1.00  0.00     0.031 C 
ATOM     60  C   UNL A   1      45.756  26.218  30.935  1.00  0.00     0.029 A 
ATOM     61  C   UNL A   1      45.933  27.335  30.137  1.00  0.00     0.049 A 
ATOM     62  H   UNL A   1      44.447  28.318  29.015  1.00  0.00     0.167 HD
ATOM     63  C   UNL A   1      47.001  29.031  28.794  1.00  0.00     0.074 A 
ATOM     64  C   UNL A   1      46.262  28.769  27.567  1.00  0.00     0.031 C 
ATOM     65  C   UNL A   1      47.016  28.298  29.938  1.00  0.00     0.034 A 
BRANCH  52  66
ATOM     66  C   UNL A   1      42.308  26.074  27.897  1.00  0.00     0.023 A 
ATOM     67  C   UNL A   1      42.417  24.703  27.687  1.00  0.00     0.031 A 
ATOM     68  C   UNL A   1      42.350  26.917  26.763  1.00  0.00     0.131 A 
ATOM     69  C   UNL A   1      42.669  24.214  26.407  1.00  0.00     0.055 A 
ATOM     70  C   UNL A   1      42.505  26.415  25.474  1.00  0.00     0.041 A 
ATOM     71  F   UNL A   1      42.348  28.254  26.858  1.00  0.00    -0.206 F 
ATOM     72  C   UNL A   1      42.704  25.055  25.295  1.00  0.00     0.022 A 
BRANCH  69  73
ATOM     73  S   UNL A   1      43.136  22.477  26.285  1.00  0.00     0.124 S 
ATOM     74  O   UNL A   1      42.645  21.945  27.551  1.00  0.00    -0.237 OA
ATOM     75  O   UNL A   1      42.409  22.059  25.090  1.00  0.00    -0.237 OA
ATOM     76  O   UNL A   1      44.588  22.532  26.146  1.00  0.00    -0.744 OA
ENDBRANCH  69  73
ENDBRANCH  52  66
BRANCH  53  77
ATOM     77  C   UNL A   1      46.179  33.297  27.333  1.00  0.00     0.023 A 
ATOM     78  C   UNL A   1      47.579  33.530  27.153  1.00  0.00     0.031 A 
ATOM     79  C   UNL A   1      45.330  33.989  26.451  1.00  0.00     0.131 A 
ATOM     80  C   UNL A   1      48.054  34.364  26.107  1.00  0.00     0.055 A 
ATOM     81  C   UNL A   1      45.804  34.817  25.429  1.00  0.00     0.041 A 
ATOM     82  F   UNL A   1      44.002  33.820  26.479  1.00  0.00    -0.206 F 
ATOM     83  C   UNL A   1      47.164  34.989  25.236  1.00  0.00     0.022 A 
BRANCH  80  84
ATOM     84  S   UNL A   1      49.841  34.543  25.739  1.00  0.00     0.124 S 
ATOM     85  O   UNL A   1      50.375  35.034  27.003  1.00  0.00    -0.237 OA
ATOM     86  O   UNL A   1      50.231  33.195  25.343  1.00  0.00    -0.237 OA
ATOM     87  O   UNL A   1      49.862  35.522  24.649  1.00  0.00    -0.744 OA
ENDBRANCH  80  84
ENDBRANCH  53  77
BRANCH  65  88
ATOM     88  C   UNL A   1      48.069  28.620  31.005  1.00  0.00     0.023 A 
ATOM     89  C   UNL A   1      47.838  29.284  32.243  1.00  0.00     0.031 A 
ATOM     90  C   UNL A   1      49.395  28.211  30.774  1.00  0.00     0.131 A 
ATOM     91  C   UNL A   1      48.862  29.413  33.214  1.00  0.00     0.055 A 
ATOM     92  C   UNL A   1      50.403  28.315  31.736  1.00  0.00     0.041 A 
ATOM     93  F   UNL A   1      49.766  27.694  29.592  1.00  0.00    -0.206 F 
ATOM     94  C   UNL A   1      50.142  28.916  32.960  1.00  0.00     0.022 A 
BRANCH  91  95
ATOM     95  S   UNL A   1      48.515  30.094  34.885  1.00  0.00     0.124 S 
ATOM     96  O   UNL A   1      47.137  29.690  35.129  1.00  0.00    -0.237 OA
ATOM     97  O   UNL A   1      49.520  29.474  35.755  1.00  0.00    -0.237 OA
ATOM     98  O   UNL A   1      48.698  31.539  34.719  1.00  0.00    -0.744 OA
ENDBRANCH  91  95
ENDBRANCH  65  88
ENDBRANCH  39  40
ENDBRANCH  32  34
ENDBRANCH  31  32
ENDBRANCH  30  31
ENDBRANCH  29  30
ENDBRANCH  28  29
ENDBRANCH  27  28
ENDBRANCH  26  27
ENDBRANCH   1  26
TORSDOF 27
ENDMDL
MODEL 3
REMARK VINA RESULT:      -8.1      5.888     12.158
REMARK SMILES CC[C@@H](NS(=O)(=O)c1cc(C)ccc1C)C(=O)OCCOCCOCCOCCOC(=O)c1ccc(-c2c3nc(c(-c4cc(S(=O)(=O)[O-])ccc4F)c4ccc([nH]4)c(-c4cc(S(=O)(=O)[O-])ccc4F)c4nc(c(-c5cc(S(=O)(=O)[O-])ccc5F)c5ccc2[nH]5)C=C4)C=C3)cc1
REMARK SMILES IDX 24 1 23 2 22 3 21 4 20 5 19 6 18 7 16 8 17 9 3 10 2 11 1 12
REMARK SMILES IDX 4 13 5 15 6 16 7 17 8 18 9 19 14 20 10 21 13 22 15 23 11 24
REMARK SMILES IDX 12 25 25 26 26 27 27 28 28 29 29 30 30 31 31 32 32 33 33 34
REMARK SMILES IDX 34 35 95 36 35 37 94 38 36 39 37 40 38 41 88 42 39 43 93 44
REMARK SMILES IDX 87 45 89 46 40 47 92 48 86 49 85 50 41 52 73 53 53 54 72 55
REMARK SMILES IDX 54 56 57 57 71 58 90 59 55 60 56 61 70 63 91 64 58 65 42 66
REMARK SMILES IDX 43 67 51 68 44 69 50 70 52 71 49 72 45 73 46 74 47 75 48 76
REMARK SMILES IDX 74 77 75 78 83 79 76 80 82 81 84 82 81 83 77 84 78 85 79 86
REMARK SMILES IDX 80 87 59 88 60 89 68 90 61 91 67 92 69 93 66 94 62 95 63 96
REMARK SMILES IDX 64 97 65 98
REMARK H PARENT 4 14 89 51 57 62
REMARK Flexibility Score: inf
ROOT
ATOM      1  O   UNL A   1      39.138  31.768  35.030  1.00  0.00    -0.377 OA
ENDROOT
BRANCH   1   2
ATOM      2  C   UNL A   1      39.199  32.187  36.384  1.00  0.00     0.188 C 
BRANCH   2   3
ATOM      3  C   UNL A   1      37.927  32.411  37.202  1.00  0.00     0.188 C 
BRANCH   3   4
ATOM      4  O   UNL A   1      37.517  31.380  38.087  1.00  0.00    -0.376 OA
BRANCH   4   5
ATOM      5  C   UNL A   1      36.856  31.768  39.276  1.00  0.00     0.202 C 
BRANCH   5   6
ATOM      6  C   UNL A   1      37.707  32.756  40.055  1.00  0.00     0.261 C 
BRANCH   6   7
ATOM      7  O   UNL A   1      37.753  32.579  41.477  1.00  0.00    -0.462 OA
BRANCH   7   8
ATOM      8  C   UNL A   1      36.871  33.152  42.348  1.00  0.00     0.324 C 
ATOM      9  O   UNL A   1      36.565  34.334  42.374  1.00  0.00    -0.250 OA
BRANCH   8  10
ATOM     10  C   UNL A   1      36.430  32.159  43.400  1.00  0.00     0.179 C 
BRANCH  10  11
ATOM     11  C   UNL A   1      37.662  31.430  44.019  1.00  0.00     0.028 C 
ATOM     12  C   UNL A   1      37.721  29.920  43.780  1.00  0.00     0.006 C 
ENDBRANCH  10  11
BRANCH  10  13
ATOM     13  N   UNL A   1      35.693  33.061  44.373  1.00  0.00    -0.197 NA
ATOM     14  H   UNL A   1      35.759  34.017  44.023  1.00  0.00     0.142 HD
BRANCH  13  15
ATOM     15  S   UNL A   1      34.017  32.700  44.620  1.00  0.00     0.241 S 
ATOM     16  O   UNL A   1      33.864  31.310  44.332  1.00  0.00    -0.207 OA
ATOM     17  O   UNL A   1      33.768  33.311  45.927  1.00  0.00    -0.207 OA
BRANCH  15  18
ATOM     18  C   UNL A   1      32.750  33.504  43.647  1.00  0.00     0.085 A 
ATOM     19  C   UNL A   1      33.103  33.789  42.311  1.00  0.00     0.025 A 
ATOM     20  C   UNL A   1      31.493  33.898  44.045  1.00  0.00    -0.031 A 
ATOM     21  C   UNL A   1      32.296  34.593  41.489  1.00  0.00    -0.050 A 
ATOM     22  C   UNL A   1      30.827  34.917  43.336  1.00  0.00     0.005 A 
ATOM     23  C   UNL A   1      30.726  33.241  45.115  1.00  0.00     0.046 C 
ATOM     24  C   UNL A   1      32.491  34.687  40.007  1.00  0.00     0.044 C 
ATOM     25  C   UNL A   1      31.241  35.282  42.067  1.00  0.00     0.004 A 
ENDBRANCH  15  18
ENDBRANCH  13  15
ENDBRANCH  10  13
ENDBRANCH   8  10
ENDBRANCH   7   8
ENDBRANCH   6   7
ENDBRANCH   5   6
ENDBRANCH   4   5
ENDBRANCH   3   4
ENDBRANCH   2   3
ENDBRANCH   1   2
BRANCH   1  26
ATOM     26  C   UNL A   1      38.164  30.823  34.617  1.00  0.00     0.188 C 
BRANCH  26  27
ATOM     27  C   UNL A   1      37.986  30.428  33.145  1.00  0.00     0.188 C 
BRANCH  27  28
ATOM     28  O   UNL A   1      36.645  30.434  32.704  1.00  0.00    -0.376 OA
BRANCH  28  29
ATOM     29  C   UNL A   1      36.132  31.650  32.220  1.00  0.00     0.202 C 
BRANCH  29  30
ATOM     30  C   UNL A   1      36.927  32.130  31.006  1.00  0.00     0.261 C 
BRANCH  30  31
ATOM     31  O   UNL A   1      36.199  32.086  29.754  1.00  0.00    -0.460 OA
BRANCH  31  32
ATOM     32  C   UNL A   1      36.208  30.914  29.060  1.00  0.00     0.338 C 
ATOM     33  O   UNL A   1      35.291  30.520  28.360  1.00  0.00    -0.246 OA
BRANCH  32  34
ATOM     34  C   UNL A   1      37.498  30.196  29.302  1.00  0.00     0.060 A 
ATOM     35  C   UNL A   1      38.701  30.789  28.927  1.00  0.00     0.016 A 
ATOM     36  C   UNL A   1      37.493  28.850  29.706  1.00  0.00     0.016 A 
ATOM     37  C   UNL A   1      39.831  29.976  28.779  1.00  0.00     0.010 A 
ATOM     38  C   UNL A   1      38.599  28.027  29.488  1.00  0.00     0.010 A 
ATOM     39  C   UNL A   1      39.761  28.567  28.943  1.00  0.00    -0.014 A 
BRANCH  39  40
ATOM     40  C   UNL A   1      41.020  27.779  28.875  1.00  0.00     0.031 A 
ATOM     41  C   UNL A   1      41.783  28.125  30.082  1.00  0.00     0.074 A 
ATOM     42  C   UNL A   1      41.473  26.833  27.999  1.00  0.00     0.049 A 
ATOM     43  N   UNL A   1      42.918  28.737  30.122  1.00  0.00    -0.248 NA
ATOM     44  C   UNL A   1      41.081  28.050  31.391  1.00  0.00     0.031 C 
ATOM     45  C   UNL A   1      40.755  26.365  26.815  1.00  0.00     0.029 A 
ATOM     46  N   UNL A   1      42.632  26.026  27.985  1.00  0.00    -0.354 N 
ATOM     47  C   UNL A   1      43.221  28.681  31.461  1.00  0.00     0.074 A 
ATOM     48  C   UNL A   1      41.987  28.607  32.192  1.00  0.00     0.031 C 
ATOM     49  C   UNL A   1      41.366  25.278  26.298  1.00  0.00     0.029 A 
ATOM     50  C   UNL A   1      42.538  24.928  27.084  1.00  0.00     0.049 A 
ATOM     51  H   UNL A   1      43.424  26.204  28.543  1.00  0.00     0.167 HD
ATOM     52  C   UNL A   1      44.383  28.095  31.804  1.00  0.00     0.034 A 
ATOM     53  C   UNL A   1      43.298  23.787  26.977  1.00  0.00     0.034 A 
ATOM     54  C   UNL A   1      45.403  28.154  30.799  1.00  0.00     0.049 A 
ATOM     55  C   UNL A   1      44.614  23.998  27.602  1.00  0.00     0.074 A 
ATOM     56  C   UNL A   1      46.379  29.063  30.504  1.00  0.00     0.029 A 
ATOM     57  N   UNL A   1      45.444  27.184  29.828  1.00  0.00    -0.354 N 
ATOM     58  N   UNL A   1      45.597  24.589  26.994  1.00  0.00    -0.248 NA
ATOM     59  C   UNL A   1      44.816  23.724  29.020  1.00  0.00     0.031 C 
ATOM     60  C   UNL A   1      47.108  28.536  29.413  1.00  0.00     0.029 A 
ATOM     61  C   UNL A   1      46.549  27.339  29.000  1.00  0.00     0.049 A 
ATOM     62  H   UNL A   1      44.775  26.470  29.731  1.00  0.00     0.167 HD
ATOM     63  C   UNL A   1      46.323  25.146  28.017  1.00  0.00     0.074 A 
ATOM     64  C   UNL A   1      45.911  24.456  29.232  1.00  0.00     0.031 C 
ATOM     65  C   UNL A   1      46.792  26.416  27.891  1.00  0.00     0.034 A 
BRANCH  52  66
ATOM     66  C   UNL A   1      44.510  27.151  32.944  1.00  0.00     0.023 A 
ATOM     67  C   UNL A   1      45.097  27.678  34.091  1.00  0.00     0.031 A 
ATOM     68  C   UNL A   1      44.397  25.744  32.852  1.00  0.00     0.131 A 
ATOM     69  C   UNL A   1      45.643  26.825  35.047  1.00  0.00     0.055 A 
ATOM     70  C   UNL A   1      44.858  24.898  33.857  1.00  0.00     0.041 A 
ATOM     71  F   UNL A   1      43.936  25.129  31.755  1.00  0.00    -0.206 F 
ATOM     72  C   UNL A   1      45.521  25.439  34.948  1.00  0.00     0.022 A 
BRANCH  69  73
ATOM     73  S   UNL A   1      46.676  27.587  36.312  1.00  0.00     0.124 S 
ATOM     74  O   UNL A   1      46.554  29.003  35.985  1.00  0.00    -0.237 OA
ATOM     75  O   UNL A   1      46.012  27.152  37.538  1.00  0.00    -0.237 OA
ATOM     76  O   UNL A   1      47.989  26.997  36.069  1.00  0.00    -0.744 OA
ENDBRANCH  69  73
ENDBRANCH  52  66
BRANCH  53  77
ATOM     77  C   UNL A   1      43.016  22.417  26.399  1.00  0.00     0.023 A 
ATOM     78  C   UNL A   1      43.978  21.689  25.631  1.00  0.00     0.031 A 
ATOM     79  C   UNL A   1      41.898  21.679  26.828  1.00  0.00     0.131 A 
ATOM     80  C   UNL A   1      43.818  20.300  25.382  1.00  0.00     0.055 A 
ATOM     81  C   UNL A   1      41.741  20.313  26.571  1.00  0.00     0.041 A 
ATOM     82  F   UNL A   1      40.950  22.228  27.599  1.00  0.00    -0.206 F 
ATOM     83  C   UNL A   1      42.709  19.613  25.871  1.00  0.00     0.022 A 
BRANCH  80  84
ATOM     84  S   UNL A   1      45.115  19.303  24.554  1.00  0.00     0.124 S 
ATOM     85  O   UNL A   1      44.462  18.904  23.315  1.00  0.00    -0.237 OA
ATOM     86  O   UNL A   1      46.225  20.241  24.438  1.00  0.00    -0.237 OA
ATOM     87  O   UNL A   1      45.348  18.207  25.499  1.00  0.00    -0.744 OA
ENDBRANCH  80  84
ENDBRANCH  53  77
BRANCH  65  88
ATOM     88  C   UNL A   1      47.412  26.842  26.555  1.00  0.00     0.023 A 
ATOM     89  C   UNL A   1      48.802  26.940  26.265  1.00  0.00     0.031 A 
ATOM     90  C   UNL A   1      46.547  27.148  25.489  1.00  0.00     0.131 A 
ATOM     91  C   UNL A   1      49.266  27.217  24.955  1.00  0.00     0.055 A 
ATOM     92  C   UNL A   1      46.997  27.400  24.190  1.00  0.00     0.041 A 
ATOM     93  F   UNL A   1      45.219  27.219  25.671  1.00  0.00    -0.206 F 
ATOM     94  C   UNL A   1      48.357  27.435  23.917  1.00  0.00     0.022 A 
BRANCH  91  95
ATOM     95  S   UNL A   1      51.055  27.152  24.540  1.00  0.00     0.124 S 
ATOM     96  O   UNL A   1      51.429  25.790  24.896  1.00  0.00    -0.237 OA
ATOM     97  O   UNL A   1      51.116  27.472  23.110  1.00  0.00    -0.237 OA
ATOM     98  O   UNL A   1      51.650  28.182  25.395  1.00  0.00    -0.744 OA
ENDBRANCH  91  95
ENDBRANCH  65  88
ENDBRANCH  39  40
ENDBRANCH  32  34
ENDBRANCH  31  32
ENDBRANCH  30  31
ENDBRANCH  29  30
ENDBRANCH  28  29
ENDBRANCH  27  28
ENDBRANCH  26  27
ENDBRANCH   1  26
TORSDOF 27
ENDMDL
