MODEL 1
REMARK VINA RESULT:      -8.4      0.000      0.000
REMARK SMILES C[C@@](NC(=O)COc1ccccc1C#N)(C(=O)OCCOCCOCCOCCOC(=O)c1ccc(-c2c3nc(c(-c4cc(S(=O)(=O)[O-])ccc4F)c4ccc([nH]4)c(-c4cc(S(=O)(=O)[O-])ccc4F)c4nc(c(-c5cc(S(=O)(=O)[O-])ccc5F)c5ccc2[nH]5)C=C4)C=C3)cc1)C1CC1
REMARK SMILES IDX 23 1 22 2 21 3 20 4 19 5 18 6 16 7 17 8 2 9 1 10 3 11 4 12
REMARK SMILES IDX 5 14 6 15 7 16 8 17 9 18 13 19 10 20 12 21 11 22 14 23 15 24
REMARK SMILES IDX 96 25 97 26 98 27 24 28 25 29 26 30 27 31 28 32 29 33 30 34
REMARK SMILES IDX 31 35 32 36 33 37 34 38 95 39 35 40 94 41 36 42 37 43 38 44
REMARK SMILES IDX 88 45 39 46 93 47 87 48 89 49 40 50 92 51 86 52 85 53 41 55
REMARK SMILES IDX 73 56 53 57 72 58 54 59 57 60 71 61 90 62 55 63 56 64 70 66
REMARK SMILES IDX 91 67 58 68 42 69 43 70 51 71 44 72 50 73 52 74 49 75 45 76
REMARK SMILES IDX 46 77 47 78 48 79 74 80 75 81 83 82 76 83 82 84 84 85 81 86
REMARK SMILES IDX 77 87 78 88 79 89 80 90 59 91 60 92 68 93 61 94 67 95 69 96
REMARK SMILES IDX 66 97 62 98 63 99 64 100 65 101
REMARK H PARENT 3 13 89 54 57 65
REMARK Flexibility Score: inf
ROOT
ATOM      1  C   UNL A   1      37.429  29.415  28.824  1.00  0.00     0.188 C 
ENDROOT
BRANCH   1   2
ATOM      2  C   UNL A   1      36.591  30.211  27.799  1.00  0.00     0.188 C 
BRANCH   2   3
ATOM      3  O   UNL A   1      35.673  29.538  26.962  1.00  0.00    -0.376 OA
BRANCH   3   4
ATOM      4  C   UNL A   1      34.281  29.533  27.230  1.00  0.00     0.202 C 
BRANCH   4   5
ATOM      5  C   UNL A   1      33.386  28.289  27.209  1.00  0.00     0.261 C 
BRANCH   5   6
ATOM      6  O   UNL A   1      33.166  27.653  25.950  1.00  0.00    -0.461 OA
BRANCH   6   7
ATOM      7  C   UNL A   1      31.892  27.473  25.546  1.00  0.00     0.331 C 
ATOM      8  O   UNL A   1      30.978  27.156  26.302  1.00  0.00    -0.249 OA
BRANCH   7   9
ATOM      9  C   UNL A   1      31.735  27.594  23.996  1.00  0.00     0.138 C 
ATOM     10  C   UNL A   1      32.974  27.867  23.126  1.00  0.00     0.048 C 
BRANCH   9  11
ATOM     11  N   UNL A   1      31.155  26.286  23.591  1.00  0.00    -0.337 N 
ATOM     12  C   UNL A   1      31.651  25.022  23.499  1.00  0.00     0.258 C 
ATOM     13  H   UNL A   1      30.207  26.347  23.333  1.00  0.00     0.164 HD
ATOM     14  O   UNL A   1      30.845  24.139  23.183  1.00  0.00    -0.271 OA
BRANCH  12  15
ATOM     15  C   UNL A   1      33.086  24.623  23.885  1.00  0.00     0.329 C 
BRANCH  15  16
ATOM     16  O   UNL A   1      33.760  23.552  23.274  1.00  0.00    -0.482 OA
BRANCH  16  17
ATOM     17  C   UNL A   1      34.610  22.714  23.925  1.00  0.00     0.137 A 
ATOM     18  C   UNL A   1      35.956  23.016  23.666  1.00  0.00     0.048 A 
ATOM     19  C   UNL A   1      34.312  21.542  24.627  1.00  0.00     0.094 A 
ATOM     20  C   UNL A   1      36.979  22.175  24.096  1.00  0.00     0.004 A 
ATOM     21  C   UNL A   1      35.359  20.712  25.072  1.00  0.00     0.023 A 
ATOM     22  C   UNL A   1      36.688  21.022  24.805  1.00  0.00     0.002 A 
BRANCH  19  23
ATOM     23  C   UNL A   1      33.000  21.025  24.821  1.00  0.00     0.103 C 
ATOM     24  N   UNL A   1      31.963  20.543  25.057  1.00  0.00    -0.192 NA
ENDBRANCH  19  23
ENDBRANCH  16  17
ENDBRANCH  15  16
ENDBRANCH  12  15
ENDBRANCH   9  11
BRANCH   9  25
ATOM     25  C   UNL A   1      30.599  28.621  23.718  1.00  0.00     0.026 C 
ATOM     26  C   UNL A   1      30.242  29.173  22.346  1.00  0.00     0.007 C 
ATOM     27  C   UNL A   1      29.257  28.311  23.076  1.00  0.00     0.007 C 
ENDBRANCH   9  25
ENDBRANCH   7   9
ENDBRANCH   6   7
ENDBRANCH   5   6
ENDBRANCH   4   5
ENDBRANCH   3   4
ENDBRANCH   2   3
ENDBRANCH   1   2
BRANCH   1  28
ATOM     28  O   UNL A   1      38.094  28.272  28.330  1.00  0.00    -0.377 OA
BRANCH  28  29
ATOM     29  C   UNL A   1      39.506  28.226  28.448  1.00  0.00     0.188 C 
BRANCH  29  30
ATOM     30  C   UNL A   1      40.151  26.974  29.072  1.00  0.00     0.188 C 
BRANCH  30  31
ATOM     31  O   UNL A   1      39.704  25.740  28.540  1.00  0.00    -0.376 OA
BRANCH  31  32
ATOM     32  C   UNL A   1      40.226  25.223  27.332  1.00  0.00     0.202 C 
BRANCH  32  33
ATOM     33  C   UNL A   1      41.581  24.494  27.285  1.00  0.00     0.261 C 
BRANCH  33  34
ATOM     34  O   UNL A   1      42.758  25.274  27.039  1.00  0.00    -0.460 OA
BRANCH  34  35
ATOM     35  C   UNL A   1      42.713  26.195  26.050  1.00  0.00     0.338 C 
ATOM     36  O   UNL A   1      42.366  26.003  24.901  1.00  0.00    -0.246 OA
BRANCH  35  37
ATOM     37  C   UNL A   1      42.948  27.524  26.667  1.00  0.00     0.060 A 
ATOM     38  C   UNL A   1      43.757  27.621  27.809  1.00  0.00     0.016 A 
ATOM     39  C   UNL A   1      42.383  28.673  26.112  1.00  0.00     0.016 A 
ATOM     40  C   UNL A   1      43.986  28.860  28.410  1.00  0.00     0.010 A 
ATOM     41  C   UNL A   1      42.584  29.909  26.736  1.00  0.00     0.010 A 
ATOM     42  C   UNL A   1      43.365  30.005  27.904  1.00  0.00    -0.014 A 
BRANCH  42  43
ATOM     43  C   UNL A   1      43.395  31.269  28.684  1.00  0.00     0.031 A 
ATOM     44  C   UNL A   1      44.462  32.278  28.371  1.00  0.00     0.074 A 
ATOM     45  C   UNL A   1      42.477  31.534  29.631  1.00  0.00     0.049 A 
ATOM     46  N   UNL A   1      44.740  33.399  28.979  1.00  0.00    -0.248 NA
ATOM     47  C   UNL A   1      45.318  31.988  27.210  1.00  0.00     0.031 C 
ATOM     48  C   UNL A   1      41.329  30.689  29.938  1.00  0.00     0.029 A 
ATOM     49  N   UNL A   1      42.367  32.577  30.517  1.00  0.00    -0.354 N 
ATOM     50  C   UNL A   1      45.806  33.951  28.280  1.00  0.00     0.074 A 
ATOM     51  C   UNL A   1      46.144  33.024  27.221  1.00  0.00     0.031 C 
ATOM     52  C   UNL A   1      40.657  31.220  30.973  1.00  0.00     0.029 A 
ATOM     53  C   UNL A   1      41.349  32.418  31.430  1.00  0.00     0.049 A 
ATOM     54  H   UNL A   1      42.960  33.363  30.501  1.00  0.00     0.167 HD
ATOM     55  C   UNL A   1      46.436  35.130  28.501  1.00  0.00     0.034 A 
ATOM     56  C   UNL A   1      41.033  33.134  32.530  1.00  0.00     0.034 A 
ATOM     57  C   UNL A   1      46.086  36.035  29.567  1.00  0.00     0.049 A 
ATOM     58  C   UNL A   1      41.844  34.370  32.840  1.00  0.00     0.074 A 
ATOM     59  C   UNL A   1      46.651  37.262  29.868  1.00  0.00     0.029 A 
ATOM     60  N   UNL A   1      45.098  35.810  30.517  1.00  0.00    -0.354 N 
ATOM     61  N   UNL A   1      42.847  34.886  32.166  1.00  0.00    -0.248 NA
ATOM     62  C   UNL A   1      41.471  35.131  34.038  1.00  0.00     0.031 C 
ATOM     63  C   UNL A   1      46.078  37.728  31.053  1.00  0.00     0.029 A 
ATOM     64  C   UNL A   1      45.077  36.849  31.435  1.00  0.00     0.049 A 
ATOM     65  H   UNL A   1      44.501  35.027  30.536  1.00  0.00     0.167 HD
ATOM     66  C   UNL A   1      43.191  36.056  32.837  1.00  0.00     0.074 A 
ATOM     67  C   UNL A   1      42.280  36.176  33.956  1.00  0.00     0.031 C 
ATOM     68  C   UNL A   1      44.169  36.953  32.551  1.00  0.00     0.034 A 
BRANCH  55  69
ATOM     69  C   UNL A   1      47.605  35.477  27.616  1.00  0.00     0.023 A 
ATOM     70  C   UNL A   1      48.920  35.100  27.937  1.00  0.00     0.031 A 
ATOM     71  C   UNL A   1      47.392  36.189  26.423  1.00  0.00     0.131 A 
ATOM     72  C   UNL A   1      49.977  35.476  27.094  1.00  0.00     0.055 A 
ATOM     73  C   UNL A   1      48.437  36.490  25.549  1.00  0.00     0.041 A 
ATOM     74  F   UNL A   1      46.161  36.603  26.085  1.00  0.00    -0.206 F 
ATOM     75  C   UNL A   1      49.741  36.141  25.888  1.00  0.00     0.022 A 
BRANCH  72  76
ATOM     76  S   UNL A   1      51.678  35.198  27.657  1.00  0.00     0.124 S 
ATOM     77  O   UNL A   1      52.229  36.550  27.610  1.00  0.00    -0.237 OA
ATOM     78  O   UNL A   1      51.481  34.635  28.988  1.00  0.00    -0.237 OA
ATOM     79  O   UNL A   1      52.221  34.275  26.662  1.00  0.00    -0.744 OA
ENDBRANCH  72  76
ENDBRANCH  55  69
BRANCH  56  80
ATOM     80  C   UNL A   1      39.945  32.690  33.452  1.00  0.00     0.023 A 
ATOM     81  C   UNL A   1      38.638  33.183  33.324  1.00  0.00     0.031 A 
ATOM     82  C   UNL A   1      40.220  31.839  34.540  1.00  0.00     0.131 A 
ATOM     83  C   UNL A   1      37.677  32.889  34.305  1.00  0.00     0.055 A 
ATOM     84  C   UNL A   1      39.241  31.491  35.474  1.00  0.00     0.041 A 
ATOM     85  F   UNL A   1      41.453  31.337  34.719  1.00  0.00    -0.206 F 
ATOM     86  C   UNL A   1      37.965  32.034  35.370  1.00  0.00     0.022 A 
BRANCH  83  87
ATOM     87  S   UNL A   1      36.087  33.759  34.241  1.00  0.00     0.124 S 
ATOM     88  O   UNL A   1      35.708  33.781  35.650  1.00  0.00    -0.237 OA
ATOM     89  O   UNL A   1      36.468  35.041  33.658  1.00  0.00    -0.237 OA
ATOM     90  O   UNL A   1      35.266  32.904  33.386  1.00  0.00    -0.744 OA
ENDBRANCH  83  87
ENDBRANCH  56  80
BRANCH  68  91
ATOM     91  C   UNL A   1      44.269  38.172  33.439  1.00  0.00     0.023 A 
ATOM     92  C   UNL A   1      43.490  39.318  33.210  1.00  0.00     0.031 A 
ATOM     93  C   UNL A   1      45.166  38.189  34.521  1.00  0.00     0.131 A 
ATOM     94  C   UNL A   1      43.671  40.456  34.011  1.00  0.00     0.055 A 
ATOM     95  C   UNL A   1      45.284  39.294  35.364  1.00  0.00     0.041 A 
ATOM     96  F   UNL A   1      45.943  37.125  34.782  1.00  0.00    -0.206 F 
ATOM     97  C   UNL A   1      44.545  40.443  35.101  1.00  0.00     0.022 A 
BRANCH  94  98
ATOM     98  S   UNL A   1      42.839  41.994  33.531  1.00  0.00     0.124 S 
ATOM     99  O   UNL A   1      42.354  42.488  34.816  1.00  0.00    -0.237 OA
ATOM    100  O   UNL A   1      43.923  42.759  32.923  1.00  0.00    -0.237 OA
ATOM    101  O   UNL A   1      41.800  41.547  32.605  1.00  0.00    -0.744 OA
ENDBRANCH  94  98
ENDBRANCH  68  91
ENDBRANCH  42  43
ENDBRANCH  35  37
ENDBRANCH  34  35
ENDBRANCH  33  34
ENDBRANCH  32  33
ENDBRANCH  31  32
ENDBRANCH  30  31
ENDBRANCH  29  30
ENDBRANCH  28  29
ENDBRANCH   1  28
TORSDOF 29
ENDMDL
MODEL 2
REMARK VINA RESULT:      -8.3      6.019     10.211
REMARK SMILES C[C@@](NC(=O)COc1ccccc1C#N)(C(=O)OCCOCCOCCOCCOC(=O)c1ccc(-c2c3nc(c(-c4cc(S(=O)(=O)[O-])ccc4F)c4ccc([nH]4)c(-c4cc(S(=O)(=O)[O-])ccc4F)c4nc(c(-c5cc(S(=O)(=O)[O-])ccc5F)c5ccc2[nH]5)C=C4)C=C3)cc1)C1CC1
REMARK SMILES IDX 23 1 22 2 21 3 20 4 19 5 18 6 16 7 17 8 2 9 1 10 3 11 4 12
REMARK SMILES IDX 5 14 6 15 7 16 8 17 9 18 13 19 10 20 12 21 11 22 14 23 15 24
REMARK SMILES IDX 96 25 97 26 98 27 24 28 25 29 26 30 27 31 28 32 29 33 30 34
REMARK SMILES IDX 31 35 32 36 33 37 34 38 95 39 35 40 94 41 36 42 37 43 38 44
REMARK SMILES IDX 88 45 39 46 93 47 87 48 89 49 40 50 92 51 86 52 85 53 41 55
REMARK SMILES IDX 73 56 53 57 72 58 54 59 57 60 71 61 90 62 55 63 56 64 70 66
REMARK SMILES IDX 91 67 58 68 42 69 43 70 51 71 44 72 50 73 52 74 49 75 45 76
REMARK SMILES IDX 46 77 47 78 48 79 74 80 75 81 83 82 76 83 82 84 84 85 81 86
REMARK SMILES IDX 77 87 78 88 79 89 80 90 59 91 60 92 68 93 61 94 67 95 69 96
REMARK SMILES IDX 66 97 62 98 63 99 64 100 65 101
REMARK H PARENT 3 13 89 54 57 65
REMARK Flexibility Score: inf
ROOT
ATOM      1  C   UNL A   1      33.773  31.616  28.031  1.00  0.00     0.188 C 
ENDROOT
BRANCH   1   2
ATOM      2  C   UNL A   1      33.384  30.523  27.011  1.00  0.00     0.188 C 
BRANCH   2   3
ATOM      3  O   UNL A   1      32.023  30.224  26.779  1.00  0.00    -0.376 OA
BRANCH   3   4
ATOM      4  C   UNL A   1      31.454  30.281  25.482  1.00  0.00     0.202 C 
BRANCH   4   5
ATOM      5  C   UNL A   1      31.630  29.214  24.396  1.00  0.00     0.261 C 
BRANCH   5   6
ATOM      6  O   UNL A   1      32.225  27.974  24.778  1.00  0.00    -0.461 OA
BRANCH   6   7
ATOM      7  C   UNL A   1      31.409  26.974  25.171  1.00  0.00     0.331 C 
ATOM      8  O   UNL A   1      30.697  27.031  26.169  1.00  0.00    -0.249 OA
BRANCH   7   9
ATOM      9  C   UNL A   1      31.561  25.697  24.283  1.00  0.00     0.138 C 
ATOM     10  C   UNL A   1      30.304  24.995  23.740  1.00  0.00     0.048 C 
BRANCH   9  11
ATOM     11  N   UNL A   1      32.378  26.158  23.129  1.00  0.00    -0.337 N 
ATOM     12  C   UNL A   1      33.027  25.519  22.117  1.00  0.00     0.258 C 
ATOM     13  H   UNL A   1      32.469  27.137  23.087  1.00  0.00     0.164 HD
ATOM     14  O   UNL A   1      33.565  26.240  21.270  1.00  0.00    -0.271 OA
BRANCH  12  15
ATOM     15  C   UNL A   1      33.013  23.994  21.905  1.00  0.00     0.329 C 
BRANCH  15  16
ATOM     16  O   UNL A   1      34.083  23.171  22.294  1.00  0.00    -0.482 OA
BRANCH  16  17
ATOM     17  C   UNL A   1      34.014  22.252  23.294  1.00  0.00     0.137 A 
ATOM     18  C   UNL A   1      32.792  21.563  23.299  1.00  0.00     0.048 A 
ATOM     19  C   UNL A   1      34.893  22.062  24.365  1.00  0.00     0.094 A 
ATOM     20  C   UNL A   1      32.453  20.704  24.343  1.00  0.00     0.004 A 
ATOM     21  C   UNL A   1      34.543  21.176  25.403  1.00  0.00     0.023 A 
ATOM     22  C   UNL A   1      33.328  20.502  25.397  1.00  0.00     0.002 A 
BRANCH  19  23
ATOM     23  C   UNL A   1      36.086  22.809  24.578  1.00  0.00     0.103 C 
ATOM     24  N   UNL A   1      37.117  23.338  24.722  1.00  0.00    -0.192 NA
ENDBRANCH  19  23
ENDBRANCH  16  17
ENDBRANCH  15  16
ENDBRANCH  12  15
ENDBRANCH   9  11
BRANCH   9  25
ATOM     25  C   UNL A   1      32.491  24.706  25.042  1.00  0.00     0.026 C 
ATOM     26  C   UNL A   1      33.286  25.046  26.293  1.00  0.00     0.007 C 
ATOM     27  C   UNL A   1      32.182  24.036  26.370  1.00  0.00     0.007 C 
ENDBRANCH   9  25
ENDBRANCH   7   9
ENDBRANCH   6   7
ENDBRANCH   5   6
ENDBRANCH   4   5
ENDBRANCH   3   4
ENDBRANCH   2   3
ENDBRANCH   1   2
BRANCH   1  28
ATOM     28  O   UNL A   1      34.744  32.548  27.606  1.00  0.00    -0.377 OA
BRANCH  28  29
ATOM     29  C   UNL A   1      34.571  33.902  27.986  1.00  0.00     0.188 C 
BRANCH  29  30
ATOM     30  C   UNL A   1      33.807  34.209  29.288  1.00  0.00     0.188 C 
BRANCH  30  31
ATOM     31  O   UNL A   1      34.568  34.858  30.291  1.00  0.00    -0.376 OA
BRANCH  31  32
ATOM     32  C   UNL A   1      34.140  34.893  31.638  1.00  0.00     0.202 C 
BRANCH  32  33
ATOM     33  C   UNL A   1      34.788  34.002  32.713  1.00  0.00     0.261 C 
BRANCH  33  34
ATOM     34  O   UNL A   1      36.034  33.367  32.400  1.00  0.00    -0.460 OA
BRANCH  34  35
ATOM     35  C   UNL A   1      35.997  32.119  31.882  1.00  0.00     0.338 C 
ATOM     36  O   UNL A   1      35.090  31.632  31.235  1.00  0.00    -0.246 OA
BRANCH  35  37
ATOM     37  C   UNL A   1      37.346  31.525  32.052  1.00  0.00     0.060 A 
ATOM     38  C   UNL A   1      38.451  32.134  31.438  1.00  0.00     0.016 A 
ATOM     39  C   UNL A   1      37.523  30.377  32.827  1.00  0.00     0.016 A 
ATOM     40  C   UNL A   1      39.727  31.588  31.578  1.00  0.00     0.010 A 
ATOM     41  C   UNL A   1      38.798  29.811  32.937  1.00  0.00     0.010 A 
ATOM     42  C   UNL A   1      39.902  30.399  32.291  1.00  0.00    -0.014 A 
BRANCH  42  43
ATOM     43  C   UNL A   1      41.202  29.682  32.226  1.00  0.00     0.031 A 
ATOM     44  C   UNL A   1      42.233  29.973  33.277  1.00  0.00     0.074 A 
ATOM     45  C   UNL A   1      41.454  28.767  31.273  1.00  0.00     0.049 A 
ATOM     46  N   UNL A   1      43.463  29.543  33.367  1.00  0.00    -0.248 NA
ATOM     47  C   UNL A   1      41.817  30.855  34.378  1.00  0.00     0.031 C 
ATOM     48  C   UNL A   1      40.490  28.314  30.277  1.00  0.00     0.029 A 
ATOM     49  N   UNL A   1      42.594  28.061  30.975  1.00  0.00    -0.354 N 
ATOM     50  C   UNL A   1      43.972  30.103  34.532  1.00  0.00     0.074 A 
ATOM     51  C   UNL A   1      42.928  30.930  35.097  1.00  0.00     0.031 C 
ATOM     52  C   UNL A   1      41.090  27.444  29.447  1.00  0.00     0.029 A 
ATOM     53  C   UNL A   1      42.491  27.309  29.826  1.00  0.00     0.049 A 
ATOM     54  H   UNL A   1      43.406  28.091  31.530  1.00  0.00     0.167 HD
ATOM     55  C   UNL A   1      45.200  29.932  35.079  1.00  0.00     0.034 A 
ATOM     56  C   UNL A   1      43.426  26.622  29.137  1.00  0.00     0.034 A 
ATOM     57  C   UNL A   1      46.228  29.108  34.495  1.00  0.00     0.049 A 
ATOM     58  C   UNL A   1      44.829  26.564  29.693  1.00  0.00     0.074 A 
ATOM     59  C   UNL A   1      47.500  28.855  34.977  1.00  0.00     0.029 A 
ATOM     60  N   UNL A   1      46.116  28.419  33.294  1.00  0.00    -0.354 N 
ATOM     61  N   UNL A   1      45.298  27.094  30.801  1.00  0.00    -0.248 NA
ATOM     62  C   UNL A   1      45.822  25.803  28.924  1.00  0.00     0.031 C 
ATOM     63  C   UNL A   1      48.188  28.101  34.024  1.00  0.00     0.029 A 
ATOM     64  C   UNL A   1      47.313  27.788  32.995  1.00  0.00     0.049 A 
ATOM     65  H   UNL A   1      45.305  28.385  32.736  1.00  0.00     0.167 HD
ATOM     66  C   UNL A   1      46.628  26.689  30.881  1.00  0.00     0.074 A 
ATOM     67  C   UNL A   1      46.879  25.860  29.720  1.00  0.00     0.031 C 
ATOM     68  C   UNL A   1      47.555  26.971  31.830  1.00  0.00     0.034 A 
BRANCH  55  69
ATOM     69  C   UNL A   1      45.519  30.697  36.337  1.00  0.00     0.023 A 
ATOM     70  C   UNL A   1      45.355  30.134  37.615  1.00  0.00     0.031 A 
ATOM     71  C   UNL A   1      46.011  32.011  36.251  1.00  0.00     0.131 A 
ATOM     72  C   UNL A   1      45.637  30.902  38.754  1.00  0.00     0.055 A 
ATOM     73  C   UNL A   1      46.366  32.740  37.386  1.00  0.00     0.041 A 
ATOM     74  F   UNL A   1      46.155  32.609  35.058  1.00  0.00    -0.206 F 
ATOM     75  C   UNL A   1      46.171  32.189  38.648  1.00  0.00     0.022 A 
BRANCH  72  76
ATOM     76  S   UNL A   1      45.178  30.242  40.380  1.00  0.00     0.124 S 
ATOM     77  O   UNL A   1      46.325  30.640  41.194  1.00  0.00    -0.237 OA
ATOM     78  O   UNL A   1      43.926  30.936  40.659  1.00  0.00    -0.237 OA
ATOM     79  O   UNL A   1      45.058  28.805  40.145  1.00  0.00    -0.744 OA
ENDBRANCH  72  76
ENDBRANCH  55  69
BRANCH  56  80
ATOM     80  C   UNL A   1      43.102  25.979  27.829  1.00  0.00     0.023 A 
ATOM     81  C   UNL A   1      42.561  24.685  27.770  1.00  0.00     0.031 A 
ATOM     82  C   UNL A   1      43.422  26.610  26.612  1.00  0.00     0.131 A 
ATOM     83  C   UNL A   1      42.428  24.035  26.533  1.00  0.00     0.055 A 
ATOM     84  C   UNL A   1      43.221  25.986  25.378  1.00  0.00     0.041 A 
ATOM     85  F   UNL A   1      43.946  27.847  26.602  1.00  0.00    -0.206 F 
ATOM     86  C   UNL A   1      42.740  24.681  25.336  1.00  0.00     0.022 A 
BRANCH  83  87
ATOM     87  S   UNL A   1      41.977  22.279  26.527  1.00  0.00     0.124 S 
ATOM     88  O   UNL A   1      40.520  22.350  26.494  1.00  0.00    -0.237 OA
ATOM     89  O   UNL A   1      42.625  21.806  25.308  1.00  0.00    -0.237 OA
ATOM     90  O   UNL A   1      42.550  21.776  27.773  1.00  0.00    -0.744 OA
ENDBRANCH  83  87
ENDBRANCH  56  80
BRANCH  68  91
ATOM     91  C   UNL A   1      48.917  26.335  31.677  1.00  0.00     0.023 A 
ATOM     92  C   UNL A   1      49.247  25.131  32.321  1.00  0.00     0.031 A 
ATOM     93  C   UNL A   1      49.901  26.951  30.884  1.00  0.00     0.131 A 
ATOM     94  C   UNL A   1      50.549  24.617  32.214  1.00  0.00     0.055 A 
ATOM     95  C   UNL A   1      51.168  26.393  30.716  1.00  0.00     0.041 A 
ATOM     96  F   UNL A   1      49.645  28.108  30.251  1.00  0.00    -0.206 F 
ATOM     97  C   UNL A   1      51.503  25.226  31.396  1.00  0.00     0.022 A 
BRANCH  94  98
ATOM     98  S   UNL A   1      51.011  23.208  33.257  1.00  0.00     0.124 S 
ATOM     99  O   UNL A   1      51.379  22.205  32.264  1.00  0.00    -0.237 OA
ATOM    100  O   UNL A   1      52.110  23.753  34.049  1.00  0.00    -0.237 OA
ATOM    101  O   UNL A   1      49.790  22.922  34.008  1.00  0.00    -0.744 OA
ENDBRANCH  94  98
ENDBRANCH  68  91
ENDBRANCH  42  43
ENDBRANCH  35  37
ENDBRANCH  34  35
ENDBRANCH  33  34
ENDBRANCH  32  33
ENDBRANCH  31  32
ENDBRANCH  30  31
ENDBRANCH  29  30
ENDBRANCH  28  29
ENDBRANCH   1  28
TORSDOF 29
ENDMDL
MODEL 3
REMARK VINA RESULT:      -8.3      4.604      9.956
REMARK SMILES C[C@@](NC(=O)COc1ccccc1C#N)(C(=O)OCCOCCOCCOCCOC(=O)c1ccc(-c2c3nc(c(-c4cc(S(=O)(=O)[O-])ccc4F)c4ccc([nH]4)c(-c4cc(S(=O)(=O)[O-])ccc4F)c4nc(c(-c5cc(S(=O)(=O)[O-])ccc5F)c5ccc2[nH]5)C=C4)C=C3)cc1)C1CC1
REMARK SMILES IDX 23 1 22 2 21 3 20 4 19 5 18 6 16 7 17 8 2 9 1 10 3 11 4 12
REMARK SMILES IDX 5 14 6 15 7 16 8 17 9 18 13 19 10 20 12 21 11 22 14 23 15 24
REMARK SMILES IDX 96 25 97 26 98 27 24 28 25 29 26 30 27 31 28 32 29 33 30 34
REMARK SMILES IDX 31 35 32 36 33 37 34 38 95 39 35 40 94 41 36 42 37 43 38 44
REMARK SMILES IDX 88 45 39 46 93 47 87 48 89 49 40 50 92 51 86 52 85 53 41 55
REMARK SMILES IDX 73 56 53 57 72 58 54 59 57 60 71 61 90 62 55 63 56 64 70 66
REMARK SMILES IDX 91 67 58 68 42 69 43 70 51 71 44 72 50 73 52 74 49 75 45 76
REMARK SMILES IDX 46 77 47 78 48 79 74 80 75 81 83 82 76 83 82 84 84 85 81 86
REMARK SMILES IDX 77 87 78 88 79 89 80 90 59 91 60 92 68 93 61 94 67 95 69 96
REMARK SMILES IDX 66 97 62 98 63 99 64 100 65 101
REMARK H PARENT 3 13 89 54 57 65
REMARK Flexibility Score: inf
ROOT
ATOM      1  C   UNL A   1      34.047  30.446  27.716  1.00  0.00     0.188 C 
ENDROOT
BRANCH   1   2
ATOM      2  C   UNL A   1      33.449  29.863  26.416  1.00  0.00     0.188 C 
BRANCH   2   3
ATOM      3  O   UNL A   1      32.292  30.443  25.849  1.00  0.00    -0.376 OA
BRANCH   3   4
ATOM      4  C   UNL A   1      31.379  29.686  25.073  1.00  0.00     0.202 C 
BRANCH   4   5
ATOM      5  C   UNL A   1      31.292  28.156  25.061  1.00  0.00     0.261 C 
BRANCH   5   6
ATOM      6  O   UNL A   1      31.902  27.468  23.968  1.00  0.00    -0.461 OA
BRANCH   6   7
ATOM      7  C   UNL A   1      31.462  26.226  23.677  1.00  0.00     0.331 C 
ATOM      8  O   UNL A   1      30.379  25.996  23.146  1.00  0.00    -0.249 OA
BRANCH   7   9
ATOM      9  C   UNL A   1      32.428  25.114  24.198  1.00  0.00     0.138 C 
ATOM     10  C   UNL A   1      33.893  25.465  24.510  1.00  0.00     0.048 C 
BRANCH   9  11
ATOM     11  N   UNL A   1      31.783  24.636  25.450  1.00  0.00    -0.337 N 
ATOM     12  C   UNL A   1      32.221  23.925  26.526  1.00  0.00     0.258 C 
ATOM     13  H   UNL A   1      30.834  24.888  25.516  1.00  0.00     0.164 HD
ATOM     14  O   UNL A   1      31.407  23.762  27.442  1.00  0.00    -0.271 OA
BRANCH  12  15
ATOM     15  C   UNL A   1      33.670  23.444  26.715  1.00  0.00     0.329 C 
BRANCH  15  16
ATOM     16  O   UNL A   1      33.984  22.109  27.024  1.00  0.00    -0.482 OA
BRANCH  16  17
ATOM     17  C   UNL A   1      34.157  21.131  26.096  1.00  0.00     0.137 A 
ATOM     18  C   UNL A   1      33.029  20.305  25.979  1.00  0.00     0.048 A 
ATOM     19  C   UNL A   1      35.327  20.764  25.424  1.00  0.00     0.094 A 
ATOM     20  C   UNL A   1      33.064  19.142  25.211  1.00  0.00     0.004 A 
ATOM     21  C   UNL A   1      35.339  19.596  24.636  1.00  0.00     0.023 A 
ATOM     22  C   UNL A   1      34.216  18.784  24.532  1.00  0.00     0.002 A 
BRANCH  19  23
ATOM     23  C   UNL A   1      36.587  21.409  25.577  1.00  0.00     0.103 C 
ATOM     24  N   UNL A   1      37.568  22.023  25.729  1.00  0.00    -0.192 NA
ENDBRANCH  19  23
ENDBRANCH  16  17
ENDBRANCH  15  16
ENDBRANCH  12  15
ENDBRANCH   9  11
BRANCH   9  25
ATOM     25  C   UNL A   1      32.321  23.905  23.224  1.00  0.00     0.026 C 
ATOM     26  C   UNL A   1      33.144  23.734  21.957  1.00  0.00     0.007 C 
ATOM     27  C   UNL A   1      33.330  22.775  23.094  1.00  0.00     0.007 C 
ENDBRANCH   9  25
ENDBRANCH   7   9
ENDBRANCH   6   7
ENDBRANCH   5   6
ENDBRANCH   4   5
ENDBRANCH   3   4
ENDBRANCH   2   3
ENDBRANCH   1   2
BRANCH   1  28
ATOM     28  O   UNL A   1      35.196  31.252  27.565  1.00  0.00    -0.377 OA
BRANCH  28  29
ATOM     29  C   UNL A   1      35.607  32.031  28.676  1.00  0.00     0.188 C 
BRANCH  29  30
ATOM     30  C   UNL A   1      36.295  33.384  28.411  1.00  0.00     0.188 C 
BRANCH  30  31
ATOM     31  O   UNL A   1      35.531  34.523  28.765  1.00  0.00    -0.376 OA
BRANCH  31  32
ATOM     32  C   UNL A   1      34.399  34.917  28.016  1.00  0.00     0.202 C 
BRANCH  32  33
ATOM     33  C   UNL A   1      33.165  35.546  28.688  1.00  0.00     0.261 C 
BRANCH  33  34
ATOM     34  O   UNL A   1      32.642  34.913  29.863  1.00  0.00    -0.460 OA
BRANCH  34  35
ATOM     35  C   UNL A   1      32.687  35.599  31.027  1.00  0.00     0.338 C 
ATOM     36  O   UNL A   1      31.822  36.331  31.467  1.00  0.00    -0.246 OA
BRANCH  35  37
ATOM     37  C   UNL A   1      33.880  35.132  31.775  1.00  0.00     0.060 A 
ATOM     38  C   UNL A   1      34.589  36.037  32.579  1.00  0.00     0.016 A 
ATOM     39  C   UNL A   1      34.291  33.800  31.693  1.00  0.00     0.016 A 
ATOM     40  C   UNL A   1      35.718  35.620  33.286  1.00  0.00     0.010 A 
ATOM     41  C   UNL A   1      35.444  33.393  32.373  1.00  0.00     0.010 A 
ATOM     42  C   UNL A   1      36.179  34.307  33.152  1.00  0.00    -0.014 A 
BRANCH  42  43
ATOM     43  C   UNL A   1      37.512  33.933  33.690  1.00  0.00     0.031 A 
ATOM     44  C   UNL A   1      37.647  33.692  35.165  1.00  0.00     0.074 A 
ATOM     45  C   UNL A   1      38.578  33.778  32.883  1.00  0.00     0.049 A 
ATOM     46  N   UNL A   1      38.722  33.451  35.866  1.00  0.00    -0.248 NA
ATOM     47  C   UNL A   1      36.403  33.714  35.950  1.00  0.00     0.031 C 
ATOM     48  C   UNL A   1      38.541  33.866  31.428  1.00  0.00     0.029 A 
ATOM     49  N   UNL A   1      39.898  33.527  33.167  1.00  0.00    -0.354 N 
ATOM     50  C   UNL A   1      38.288  33.294  37.176  1.00  0.00     0.074 A 
ATOM     51  C   UNL A   1      36.856  33.500  37.176  1.00  0.00     0.031 C 
ATOM     52  C   UNL A   1      39.788  33.721  30.948  1.00  0.00     0.029 A 
ATOM     53  C   UNL A   1      40.717  33.572  32.061  1.00  0.00     0.049 A 
ATOM     54  H   UNL A   1      40.227  33.334  34.075  1.00  0.00     0.167 HD
ATOM     55  C   UNL A   1      39.023  32.996  38.275  1.00  0.00     0.034 A 
ATOM     56  C   UNL A   1      42.062  33.535  31.960  1.00  0.00     0.034 A 
ATOM     57  C   UNL A   1      40.451  32.801  38.252  1.00  0.00     0.049 A 
ATOM     58  C   UNL A   1      42.872  33.347  33.220  1.00  0.00     0.074 A 
ATOM     59  C   UNL A   1      41.288  32.482  39.307  1.00  0.00     0.029 A 
ATOM     60  N   UNL A   1      41.259  32.926  37.129  1.00  0.00    -0.354 N 
ATOM     61  N   UNL A   1      42.449  33.194  34.455  1.00  0.00    -0.248 NA
ATOM     62  C   UNL A   1      44.332  33.305  33.076  1.00  0.00     0.031 C 
ATOM     63  C   UNL A   1      42.606  32.512  38.844  1.00  0.00     0.029 A 
ATOM     64  C   UNL A   1      42.588  32.743  37.477  1.00  0.00     0.049 A 
ATOM     65  H   UNL A   1      40.935  33.116  36.219  1.00  0.00     0.167 HD
ATOM     66  C   UNL A   1      43.592  32.991  35.224  1.00  0.00     0.074 A 
ATOM     67  C   UNL A   1      44.717  33.026  34.312  1.00  0.00     0.031 C 
ATOM     68  C   UNL A   1      43.702  32.788  36.561  1.00  0.00     0.034 A 
BRANCH  55  69
ATOM     69  C   UNL A   1      38.308  32.927  39.599  1.00  0.00     0.023 A 
ATOM     70  C   UNL A   1      38.439  33.934  40.571  1.00  0.00     0.031 A 
ATOM     71  C   UNL A   1      37.470  31.835  39.886  1.00  0.00     0.131 A 
ATOM     72  C   UNL A   1      37.776  33.805  41.800  1.00  0.00     0.055 A 
ATOM     73  C   UNL A   1      36.750  31.753  41.078  1.00  0.00     0.041 A 
ATOM     74  F   UNL A   1      37.335  30.829  39.008  1.00  0.00    -0.206 F 
ATOM     75  C   UNL A   1      36.909  32.738  42.048  1.00  0.00     0.022 A 
BRANCH  72  76
ATOM     76  S   UNL A   1      38.161  34.985  43.122  1.00  0.00     0.124 S 
ATOM     77  O   UNL A   1      38.870  36.030  42.387  1.00  0.00    -0.237 OA
ATOM     78  O   UNL A   1      36.838  35.342  43.621  1.00  0.00    -0.237 OA
ATOM     79  O   UNL A   1      38.989  34.209  44.044  1.00  0.00    -0.744 OA
ENDBRANCH  72  76
ENDBRANCH  55  69
BRANCH  56  80
ATOM     80  C   UNL A   1      42.741  33.731  30.644  1.00  0.00     0.023 A 
ATOM     81  C   UNL A   1      42.997  32.648  29.790  1.00  0.00     0.031 A 
ATOM     82  C   UNL A   1      43.235  34.994  30.264  1.00  0.00     0.131 A 
ATOM     83  C   UNL A   1      43.789  32.827  28.645  1.00  0.00     0.055 A 
ATOM     84  C   UNL A   1      43.961  35.182  29.085  1.00  0.00     0.041 A 
ATOM     85  F   UNL A   1      43.025  36.070  31.041  1.00  0.00    -0.206 F 
ATOM     86  C   UNL A   1      44.259  34.089  28.278  1.00  0.00     0.022 A 
BRANCH  83  87
ATOM     87  S   UNL A   1      44.312  31.358  27.720  1.00  0.00     0.124 S 
ATOM     88  O   UNL A   1      45.753  31.366  27.948  1.00  0.00    -0.237 OA
ATOM     89  O   UNL A   1      43.562  30.299  28.387  1.00  0.00    -0.237 OA
ATOM     90  O   UNL A   1      43.894  31.652  26.351  1.00  0.00    -0.744 OA
ENDBRANCH  83  87
ENDBRANCH  56  80
BRANCH  68  91
ATOM     91  C   UNL A   1      45.087  32.538  37.111  1.00  0.00     0.023 A 
ATOM     92  C   UNL A   1      45.894  33.586  37.584  1.00  0.00     0.031 A 
ATOM     93  C   UNL A   1      45.609  31.233  37.150  1.00  0.00     0.131 A 
ATOM     94  C   UNL A   1      47.203  33.320  38.013  1.00  0.00     0.055 A 
ATOM     95  C   UNL A   1      46.882  30.964  37.653  1.00  0.00     0.041 A 
ATOM     96  F   UNL A   1      44.886  30.194  36.703  1.00  0.00    -0.206 F 
ATOM     97  C   UNL A   1      47.693  32.013  38.074  1.00  0.00     0.022 A 
BRANCH  94  98
ATOM     98  S   UNL A   1      48.298  34.719  38.373  1.00  0.00     0.124 S 
ATOM     99  O   UNL A   1      47.378  35.850  38.294  1.00  0.00    -0.237 OA
ATOM    100  O   UNL A   1      48.792  34.393  39.707  1.00  0.00    -0.237 OA
ATOM    101  O   UNL A   1      49.298  34.655  37.309  1.00  0.00    -0.744 OA
ENDBRANCH  94  98
ENDBRANCH  68  91
ENDBRANCH  42  43
ENDBRANCH  35  37
ENDBRANCH  34  35
ENDBRANCH  33  34
ENDBRANCH  32  33
ENDBRANCH  31  32
ENDBRANCH  30  31
ENDBRANCH  29  30
ENDBRANCH  28  29
ENDBRANCH   1  28
TORSDOF 29
ENDMDL
