MODEL 1
REMARK VINA RESULT:      -8.9      0.000      0.000
REMARK SMILES Cc1ccc(C)c(S(=O)(=O)[C@H](C)C(=O)OCCOCCOCCOCCOC(=O)c2ccc(-c3c4nc(c(-c5cc(S(=O)(=O)[O-])ccc5F)c5ccc([nH]5)c(-c5cc(S(=O)(=O)[O-])ccc5F)c5nc(c(-c6cc(S(=O)(=O)[O-])ccc6F)c6ccc3[nH]6)C=C5)C=C4)cc2)c1
REMARK SMILES IDX 22 1 21 2 20 3 19 4 18 5 17 6 16 7 15 8 13 9 14 10 11 11
REMARK SMILES IDX 12 12 8 13 9 14 10 15 7 16 1 17 2 18 3 19 93 20 4 21 5 22
REMARK SMILES IDX 6 23 23 24 24 25 25 26 26 27 27 28 28 29 29 30 30 31 31 32
REMARK SMILES IDX 92 33 32 34 91 35 33 36 34 37 35 38 85 39 36 40 90 41 84 42
REMARK SMILES IDX 86 43 37 44 89 45 83 46 82 47 38 49 70 50 50 51 69 52 51 53
REMARK SMILES IDX 54 54 68 55 87 56 52 57 53 58 67 60 88 61 55 62 39 63 40 64
REMARK SMILES IDX 48 65 41 66 47 67 49 68 46 69 42 70 43 71 44 72 45 73 71 74
REMARK SMILES IDX 72 75 80 76 73 77 79 78 81 79 78 80 74 81 75 82 76 83 77 84
REMARK SMILES IDX 56 85 57 86 65 87 58 88 64 89 66 90 63 91 59 92 60 93 61 94
REMARK SMILES IDX 62 95
REMARK H PARENT 86 48 54 59
REMARK Flexibility Score: inf
ROOT
ATOM      1  C   UNL A   1      36.781  30.365  27.826  1.00  0.00     0.188 C 
ENDROOT
BRANCH   1   2
ATOM      2  O   UNL A   1      35.835  29.309  27.923  1.00  0.00    -0.377 OA
BRANCH   2   3
ATOM      3  C   UNL A   1      34.876  29.373  26.895  1.00  0.00     0.188 C 
BRANCH   3   4
ATOM      4  C   UNL A   1      33.731  28.337  26.898  1.00  0.00     0.188 C 
BRANCH   4   5
ATOM      5  O   UNL A   1      32.565  28.569  26.132  1.00  0.00    -0.376 OA
BRANCH   5   6
ATOM      6  C   UNL A   1      31.664  27.666  25.520  1.00  0.00     0.202 C 
BRANCH   6   7
ATOM      7  C   UNL A   1      31.414  26.245  25.996  1.00  0.00     0.261 C 
BRANCH   7   8
ATOM      8  O   UNL A   1      30.723  25.476  25.023  1.00  0.00    -0.462 OA
BRANCH   8   9
ATOM      9  C   UNL A   1      31.346  24.296  24.765  1.00  0.00     0.324 C 
ATOM     10  O   UNL A   1      31.299  23.317  25.506  1.00  0.00    -0.251 OA
BRANCH   9  11
ATOM     11  C   UNL A   1      31.826  24.151  23.359  1.00  0.00     0.219 C 
ATOM     12  C   UNL A   1      31.742  25.344  22.374  1.00  0.00     0.038 C 
BRANCH  11  13
ATOM     13  S   UNL A   1      33.432  23.650  23.437  1.00  0.00     0.192 S 
ATOM     14  O   UNL A   1      33.924  24.710  24.299  1.00  0.00    -0.223 OA
ATOM     15  O   UNL A   1      33.839  23.584  22.041  1.00  0.00    -0.223 OA
BRANCH  13  16
ATOM     16  C   UNL A   1      33.886  22.097  24.180  1.00  0.00     0.071 A 
ATOM     17  C   UNL A   1      34.283  17.235  24.549  1.00  0.00     0.044 C 
ATOM     18  C   UNL A   1      34.337  18.835  24.516  1.00  0.00    -0.050 A 
ATOM     19  C   UNL A   1      36.015  19.184  24.853  1.00  0.00     0.004 A 
ATOM     20  C   UNL A   1      33.077  20.507  24.262  1.00  0.00     0.024 A 
ATOM     21  C   UNL A   1      36.534  20.742  24.772  1.00  0.00     0.005 A 
ATOM     22  C   UNL A   1      35.582  22.080  24.342  1.00  0.00    -0.032 A 
ATOM     23  C   UNL A   1      36.334  23.143  23.559  1.00  0.00     0.046 C 
ENDBRANCH  13  16
ENDBRANCH  11  13
ENDBRANCH   9  11
ENDBRANCH   8   9
ENDBRANCH   7   8
ENDBRANCH   6   7
ENDBRANCH   5   6
ENDBRANCH   4   5
ENDBRANCH   3   4
ENDBRANCH   2   3
ENDBRANCH   1   2
BRANCH   1  24
ATOM     24  C   UNL A   1      37.508  30.821  29.127  1.00  0.00     0.188 C 
BRANCH  24  25
ATOM     25  O   UNL A   1      38.342  31.983  29.066  1.00  0.00    -0.376 OA
BRANCH  25  26
ATOM     26  C   UNL A   1      37.951  33.265  29.518  1.00  0.00     0.202 C 
BRANCH  26  27
ATOM     27  C   UNL A   1      37.832  33.245  30.997  1.00  0.00     0.261 C 
BRANCH  27  28
ATOM     28  O   UNL A   1      36.501  32.834  31.492  1.00  0.00    -0.460 OA
BRANCH  28  29
ATOM     29  C   UNL A   1      36.179  32.299  32.729  1.00  0.00     0.338 C 
ATOM     30  O   UNL A   1      35.217  32.736  33.353  1.00  0.00    -0.246 OA
BRANCH  29  31
ATOM     31  C   UNL A   1      37.014  31.143  33.267  1.00  0.00     0.060 A 
ATOM     32  C   UNL A   1      37.834  31.273  34.383  1.00  0.00     0.016 A 
ATOM     33  C   UNL A   1      37.210  29.999  32.500  1.00  0.00     0.016 A 
ATOM     34  C   UNL A   1      39.053  30.523  34.417  1.00  0.00     0.010 A 
ATOM     35  C   UNL A   1      38.479  29.354  32.468  1.00  0.00     0.010 A 
ATOM     36  C   UNL A   1      39.526  29.740  33.294  1.00  0.00    -0.014 A 
BRANCH  36  37
ATOM     37  C   UNL A   1      40.938  28.974  33.260  1.00  0.00     0.031 A 
ATOM     38  C   UNL A   1      41.494  29.707  32.033  1.00  0.00     0.074 A 
ATOM     39  C   UNL A   1      41.655  27.941  33.940  1.00  0.00     0.049 A 
ATOM     40  N   UNL A   1      41.599  29.240  30.824  1.00  0.00    -0.248 NA
ATOM     41  C   UNL A   1      41.389  31.195  32.064  1.00  0.00     0.031 C 
ATOM     42  C   UNL A   1      41.404  26.863  34.982  1.00  0.00     0.029 A 
ATOM     43  N   UNL A   1      42.942  27.455  33.589  1.00  0.00    -0.354 N 
ATOM     44  C   UNL A   1      41.708  30.368  29.995  1.00  0.00     0.074 A 
ATOM     45  C   UNL A   1      41.364  31.519  30.774  1.00  0.00     0.031 C 
ATOM     46  C   UNL A   1      42.508  26.050  35.199  1.00  0.00     0.029 A 
ATOM     47  C   UNL A   1      43.658  26.487  34.393  1.00  0.00     0.049 A 
ATOM     48  H   UNL A   1      43.364  27.791  32.765  1.00  0.00     0.167 HD
ATOM     49  C   UNL A   1      42.524  30.349  28.912  1.00  0.00     0.034 A 
ATOM     50  C   UNL A   1      44.838  25.746  34.111  1.00  0.00     0.034 A 
ATOM     51  C   UNL A   1      42.314  29.122  28.123  1.00  0.00     0.049 A 
ATOM     52  C   UNL A   1      45.113  25.814  32.607  1.00  0.00     0.074 A 
ATOM     53  C   UNL A   1      41.405  28.622  27.200  1.00  0.00     0.029 A 
ATOM     54  N   UNL A   1      42.645  27.967  28.776  1.00  0.00    -0.354 N 
ATOM     55  N   UNL A   1      44.729  24.686  31.423  1.00  0.00    -0.248 NA
ATOM     56  C   UNL A   1      44.919  27.598  31.840  1.00  0.00     0.031 C 
ATOM     57  C   UNL A   1      41.498  27.157  27.233  1.00  0.00     0.029 A 
ATOM     58  C   UNL A   1      42.504  26.775  28.126  1.00  0.00     0.049 A 
ATOM     59  H   UNL A   1      42.979  27.994  29.702  1.00  0.00     0.167 HD
ATOM     60  C   UNL A   1      44.171  25.639  29.721  1.00  0.00     0.074 A 
ATOM     61  C   UNL A   1      44.519  27.504  30.311  1.00  0.00     0.031 C 
ATOM     62  C   UNL A   1      43.139  25.516  28.695  1.00  0.00     0.034 A 
BRANCH  49  63
ATOM     63  C   UNL A   1      43.868  31.126  29.126  1.00  0.00     0.023 A 
ATOM     64  C   UNL A   1      44.512  31.070  30.362  1.00  0.00     0.031 A 
ATOM     65  C   UNL A   1      44.467  32.075  28.219  1.00  0.00     0.131 A 
ATOM     66  C   UNL A   1      45.624  31.914  30.641  1.00  0.00     0.055 A 
ATOM     67  C   UNL A   1      45.613  32.832  28.464  1.00  0.00     0.041 A 
ATOM     68  F   UNL A   1      43.933  32.435  27.053  1.00  0.00    -0.206 F 
ATOM     69  C   UNL A   1      46.196  32.768  29.697  1.00  0.00     0.022 A 
BRANCH  66  70
ATOM     70  S   UNL A   1      46.226  32.012  32.341  1.00  0.00     0.124 S 
ATOM     71  O   UNL A   1      47.644  32.268  32.127  1.00  0.00    -0.237 OA
ATOM     72  O   UNL A   1      45.433  33.117  32.868  1.00  0.00    -0.237 OA
ATOM     73  O   UNL A   1      45.904  30.698  32.895  1.00  0.00    -0.744 OA
ENDBRANCH  66  70
ENDBRANCH  49  63
BRANCH  50  74
ATOM     74  C   UNL A   1      46.045  25.451  35.115  1.00  0.00     0.023 A 
ATOM     75  C   UNL A   1      47.384  26.042  35.249  1.00  0.00     0.031 A 
ATOM     76  C   UNL A   1      45.716  24.583  36.173  1.00  0.00     0.131 A 
ATOM     77  C   UNL A   1      48.214  25.778  36.421  1.00  0.00     0.055 A 
ATOM     78  C   UNL A   1      46.502  24.378  37.312  1.00  0.00     0.041 A 
ATOM     79  F   UNL A   1      44.565  23.902  36.168  1.00  0.00    -0.206 F 
ATOM     80  C   UNL A   1      47.730  24.984  37.457  1.00  0.00     0.022 A 
BRANCH  77  81
ATOM     81  S   UNL A   1      49.960  26.401  36.737  1.00  0.00     0.124 S 
ATOM     82  O   UNL A   1      49.752  27.513  37.656  1.00  0.00    -0.237 OA
ATOM     83  O   UNL A   1      50.646  25.230  37.263  1.00  0.00    -0.237 OA
ATOM     84  O   UNL A   1      50.427  26.816  35.407  1.00  0.00    -0.744 OA
ENDBRANCH  77  81
ENDBRANCH  50  74
BRANCH  62  85
ATOM     85  C   UNL A   1      42.822  24.185  27.979  1.00  0.00     0.023 A 
ATOM     86  C   UNL A   1      43.697  23.273  27.310  1.00  0.00     0.031 A 
ATOM     87  C   UNL A   1      41.456  23.898  27.875  1.00  0.00     0.131 A 
ATOM     88  C   UNL A   1      43.193  22.399  26.303  1.00  0.00     0.055 A 
ATOM     89  C   UNL A   1      40.962  22.929  27.002  1.00  0.00     0.041 A 
ATOM     90  F   UNL A   1      40.563  24.577  28.611  1.00  0.00    -0.206 F 
ATOM     91  C   UNL A   1      41.822  22.243  26.156  1.00  0.00     0.022 A 
BRANCH  88  92
ATOM     92  S   UNL A   1      44.187  21.519  24.995  1.00  0.00     0.124 S 
ATOM     93  O   UNL A   1      43.939  22.328  23.803  1.00  0.00    -0.237 OA
ATOM     94  O   UNL A   1      45.553  21.501  25.500  1.00  0.00    -0.237 OA
ATOM     95  O   UNL A   1      43.556  20.201  24.935  1.00  0.00    -0.744 OA
ENDBRANCH  88  92
ENDBRANCH  62  85
ENDBRANCH  36  37
ENDBRANCH  29  31
ENDBRANCH  28  29
ENDBRANCH  27  28
ENDBRANCH  26  27
ENDBRANCH  25  26
ENDBRANCH  24  25
ENDBRANCH   1  24
TORSDOF 25
ENDMDL
MODEL 2
REMARK VINA RESULT:      -8.8      1.529      2.105
REMARK SMILES Cc1ccc(C)c(S(=O)(=O)[C@H](C)C(=O)OCCOCCOCCOCCOC(=O)c2ccc(-c3c4nc(c(-c5cc(S(=O)(=O)[O-])ccc5F)c5ccc([nH]5)c(-c5cc(S(=O)(=O)[O-])ccc5F)c5nc(c(-c6cc(S(=O)(=O)[O-])ccc6F)c6ccc3[nH]6)C=C5)C=C4)cc2)c1
REMARK SMILES IDX 22 1 21 2 20 3 19 4 18 5 17 6 16 7 15 8 13 9 14 10 11 11
REMARK SMILES IDX 12 12 8 13 9 14 10 15 7 16 1 17 2 18 3 19 93 20 4 21 5 22
REMARK SMILES IDX 6 23 23 24 24 25 25 26 26 27 27 28 28 29 29 30 30 31 31 32
REMARK SMILES IDX 92 33 32 34 91 35 33 36 34 37 35 38 85 39 36 40 90 41 84 42
REMARK SMILES IDX 86 43 37 44 89 45 83 46 82 47 38 49 70 50 50 51 69 52 51 53
REMARK SMILES IDX 54 54 68 55 87 56 52 57 53 58 67 60 88 61 55 62 39 63 40 64
REMARK SMILES IDX 48 65 41 66 47 67 49 68 46 69 42 70 43 71 44 72 45 73 71 74
REMARK SMILES IDX 72 75 80 76 73 77 79 78 81 79 78 80 74 81 75 82 76 83 77 84
REMARK SMILES IDX 56 85 57 86 65 87 58 88 64 89 66 90 63 91 59 92 60 93 61 94
REMARK SMILES IDX 62 95
REMARK H PARENT 86 48 54 59
REMARK Flexibility Score: inf
ROOT
ATOM      1  C   UNL A   1      36.546  30.437  27.626  1.00  0.00     0.188 C 
ENDROOT
BRANCH   1   2
ATOM      2  O   UNL A   1      35.643  29.343  27.715  1.00  0.00    -0.377 OA
BRANCH   2   3
ATOM      3  C   UNL A   1      34.400  29.646  27.130  1.00  0.00     0.188 C 
BRANCH   3   4
ATOM      4  C   UNL A   1      33.288  28.575  27.181  1.00  0.00     0.188 C 
BRANCH   4   5
ATOM      5  O   UNL A   1      32.338  28.490  26.136  1.00  0.00    -0.376 OA
BRANCH   5   6
ATOM      6  C   UNL A   1      31.600  27.389  25.644  1.00  0.00     0.202 C 
BRANCH   6   7
ATOM      7  C   UNL A   1      31.464  26.055  26.358  1.00  0.00     0.261 C 
BRANCH   7   8
ATOM      8  O   UNL A   1      30.897  25.060  25.519  1.00  0.00    -0.462 OA
BRANCH   8   9
ATOM      9  C   UNL A   1      31.767  24.049  25.263  1.00  0.00     0.324 C 
ATOM     10  O   UNL A   1      32.535  23.575  26.097  1.00  0.00    -0.251 OA
BRANCH   9  11
ATOM     11  C   UNL A   1      31.503  23.321  23.986  1.00  0.00     0.219 C 
ATOM     12  C   UNL A   1      30.261  23.668  23.128  1.00  0.00     0.038 C 
BRANCH  11  13
ATOM     13  S   UNL A   1      32.872  23.509  23.022  1.00  0.00     0.192 S 
ATOM     14  O   UNL A   1      32.696  24.915  22.706  1.00  0.00    -0.223 OA
ATOM     15  O   UNL A   1      32.707  22.494  21.991  1.00  0.00    -0.223 OA
BRANCH  13  16
ATOM     16  C   UNL A   1      34.511  23.307  23.686  1.00  0.00     0.071 A 
ATOM     17  C   UNL A   1      38.246  24.079  26.751  1.00  0.00     0.044 C 
ATOM     18  C   UNL A   1      37.083  23.631  25.745  1.00  0.00    -0.050 A 
ATOM     19  C   UNL A   1      37.112  21.889  25.853  1.00  0.00     0.004 A 
ATOM     20  C   UNL A   1      35.682  24.452  24.400  1.00  0.00     0.024 A 
ATOM     21  C   UNL A   1      35.957  21.024  25.062  1.00  0.00     0.005 A 
ATOM     22  C   UNL A   1      34.679  21.679  24.159  1.00  0.00    -0.032 A 
ATOM     23  C   UNL A   1      33.391  20.877  24.246  1.00  0.00     0.046 C 
ENDBRANCH  13  16
ENDBRANCH  11  13
ENDBRANCH   9  11
ENDBRANCH   8   9
ENDBRANCH   7   8
ENDBRANCH   6   7
ENDBRANCH   5   6
ENDBRANCH   4   5
ENDBRANCH   3   4
ENDBRANCH   2   3
ENDBRANCH   1   2
BRANCH   1  24
ATOM     24  C   UNL A   1      37.400  30.789  28.882  1.00  0.00     0.188 C 
BRANCH  24  25
ATOM     25  O   UNL A   1      38.305  31.894  28.799  1.00  0.00    -0.376 OA
BRANCH  25  26
ATOM     26  C   UNL A   1      38.049  33.173  29.344  1.00  0.00     0.202 C 
BRANCH  26  27
ATOM     27  C   UNL A   1      37.853  33.048  30.810  1.00  0.00     0.261 C 
BRANCH  27  28
ATOM     28  O   UNL A   1      36.508  32.579  31.203  1.00  0.00    -0.460 OA
BRANCH  28  29
ATOM     29  C   UNL A   1      36.124  31.993  32.399  1.00  0.00     0.338 C 
ATOM     30  O   UNL A   1      35.095  32.358  32.958  1.00  0.00    -0.246 OA
BRANCH  29  31
ATOM     31  C   UNL A   1      36.982  30.870  32.973  1.00  0.00     0.060 A 
ATOM     32  C   UNL A   1      37.776  31.043  34.102  1.00  0.00     0.016 A 
ATOM     33  C   UNL A   1      37.226  29.720  32.230  1.00  0.00     0.016 A 
ATOM     34  C   UNL A   1      39.016  30.329  34.172  1.00  0.00     0.010 A 
ATOM     35  C   UNL A   1      38.514  29.111  32.233  1.00  0.00     0.010 A 
ATOM     36  C   UNL A   1      39.533  29.542  33.072  1.00  0.00    -0.014 A 
BRANCH  36  37
ATOM     37  C   UNL A   1      40.966  28.816  33.078  1.00  0.00     0.031 A 
ATOM     38  C   UNL A   1      41.522  29.539  31.845  1.00  0.00     0.074 A 
ATOM     39  C   UNL A   1      41.701  27.819  33.793  1.00  0.00     0.049 A 
ATOM     40  N   UNL A   1      41.661  29.049  30.648  1.00  0.00    -0.248 NA
ATOM     41  C   UNL A   1      41.374  31.024  31.841  1.00  0.00     0.031 C 
ATOM     42  C   UNL A   1      41.463  26.758  34.854  1.00  0.00     0.029 A 
ATOM     43  N   UNL A   1      43.007  27.364  33.473  1.00  0.00    -0.354 N 
ATOM     44  C   UNL A   1      41.752  30.162  29.796  1.00  0.00     0.074 A 
ATOM     45  C   UNL A   1      41.361  31.319  30.544  1.00  0.00     0.031 C 
ATOM     46  C   UNL A   1      42.586  25.983  35.107  1.00  0.00     0.029 A 
ATOM     47  C   UNL A   1      43.737  26.435  34.310  1.00  0.00     0.049 A 
ATOM     48  H   UNL A   1      43.434  27.694  32.649  1.00  0.00     0.167 HD
ATOM     49  C   UNL A   1      42.586  30.143  28.728  1.00  0.00     0.034 A 
ATOM     50  C   UNL A   1      44.942  25.723  34.064  1.00  0.00     0.034 A 
ATOM     51  C   UNL A   1      42.425  28.894  27.962  1.00  0.00     0.049 A 
ATOM     52  C   UNL A   1      45.241  25.767  32.564  1.00  0.00     0.074 A 
ATOM     53  C   UNL A   1      41.546  28.348  27.036  1.00  0.00     0.029 A 
ATOM     54  N   UNL A   1      42.777  27.763  28.646  1.00  0.00    -0.354 N 
ATOM     55  N   UNL A   1      44.910  24.603  31.398  1.00  0.00    -0.248 NA
ATOM     56  C   UNL A   1      45.009  27.527  31.755  1.00  0.00     0.031 C 
ATOM     57  C   UNL A   1      41.681  26.887  27.102  1.00  0.00     0.029 A 
ATOM     58  C   UNL A   1      42.683  26.554  28.020  1.00  0.00     0.049 A 
ATOM     59  H   UNL A   1      43.095  27.820  29.576  1.00  0.00     0.167 HD
ATOM     60  C   UNL A   1      44.354  25.502  29.667  1.00  0.00     0.074 A 
ATOM     61  C   UNL A   1      44.637  27.389  30.222  1.00  0.00     0.031 C 
ATOM     62  C   UNL A   1      43.344  25.327  28.627  1.00  0.00     0.034 A 
BRANCH  49  63
ATOM     63  C   UNL A   1      43.903  30.964  28.946  1.00  0.00     0.023 A 
ATOM     64  C   UNL A   1      44.508  31.605  27.864  1.00  0.00     0.031 A 
ATOM     65  C   UNL A   1      44.703  31.002  30.146  1.00  0.00     0.131 A 
ATOM     66  C   UNL A   1      45.797  32.192  27.996  1.00  0.00     0.055 A 
ATOM     67  C   UNL A   1      45.926  31.660  30.295  1.00  0.00     0.041 A 
ATOM     68  F   UNL A   1      44.426  30.316  31.253  1.00  0.00    -0.206 F 
ATOM     69  C   UNL A   1      46.495  32.251  29.204  1.00  0.00     0.022 A 
BRANCH  66  70
ATOM     70  S   UNL A   1      46.650  32.742  26.502  1.00  0.00     0.124 S 
ATOM     71  O   UNL A   1      47.433  33.859  27.015  1.00  0.00    -0.237 OA
ATOM     72  O   UNL A   1      47.390  31.541  26.130  1.00  0.00    -0.237 OA
ATOM     73  O   UNL A   1      45.559  33.104  25.599  1.00  0.00    -0.744 OA
ENDBRANCH  66  70
ENDBRANCH  49  63
BRANCH  50  74
ATOM     74  C   UNL A   1      46.140  25.485  35.094  1.00  0.00     0.023 A 
ATOM     75  C   UNL A   1      47.361  26.250  35.381  1.00  0.00     0.031 A 
ATOM     76  C   UNL A   1      45.912  24.444  36.014  1.00  0.00     0.131 A 
ATOM     77  C   UNL A   1      48.176  25.962  36.559  1.00  0.00     0.055 A 
ATOM     78  C   UNL A   1      46.674  24.213  37.164  1.00  0.00     0.041 A 
ATOM     79  F   UNL A   1      44.885  23.603  35.855  1.00  0.00    -0.206 F 
ATOM     80  C   UNL A   1      47.784  24.974  37.456  1.00  0.00     0.022 A 
BRANCH  77  81
ATOM     81  S   UNL A   1      49.787  26.798  37.054  1.00  0.00     0.124 S 
ATOM     82  O   UNL A   1      49.370  27.726  38.097  1.00  0.00    -0.237 OA
ATOM     83  O   UNL A   1      50.632  25.685  37.461  1.00  0.00    -0.237 OA
ATOM     84  O   UNL A   1      50.230  27.459  35.819  1.00  0.00    -0.744 OA
ENDBRANCH  77  81
ENDBRANCH  50  74
BRANCH  62  85
ATOM     85  C   UNL A   1      43.078  23.972  27.936  1.00  0.00     0.023 A 
ATOM     86  C   UNL A   1      43.966  23.130  27.196  1.00  0.00     0.031 A 
ATOM     87  C   UNL A   1      41.735  23.577  27.941  1.00  0.00     0.131 A 
ATOM     88  C   UNL A   1      43.453  22.215  26.231  1.00  0.00     0.055 A 
ATOM     89  C   UNL A   1      41.251  22.568  27.108  1.00  0.00     0.041 A 
ATOM     90  F   UNL A   1      40.853  24.184  28.749  1.00  0.00    -0.206 F 
ATOM     91  C   UNL A   1      42.092  21.949  26.194  1.00  0.00     0.022 A 
BRANCH  88  92
ATOM     92  S   UNL A   1      44.406  21.412  24.845  1.00  0.00     0.124 S 
ATOM     93  O   UNL A   1      43.777  20.096  24.740  1.00  0.00    -0.237 OA
ATOM     94  O   UNL A   1      44.248  22.304  23.704  1.00  0.00    -0.237 OA
ATOM     95  O   UNL A   1      45.769  21.355  25.373  1.00  0.00    -0.744 OA
ENDBRANCH  88  92
ENDBRANCH  62  85
ENDBRANCH  36  37
ENDBRANCH  29  31
ENDBRANCH  28  29
ENDBRANCH  27  28
ENDBRANCH  26  27
ENDBRANCH  25  26
ENDBRANCH  24  25
ENDBRANCH   1  24
TORSDOF 25
ENDMDL
MODEL 3
REMARK VINA RESULT:      -8.8      4.564     10.443
REMARK SMILES Cc1ccc(C)c(S(=O)(=O)[C@H](C)C(=O)OCCOCCOCCOCCOC(=O)c2ccc(-c3c4nc(c(-c5cc(S(=O)(=O)[O-])ccc5F)c5ccc([nH]5)c(-c5cc(S(=O)(=O)[O-])ccc5F)c5nc(c(-c6cc(S(=O)(=O)[O-])ccc6F)c6ccc3[nH]6)C=C5)C=C4)cc2)c1
REMARK SMILES IDX 22 1 21 2 20 3 19 4 18 5 17 6 16 7 15 8 13 9 14 10 11 11
REMARK SMILES IDX 12 12 8 13 9 14 10 15 7 16 1 17 2 18 3 19 93 20 4 21 5 22
REMARK SMILES IDX 6 23 23 24 24 25 25 26 26 27 27 28 28 29 29 30 30 31 31 32
REMARK SMILES IDX 92 33 32 34 91 35 33 36 34 37 35 38 85 39 36 40 90 41 84 42
REMARK SMILES IDX 86 43 37 44 89 45 83 46 82 47 38 49 70 50 50 51 69 52 51 53
REMARK SMILES IDX 54 54 68 55 87 56 52 57 53 58 67 60 88 61 55 62 39 63 40 64
REMARK SMILES IDX 48 65 41 66 47 67 49 68 46 69 42 70 43 71 44 72 45 73 71 74
REMARK SMILES IDX 72 75 80 76 73 77 79 78 81 79 78 80 74 81 75 82 76 83 77 84
REMARK SMILES IDX 56 85 57 86 65 87 58 88 64 89 66 90 63 91 59 92 60 93 61 94
REMARK SMILES IDX 62 95
REMARK H PARENT 86 48 54 59
REMARK Flexibility Score: inf
ROOT
ATOM      1  C   UNL A   1      32.859  35.747  31.925  1.00  0.00     0.188 C 
ENDROOT
BRANCH   1   2
ATOM      2  O   UNL A   1      33.643  34.884  32.738  1.00  0.00    -0.377 OA
BRANCH   2   3
ATOM      3  C   UNL A   1      35.019  35.125  32.576  1.00  0.00     0.188 C 
BRANCH   3   4
ATOM      4  C   UNL A   1      36.008  34.355  33.480  1.00  0.00     0.188 C 
BRANCH   4   5
ATOM      5  O   UNL A   1      36.463  33.072  33.099  1.00  0.00    -0.376 OA
BRANCH   5   6
ATOM      6  C   UNL A   1      37.118  32.063  33.844  1.00  0.00     0.202 C 
BRANCH   6   7
ATOM      7  C   UNL A   1      38.576  31.676  33.673  1.00  0.00     0.261 C 
BRANCH   7   8
ATOM      8  O   UNL A   1      39.451  32.718  34.077  1.00  0.00    -0.462 OA
BRANCH   8   9
ATOM      9  C   UNL A   1      39.971  33.391  33.018  1.00  0.00     0.324 C 
ATOM     10  O   UNL A   1      39.701  33.143  31.846  1.00  0.00    -0.251 OA
BRANCH   9  11
ATOM     11  C   UNL A   1      40.643  34.676  33.377  1.00  0.00     0.219 C 
ATOM     12  C   UNL A   1      40.332  35.373  34.725  1.00  0.00     0.038 C 
BRANCH  11  13
ATOM     13  S   UNL A   1      42.303  34.399  33.303  1.00  0.00     0.192 S 
ATOM     14  O   UNL A   1      42.738  35.754  33.595  1.00  0.00    -0.223 OA
ATOM     15  O   UNL A   1      42.497  33.831  31.977  1.00  0.00    -0.223 OA
BRANCH  13  16
ATOM     16  C   UNL A   1      43.116  33.312  34.454  1.00  0.00     0.071 A 
ATOM     17  C   UNL A   1      44.497  29.038  36.394  1.00  0.00     0.044 C 
ATOM     18  C   UNL A   1      44.231  30.504  35.809  1.00  0.00    -0.050 A 
ATOM     19  C   UNL A   1      45.828  31.206  35.752  1.00  0.00     0.004 A 
ATOM     20  C   UNL A   1      42.648  31.754  35.193  1.00  0.00     0.024 A 
ATOM     21  C   UNL A   1      46.020  32.690  35.069  1.00  0.00     0.005 A 
ATOM     22  C   UNL A   1      44.790  33.617  34.356  1.00  0.00    -0.032 A 
ATOM     23  C   UNL A   1      45.247  34.426  33.155  1.00  0.00     0.046 C 
ENDBRANCH  13  16
ENDBRANCH  11  13
ENDBRANCH   9  11
ENDBRANCH   8   9
ENDBRANCH   7   8
ENDBRANCH   6   7
ENDBRANCH   5   6
ENDBRANCH   4   5
ENDBRANCH   3   4
ENDBRANCH   2   3
ENDBRANCH   1   2
BRANCH   1  24
ATOM     24  C   UNL A   1      33.160  35.790  30.396  1.00  0.00     0.188 C 
BRANCH  24  25
ATOM     25  O   UNL A   1      32.853  34.633  29.612  1.00  0.00    -0.376 OA
BRANCH  25  26
ATOM     26  C   UNL A   1      33.531  34.277  28.423  1.00  0.00     0.202 C 
BRANCH  26  27
ATOM     27  C   UNL A   1      34.994  34.290  28.674  1.00  0.00     0.261 C 
BRANCH  27  28
ATOM     28  O   UNL A   1      35.466  33.211  29.568  1.00  0.00    -0.460 OA
BRANCH  28  29
ATOM     29  C   UNL A   1      35.605  31.863  29.277  1.00  0.00     0.338 C 
ATOM     30  O   UNL A   1      34.764  31.295  28.589  1.00  0.00    -0.246 OA
BRANCH  29  31
ATOM     31  C   UNL A   1      36.836  31.126  29.794  1.00  0.00     0.060 A 
ATOM     32  C   UNL A   1      38.130  31.548  29.507  1.00  0.00     0.016 A 
ATOM     33  C   UNL A   1      36.718  29.849  30.332  1.00  0.00     0.016 A 
ATOM     34  C   UNL A   1      39.147  30.551  29.352  1.00  0.00     0.010 A 
ATOM     35  C   UNL A   1      37.693  28.849  30.049  1.00  0.00     0.010 A 
ATOM     36  C   UNL A   1      38.862  29.131  29.355  1.00  0.00    -0.014 A 
BRANCH  36  37
ATOM     37  C   UNL A   1      39.959  27.991  29.078  1.00  0.00     0.031 A 
ATOM     38  C   UNL A   1      40.641  28.082  30.449  1.00  0.00     0.074 A 
ATOM     39  C   UNL A   1      40.400  27.103  28.047  1.00  0.00     0.049 A 
ATOM     40  N   UNL A   1      41.786  28.638  30.716  1.00  0.00    -0.248 NA
ATOM     41  C   UNL A   1      39.730  28.050  31.630  1.00  0.00     0.031 C 
ATOM     42  C   UNL A   1      40.178  26.868  26.563  1.00  0.00     0.029 A 
ATOM     43  N   UNL A   1      41.500  26.211  28.137  1.00  0.00    -0.354 N 
ATOM     44  C   UNL A   1      41.769  28.884  32.099  1.00  0.00     0.074 A 
ATOM     45  C   UNL A   1      40.424  28.703  32.559  1.00  0.00     0.031 C 
ATOM     46  C   UNL A   1      40.989  25.867  26.045  1.00  0.00     0.029 A 
ATOM     47  C   UNL A   1      41.819  25.257  27.095  1.00  0.00     0.049 A 
ATOM     48  H   UNL A   1      42.069  26.242  28.940  1.00  0.00     0.167 HD
ATOM     49  C   UNL A   1      42.894  28.734  32.838  1.00  0.00     0.034 A 
ATOM     50  C   UNL A   1      42.967  24.439  26.913  1.00  0.00     0.034 A 
ATOM     51  C   UNL A   1      44.037  29.402  32.190  1.00  0.00     0.049 A 
ATOM     52  C   UNL A   1      44.089  24.960  27.813  1.00  0.00     0.074 A 
ATOM     53  C   UNL A   1      44.543  30.686  32.041  1.00  0.00     0.029 A 
ATOM     54  N   UNL A   1      44.390  28.869  30.981  1.00  0.00    -0.354 N 
ATOM     55  N   UNL A   1      45.369  25.970  27.410  1.00  0.00    -0.248 NA
ATOM     56  C   UNL A   1      43.520  25.388  29.630  1.00  0.00     0.031 C 
ATOM     57  C   UNL A   1      45.392  30.695  30.842  1.00  0.00     0.029 A 
ATOM     58  C   UNL A   1      45.449  29.404  30.305  1.00  0.00     0.049 A 
ATOM     59  H   UNL A   1      43.889  28.111  30.603  1.00  0.00     0.167 HD
ATOM     60  C   UNL A   1      45.749  27.245  28.941  1.00  0.00     0.074 A 
ATOM     61  C   UNL A   1      44.445  26.514  30.250  1.00  0.00     0.031 C 
ATOM     62  C   UNL A   1      46.057  28.660  29.127  1.00  0.00     0.034 A 
BRANCH  49  63
ATOM     63  C   UNL A   1      42.917  27.416  33.686  1.00  0.00     0.023 A 
ATOM     64  C   UNL A   1      43.837  26.411  33.380  1.00  0.00     0.031 A 
ATOM     65  C   UNL A   1      41.952  27.015  34.680  1.00  0.00     0.131 A 
ATOM     66  C   UNL A   1      43.753  25.135  34.005  1.00  0.00     0.055 A 
ATOM     67  C   UNL A   1      41.931  25.795  35.357  1.00  0.00     0.041 A 
ATOM     68  F   UNL A   1      40.876  27.729  35.009  1.00  0.00    -0.206 F 
ATOM     69  C   UNL A   1      42.831  24.830  35.007  1.00  0.00     0.022 A 
BRANCH  66  70
ATOM     70  S   UNL A   1      44.773  23.792  33.360  1.00  0.00     0.124 S 
ATOM     71  O   UNL A   1      44.807  22.886  34.501  1.00  0.00    -0.237 OA
ATOM     72  O   UNL A   1      43.993  23.361  32.205  1.00  0.00    -0.237 OA
ATOM     73  O   UNL A   1      46.041  24.447  33.043  1.00  0.00    -0.744 OA
ENDBRANCH  66  70
ENDBRANCH  49  63
BRANCH  50  74
ATOM     74  C   UNL A   1      42.989  22.914  26.437  1.00  0.00     0.023 A 
ATOM     75  C   UNL A   1      43.955  22.142  25.643  1.00  0.00     0.031 A 
ATOM     76  C   UNL A   1      41.988  22.113  27.018  1.00  0.00     0.131 A 
ATOM     77  C   UNL A   1      43.878  20.687  25.562  1.00  0.00     0.055 A 
ATOM     78  C   UNL A   1      41.956  20.715  26.972  1.00  0.00     0.041 A 
ATOM     79  F   UNL A   1      40.986  22.665  27.711  1.00  0.00    -0.206 F 
ATOM     80  C   UNL A   1      42.901  19.997  26.274  1.00  0.00     0.022 A 
BRANCH  77  81
ATOM     81  S   UNL A   1      44.989  19.547  24.559  1.00  0.00     0.124 S 
ATOM     82  O   UNL A   1      46.307  20.147  24.718  1.00  0.00    -0.237 OA
ATOM     83  O   UNL A   1      44.779  18.245  25.175  1.00  0.00    -0.237 OA
ATOM     84  O   UNL A   1      44.454  19.651  23.195  1.00  0.00    -0.744 OA
ENDBRANCH  77  81
ENDBRANCH  50  74
BRANCH  62  85
ATOM     85  C   UNL A   1      47.160  29.390  28.329  1.00  0.00     0.023 A 
ATOM     86  C   UNL A   1      48.581  29.239  28.379  1.00  0.00     0.031 A 
ATOM     87  C   UNL A   1      46.692  30.436  27.525  1.00  0.00     0.131 A 
ATOM     88  C   UNL A   1      49.433  30.306  27.972  1.00  0.00     0.055 A 
ATOM     89  C   UNL A   1      47.542  31.402  26.988  1.00  0.00     0.041 A 
ATOM     90  F   UNL A   1      45.381  30.553  27.260  1.00  0.00    -0.206 F 
ATOM     91  C   UNL A   1      48.898  31.386  27.283  1.00  0.00     0.022 A 
BRANCH  88  92
ATOM     92  S   UNL A   1      51.233  30.519  28.407  1.00  0.00     0.124 S 
ATOM     93  O   UNL A   1      51.352  29.777  29.661  1.00  0.00    -0.237 OA
ATOM     94  O   UNL A   1      51.968  29.993  27.264  1.00  0.00    -0.237 OA
ATOM     95  O   UNL A   1      51.360  31.965  28.582  1.00  0.00    -0.744 OA
ENDBRANCH  88  92
ENDBRANCH  62  85
ENDBRANCH  36  37
ENDBRANCH  29  31
ENDBRANCH  28  29
ENDBRANCH  27  28
ENDBRANCH  26  27
ENDBRANCH  25  26
ENDBRANCH  24  25
ENDBRANCH   1  24
TORSDOF 25
ENDMDL
