MODEL 1
REMARK VINA RESULT:      -6.8      0.000      0.000
REMARK SMILES COc1ccc(-c2noc(CC(=O)OCCOCCOCCOCCOC(=O)c3ccc(-c4c5nc(c(-c6cc(S(=O)(=O)[O-])ccc6F)c6ccc([nH]6)c(-c6cc(S(=O)(=O)[O-])ccc6F)c6nc(c(-c7cc(S(=O)(=O)[O-])ccc7F)c7ccc4[nH]7)C=C6)C=C5)cc3)c2-c2ccc(OC)cc2)cc1
REMARK SMILES IDX 20 1 19 2 18 3 17 4 16 5 15 6 14 7 12 8 13 9 11 10 10 11
REMARK SMILES IDX 7 12 8 13 92 14 9 15 6 16 3 17 4 18 102 19 5 20 101 21 2 22
REMARK SMILES IDX 1 23 93 24 94 25 100 26 95 27 99 28 96 29 97 30 98 31 21 32
REMARK SMILES IDX 22 33 23 34 24 35 25 36 26 37 27 38 28 39 29 40 30 41 91 42
REMARK SMILES IDX 31 43 90 44 32 45 33 46 34 47 84 48 35 49 89 50 83 51 85 52
REMARK SMILES IDX 36 53 88 54 82 55 81 56 37 58 69 59 49 60 68 61 50 62 53 63
REMARK SMILES IDX 67 64 86 65 51 66 52 67 66 69 87 70 54 71 38 72 39 73 47 74
REMARK SMILES IDX 40 75 46 76 48 77 45 78 41 79 42 80 43 81 44 82 70 83 71 84
REMARK SMILES IDX 79 85 72 86 78 87 80 88 77 89 73 90 74 91 75 92 76 93 55 94
REMARK SMILES IDX 56 95 64 96 57 97 63 98 65 99 62 100 58 101 59 102 60 103
REMARK SMILES IDX 61 104
REMARK H PARENT 85 57 53 68
REMARK Flexibility Score: inf
ROOT
ATOM      1  O   UNL A   1      35.866  35.010  33.926  1.00  0.00    -0.377 OA
ENDROOT
BRANCH   1   2
ATOM      2  C   UNL A   1      36.947  34.107  34.013  1.00  0.00     0.188 C 
BRANCH   2   3
ATOM      3  C   UNL A   1      37.225  33.528  35.405  1.00  0.00     0.188 C 
BRANCH   3   4
ATOM      4  O   UNL A   1      37.322  32.128  35.606  1.00  0.00    -0.376 OA
BRANCH   4   5
ATOM      5  C   UNL A   1      38.540  31.448  35.321  1.00  0.00     0.202 C 
BRANCH   5   6
ATOM      6  C   UNL A   1      38.579  30.265  34.333  1.00  0.00     0.261 C 
BRANCH   6   7
ATOM      7  O   UNL A   1      37.760  30.400  33.148  1.00  0.00    -0.463 OA
BRANCH   7   8
ATOM      8  C   UNL A   1      37.656  29.321  32.344  1.00  0.00     0.313 C 
ATOM      9  O   UNL A   1      36.702  29.125  31.591  1.00  0.00    -0.252 OA
BRANCH   8  10
ATOM     10  C   UNL A   1      38.856  28.400  32.290  1.00  0.00     0.201 C 
BRANCH  10  11
ATOM     11  C   UNL A   1      39.384  27.937  30.971  1.00  0.00     0.156 A 
ATOM     12  C   UNL A   1      40.450  27.197  29.155  1.00  0.00     0.122 A 
ATOM     13  N   UNL A   1      39.261  26.580  29.169  1.00  0.00    -0.079 NA
ATOM     14  C   UNL A   1      40.581  28.048  30.294  1.00  0.00     0.053 A 
ATOM     15  O   UNL A   1      38.646  26.980  30.333  1.00  0.00    -0.359 OA
BRANCH  12  16
ATOM     16  C   UNL A   1      41.457  26.867  28.159  1.00  0.00     0.005 A 
ATOM     17  C   UNL A   1      43.500  26.289  26.320  1.00  0.00     0.118 A 
ATOM     18  C   UNL A   1      42.605  27.337  26.083  1.00  0.00     0.047 A 
ATOM     19  C   UNL A   1      43.360  25.519  27.474  1.00  0.00     0.047 A 
ATOM     20  C   UNL A   1      41.577  27.621  26.989  1.00  0.00     0.014 A 
ATOM     21  C   UNL A   1      42.343  25.808  28.389  1.00  0.00     0.014 A 
BRANCH  17  22
ATOM     22  O   UNL A   1      44.478  26.141  25.376  1.00  0.00    -0.497 OA
ATOM     23  C   UNL A   1      45.307  27.269  25.129  1.00  0.00     0.278 C 
ENDBRANCH  17  22
ENDBRANCH  12  16
BRANCH  14  24
ATOM     24  C   UNL A   1      41.756  28.661  30.855  1.00  0.00    -0.012 A 
ATOM     25  C   UNL A   1      42.176  28.413  32.159  1.00  0.00     0.013 A 
ATOM     26  C   UNL A   1      42.444  29.589  30.064  1.00  0.00     0.013 A 
ATOM     27  C   UNL A   1      43.315  29.063  32.644  1.00  0.00     0.047 A 
ATOM     28  C   UNL A   1      43.584  30.217  30.540  1.00  0.00     0.047 A 
ATOM     29  C   UNL A   1      44.034  29.947  31.830  1.00  0.00     0.118 A 
BRANCH  29  30
ATOM     30  O   UNL A   1      45.149  30.505  32.394  1.00  0.00    -0.497 OA
ATOM     31  C   UNL A   1      45.066  30.758  33.792  1.00  0.00     0.278 C 
ENDBRANCH  29  30
ENDBRANCH  14  24
ENDBRANCH  10  11
ENDBRANCH   8  10
ENDBRANCH   7   8
ENDBRANCH   6   7
ENDBRANCH   5   6
ENDBRANCH   4   5
ENDBRANCH   3   4
ENDBRANCH   2   3
ENDBRANCH   1   2
BRANCH   1  32
ATOM     32  C   UNL A   1      34.856  34.729  32.968  1.00  0.00     0.188 C 
BRANCH  32  33
ATOM     33  C   UNL A   1      34.037  33.445  33.180  1.00  0.00     0.188 C 
BRANCH  33  34
ATOM     34  O   UNL A   1      33.962  32.608  32.030  1.00  0.00    -0.376 OA
BRANCH  34  35
ATOM     35  C   UNL A   1      35.178  32.179  31.428  1.00  0.00     0.202 C 
BRANCH  35  36
ATOM     36  C   UNL A   1      35.217  32.045  29.895  1.00  0.00     0.261 C 
BRANCH  36  37
ATOM     37  O   UNL A   1      36.434  32.448  29.240  1.00  0.00    -0.460 OA
BRANCH  37  38
ATOM     38  C   UNL A   1      37.522  31.656  29.330  1.00  0.00     0.338 C 
ATOM     39  O   UNL A   1      37.708  30.592  28.769  1.00  0.00    -0.246 OA
BRANCH  38  40
ATOM     40  C   UNL A   1      38.555  32.421  30.060  1.00  0.00     0.060 A 
ATOM     41  C   UNL A   1      38.325  33.775  30.341  1.00  0.00     0.016 A 
ATOM     42  C   UNL A   1      39.730  31.798  30.486  1.00  0.00     0.016 A 
ATOM     43  C   UNL A   1      39.278  34.514  31.042  1.00  0.00     0.010 A 
ATOM     44  C   UNL A   1      40.696  32.548  31.160  1.00  0.00     0.010 A 
ATOM     45  C   UNL A   1      40.483  33.914  31.424  1.00  0.00    -0.014 A 
BRANCH  45  46
ATOM     46  C   UNL A   1      41.598  34.742  31.939  1.00  0.00     0.031 A 
ATOM     47  C   UNL A   1      41.687  34.971  33.422  1.00  0.00     0.074 A 
ATOM     48  C   UNL A   1      42.507  35.284  31.110  1.00  0.00     0.049 A 
ATOM     49  N   UNL A   1      42.487  35.751  34.098  1.00  0.00    -0.248 NA
ATOM     50  C   UNL A   1      40.733  34.216  34.251  1.00  0.00     0.031 C 
ATOM     51  C   UNL A   1      42.561  35.076  29.664  1.00  0.00     0.029 A 
ATOM     52  N   UNL A   1      43.552  36.138  31.367  1.00  0.00    -0.354 N 
ATOM     53  C   UNL A   1      42.129  35.593  35.432  1.00  0.00     0.074 A 
ATOM     54  C   UNL A   1      41.020  34.663  35.464  1.00  0.00     0.031 C 
ATOM     55  C   UNL A   1      43.574  35.801  29.158  1.00  0.00     0.029 A 
ATOM     56  C   UNL A   1      44.204  36.565  30.234  1.00  0.00     0.049 A 
ATOM     57  H   UNL A   1      43.808  36.417  32.276  1.00  0.00     0.167 HD
ATOM     58  C   UNL A   1      42.679  36.171  36.527  1.00  0.00     0.034 A 
ATOM     59  C   UNL A   1      45.167  37.500  30.083  1.00  0.00     0.034 A 
ATOM     60  C   UNL A   1      43.772  37.110  36.469  1.00  0.00     0.049 A 
ATOM     61  C   UNL A   1      45.681  38.226  31.306  1.00  0.00     0.074 A 
ATOM     62  C   UNL A   1      44.416  37.745  37.516  1.00  0.00     0.029 A 
ATOM     63  N   UNL A   1      44.368  37.566  35.300  1.00  0.00    -0.354 N 
ATOM     64  N   UNL A   1      45.341  38.068  32.565  1.00  0.00    -0.248 NA
ATOM     65  C   UNL A   1      46.704  39.257  31.088  1.00  0.00     0.031 C 
ATOM     66  C   UNL A   1      45.338  38.649  36.978  1.00  0.00     0.029 A 
ATOM     67  C   UNL A   1      45.338  38.511  35.598  1.00  0.00     0.049 A 
ATOM     68  H   UNL A   1      44.136  37.262  34.393  1.00  0.00     0.167 HD
ATOM     69  C   UNL A   1      46.131  38.959  33.289  1.00  0.00     0.074 A 
ATOM     70  C   UNL A   1      46.971  39.642  32.328  1.00  0.00     0.031 C 
ATOM     71  C   UNL A   1      46.162  39.192  34.626  1.00  0.00     0.034 A 
BRANCH  58  72
ATOM     72  C   UNL A   1      42.060  35.853  37.866  1.00  0.00     0.023 A 
ATOM     73  C   UNL A   1      40.980  36.592  38.380  1.00  0.00     0.031 A 
ATOM     74  C   UNL A   1      42.578  34.810  38.654  1.00  0.00     0.131 A 
ATOM     75  C   UNL A   1      40.500  36.323  39.671  1.00  0.00     0.055 A 
ATOM     76  C   UNL A   1      42.041  34.493  39.903  1.00  0.00     0.041 A 
ATOM     77  F   UNL A   1      43.627  34.088  38.229  1.00  0.00    -0.206 F 
ATOM     78  C   UNL A   1      41.005  35.261  40.425  1.00  0.00     0.022 A 
BRANCH  75  79
ATOM     79  S   UNL A   1      39.308  37.474  40.409  1.00  0.00     0.124 S 
ATOM     80  O   UNL A   1      38.528  36.584  41.265  1.00  0.00    -0.237 OA
ATOM     81  O   UNL A   1      40.173  38.426  41.096  1.00  0.00    -0.237 OA
ATOM     82  O   UNL A   1      38.587  38.006  39.254  1.00  0.00    -0.744 OA
ENDBRANCH  75  79
ENDBRANCH  58  72
BRANCH  59  83
ATOM     83  C   UNL A   1      45.669  37.858  28.723  1.00  0.00     0.023 A 
ATOM     84  C   UNL A   1      46.847  37.293  28.211  1.00  0.00     0.031 A 
ATOM     85  C   UNL A   1      45.007  38.821  27.939  1.00  0.00     0.131 A 
ATOM     86  C   UNL A   1      47.352  37.728  26.974  1.00  0.00     0.055 A 
ATOM     87  C   UNL A   1      45.481  39.206  26.683  1.00  0.00     0.041 A 
ATOM     88  F   UNL A   1      43.881  39.402  28.382  1.00  0.00    -0.206 F 
ATOM     89  C   UNL A   1      46.668  38.667  26.199  1.00  0.00     0.022 A 
BRANCH  86  90
ATOM     90  S   UNL A   1      48.973  37.117  26.435  1.00  0.00     0.124 S 
ATOM     91  O   UNL A   1      48.735  36.859  25.019  1.00  0.00    -0.237 OA
ATOM     92  O   UNL A   1      49.841  38.248  26.744  1.00  0.00    -0.237 OA
ATOM     93  O   UNL A   1      49.181  35.929  27.260  1.00  0.00    -0.744 OA
ENDBRANCH  86  90
ENDBRANCH  59  83
BRANCH  71  94
ATOM     94  C   UNL A   1      47.168  40.196  35.136  1.00  0.00     0.023 A 
ATOM     95  C   UNL A   1      46.850  41.557  35.280  1.00  0.00     0.031 A 
ATOM     96  C   UNL A   1      48.460  39.777  35.505  1.00  0.00     0.131 A 
ATOM     97  C   UNL A   1      47.824  42.458  35.740  1.00  0.00     0.055 A 
ATOM     98  C   UNL A   1      49.403  40.665  36.021  1.00  0.00     0.041 A 
ATOM     99  F   UNL A   1      48.820  38.489  35.385  1.00  0.00    -0.206 F 
ATOM    100  C   UNL A   1      49.090  42.017  36.132  1.00  0.00     0.022 A 
BRANCH  97 101
ATOM    101  S   UNL A   1      47.439  44.230  35.751  1.00  0.00     0.124 S 
ATOM    102  O   UNL A   1      48.470  44.758  36.639  1.00  0.00    -0.237 OA
ATOM    103  O   UNL A   1      47.566  44.588  34.343  1.00  0.00    -0.237 OA
ATOM    104  O   UNL A   1      46.078  44.283  36.282  1.00  0.00    -0.744 OA
ENDBRANCH  97 101
ENDBRANCH  71  94
ENDBRANCH  45  46
ENDBRANCH  38  40
ENDBRANCH  37  38
ENDBRANCH  36  37
ENDBRANCH  35  36
ENDBRANCH  34  35
ENDBRANCH  33  34
ENDBRANCH  32  33
ENDBRANCH   1  32
TORSDOF 28
ENDMDL
MODEL 2
REMARK VINA RESULT:      -6.6      4.930     12.334
REMARK SMILES COc1ccc(-c2noc(CC(=O)OCCOCCOCCOCCOC(=O)c3ccc(-c4c5nc(c(-c6cc(S(=O)(=O)[O-])ccc6F)c6ccc([nH]6)c(-c6cc(S(=O)(=O)[O-])ccc6F)c6nc(c(-c7cc(S(=O)(=O)[O-])ccc7F)c7ccc4[nH]7)C=C6)C=C5)cc3)c2-c2ccc(OC)cc2)cc1
REMARK SMILES IDX 20 1 19 2 18 3 17 4 16 5 15 6 14 7 12 8 13 9 11 10 10 11
REMARK SMILES IDX 7 12 8 13 92 14 9 15 6 16 3 17 4 18 102 19 5 20 101 21 2 22
REMARK SMILES IDX 1 23 93 24 94 25 100 26 95 27 99 28 96 29 97 30 98 31 21 32
REMARK SMILES IDX 22 33 23 34 24 35 25 36 26 37 27 38 28 39 29 40 30 41 91 42
REMARK SMILES IDX 31 43 90 44 32 45 33 46 34 47 84 48 35 49 89 50 83 51 85 52
REMARK SMILES IDX 36 53 88 54 82 55 81 56 37 58 69 59 49 60 68 61 50 62 53 63
REMARK SMILES IDX 67 64 86 65 51 66 52 67 66 69 87 70 54 71 38 72 39 73 47 74
REMARK SMILES IDX 40 75 46 76 48 77 45 78 41 79 42 80 43 81 44 82 70 83 71 84
REMARK SMILES IDX 79 85 72 86 78 87 80 88 77 89 73 90 74 91 75 92 76 93 55 94
REMARK SMILES IDX 56 95 64 96 57 97 63 98 65 99 62 100 58 101 59 102 60 103
REMARK SMILES IDX 61 104
REMARK H PARENT 85 57 53 68
REMARK Flexibility Score: inf
ROOT
ATOM      1  O   UNL A   1      49.822  34.810  26.296  1.00  0.00    -0.377 OA
ENDROOT
BRANCH   1   2
ATOM      2  C   UNL A   1      48.732  34.729  25.404  1.00  0.00     0.188 C 
BRANCH   2   3
ATOM      3  C   UNL A   1      47.350  34.564  26.047  1.00  0.00     0.188 C 
BRANCH   3   4
ATOM      4  O   UNL A   1      46.460  33.549  25.614  1.00  0.00    -0.376 OA
BRANCH   4   5
ATOM      5  C   UNL A   1      45.847  32.683  26.562  1.00  0.00     0.202 C 
BRANCH   5   6
ATOM      6  C   UNL A   1      45.482  31.230  26.196  1.00  0.00     0.261 C 
BRANCH   6   7
ATOM      7  O   UNL A   1      46.069  30.200  27.025  1.00  0.00    -0.463 OA
BRANCH   7   8
ATOM      8  C   UNL A   1      46.398  29.038  26.424  1.00  0.00     0.313 C 
ATOM      9  O   UNL A   1      46.290  28.845  25.213  1.00  0.00    -0.252 OA
BRANCH   8  10
ATOM     10  C   UNL A   1      47.059  27.990  27.295  1.00  0.00     0.201 C 
BRANCH  10  11
ATOM     11  C   UNL A   1      46.474  26.618  27.387  1.00  0.00     0.156 A 
ATOM     12  C   UNL A   1      45.388  24.670  27.308  1.00  0.00     0.122 A 
ATOM     13  N   UNL A   1      46.693  24.374  27.251  1.00  0.00    -0.079 NA
ATOM     14  C   UNL A   1      45.202  26.084  27.369  1.00  0.00     0.053 A 
ATOM     15  O   UNL A   1      47.350  25.582  27.218  1.00  0.00    -0.359 OA
BRANCH  12  16
ATOM     16  C   UNL A   1      44.375  23.636  27.169  1.00  0.00     0.005 A 
ATOM     17  C   UNL A   1      42.488  21.562  27.001  1.00  0.00     0.118 A 
ATOM     18  C   UNL A   1      43.441  21.740  25.994  1.00  0.00     0.047 A 
ATOM     19  C   UNL A   1      42.471  22.435  28.087  1.00  0.00     0.047 A 
ATOM     20  C   UNL A   1      44.375  22.779  26.066  1.00  0.00     0.014 A 
ATOM     21  C   UNL A   1      43.410  23.467  28.171  1.00  0.00     0.014 A 
BRANCH  17  22
ATOM     22  O   UNL A   1      41.659  20.489  26.828  1.00  0.00    -0.497 OA
ATOM     23  C   UNL A   1      42.129  19.443  25.987  1.00  0.00     0.278 C 
ENDBRANCH  17  22
ENDBRANCH  12  16
BRANCH  14  24
ATOM     24  C   UNL A   1      44.016  26.868  27.143  1.00  0.00    -0.012 A 
ATOM     25  C   UNL A   1      43.425  27.631  28.147  1.00  0.00     0.013 A 
ATOM     26  C   UNL A   1      43.417  26.789  25.881  1.00  0.00     0.013 A 
ATOM     27  C   UNL A   1      42.260  28.348  27.861  1.00  0.00     0.047 A 
ATOM     28  C   UNL A   1      42.272  27.517  25.594  1.00  0.00     0.047 A 
ATOM     29  C   UNL A   1      41.695  28.313  26.580  1.00  0.00     0.118 A 
BRANCH  29  30
ATOM     30  O   UNL A   1      40.573  29.075  26.401  1.00  0.00    -0.497 OA
ATOM     31  C   UNL A   1      39.611  29.003  27.447  1.00  0.00     0.278 C 
ENDBRANCH  29  30
ENDBRANCH  14  24
ENDBRANCH  10  11
ENDBRANCH   8  10
ENDBRANCH   7   8
ENDBRANCH   6   7
ENDBRANCH   5   6
ENDBRANCH   4   5
ENDBRANCH   3   4
ENDBRANCH   2   3
ENDBRANCH   1   2
BRANCH   1  32
ATOM     32  C   UNL A   1      50.579  36.011  26.295  1.00  0.00     0.188 C 
BRANCH  32  33
ATOM     33  C   UNL A   1      50.223  37.056  27.366  1.00  0.00     0.188 C 
BRANCH  33  34
ATOM     34  O   UNL A   1      50.034  38.371  26.853  1.00  0.00    -0.376 OA
BRANCH  34  35
ATOM     35  C   UNL A   1      48.751  38.972  26.993  1.00  0.00     0.202 C 
BRANCH  35  36
ATOM     36  C   UNL A   1      47.567  38.326  26.250  1.00  0.00     0.261 C 
BRANCH  36  37
ATOM     37  O   UNL A   1      46.262  38.872  26.514  1.00  0.00    -0.460 OA
BRANCH  37  38
ATOM     38  C   UNL A   1      45.902  39.133  27.787  1.00  0.00     0.338 C 
ATOM     39  O   UNL A   1      45.649  40.220  28.274  1.00  0.00    -0.246 OA
BRANCH  38  40
ATOM     40  C   UNL A   1      45.649  37.832  28.441  1.00  0.00     0.060 A 
ATOM     41  C   UNL A   1      46.144  37.615  29.734  1.00  0.00     0.016 A 
ATOM     42  C   UNL A   1      44.905  36.845  27.791  1.00  0.00     0.016 A 
ATOM     43  C   UNL A   1      45.905  36.401  30.379  1.00  0.00     0.010 A 
ATOM     44  C   UNL A   1      44.694  35.619  28.426  1.00  0.00     0.010 A 
ATOM     45  C   UNL A   1      45.209  35.384  29.714  1.00  0.00    -0.014 A 
BRANCH  45  46
ATOM     46  C   UNL A   1      45.167  34.016  30.281  1.00  0.00     0.031 A 
ATOM     47  C   UNL A   1      46.365  33.129  30.086  1.00  0.00     0.074 A 
ATOM     48  C   UNL A   1      44.088  33.567  30.946  1.00  0.00     0.049 A 
ATOM     49  N   UNL A   1      46.521  31.865  30.375  1.00  0.00    -0.248 NA
ATOM     50  C   UNL A   1      47.545  33.762  29.476  1.00  0.00     0.031 C 
ATOM     51  C   UNL A   1      42.897  34.358  31.253  1.00  0.00     0.029 A 
ATOM     52  N   UNL A   1      43.813  32.327  31.467  1.00  0.00    -0.354 N 
ATOM     53  C   UNL A   1      47.812  31.544  29.971  1.00  0.00     0.074 A 
ATOM     54  C   UNL A   1      48.383  32.741  29.393  1.00  0.00     0.031 C 
ATOM     55  C   UNL A   1      42.009  33.576  31.892  1.00  0.00     0.029 A 
ATOM     56  C   UNL A   1      42.545  32.219  31.990  1.00  0.00     0.049 A 
ATOM     57  H   UNL A   1      44.462  31.587  31.467  1.00  0.00     0.167 HD
ATOM     58  C   UNL A   1      48.458  30.357  30.078  1.00  0.00     0.034 A 
ATOM     59  C   UNL A   1      41.882  31.137  32.451  1.00  0.00     0.034 A 
ATOM     60  C   UNL A   1      47.861  29.172  30.642  1.00  0.00     0.049 A 
ATOM     61  C   UNL A   1      42.578  29.794  32.445  1.00  0.00     0.074 A 
ATOM     62  C   UNL A   1      48.428  27.921  30.813  1.00  0.00     0.029 A 
ATOM     63  N   UNL A   1      46.555  29.083  31.106  1.00  0.00    -0.354 N 
ATOM     64  N   UNL A   1      43.801  29.499  32.067  1.00  0.00    -0.248 NA
ATOM     65  C   UNL A   1      41.805  28.640  32.925  1.00  0.00     0.031 C 
ATOM     66  C   UNL A   1      47.441  27.056  31.296  1.00  0.00     0.029 A 
ATOM     67  C   UNL A   1      46.284  27.787  31.517  1.00  0.00     0.049 A 
ATOM     68  H   UNL A   1      45.916  29.830  31.139  1.00  0.00     0.167 HD
ATOM     69  C   UNL A   1      43.950  28.131  32.291  1.00  0.00     0.074 A 
ATOM     70  C   UNL A   1      42.698  27.664  32.848  1.00  0.00     0.031 C 
ATOM     71  C   UNL A   1      45.024  27.333  32.061  1.00  0.00     0.034 A 
BRANCH  58  72
ATOM     72  C   UNL A   1      49.854  30.273  29.513  1.00  0.00     0.023 A 
ATOM     73  C   UNL A   1      50.108  29.751  28.232  1.00  0.00     0.031 A 
ATOM     74  C   UNL A   1      50.955  30.696  30.281  1.00  0.00     0.131 A 
ATOM     75  C   UNL A   1      51.431  29.603  27.787  1.00  0.00     0.055 A 
ATOM     76  C   UNL A   1      52.262  30.623  29.798  1.00  0.00     0.041 A 
ATOM     77  F   UNL A   1      50.778  31.176  31.522  1.00  0.00    -0.206 F 
ATOM     78  C   UNL A   1      52.508  30.060  28.550  1.00  0.00     0.022 A 
BRANCH  75  79
ATOM     79  S   UNL A   1      51.730  28.668  26.262  1.00  0.00     0.124 S 
ATOM     80  O   UNL A   1      50.455  27.978  26.083  1.00  0.00    -0.237 OA
ATOM     81  O   UNL A   1      52.028  29.721  25.299  1.00  0.00    -0.237 OA
ATOM     82  O   UNL A   1      52.855  27.801  26.608  1.00  0.00    -0.744 OA
ENDBRANCH  75  79
ENDBRANCH  58  72
BRANCH  59  83
ATOM     83  C   UNL A   1      40.461  31.252  32.897  1.00  0.00     0.023 A 
ATOM     84  C   UNL A   1      40.137  31.438  34.249  1.00  0.00     0.031 A 
ATOM     85  C   UNL A   1      39.403  31.114  31.980  1.00  0.00     0.131 A 
ATOM     86  C   UNL A   1      38.791  31.436  34.653  1.00  0.00     0.055 A 
ATOM     87  C   UNL A   1      38.066  31.173  32.378  1.00  0.00     0.041 A 
ATOM     88  F   UNL A   1      39.654  30.923  30.674  1.00  0.00    -0.206 F 
ATOM     89  C   UNL A   1      37.754  31.322  33.725  1.00  0.00     0.022 A 
BRANCH  86  90
ATOM     90  S   UNL A   1      38.417  31.487  36.428  1.00  0.00     0.124 S 
ATOM     91  O   UNL A   1      39.614  32.127  36.964  1.00  0.00    -0.237 OA
ATOM     92  O   UNL A   1      37.195  32.283  36.457  1.00  0.00    -0.237 OA
ATOM     93  O   UNL A   1      38.251  30.078  36.781  1.00  0.00    -0.744 OA
ENDBRANCH  86  90
ENDBRANCH  59  83
BRANCH  71  94
ATOM     94  C   UNL A   1      44.909  25.879  32.453  1.00  0.00     0.023 A 
ATOM     95  C   UNL A   1      45.305  25.418  33.719  1.00  0.00     0.031 A 
ATOM     96  C   UNL A   1      44.369  24.945  31.548  1.00  0.00     0.131 A 
ATOM     97  C   UNL A   1      45.196  24.054  34.032  1.00  0.00     0.055 A 
ATOM     98  C   UNL A   1      44.204  23.602  31.887  1.00  0.00     0.041 A 
ATOM     99  F   UNL A   1      43.976  25.329  30.323  1.00  0.00    -0.206 F 
ATOM    100  C   UNL A   1      44.628  23.148  33.132  1.00  0.00     0.022 A 
BRANCH  97 101
ATOM    101  S   UNL A   1      45.875  23.461  35.606  1.00  0.00     0.124 S 
ATOM    102  O   UNL A   1      46.717  24.581  36.012  1.00  0.00    -0.237 OA
ATOM    103  O   UNL A   1      44.674  23.244  36.405  1.00  0.00    -0.237 OA
ATOM    104  O   UNL A   1      46.596  22.245  35.233  1.00  0.00    -0.744 OA
ENDBRANCH  97 101
ENDBRANCH  71  94
ENDBRANCH  45  46
ENDBRANCH  38  40
ENDBRANCH  37  38
ENDBRANCH  36  37
ENDBRANCH  35  36
ENDBRANCH  34  35
ENDBRANCH  33  34
ENDBRANCH  32  33
ENDBRANCH   1  32
TORSDOF 28
ENDMDL
MODEL 3
REMARK VINA RESULT:      -6.3      1.965      2.419
REMARK SMILES COc1ccc(-c2noc(CC(=O)OCCOCCOCCOCCOC(=O)c3ccc(-c4c5nc(c(-c6cc(S(=O)(=O)[O-])ccc6F)c6ccc([nH]6)c(-c6cc(S(=O)(=O)[O-])ccc6F)c6nc(c(-c7cc(S(=O)(=O)[O-])ccc7F)c7ccc4[nH]7)C=C6)C=C5)cc3)c2-c2ccc(OC)cc2)cc1
REMARK SMILES IDX 20 1 19 2 18 3 17 4 16 5 15 6 14 7 12 8 13 9 11 10 10 11
REMARK SMILES IDX 7 12 8 13 92 14 9 15 6 16 3 17 4 18 102 19 5 20 101 21 2 22
REMARK SMILES IDX 1 23 93 24 94 25 100 26 95 27 99 28 96 29 97 30 98 31 21 32
REMARK SMILES IDX 22 33 23 34 24 35 25 36 26 37 27 38 28 39 29 40 30 41 91 42
REMARK SMILES IDX 31 43 90 44 32 45 33 46 34 47 84 48 35 49 89 50 83 51 85 52
REMARK SMILES IDX 36 53 88 54 82 55 81 56 37 58 69 59 49 60 68 61 50 62 53 63
REMARK SMILES IDX 67 64 86 65 51 66 52 67 66 69 87 70 54 71 38 72 39 73 47 74
REMARK SMILES IDX 40 75 46 76 48 77 45 78 41 79 42 80 43 81 44 82 70 83 71 84
REMARK SMILES IDX 79 85 72 86 78 87 80 88 77 89 73 90 74 91 75 92 76 93 55 94
REMARK SMILES IDX 56 95 64 96 57 97 63 98 65 99 62 100 58 101 59 102 60 103
REMARK SMILES IDX 61 104
REMARK H PARENT 85 57 53 68
REMARK Flexibility Score: inf
ROOT
ATOM      1  O   UNL A   1      36.130  34.960  33.960  1.00  0.00    -0.377 OA
ENDROOT
BRANCH   1   2
ATOM      2  C   UNL A   1      37.193  34.032  33.948  1.00  0.00     0.188 C 
BRANCH   2   3
ATOM      3  C   UNL A   1      38.154  34.099  35.140  1.00  0.00     0.188 C 
BRANCH   3   4
ATOM      4  O   UNL A   1      38.234  33.035  36.074  1.00  0.00    -0.376 OA
BRANCH   4   5
ATOM      5  C   UNL A   1      39.116  31.943  35.838  1.00  0.00     0.202 C 
BRANCH   5   6
ATOM      6  C   UNL A   1      38.618  30.645  35.172  1.00  0.00     0.261 C 
BRANCH   6   7
ATOM      7  O   UNL A   1      37.730  30.812  34.042  1.00  0.00    -0.463 OA
BRANCH   7   8
ATOM      8  C   UNL A   1      37.982  30.068  32.944  1.00  0.00     0.313 C 
ATOM      9  O   UNL A   1      37.287  30.099  31.929  1.00  0.00    -0.252 OA
BRANCH   8  10
ATOM     10  C   UNL A   1      39.270  29.273  32.948  1.00  0.00     0.201 C 
BRANCH  10  11
ATOM     11  C   UNL A   1      39.816  28.730  31.667  1.00  0.00     0.156 A 
ATOM     12  C   UNL A   1      40.906  27.879  29.915  1.00  0.00     0.122 A 
ATOM     13  N   UNL A   1      39.718  27.263  29.952  1.00  0.00    -0.079 NA
ATOM     14  C   UNL A   1      41.022  28.800  31.000  1.00  0.00     0.053 A 
ATOM     15  O   UNL A   1      39.087  27.734  31.081  1.00  0.00    -0.359 OA
BRANCH  12  16
ATOM     16  C   UNL A   1      41.927  27.490  28.955  1.00  0.00     0.005 A 
ATOM     17  C   UNL A   1      43.793  26.692  27.013  1.00  0.00     0.118 A 
ATOM     18  C   UNL A   1      43.600  25.930  28.170  1.00  0.00     0.047 A 
ATOM     19  C   UNL A   1      43.059  27.864  26.837  1.00  0.00     0.047 A 
ATOM     20  C   UNL A   1      42.682  26.330  29.146  1.00  0.00     0.014 A 
ATOM     21  C   UNL A   1      42.130  28.261  27.803  1.00  0.00     0.014 A 
BRANCH  17  22
ATOM     22  O   UNL A   1      44.691  26.172  26.123  1.00  0.00    -0.497 OA
ATOM     23  C   UNL A   1      45.233  27.066  25.161  1.00  0.00     0.278 C 
ENDBRANCH  17  22
ENDBRANCH  12  16
BRANCH  14  24
ATOM     24  C   UNL A   1      42.189  29.448  31.538  1.00  0.00    -0.012 A 
ATOM     25  C   UNL A   1      42.666  29.182  32.818  1.00  0.00     0.013 A 
ATOM     26  C   UNL A   1      42.807  30.427  30.751  1.00  0.00     0.013 A 
ATOM     27  C   UNL A   1      43.792  29.869  33.282  1.00  0.00     0.047 A 
ATOM     28  C   UNL A   1      43.935  31.092  31.205  1.00  0.00     0.047 A 
ATOM     29  C   UNL A   1      44.443  30.806  32.470  1.00  0.00     0.118 A 
BRANCH  29  30
ATOM     30  O   UNL A   1      45.552  31.397  33.011  1.00  0.00    -0.497 OA
ATOM     31  C   UNL A   1      46.248  32.295  32.153  1.00  0.00     0.278 C 
ENDBRANCH  29  30
ENDBRANCH  14  24
ENDBRANCH  10  11
ENDBRANCH   8  10
ENDBRANCH   7   8
ENDBRANCH   6   7
ENDBRANCH   5   6
ENDBRANCH   4   5
ENDBRANCH   3   4
ENDBRANCH   2   3
ENDBRANCH   1   2
BRANCH   1  32
ATOM     32  C   UNL A   1      35.042  34.717  33.080  1.00  0.00     0.188 C 
BRANCH  32  33
ATOM     33  C   UNL A   1      34.235  33.429  33.313  1.00  0.00     0.188 C 
BRANCH  33  34
ATOM     34  O   UNL A   1      33.859  32.755  32.117  1.00  0.00    -0.376 OA
BRANCH  34  35
ATOM     35  C   UNL A   1      34.882  32.403  31.191  1.00  0.00     0.202 C 
BRANCH  35  36
ATOM     36  C   UNL A   1      34.576  32.545  29.689  1.00  0.00     0.261 C 
BRANCH  36  37
ATOM     37  O   UNL A   1      35.702  32.739  28.815  1.00  0.00    -0.460 OA
BRANCH  37  38
ATOM     38  C   UNL A   1      36.676  31.807  28.780  1.00  0.00     0.338 C 
ATOM     39  O   UNL A   1      36.658  30.742  28.189  1.00  0.00    -0.246 OA
BRANCH  38  40
ATOM     40  C   UNL A   1      37.872  32.407  29.408  1.00  0.00     0.060 A 
ATOM     41  C   UNL A   1      37.788  33.708  29.923  1.00  0.00     0.016 A 
ATOM     42  C   UNL A   1      39.059  31.679  29.511  1.00  0.00     0.016 A 
ATOM     43  C   UNL A   1      38.898  34.290  30.534  1.00  0.00     0.010 A 
ATOM     44  C   UNL A   1      40.179  32.276  30.095  1.00  0.00     0.010 A 
ATOM     45  C   UNL A   1      40.109  33.590  30.592  1.00  0.00    -0.014 A 
BRANCH  45  46
ATOM     46  C   UNL A   1      41.352  34.282  31.005  1.00  0.00     0.031 A 
ATOM     47  C   UNL A   1      41.937  33.949  32.349  1.00  0.00     0.074 A 
ATOM     48  C   UNL A   1      41.944  35.192  30.211  1.00  0.00     0.049 A 
ATOM     49  N   UNL A   1      42.936  34.503  32.982  1.00  0.00    -0.248 NA
ATOM     50  C   UNL A   1      41.299  32.840  33.076  1.00  0.00     0.031 C 
ATOM     51  C   UNL A   1      41.505  35.546  28.861  1.00  0.00     0.029 A 
ATOM     52  N   UNL A   1      43.033  35.997  30.433  1.00  0.00    -0.354 N 
ATOM     53  C   UNL A   1      43.042  33.819  34.189  1.00  0.00     0.074 A 
ATOM     54  C   UNL A   1      41.986  32.830  34.207  1.00  0.00     0.031 C 
ATOM     55  C   UNL A   1      42.306  36.514  28.385  1.00  0.00     0.029 A 
ATOM     56  C   UNL A   1      43.279  36.885  29.412  1.00  0.00     0.049 A 
ATOM     57  H   UNL A   1      43.586  35.942  31.246  1.00  0.00     0.167 HD
ATOM     58  C   UNL A   1      43.940  34.004  35.187  1.00  0.00     0.034 A 
ATOM     59  C   UNL A   1      44.157  37.908  29.339  1.00  0.00     0.034 A 
ATOM     60  C   UNL A   1      44.973  35.010  35.155  1.00  0.00     0.049 A 
ATOM     61  C   UNL A   1      45.068  38.176  30.516  1.00  0.00     0.074 A 
ATOM     62  C   UNL A   1      45.945  35.275  36.102  1.00  0.00     0.029 A 
ATOM     63  N   UNL A   1      45.153  35.932  34.131  1.00  0.00    -0.354 N 
ATOM     64  N   UNL A   1      45.166  37.523  31.652  1.00  0.00    -0.248 NA
ATOM     65  C   UNL A   1      45.983  39.320  30.404  1.00  0.00     0.031 C 
ATOM     66  C   UNL A   1      46.655  36.409  35.695  1.00  0.00     0.029 A 
ATOM     67  C   UNL A   1      46.189  36.797  34.448  1.00  0.00     0.049 A 
ATOM     68  H   UNL A   1      44.624  35.966  33.302  1.00  0.00     0.167 HD
ATOM     69  C   UNL A   1      46.173  38.160  32.373  1.00  0.00     0.074 A 
ATOM     70  C   UNL A   1      46.659  39.240  31.541  1.00  0.00     0.031 C 
ATOM     71  C   UNL A   1      46.656  37.878  33.611  1.00  0.00     0.034 A 
BRANCH  58  72
ATOM     72  C   UNL A   1      43.798  33.143  36.417  1.00  0.00     0.023 A 
ATOM     73  C   UNL A   1      42.787  33.366  37.369  1.00  0.00     0.031 A 
ATOM     74  C   UNL A   1      44.708  32.097  36.657  1.00  0.00     0.131 A 
ATOM     75  C   UNL A   1      42.753  32.603  38.545  1.00  0.00     0.055 A 
ATOM     76  C   UNL A   1      44.617  31.286  37.790  1.00  0.00     0.041 A 
ATOM     77  F   UNL A   1      45.711  31.854  35.800  1.00  0.00    -0.206 F 
ATOM     78  C   UNL A   1      43.644  31.547  38.750  1.00  0.00     0.022 A 
BRANCH  75  79
ATOM     79  S   UNL A   1      41.622  33.106  39.871  1.00  0.00     0.124 S 
ATOM     80  O   UNL A   1      40.508  33.669  39.111  1.00  0.00    -0.237 OA
ATOM     81  O   UNL A   1      41.356  31.847  40.555  1.00  0.00    -0.237 OA
ATOM     82  O   UNL A   1      42.400  34.080  40.633  1.00  0.00    -0.744 OA
ENDBRANCH  75  79
ENDBRANCH  58  72
BRANCH  59  83
ATOM     83  C   UNL A   1      44.182  38.801  28.142  1.00  0.00     0.023 A 
ATOM     84  C   UNL A   1      45.262  38.784  27.246  1.00  0.00     0.031 A 
ATOM     85  C   UNL A   1      43.152  39.731  27.913  1.00  0.00     0.131 A 
ATOM     86  C   UNL A   1      45.309  39.709  26.189  1.00  0.00     0.055 A 
ATOM     87  C   UNL A   1      43.174  40.608  26.826  1.00  0.00     0.041 A 
ATOM     88  F   UNL A   1      42.099  39.799  28.743  1.00  0.00    -0.206 F 
ATOM     89  C   UNL A   1      44.265  40.608  25.963  1.00  0.00     0.022 A 
BRANCH  86  90
ATOM     90  S   UNL A   1      46.807  39.785  25.168  1.00  0.00     0.124 S 
ATOM     91  O   UNL A   1      47.686  40.605  25.994  1.00  0.00    -0.237 OA
ATOM     92  O   UNL A   1      47.166  38.375  25.052  1.00  0.00    -0.237 OA
ATOM     93  O   UNL A   1      46.344  40.413  23.933  1.00  0.00    -0.744 OA
ENDBRANCH  86  90
ENDBRANCH  59  83
BRANCH  71  94
ATOM     94  C   UNL A   1      47.798  38.724  34.123  1.00  0.00     0.023 A 
ATOM     95  C   UNL A   1      47.580  39.867  34.910  1.00  0.00     0.031 A 
ATOM     96  C   UNL A   1      49.128  38.362  33.835  1.00  0.00     0.131 A 
ATOM     97  C   UNL A   1      48.673  40.632  35.348  1.00  0.00     0.055 A 
ATOM     98  C   UNL A   1      50.211  39.091  34.325  1.00  0.00     0.041 A 
ATOM     99  F   UNL A   1      49.395  37.282  33.084  1.00  0.00    -0.206 F 
ATOM    100  C   UNL A   1      49.986  40.239  35.079  1.00  0.00     0.022 A 
BRANCH  97 101
ATOM    101  S   UNL A   1      48.354  42.194  36.213  1.00  0.00     0.124 S 
ATOM    102  O   UNL A   1      46.899  42.187  36.324  1.00  0.00    -0.237 OA
ATOM    103  O   UNL A   1      49.089  42.018  37.461  1.00  0.00    -0.237 OA
ATOM    104  O   UNL A   1      48.903  43.205  35.311  1.00  0.00    -0.744 OA
ENDBRANCH  97 101
ENDBRANCH  71  94
ENDBRANCH  45  46
ENDBRANCH  38  40
ENDBRANCH  37  38
ENDBRANCH  36  37
ENDBRANCH  35  36
ENDBRANCH  34  35
ENDBRANCH  33  34
ENDBRANCH  32  33
ENDBRANCH   1  32
TORSDOF 28
ENDMDL
