MODEL 1
REMARK VINA RESULT:     -10.1      0.000      0.000
REMARK SMILES CC(C)(C)OC(=O)N1C[C@@H](c2cccc(Cl)c2)CC[C@H]1C(=O)OCCOCCOCCOCCOC(=O)c1ccc(-c2c3nc(c(-c4cc(S(=O)(=O)[O-])ccc4F)c4ccc([nH]4)c(-c4cc(S(=O)(=O)[O-])ccc4F)c4nc(c(-c5cc(S(=O)(=O)[O-])ccc5F)c5ccc2[nH]5)C=C4)C=C3)cc1
REMARK SMILES IDX 29 1 28 2 27 3 26 4 25 5 24 6 23 7 21 8 22 9 20 10 8 11 9 12
REMARK SMILES IDX 10 13 19 14 18 15 6 16 7 17 5 18 2 19 1 20 3 21 4 22 11 23
REMARK SMILES IDX 12 24 17 25 13 26 15 27 14 28 16 29 30 30 31 31 32 32 33 33
REMARK SMILES IDX 34 34 35 35 36 36 37 37 38 38 39 39 100 40 40 41 99 42 41 43
REMARK SMILES IDX 42 44 43 45 93 46 44 47 98 48 92 49 94 50 45 51 97 52 91 53
REMARK SMILES IDX 90 54 46 56 78 57 58 58 77 59 59 60 62 61 76 62 95 63 60 64
REMARK SMILES IDX 61 65 75 67 96 68 63 69 47 70 48 71 56 72 49 73 55 74 57 75
REMARK SMILES IDX 54 76 50 77 51 78 52 79 53 80 79 81 80 82 88 83 81 84 87 85
REMARK SMILES IDX 89 86 86 87 82 88 83 89 84 90 85 91 64 92 65 93 73 94 66 95
REMARK SMILES IDX 72 96 74 97 71 98 67 99 68 100 69 101 70 102
REMARK H PARENT 94 55 62 66
REMARK Flexibility Score: inf
ROOT
ATOM      1  O   UNL A   1      34.045  22.091  24.490  1.00  0.00    -0.377 OA
ENDROOT
BRANCH   1   2
ATOM      2  C   UNL A   1      32.695  21.842  24.174  1.00  0.00     0.188 C 
BRANCH   2   3
ATOM      3  C   UNL A   1      31.802  21.476  25.371  1.00  0.00     0.188 C 
BRANCH   3   4
ATOM      4  O   UNL A   1      31.613  22.374  26.459  1.00  0.00    -0.376 OA
BRANCH   4   5
ATOM      5  C   UNL A   1      30.385  23.062  26.596  1.00  0.00     0.202 C 
BRANCH   5   6
ATOM      6  C   UNL A   1      30.343  24.515  26.094  1.00  0.00     0.261 C 
BRANCH   6   7
ATOM      7  O   UNL A   1      31.303  24.898  25.085  1.00  0.00    -0.462 OA
BRANCH   7   8
ATOM      8  C   UNL A   1      30.869  25.030  23.798  1.00  0.00     0.329 C 
ATOM      9  O   UNL A   1      30.273  24.157  23.177  1.00  0.00    -0.250 OA
BRANCH   8  10
ATOM     10  C   UNL A   1      31.204  26.434  23.207  1.00  0.00     0.198 C 
ATOM     11  N   UNL A   1      30.573  27.674  23.719  1.00  0.00    -0.294 N 
ATOM     12  C   UNL A   1      31.244  28.476  24.732  1.00  0.00     0.132 C 
ATOM     13  C   UNL A   1      32.765  28.645  24.610  1.00  0.00     0.039 C 
ATOM     14  C   UNL A   1      32.713  26.659  23.000  1.00  0.00     0.038 C 
ATOM     15  C   UNL A   1      33.430  27.322  24.181  1.00  0.00     0.013 C 
BRANCH  11  16
ATOM     16  C   UNL A   1      29.420  28.236  23.202  1.00  0.00     0.411 C 
ATOM     17  O   UNL A   1      28.352  27.633  23.226  1.00  0.00    -0.224 OA
BRANCH  16  18
ATOM     18  O   UNL A   1      29.619  29.398  22.522  1.00  0.00    -0.444 OA
BRANCH  18  19
ATOM     19  C   UNL A   1      28.553  30.397  22.591  1.00  0.00     0.106 C 
ATOM     20  C   UNL A   1      27.324  29.699  23.196  1.00  0.00     0.056 C 
ATOM     21  C   UNL A   1      28.172  30.901  21.191  1.00  0.00     0.056 C 
ATOM     22  C   UNL A   1      28.916  31.567  23.533  1.00  0.00     0.056 C 
ENDBRANCH  18  19
ENDBRANCH  16  18
ENDBRANCH  11  16
BRANCH  13  23
ATOM     23  C   UNL A   1      33.404  29.292  25.854  1.00  0.00    -0.042 A 
ATOM     24  C   UNL A   1      34.436  28.631  26.543  1.00  0.00     0.004 A 
ATOM     25  C   UNL A   1      33.069  30.589  26.300  1.00  0.00     0.024 A 
ATOM     26  C   UNL A   1      35.085  29.219  27.636  1.00  0.00     0.002 A 
ATOM     27  C   UNL A   1      33.736  31.181  27.380  1.00  0.00     0.041 A 
ATOM     28  C   UNL A   1      34.739  30.499  28.052  1.00  0.00     0.020 A 
ATOM     29  Cl  UNL A   1      33.348  32.790  27.855  1.00  0.00    -0.084 Cl
ENDBRANCH  13  23
ENDBRANCH   8  10
ENDBRANCH   7   8
ENDBRANCH   6   7
ENDBRANCH   5   6
ENDBRANCH   4   5
ENDBRANCH   3   4
ENDBRANCH   2   3
ENDBRANCH   1   2
BRANCH   1  30
ATOM     30  C   UNL A   1      34.575  21.212  25.456  1.00  0.00     0.188 C 
BRANCH  30  31
ATOM     31  C   UNL A   1      35.169  19.914  24.889  1.00  0.00     0.188 C 
BRANCH  31  32
ATOM     32  O   UNL A   1      36.573  19.728  24.882  1.00  0.00    -0.376 OA
BRANCH  32  33
ATOM     33  C   UNL A   1      37.515  20.643  25.407  1.00  0.00     0.202 C 
BRANCH  33  34
ATOM     34  C   UNL A   1      39.032  20.544  25.229  1.00  0.00     0.261 C 
BRANCH  34  35
ATOM     35  O   UNL A   1      39.730  19.797  26.226  1.00  0.00    -0.460 OA
BRANCH  35  36
ATOM     36  C   UNL A   1      41.046  20.103  26.348  1.00  0.00     0.338 C 
ATOM     37  O   UNL A   1      41.992  19.435  25.950  1.00  0.00    -0.246 OA
BRANCH  36  38
ATOM     38  C   UNL A   1      41.194  21.481  26.844  1.00  0.00     0.060 A 
ATOM     39  C   UNL A   1      40.786  22.527  26.005  1.00  0.00     0.016 A 
ATOM     40  C   UNL A   1      41.751  21.753  28.094  1.00  0.00     0.016 A 
ATOM     41  C   UNL A   1      40.933  23.850  26.413  1.00  0.00     0.010 A 
ATOM     42  C   UNL A   1      41.932  23.084  28.488  1.00  0.00     0.010 A 
ATOM     43  C   UNL A   1      41.547  24.137  27.636  1.00  0.00    -0.014 A 
BRANCH  43  44
ATOM     44  C   UNL A   1      41.986  25.530  27.904  1.00  0.00     0.031 A 
ATOM     45  C   UNL A   1      43.336  25.956  27.393  1.00  0.00     0.074 A 
ATOM     46  C   UNL A   1      41.186  26.414  28.528  1.00  0.00     0.049 A 
ATOM     47  N   UNL A   1      43.948  27.104  27.515  1.00  0.00    -0.248 NA
ATOM     48  C   UNL A   1      44.096  24.944  26.643  1.00  0.00     0.031 C 
ATOM     49  C   UNL A   1      39.833  26.135  29.008  1.00  0.00     0.029 A 
ATOM     50  N   UNL A   1      41.399  27.728  28.863  1.00  0.00    -0.354 N 
ATOM     51  C   UNL A   1      45.167  26.954  26.861  1.00  0.00     0.074 A 
ATOM     52  C   UNL A   1      45.220  25.590  26.380  1.00  0.00     0.031 C 
ATOM     53  C   UNL A   1      39.342  27.245  29.586  1.00  0.00     0.029 A 
ATOM     54  C   UNL A   1      40.356  28.299  29.554  1.00  0.00     0.049 A 
ATOM     55  H   UNL A   1      42.222  28.215  28.631  1.00  0.00     0.167 HD
ATOM     56  C   UNL A   1      46.145  27.872  26.672  1.00  0.00     0.034 A 
ATOM     57  C   UNL A   1      40.247  29.520  30.119  1.00  0.00     0.034 A 
ATOM     58  C   UNL A   1      46.081  29.223  27.170  1.00  0.00     0.049 A 
ATOM     59  C   UNL A   1      41.399  30.494  29.988  1.00  0.00     0.074 A 
ATOM     60  C   UNL A   1      47.012  30.237  27.025  1.00  0.00     0.029 A 
ATOM     61  N   UNL A   1      45.038  29.748  27.922  1.00  0.00    -0.354 N 
ATOM     62  N   UNL A   1      42.543  30.343  29.359  1.00  0.00    -0.248 NA
ATOM     63  C   UNL A   1      41.241  31.802  30.636  1.00  0.00     0.031 C 
ATOM     64  C   UNL A   1      46.574  31.341  27.763  1.00  0.00     0.029 A 
ATOM     65  C   UNL A   1      45.324  31.053  28.286  1.00  0.00     0.049 A 
ATOM     66  H   UNL A   1      44.215  29.261  28.160  1.00  0.00     0.167 HD
ATOM     67  C   UNL A   1      43.224  31.550  29.511  1.00  0.00     0.074 A 
ATOM     68  C   UNL A   1      42.354  32.421  30.273  1.00  0.00     0.031 C 
ATOM     69  C   UNL A   1      44.452  31.910  29.057  1.00  0.00     0.034 A 
BRANCH  56  70
ATOM     70  C   UNL A   1      47.392  27.419  25.952  1.00  0.00     0.023 A 
ATOM     71  C   UNL A   1      48.487  26.864  26.636  1.00  0.00     0.031 A 
ATOM     72  C   UNL A   1      47.494  27.570  24.558  1.00  0.00     0.131 A 
ATOM     73  C   UNL A   1      49.659  26.543  25.935  1.00  0.00     0.055 A 
ATOM     74  C   UNL A   1      48.632  27.169  23.855  1.00  0.00     0.041 A 
ATOM     75  F   UNL A   1      46.492  28.121  23.854  1.00  0.00    -0.206 F 
ATOM     76  C   UNL A   1      49.730  26.665  24.546  1.00  0.00     0.022 A 
BRANCH  73  77
ATOM     77  S   UNL A   1      51.142  26.103  26.882  1.00  0.00     0.124 S 
ATOM     78  O   UNL A   1      50.847  24.725  27.267  1.00  0.00    -0.237 OA
ATOM     79  O   UNL A   1      52.207  26.278  25.901  1.00  0.00    -0.237 OA
ATOM     80  O   UNL A   1      51.143  27.064  27.984  1.00  0.00    -0.744 OA
ENDBRANCH  73  77
ENDBRANCH  56  70
BRANCH  57  81
ATOM     81  C   UNL A   1      39.035  29.889  30.910  1.00  0.00     0.023 A 
ATOM     82  C   UNL A   1      38.158  30.898  30.479  1.00  0.00     0.031 A 
ATOM     83  C   UNL A   1      38.780  29.287  32.157  1.00  0.00     0.131 A 
ATOM     84  C   UNL A   1      37.105  31.313  31.310  1.00  0.00     0.055 A 
ATOM     85  C   UNL A   1      37.694  29.659  32.951  1.00  0.00     0.041 A 
ATOM     86  F   UNL A   1      39.590  28.324  32.625  1.00  0.00    -0.206 F 
ATOM     87  C   UNL A   1      36.857  30.689  32.535  1.00  0.00     0.022 A 
BRANCH  84  88
ATOM     88  S   UNL A   1      36.124  32.757  30.816  1.00  0.00     0.124 S 
ATOM     89  O   UNL A   1      36.548  32.942  29.433  1.00  0.00    -0.237 OA
ATOM     90  O   UNL A   1      34.760  32.278  31.012  1.00  0.00    -0.237 OA
ATOM     91  O   UNL A   1      36.557  33.797  31.746  1.00  0.00    -0.744 OA
ENDBRANCH  84  88
ENDBRANCH  57  81
BRANCH  69  92
ATOM     92  C   UNL A   1      44.909  33.325  29.333  1.00  0.00     0.023 A 
ATOM     93  C   UNL A   1      44.881  34.322  28.343  1.00  0.00     0.031 A 
ATOM     94  C   UNL A   1      45.379  33.680  30.611  1.00  0.00     0.131 A 
ATOM     95  C   UNL A   1      45.370  35.606  28.628  1.00  0.00     0.055 A 
ATOM     96  C   UNL A   1      45.798  34.976  30.909  1.00  0.00     0.041 A 
ATOM     97  F   UNL A   1      45.434  32.769  31.597  1.00  0.00    -0.206 F 
ATOM     98  C   UNL A   1      45.809  35.946  29.910  1.00  0.00     0.022 A 
BRANCH  95  99
ATOM     99  S   UNL A   1      45.525  36.801  27.272  1.00  0.00     0.124 S 
ATOM    100  O   UNL A   1      44.398  37.694  27.525  1.00  0.00    -0.237 OA
ATOM    101  O   UNL A   1      46.849  37.367  27.503  1.00  0.00    -0.237 OA
ATOM    102  O   UNL A   1      45.404  35.976  26.072  1.00  0.00    -0.744 OA
ENDBRANCH  95  99
ENDBRANCH  69  92
ENDBRANCH  43  44
ENDBRANCH  36  38
ENDBRANCH  35  36
ENDBRANCH  34  35
ENDBRANCH  33  34
ENDBRANCH  32  33
ENDBRANCH  31  32
ENDBRANCH  30  31
ENDBRANCH   1  30
TORSDOF 27
ENDMDL
MODEL 2
REMARK VINA RESULT:      -9.2      2.729      3.369
REMARK SMILES CC(C)(C)OC(=O)N1C[C@@H](c2cccc(Cl)c2)CC[C@H]1C(=O)OCCOCCOCCOCCOC(=O)c1ccc(-c2c3nc(c(-c4cc(S(=O)(=O)[O-])ccc4F)c4ccc([nH]4)c(-c4cc(S(=O)(=O)[O-])ccc4F)c4nc(c(-c5cc(S(=O)(=O)[O-])ccc5F)c5ccc2[nH]5)C=C4)C=C3)cc1
REMARK SMILES IDX 29 1 28 2 27 3 26 4 25 5 24 6 23 7 21 8 22 9 20 10 8 11 9 12
REMARK SMILES IDX 10 13 19 14 18 15 6 16 7 17 5 18 2 19 1 20 3 21 4 22 11 23
REMARK SMILES IDX 12 24 17 25 13 26 15 27 14 28 16 29 30 30 31 31 32 32 33 33
REMARK SMILES IDX 34 34 35 35 36 36 37 37 38 38 39 39 100 40 40 41 99 42 41 43
REMARK SMILES IDX 42 44 43 45 93 46 44 47 98 48 92 49 94 50 45 51 97 52 91 53
REMARK SMILES IDX 90 54 46 56 78 57 58 58 77 59 59 60 62 61 76 62 95 63 60 64
REMARK SMILES IDX 61 65 75 67 96 68 63 69 47 70 48 71 56 72 49 73 55 74 57 75
REMARK SMILES IDX 54 76 50 77 51 78 52 79 53 80 79 81 80 82 88 83 81 84 87 85
REMARK SMILES IDX 89 86 86 87 82 88 83 89 84 90 85 91 64 92 65 93 73 94 66 95
REMARK SMILES IDX 72 96 74 97 71 98 67 99 68 100 69 101 70 102
REMARK H PARENT 94 55 62 66
REMARK Flexibility Score: inf
ROOT
ATOM      1  O   UNL A   1      32.675  23.136  25.990  1.00  0.00    -0.377 OA
ENDROOT
BRANCH   1   2
ATOM      2  C   UNL A   1      31.378  22.668  25.700  1.00  0.00     0.188 C 
BRANCH   2   3
ATOM      3  C   UNL A   1      30.302  23.049  26.729  1.00  0.00     0.188 C 
BRANCH   3   4
ATOM      4  O   UNL A   1      30.021  24.409  27.042  1.00  0.00    -0.376 OA
BRANCH   4   5
ATOM      5  C   UNL A   1      28.982  25.086  26.361  1.00  0.00     0.202 C 
BRANCH   5   6
ATOM      6  C   UNL A   1      29.374  25.867  25.096  1.00  0.00     0.261 C 
BRANCH   6   7
ATOM      7  O   UNL A   1      30.781  25.970  24.786  1.00  0.00    -0.462 OA
BRANCH   7   8
ATOM      8  C   UNL A   1      31.158  25.930  23.475  1.00  0.00     0.329 C 
ATOM      9  O   UNL A   1      31.015  24.956  22.745  1.00  0.00    -0.250 OA
BRANCH   8  10
ATOM     10  C   UNL A   1      31.780  27.280  23.004  1.00  0.00     0.198 C 
ATOM     11  N   UNL A   1      31.242  28.590  23.440  1.00  0.00    -0.294 N 
ATOM     12  C   UNL A   1      31.822  29.280  24.584  1.00  0.00     0.132 C 
ATOM     13  C   UNL A   1      33.349  29.237  24.737  1.00  0.00     0.039 C 
ATOM     14  C   UNL A   1      33.318  27.295  23.073  1.00  0.00     0.038 C 
ATOM     15  C   UNL A   1      33.895  27.839  24.385  1.00  0.00     0.013 C 
BRANCH  11  16
ATOM     16  C   UNL A   1      30.287  29.313  22.749  1.00  0.00     0.411 C 
ATOM     17  O   UNL A   1      30.259  29.322  21.523  1.00  0.00    -0.224 OA
BRANCH  16  18
ATOM     18  O   UNL A   1      29.530  30.132  23.530  1.00  0.00    -0.444 OA
BRANCH  18  19
ATOM     19  C   UNL A   1      28.435  30.847  22.874  1.00  0.00     0.106 C 
ATOM     20  C   UNL A   1      29.017  32.167  22.343  1.00  0.00     0.056 C 
ATOM     21  C   UNL A   1      27.318  31.187  23.872  1.00  0.00     0.056 C 
ATOM     22  C   UNL A   1      27.887  30.074  21.654  1.00  0.00     0.056 C 
ENDBRANCH  18  19
ENDBRANCH  16  18
ENDBRANCH  11  16
BRANCH  13  23
ATOM     23  C   UNL A   1      33.836  29.774  26.096  1.00  0.00    -0.042 A 
ATOM     24  C   UNL A   1      34.774  29.046  26.849  1.00  0.00     0.004 A 
ATOM     25  C   UNL A   1      33.457  31.037  26.601  1.00  0.00     0.024 A 
ATOM     26  C   UNL A   1      35.290  29.537  28.055  1.00  0.00     0.002 A 
ATOM     27  C   UNL A   1      33.991  31.533  27.797  1.00  0.00     0.041 A 
ATOM     28  C   UNL A   1      34.902  30.785  28.528  1.00  0.00     0.020 A 
ATOM     29  Cl  UNL A   1      33.557  33.105  28.349  1.00  0.00    -0.084 Cl
ENDBRANCH  13  23
ENDBRANCH   8  10
ENDBRANCH   7   8
ENDBRANCH   6   7
ENDBRANCH   5   6
ENDBRANCH   4   5
ENDBRANCH   3   4
ENDBRANCH   2   3
ENDBRANCH   1   2
BRANCH   1  30
ATOM     30  C   UNL A   1      33.247  22.551  27.139  1.00  0.00     0.188 C 
BRANCH  30  31
ATOM     31  C   UNL A   1      34.322  21.491  26.854  1.00  0.00     0.188 C 
BRANCH  31  32
ATOM     32  O   UNL A   1      35.572  21.884  26.318  1.00  0.00    -0.376 OA
BRANCH  32  33
ATOM     33  C   UNL A   1      35.794  23.050  25.547  1.00  0.00     0.202 C 
BRANCH  33  34
ATOM     34  C   UNL A   1      37.159  23.697  25.304  1.00  0.00     0.261 C 
BRANCH  34  35
ATOM     35  O   UNL A   1      37.881  24.092  26.472  1.00  0.00    -0.460 OA
BRANCH  35  36
ATOM     36  C   UNL A   1      39.128  23.567  26.573  1.00  0.00     0.338 C 
ATOM     37  O   UNL A   1      39.470  22.432  26.267  1.00  0.00    -0.246 OA
BRANCH  36  38
ATOM     38  C   UNL A   1      40.091  24.629  26.906  1.00  0.00     0.060 A 
ATOM     39  C   UNL A   1      40.610  24.659  28.207  1.00  0.00     0.016 A 
ATOM     40  C   UNL A   1      40.459  25.601  25.975  1.00  0.00     0.016 A 
ATOM     41  C   UNL A   1      41.501  25.660  28.584  1.00  0.00     0.010 A 
ATOM     42  C   UNL A   1      41.327  26.628  26.365  1.00  0.00     0.010 A 
ATOM     43  C   UNL A   1      41.830  26.675  27.679  1.00  0.00    -0.014 A 
BRANCH  43  44
ATOM     44  C   UNL A   1      42.509  27.893  28.190  1.00  0.00     0.031 A 
ATOM     45  C   UNL A   1      44.003  27.985  28.038  1.00  0.00     0.074 A 
ATOM     46  C   UNL A   1      41.815  28.919  28.716  1.00  0.00     0.049 A 
ATOM     47  N   UNL A   1      44.822  28.930  28.418  1.00  0.00    -0.248 NA
ATOM     48  C   UNL A   1      44.659  26.852  27.366  1.00  0.00     0.031 C 
ATOM     49  C   UNL A   1      40.360  28.972  28.854  1.00  0.00     0.029 A 
ATOM     50  N   UNL A   1      42.246  30.115  29.233  1.00  0.00    -0.354 N 
ATOM     51  C   UNL A   1      46.090  28.507  28.035  1.00  0.00     0.074 A 
ATOM     52  C   UNL A   1      45.934  27.201  27.430  1.00  0.00     0.031 C 
ATOM     53  C   UNL A   1      40.021  30.139  29.429  1.00  0.00     0.029 A 
ATOM     54  C   UNL A   1      41.233  30.897  29.737  1.00  0.00     0.049 A 
ATOM     55  H   UNL A   1      43.192  30.387  29.243  1.00  0.00     0.167 HD
ATOM     56  C   UNL A   1      47.274  29.151  28.169  1.00  0.00     0.034 A 
ATOM     57  C   UNL A   1      41.284  32.075  30.395  1.00  0.00     0.034 A 
ATOM     58  C   UNL A   1      47.415  30.446  28.787  1.00  0.00     0.049 A 
ATOM     59  C   UNL A   1      42.631  32.726  30.629  1.00  0.00     0.074 A 
ATOM     60  C   UNL A   1      48.566  31.194  28.963  1.00  0.00     0.029 A 
ATOM     61  N   UNL A   1      46.376  31.181  29.343  1.00  0.00    -0.354 N 
ATOM     62  N   UNL A   1      43.823  32.320  30.255  1.00  0.00    -0.248 NA
ATOM     63  C   UNL A   1      42.637  33.996  31.367  1.00  0.00     0.031 C 
ATOM     64  C   UNL A   1      48.238  32.333  29.703  1.00  0.00     0.029 A 
ATOM     65  C   UNL A   1      46.867  32.349  29.904  1.00  0.00     0.049 A 
ATOM     66  H   UNL A   1      45.429  30.910  29.340  1.00  0.00     0.167 HD
ATOM     67  C   UNL A   1      44.713  33.303  30.685  1.00  0.00     0.074 A 
ATOM     68  C   UNL A   1      43.918  34.327  31.329  1.00  0.00     0.031 C 
ATOM     69  C   UNL A   1      46.064  33.360  30.555  1.00  0.00     0.034 A 
BRANCH  56  70
ATOM     70  C   UNL A   1      48.514  28.432  27.694  1.00  0.00     0.023 A 
ATOM     71  C   UNL A   1      49.018  28.598  26.393  1.00  0.00     0.031 A 
ATOM     72  C   UNL A   1      49.187  27.546  28.554  1.00  0.00     0.131 A 
ATOM     73  C   UNL A   1      50.119  27.839  25.968  1.00  0.00     0.055 A 
ATOM     74  C   UNL A   1      50.333  26.859  28.152  1.00  0.00     0.041 A 
ATOM     75  F   UNL A   1      48.735  27.325  29.799  1.00  0.00    -0.206 F 
ATOM     76  C   UNL A   1      50.798  26.991  26.847  1.00  0.00     0.022 A 
BRANCH  73  77
ATOM     77  S   UNL A   1      50.562  27.864  24.209  1.00  0.00     0.124 S 
ATOM     78  O   UNL A   1      51.336  26.632  24.084  1.00  0.00    -0.237 OA
ATOM     79  O   UNL A   1      49.258  27.869  23.555  1.00  0.00    -0.237 OA
ATOM     80  O   UNL A   1      51.337  29.095  24.069  1.00  0.00    -0.744 OA
ENDBRANCH  73  77
ENDBRANCH  56  70
BRANCH  57  81
ATOM     81  C   UNL A   1      40.041  32.700  30.937  1.00  0.00     0.023 A 
ATOM     82  C   UNL A   1      39.355  32.140  32.027  1.00  0.00     0.031 A 
ATOM     83  C   UNL A   1      39.473  33.829  30.316  1.00  0.00     0.131 A 
ATOM     84  C   UNL A   1      38.119  32.674  32.427  1.00  0.00     0.055 A 
ATOM     85  C   UNL A   1      38.276  34.394  30.757  1.00  0.00     0.041 A 
ATOM     86  F   UNL A   1      40.079  34.401  29.262  1.00  0.00    -0.206 F 
ATOM     87  C   UNL A   1      37.583  33.807  31.809  1.00  0.00     0.022 A 
BRANCH  84  88
ATOM     88  S   UNL A   1      37.163  31.799  33.697  1.00  0.00     0.124 S 
ATOM     89  O   UNL A   1      36.457  30.802  32.900  1.00  0.00    -0.237 OA
ATOM     90  O   UNL A   1      38.215  31.294  34.572  1.00  0.00    -0.237 OA
ATOM     91  O   UNL A   1      36.324  32.847  34.273  1.00  0.00    -0.744 OA
ENDBRANCH  84  88
ENDBRANCH  57  81
BRANCH  69  92
ATOM     92  C   UNL A   1      46.763  34.594  31.079  1.00  0.00     0.023 A 
ATOM     93  C   UNL A   1      47.179  34.699  32.418  1.00  0.00     0.031 A 
ATOM     94  C   UNL A   1      47.017  35.681  30.223  1.00  0.00     0.131 A 
ATOM     95  C   UNL A   1      47.771  35.887  32.875  1.00  0.00     0.055 A 
ATOM     96  C   UNL A   1      47.669  36.832  30.665  1.00  0.00     0.041 A 
ATOM     97  F   UNL A   1      46.638  35.640  28.935  1.00  0.00    -0.206 F 
ATOM     98  C   UNL A   1      48.038  36.946  32.003  1.00  0.00     0.022 A 
BRANCH  95  99
ATOM     99  S   UNL A   1      48.093  36.073  34.650  1.00  0.00     0.124 S 
ATOM    100  O   UNL A   1      46.873  36.725  35.113  1.00  0.00    -0.237 OA
ATOM    101  O   UNL A   1      48.281  34.692  35.080  1.00  0.00    -0.237 OA
ATOM    102  O   UNL A   1      49.295  36.904  34.696  1.00  0.00    -0.744 OA
ENDBRANCH  95  99
ENDBRANCH  69  92
ENDBRANCH  43  44
ENDBRANCH  36  38
ENDBRANCH  35  36
ENDBRANCH  34  35
ENDBRANCH  33  34
ENDBRANCH  32  33
ENDBRANCH  31  32
ENDBRANCH  30  31
ENDBRANCH   1  30
TORSDOF 27
ENDMDL
MODEL 3
REMARK VINA RESULT:      -8.9      3.365      5.043
REMARK SMILES CC(C)(C)OC(=O)N1C[C@@H](c2cccc(Cl)c2)CC[C@H]1C(=O)OCCOCCOCCOCCOC(=O)c1ccc(-c2c3nc(c(-c4cc(S(=O)(=O)[O-])ccc4F)c4ccc([nH]4)c(-c4cc(S(=O)(=O)[O-])ccc4F)c4nc(c(-c5cc(S(=O)(=O)[O-])ccc5F)c5ccc2[nH]5)C=C4)C=C3)cc1
REMARK SMILES IDX 29 1 28 2 27 3 26 4 25 5 24 6 23 7 21 8 22 9 20 10 8 11 9 12
REMARK SMILES IDX 10 13 19 14 18 15 6 16 7 17 5 18 2 19 1 20 3 21 4 22 11 23
REMARK SMILES IDX 12 24 17 25 13 26 15 27 14 28 16 29 30 30 31 31 32 32 33 33
REMARK SMILES IDX 34 34 35 35 36 36 37 37 38 38 39 39 100 40 40 41 99 42 41 43
REMARK SMILES IDX 42 44 43 45 93 46 44 47 98 48 92 49 94 50 45 51 97 52 91 53
REMARK SMILES IDX 90 54 46 56 78 57 58 58 77 59 59 60 62 61 76 62 95 63 60 64
REMARK SMILES IDX 61 65 75 67 96 68 63 69 47 70 48 71 56 72 49 73 55 74 57 75
REMARK SMILES IDX 54 76 50 77 51 78 52 79 53 80 79 81 80 82 88 83 81 84 87 85
REMARK SMILES IDX 89 86 86 87 82 88 83 89 84 90 85 91 64 92 65 93 73 94 66 95
REMARK SMILES IDX 72 96 74 97 71 98 67 99 68 100 69 101 70 102
REMARK H PARENT 94 55 62 66
REMARK Flexibility Score: inf
ROOT
ATOM      1  O   UNL A   1      32.313  23.734  26.523  1.00  0.00    -0.377 OA
ENDROOT
BRANCH   1   2
ATOM      2  C   UNL A   1      31.114  23.864  25.795  1.00  0.00     0.188 C 
BRANCH   2   3
ATOM      3  C   UNL A   1      29.964  24.551  26.548  1.00  0.00     0.188 C 
BRANCH   3   4
ATOM      4  O   UNL A   1      29.449  25.811  26.128  1.00  0.00    -0.376 OA
BRANCH   4   5
ATOM      5  C   UNL A   1      28.623  25.884  24.983  1.00  0.00     0.202 C 
BRANCH   5   6
ATOM      6  C   UNL A   1      29.051  26.866  23.879  1.00  0.00     0.261 C 
BRANCH   6   7
ATOM      7  O   UNL A   1      30.073  26.427  22.958  1.00  0.00    -0.462 OA
BRANCH   7   8
ATOM      8  C   UNL A   1      30.768  27.375  22.265  1.00  0.00     0.329 C 
ATOM      9  O   UNL A   1      30.265  28.377  21.772  1.00  0.00    -0.250 OA
BRANCH   8  10
ATOM     10  C   UNL A   1      32.290  27.044  22.187  1.00  0.00     0.198 C 
ATOM     11  N   UNL A   1      33.101  26.775  23.398  1.00  0.00    -0.294 N 
ATOM     12  C   UNL A   1      33.321  25.408  23.847  1.00  0.00     0.132 C 
ATOM     13  C   UNL A   1      33.573  24.341  22.772  1.00  0.00     0.039 C 
ATOM     14  C   UNL A   1      32.632  26.021  21.088  1.00  0.00     0.038 C 
ATOM     15  C   UNL A   1      32.651  24.562  21.556  1.00  0.00     0.013 C 
BRANCH  11  16
ATOM     16  C   UNL A   1      33.811  27.737  24.095  1.00  0.00     0.411 C 
ATOM     17  O   UNL A   1      34.543  28.532  23.514  1.00  0.00    -0.224 OA
BRANCH  16  18
ATOM     18  O   UNL A   1      33.765  27.598  25.447  1.00  0.00    -0.444 OA
BRANCH  18  19
ATOM     19  C   UNL A   1      33.063  28.638  26.198  1.00  0.00     0.106 C 
ATOM     20  C   UNL A   1      32.172  29.390  25.194  1.00  0.00     0.056 C 
ATOM     21  C   UNL A   1      34.049  29.647  26.805  1.00  0.00     0.056 C 
ATOM     22  C   UNL A   1      32.126  28.045  27.274  1.00  0.00     0.056 C 
ENDBRANCH  18  19
ENDBRANCH  16  18
ENDBRANCH  11  16
BRANCH  13  23
ATOM     23  C   UNL A   1      33.544  22.904  23.327  1.00  0.00    -0.042 A 
ATOM     24  C   UNL A   1      32.393  22.111  23.175  1.00  0.00     0.004 A 
ATOM     25  C   UNL A   1      34.670  22.287  23.912  1.00  0.00     0.024 A 
ATOM     26  C   UNL A   1      32.355  20.779  23.607  1.00  0.00     0.002 A 
ATOM     27  C   UNL A   1      34.635  20.948  24.323  1.00  0.00     0.041 A 
ATOM     28  C   UNL A   1      33.480  20.194  24.176  1.00  0.00     0.020 A 
ATOM     29  Cl  UNL A   1      36.047  20.207  24.972  1.00  0.00    -0.084 Cl
ENDBRANCH  13  23
ENDBRANCH   8  10
ENDBRANCH   7   8
ENDBRANCH   6   7
ENDBRANCH   5   6
ENDBRANCH   4   5
ENDBRANCH   3   4
ENDBRANCH   2   3
ENDBRANCH   1   2
BRANCH   1  30
ATOM     30  C   UNL A   1      32.206  22.888  27.646  1.00  0.00     0.188 C 
BRANCH  30  31
ATOM     31  C   UNL A   1      33.274  21.786  27.726  1.00  0.00     0.188 C 
BRANCH  31  32
ATOM     32  O   UNL A   1      34.632  22.104  27.481  1.00  0.00    -0.376 OA
BRANCH  32  33
ATOM     33  C   UNL A   1      35.104  23.365  27.045  1.00  0.00     0.202 C 
BRANCH  33  34
ATOM     34  C   UNL A   1      36.439  23.609  26.339  1.00  0.00     0.261 C 
BRANCH  34  35
ATOM     35  O   UNL A   1      37.600  23.111  27.008  1.00  0.00    -0.460 OA
BRANCH  35  36
ATOM     36  C   UNL A   1      38.768  23.327  26.354  1.00  0.00     0.338 C 
ATOM     37  O   UNL A   1      39.144  22.776  25.328  1.00  0.00    -0.246 OA
BRANCH  36  38
ATOM     38  C   UNL A   1      39.456  24.494  26.931  1.00  0.00     0.060 A 
ATOM     39  C   UNL A   1      39.395  24.670  28.320  1.00  0.00     0.016 A 
ATOM     40  C   UNL A   1      40.122  25.421  26.129  1.00  0.00     0.016 A 
ATOM     41  C   UNL A   1      40.002  25.774  28.914  1.00  0.00     0.010 A 
ATOM     42  C   UNL A   1      40.700  26.549  26.723  1.00  0.00     0.010 A 
ATOM     43  C   UNL A   1      40.619  26.742  28.115  1.00  0.00    -0.014 A 
BRANCH  43  44
ATOM     44  C   UNL A   1      40.966  28.051  28.722  1.00  0.00     0.031 A 
ATOM     45  C   UNL A   1      42.423  28.383  28.902  1.00  0.00     0.074 A 
ATOM     46  C   UNL A   1      40.020  28.951  29.046  1.00  0.00     0.049 A 
ATOM     47  N   UNL A   1      42.977  29.446  29.422  1.00  0.00    -0.248 NA
ATOM     48  C   UNL A   1      43.383  27.371  28.431  1.00  0.00     0.031 C 
ATOM     49  C   UNL A   1      38.581  28.770  28.856  1.00  0.00     0.029 A 
ATOM     50  N   UNL A   1      40.131  30.200  29.605  1.00  0.00    -0.354 N 
ATOM     51  C   UNL A   1      44.350  29.232  29.344  1.00  0.00     0.074 A 
ATOM     52  C   UNL A   1      44.539  27.920  28.763  1.00  0.00     0.031 C 
ATOM     53  C   UNL A   1      37.943  29.866  29.302  1.00  0.00     0.029 A 
ATOM     54  C   UNL A   1      38.921  30.809  29.846  1.00  0.00     0.049 A 
ATOM     55  H   UNL A   1      40.996  30.620  29.816  1.00  0.00     0.167 HD
ATOM     56  C   UNL A   1      45.357  30.058  29.715  1.00  0.00     0.034 A 
ATOM     57  C   UNL A   1      38.638  31.978  30.459  1.00  0.00     0.034 A 
ATOM     58  C   UNL A   1      45.151  31.357  30.305  1.00  0.00     0.049 A 
ATOM     59  C   UNL A   1      39.778  32.836  30.964  1.00  0.00     0.074 A 
ATOM     60  C   UNL A   1      46.101  32.280  30.707  1.00  0.00     0.029 A 
ATOM     61  N   UNL A   1      43.911  31.915  30.593  1.00  0.00    -0.354 N 
ATOM     62  N   UNL A   1      41.073  32.627  30.877  1.00  0.00    -0.248 NA
ATOM     63  C   UNL A   1      39.420  34.088  31.642  1.00  0.00     0.031 C 
ATOM     64  C   UNL A   1      45.441  33.350  31.318  1.00  0.00     0.029 A 
ATOM     65  C   UNL A   1      44.075  33.145  31.209  1.00  0.00     0.049 A 
ATOM     66  H   UNL A   1      43.044  31.495  30.389  1.00  0.00     0.167 HD
ATOM     67  C   UNL A   1      41.679  33.739  31.460  1.00  0.00     0.074 A 
ATOM     68  C   UNL A   1      40.609  34.621  31.877  1.00  0.00     0.031 C 
ATOM     69  C   UNL A   1      42.998  34.012  31.631  1.00  0.00     0.034 A 
BRANCH  56  70
ATOM     70  C   UNL A   1      46.769  29.549  29.552  1.00  0.00     0.023 A 
ATOM     71  C   UNL A   1      47.450  29.625  28.325  1.00  0.00     0.031 A 
ATOM     72  C   UNL A   1      47.433  28.953  30.638  1.00  0.00     0.131 A 
ATOM     73  C   UNL A   1      48.726  29.055  28.198  1.00  0.00     0.055 A 
ATOM     74  C   UNL A   1      48.736  28.465  30.527  1.00  0.00     0.041 A 
ATOM     75  F   UNL A   1      46.822  28.826  31.827  1.00  0.00    -0.206 F 
ATOM     76  C   UNL A   1      49.386  28.501  29.297  1.00  0.00     0.022 A 
BRANCH  73  77
ATOM     77  S   UNL A   1      49.452  28.917  26.541  1.00  0.00     0.124 S 
ATOM     78  O   UNL A   1      50.040  30.242  26.366  1.00  0.00    -0.237 OA
ATOM     79  O   UNL A   1      50.394  27.815  26.701  1.00  0.00    -0.237 OA
ATOM     80  O   UNL A   1      48.301  28.636  25.685  1.00  0.00    -0.744 OA
ENDBRANCH  73  77
ENDBRANCH  56  70
BRANCH  57  81
ATOM     81  C   UNL A   1      37.223  32.394  30.690  1.00  0.00     0.023 A 
ATOM     82  C   UNL A   1      36.408  32.838  29.635  1.00  0.00     0.031 A 
ATOM     83  C   UNL A   1      36.686  32.429  31.991  1.00  0.00     0.131 A 
ATOM     84  C   UNL A   1      35.128  33.348  29.905  1.00  0.00     0.055 A 
ATOM     85  C   UNL A   1      35.390  32.878  32.247  1.00  0.00     0.041 A 
ATOM     86  F   UNL A   1      37.422  32.027  33.041  1.00  0.00    -0.206 F 
ATOM     87  C   UNL A   1      34.607  33.356  31.202  1.00  0.00     0.022 A 
BRANCH  84  88
ATOM     88  S   UNL A   1      34.190  34.106  28.549  1.00  0.00     0.124 S 
ATOM     89  O   UNL A   1      32.863  34.229  29.142  1.00  0.00    -0.237 OA
ATOM     90  O   UNL A   1      34.917  35.352  28.338  1.00  0.00    -0.237 OA
ATOM     91  O   UNL A   1      34.303  33.128  27.470  1.00  0.00    -0.744 OA
ENDBRANCH  84  88
ENDBRANCH  57  81
BRANCH  69  92
ATOM     92  C   UNL A   1      43.359  35.341  32.256  1.00  0.00     0.023 A 
ATOM     93  C   UNL A   1      43.484  35.498  33.647  1.00  0.00     0.031 A 
ATOM     94  C   UNL A   1      43.583  36.467  31.443  1.00  0.00     0.131 A 
ATOM     95  C   UNL A   1      43.762  36.764  34.186  1.00  0.00     0.055 A 
ATOM     96  C   UNL A   1      43.929  37.707  31.980  1.00  0.00     0.041 A 
ATOM     97  F   UNL A   1      43.474  36.379  30.107  1.00  0.00    -0.206 F 
ATOM     98  C   UNL A   1      44.006  37.865  33.361  1.00  0.00     0.022 A 
BRANCH  95  99
ATOM     99  S   UNL A   1      43.698  36.979  35.986  1.00  0.00     0.124 S 
ATOM    100  O   UNL A   1      44.087  38.377  36.139  1.00  0.00    -0.237 OA
ATOM    101  O   UNL A   1      42.305  36.668  36.288  1.00  0.00    -0.237 OA
ATOM    102  O   UNL A   1      44.671  36.007  36.482  1.00  0.00    -0.744 OA
ENDBRANCH  95  99
ENDBRANCH  69  92
ENDBRANCH  43  44
ENDBRANCH  36  38
ENDBRANCH  35  36
ENDBRANCH  34  35
ENDBRANCH  33  34
ENDBRANCH  32  33
ENDBRANCH  31  32
ENDBRANCH  30  31
ENDBRANCH   1  30
TORSDOF 27
ENDMDL
