MODEL 1
REMARK VINA RESULT:      -8.0      0.000      0.000
REMARK SMILES O=C(COCC(=O)OCCOCCOCCOCCOC(=O)c1ccc(-c2c3nc(c(-c4cc(S(=O)(=O)[O-])ccc4F)c4ccc([nH]4)c(-c4cc(S(=O)(=O)[O-])ccc4F)c4nc(c(-c5cc(S(=O)(=O)[O-])ccc5F)c5ccc2[nH]5)C=C4)C=C3)cc1)/[NH+]=C1\S[C@@H]2CS(=O)(=O)C[C@H]2N1c1ccc(Cl)cc1
REMARK SMILES IDX 13 1 12 2 11 3 10 4 9 5 8 6 6 7 7 8 5 9 4 10 3 11 2 12 1 13
REMARK SMILES IDX 86 14 87 15 88 17 96 18 89 19 95 20 90 21 94 22 91 23 92 24
REMARK SMILES IDX 93 25 97 26 98 27 103 28 99 29 102 30 100 31 101 32 14 33
REMARK SMILES IDX 15 34 16 35 17 36 18 37 19 38 20 39 21 40 22 41 23 42 24 43
REMARK SMILES IDX 85 44 25 45 84 46 26 47 27 48 28 49 78 50 29 51 83 52 77 53
REMARK SMILES IDX 79 54 30 55 82 56 76 57 75 58 31 60 63 61 43 62 62 63 44 64
REMARK SMILES IDX 47 65 61 66 80 67 45 68 46 69 60 71 81 72 48 73 32 74 33 75
REMARK SMILES IDX 41 76 34 77 40 78 42 79 39 80 35 81 36 82 37 83 38 84 64 85
REMARK SMILES IDX 65 86 73 87 66 88 72 89 74 90 71 91 67 92 68 93 69 94 70 95
REMARK SMILES IDX 49 96 50 97 58 98 51 99 57 100 59 101 56 102 52 103 53 104
REMARK SMILES IDX 54 105 55 106
REMARK H PARENT 86 16 79 59 47 70
REMARK Flexibility Score: inf
ROOT
ATOM      1  C   UNL A   1      38.335  33.702  34.350  1.00  0.00     0.188 C 
ENDROOT
BRANCH   1   2
ATOM      2  C   UNL A   1      36.934  34.204  34.709  1.00  0.00     0.188 C 
BRANCH   2   3
ATOM      3  O   UNL A   1      35.948  34.071  33.681  1.00  0.00    -0.376 OA
BRANCH   3   4
ATOM      4  C   UNL A   1      34.811  34.931  33.750  1.00  0.00     0.202 C 
BRANCH   4   5
ATOM      5  C   UNL A   1      34.683  36.014  32.665  1.00  0.00     0.261 C 
BRANCH   5   6
ATOM      6  O   UNL A   1      33.338  36.463  32.397  1.00  0.00    -0.462 OA
BRANCH   6   7
ATOM      7  C   UNL A   1      32.889  36.281  31.126  1.00  0.00     0.332 C 
ATOM      8  O   UNL A   1      31.713  36.351  30.782  1.00  0.00    -0.250 OA
BRANCH   7   9
ATOM      9  C   UNL A   1      34.017  36.021  30.097  1.00  0.00     0.283 C 
BRANCH   9  10
ATOM     10  O   UNL A   1      33.906  35.158  28.977  1.00  0.00    -0.358 OA
BRANCH  10  11
ATOM     11  C   UNL A   1      35.154  34.670  28.520  1.00  0.00     0.288 C 
BRANCH  11  12
ATOM     12  C   UNL A   1      36.074  33.788  29.413  1.00  0.00     0.333 C 
ATOM     13  O   UNL A   1      36.411  34.182  30.529  1.00  0.00    -0.244 OA
ATOM     14  N   UNL A   1      36.527  32.589  28.921  1.00  0.00    -0.202 N 
ATOM     15  C   UNL A   1      35.697  31.643  28.647  1.00  0.00     0.319 C 
ATOM     16  H   UNL A   1      37.491  32.453  28.776  1.00  0.00     0.316 HD
ATOM     17  S   UNL A   1      33.914  31.781  28.762  1.00  0.00    -0.029 SA
ATOM     18  N   UNL A   1      36.007  30.390  28.106  1.00  0.00    -0.217 N 
ATOM     19  C   UNL A   1      33.834  30.795  27.265  1.00  0.00     0.120 C 
ATOM     20  C   UNL A   1      34.808  29.665  27.639  1.00  0.00     0.212 C 
ATOM     21  C   UNL A   1      32.550  30.184  26.783  1.00  0.00     0.156 C 
ATOM     22  C   UNL A   1      34.870  28.838  26.379  1.00  0.00     0.188 C 
ATOM     23  S   UNL A   1      33.145  28.747  25.885  1.00  0.00     0.155 S 
ATOM     24  O   UNL A   1      33.075  29.008  24.464  1.00  0.00    -0.229 OA
ATOM     25  O   UNL A   1      32.569  27.566  26.490  1.00  0.00    -0.229 OA
BRANCH  18  26
ATOM     26  C   UNL A   1      37.179  29.682  28.416  1.00  0.00     0.128 A 
ATOM     27  C   UNL A   1      38.244  29.599  27.506  1.00  0.00     0.053 A 
ATOM     28  C   UNL A   1      37.346  29.047  29.661  1.00  0.00     0.053 A 
ATOM     29  C   UNL A   1      39.420  28.902  27.814  1.00  0.00     0.025 A 
ATOM     30  C   UNL A   1      38.518  28.343  29.974  1.00  0.00     0.025 A 
ATOM     31  C   UNL A   1      39.551  28.273  29.046  1.00  0.00     0.041 A 
ATOM     32  Cl  UNL A   1      40.996  27.422  29.424  1.00  0.00    -0.084 Cl
ENDBRANCH  18  26
ENDBRANCH  11  12
ENDBRANCH  10  11
ENDBRANCH   9  10
ENDBRANCH   7   9
ENDBRANCH   6   7
ENDBRANCH   5   6
ENDBRANCH   4   5
ENDBRANCH   3   4
ENDBRANCH   2   3
ENDBRANCH   1   2
BRANCH   1  33
ATOM     33  O   UNL A   1      38.929  34.555  33.371  1.00  0.00    -0.377 OA
BRANCH  33  34
ATOM     34  C   UNL A   1      39.286  34.013  32.101  1.00  0.00     0.188 C 
BRANCH  34  35
ATOM     35  C   UNL A   1      40.775  33.892  31.764  1.00  0.00     0.188 C 
BRANCH  35  36
ATOM     36  O   UNL A   1      41.222  34.441  30.524  1.00  0.00    -0.376 OA
BRANCH  36  37
ATOM     37  C   UNL A   1      40.258  34.968  29.617  1.00  0.00     0.202 C 
BRANCH  37  38
ATOM     38  C   UNL A   1      40.773  35.591  28.317  1.00  0.00     0.261 C 
BRANCH  38  39
ATOM     39  O   UNL A   1      42.193  35.772  28.303  1.00  0.00    -0.460 OA
BRANCH  39  40
ATOM     40  C   UNL A   1      42.768  35.638  27.087  1.00  0.00     0.338 C 
ATOM     41  O   UNL A   1      42.783  36.457  26.178  1.00  0.00    -0.246 OA
BRANCH  40  42
ATOM     42  C   UNL A   1      43.536  34.385  27.066  1.00  0.00     0.060 A 
ATOM     43  C   UNL A   1      43.736  33.692  28.269  1.00  0.00     0.016 A 
ATOM     44  C   UNL A   1      44.115  33.944  25.876  1.00  0.00     0.016 A 
ATOM     45  C   UNL A   1      44.555  32.570  28.294  1.00  0.00     0.010 A 
ATOM     46  C   UNL A   1      44.960  32.839  25.908  1.00  0.00     0.010 A 
ATOM     47  C   UNL A   1      45.214  32.180  27.124  1.00  0.00    -0.014 A 
BRANCH  47  48
ATOM     48  C   UNL A   1      46.371  31.266  27.209  1.00  0.00     0.031 A 
ATOM     49  C   UNL A   1      47.739  31.872  27.064  1.00  0.00     0.074 A 
ATOM     50  C   UNL A   1      46.199  29.947  27.391  1.00  0.00     0.049 A 
ATOM     51  N   UNL A   1      48.894  31.284  26.926  1.00  0.00    -0.248 NA
ATOM     52  C   UNL A   1      47.806  33.345  27.060  1.00  0.00     0.031 C 
ATOM     53  C   UNL A   1      44.916  29.285  27.617  1.00  0.00     0.029 A 
ATOM     54  N   UNL A   1      47.112  28.926  27.388  1.00  0.00    -0.354 N 
ATOM     55  C   UNL A   1      49.823  32.311  26.792  1.00  0.00     0.074 A 
ATOM     56  C   UNL A   1      49.095  33.558  26.848  1.00  0.00     0.031 C 
ATOM     57  C   UNL A   1      45.122  27.959  27.700  1.00  0.00     0.029 A 
ATOM     58  C   UNL A   1      46.538  27.680  27.477  1.00  0.00     0.049 A 
ATOM     59  H   UNL A   1      48.084  29.070  27.329  1.00  0.00     0.167 HD
ATOM     60  C   UNL A   1      51.162  32.210  26.628  1.00  0.00     0.034 A 
ATOM     61  C   UNL A   1      47.098  26.460  27.341  1.00  0.00     0.034 A 
ATOM     62  C   UNL A   1      51.855  30.950  26.574  1.00  0.00     0.049 A 
ATOM     63  C   UNL A   1      48.585  26.376  27.071  1.00  0.00     0.074 A 
ATOM     64  C   UNL A   1      53.210  30.720  26.428  1.00  0.00     0.029 A 
ATOM     65  N   UNL A   1      51.242  29.706  26.652  1.00  0.00    -0.354 N 
ATOM     66  N   UNL A   1      49.458  27.351  26.939  1.00  0.00    -0.248 NA
ATOM     67  C   UNL A   1      49.165  25.034  26.938  1.00  0.00     0.031 C 
ATOM     68  C   UNL A   1      53.407  29.340  26.333  1.00  0.00     0.029 A 
ATOM     69  C   UNL A   1      52.189  28.706  26.522  1.00  0.00     0.049 A 
ATOM     70  H   UNL A   1      50.278  29.558  26.780  1.00  0.00     0.167 HD
ATOM     71  C   UNL A   1      50.694  26.733  26.762  1.00  0.00     0.074 A 
ATOM     72  C   UNL A   1      50.454  25.307  26.804  1.00  0.00     0.031 C 
ATOM     73  C   UNL A   1      51.921  27.289  26.591  1.00  0.00     0.034 A 
BRANCH  60  74
ATOM     74  C   UNL A   1      51.948  33.481  26.432  1.00  0.00     0.023 A 
ATOM     75  C   UNL A   1      52.420  34.244  27.513  1.00  0.00     0.031 A 
ATOM     76  C   UNL A   1      52.235  33.931  25.131  1.00  0.00     0.131 A 
ATOM     77  C   UNL A   1      53.117  35.437  27.274  1.00  0.00     0.055 A 
ATOM     78  C   UNL A   1      52.994  35.079  24.899  1.00  0.00     0.041 A 
ATOM     79  F   UNL A   1      51.780  33.261  24.060  1.00  0.00    -0.206 F 
ATOM     80  C   UNL A   1      53.433  35.844  25.974  1.00  0.00     0.022 A 
BRANCH  77  81
ATOM     81  S   UNL A   1      53.516  36.509  28.680  1.00  0.00     0.124 S 
ATOM     82  O   UNL A   1      52.492  36.119  29.647  1.00  0.00    -0.237 OA
ATOM     83  O   UNL A   1      54.882  36.115  29.002  1.00  0.00    -0.237 OA
ATOM     84  O   UNL A   1      53.368  37.858  28.137  1.00  0.00    -0.744 OA
ENDBRANCH  77  81
ENDBRANCH  60  74
BRANCH  61  85
ATOM     85  C   UNL A   1      46.264  25.223  27.395  1.00  0.00     0.023 A 
ATOM     86  C   UNL A   1      45.792  24.622  26.219  1.00  0.00     0.031 A 
ATOM     87  C   UNL A   1      45.849  24.676  28.624  1.00  0.00     0.131 A 
ATOM     88  C   UNL A   1      44.873  23.565  26.293  1.00  0.00     0.055 A 
ATOM     89  C   UNL A   1      44.993  23.576  28.691  1.00  0.00     0.041 A 
ATOM     90  F   UNL A   1      46.266  25.211  29.783  1.00  0.00    -0.206 F 
ATOM     91  C   UNL A   1      44.483  23.026  27.521  1.00  0.00     0.022 A 
BRANCH  88  92
ATOM     92  S   UNL A   1      44.083  23.001  24.760  1.00  0.00     0.124 S 
ATOM     93  O   UNL A   1      42.998  23.966  24.619  1.00  0.00    -0.237 OA
ATOM     94  O   UNL A   1      45.174  23.116  23.800  1.00  0.00    -0.237 OA
ATOM     95  O   UNL A   1      43.669  21.636  25.075  1.00  0.00    -0.744 OA
ENDBRANCH  88  92
ENDBRANCH  61  85
BRANCH  73  96
ATOM     96  C   UNL A   1      53.106  26.357  26.531  1.00  0.00     0.023 A 
ATOM     97  C   UNL A   1      53.942  26.135  27.638  1.00  0.00     0.031 A 
ATOM     98  C   UNL A   1      53.377  25.654  25.343  1.00  0.00     0.131 A 
ATOM     99  C   UNL A   1      55.035  25.265  27.520  1.00  0.00     0.055 A 
ATOM    100  C   UNL A   1      54.424  24.740  25.251  1.00  0.00     0.041 A 
ATOM    101  F   UNL A   1      52.609  25.831  24.255  1.00  0.00    -0.206 F 
ATOM    102  C   UNL A   1      55.269  24.549  26.341  1.00  0.00     0.022 A 
BRANCH  99 103
ATOM    103  S   UNL A   1      56.200  25.134  28.903  1.00  0.00     0.124 S 
ATOM    104  O   UNL A   1      56.712  23.777  28.740  1.00  0.00    -0.237 OA
ATOM    105  O   UNL A   1      57.144  26.209  28.619  1.00  0.00    -0.237 OA
ATOM    106  O   UNL A   1      55.361  25.343  30.080  1.00  0.00    -0.744 OA
ENDBRANCH  99 103
ENDBRANCH  73  96
ENDBRANCH  47  48
ENDBRANCH  40  42
ENDBRANCH  39  40
ENDBRANCH  38  39
ENDBRANCH  37  38
ENDBRANCH  36  37
ENDBRANCH  35  36
ENDBRANCH  34  35
ENDBRANCH  33  34
ENDBRANCH   1  33
TORSDOF 27
ENDMDL
MODEL 2
REMARK VINA RESULT:      -7.5      7.920     15.326
REMARK SMILES O=C(COCC(=O)OCCOCCOCCOCCOC(=O)c1ccc(-c2c3nc(c(-c4cc(S(=O)(=O)[O-])ccc4F)c4ccc([nH]4)c(-c4cc(S(=O)(=O)[O-])ccc4F)c4nc(c(-c5cc(S(=O)(=O)[O-])ccc5F)c5ccc2[nH]5)C=C4)C=C3)cc1)/[NH+]=C1\S[C@@H]2CS(=O)(=O)C[C@H]2N1c1ccc(Cl)cc1
REMARK SMILES IDX 13 1 12 2 11 3 10 4 9 5 8 6 6 7 7 8 5 9 4 10 3 11 2 12 1 13
REMARK SMILES IDX 86 14 87 15 88 17 96 18 89 19 95 20 90 21 94 22 91 23 92 24
REMARK SMILES IDX 93 25 97 26 98 27 103 28 99 29 102 30 100 31 101 32 14 33
REMARK SMILES IDX 15 34 16 35 17 36 18 37 19 38 20 39 21 40 22 41 23 42 24 43
REMARK SMILES IDX 85 44 25 45 84 46 26 47 27 48 28 49 78 50 29 51 83 52 77 53
REMARK SMILES IDX 79 54 30 55 82 56 76 57 75 58 31 60 63 61 43 62 62 63 44 64
REMARK SMILES IDX 47 65 61 66 80 67 45 68 46 69 60 71 81 72 48 73 32 74 33 75
REMARK SMILES IDX 41 76 34 77 40 78 42 79 39 80 35 81 36 82 37 83 38 84 64 85
REMARK SMILES IDX 65 86 73 87 66 88 72 89 74 90 71 91 67 92 68 93 69 94 70 95
REMARK SMILES IDX 49 96 50 97 58 98 51 99 57 100 59 101 56 102 52 103 53 104
REMARK SMILES IDX 54 105 55 106
REMARK H PARENT 86 16 79 59 47 70
REMARK Flexibility Score: inf
ROOT
ATOM      1  C   UNL A   1      49.739  25.123  29.045  1.00  0.00     0.188 C 
ENDROOT
BRANCH   1   2
ATOM      2  C   UNL A   1      49.875  25.192  30.569  1.00  0.00     0.188 C 
BRANCH   2   3
ATOM      3  O   UNL A   1      50.756  24.228  31.154  1.00  0.00    -0.376 OA
BRANCH   3   4
ATOM      4  C   UNL A   1      50.870  24.225  32.576  1.00  0.00     0.202 C 
BRANCH   4   5
ATOM      5  C   UNL A   1      50.339  22.987  33.321  1.00  0.00     0.261 C 
BRANCH   5   6
ATOM      6  O   UNL A   1      50.956  21.736  32.956  1.00  0.00    -0.462 OA
BRANCH   6   7
ATOM      7  C   UNL A   1      50.356  20.611  33.433  1.00  0.00     0.332 C 
ATOM      8  O   UNL A   1      49.237  20.224  33.112  1.00  0.00    -0.250 OA
BRANCH   7   9
ATOM      9  C   UNL A   1      51.243  19.798  34.408  1.00  0.00     0.283 C 
BRANCH   9  10
ATOM     10  O   UNL A   1      50.927  19.543  35.767  1.00  0.00    -0.358 OA
BRANCH  10  11
ATOM     11  C   UNL A   1      50.530  20.701  36.477  1.00  0.00     0.288 C 
BRANCH  11  12
ATOM     12  C   UNL A   1      51.204  21.124  37.813  1.00  0.00     0.333 C 
ATOM     13  O   UNL A   1      51.811  22.192  37.887  1.00  0.00    -0.244 OA
ATOM     14  N   UNL A   1      51.141  20.272  38.888  1.00  0.00    -0.202 N 
ATOM     15  C   UNL A   1      50.006  19.984  39.423  1.00  0.00     0.319 C 
ATOM     16  H   UNL A   1      51.968  19.881  39.252  1.00  0.00     0.316 HD
ATOM     17  S   UNL A   1      48.416  20.537  38.810  1.00  0.00    -0.029 SA
ATOM     18  N   UNL A   1      49.784  19.107  40.492  1.00  0.00    -0.217 N 
ATOM     19  C   UNL A   1      47.789  18.910  39.236  1.00  0.00     0.120 C 
ATOM     20  C   UNL A   1      48.356  18.772  40.660  1.00  0.00     0.212 C 
ATOM     21  C   UNL A   1      46.319  18.608  39.271  1.00  0.00     0.156 C 
ATOM     22  C   UNL A   1      47.949  17.374  41.054  1.00  0.00     0.188 C 
ATOM     23  S   UNL A   1      46.248  17.285  40.484  1.00  0.00     0.155 S 
ATOM     24  O   UNL A   1      46.072  16.021  39.803  1.00  0.00    -0.229 OA
ATOM     25  O   UNL A   1      45.391  17.712  41.568  1.00  0.00    -0.229 OA
BRANCH  18  26
ATOM     26  C   UNL A   1      50.670  18.963  41.571  1.00  0.00     0.128 A 
ATOM     27  C   UNL A   1      50.319  19.379  42.864  1.00  0.00     0.053 A 
ATOM     28  C   UNL A   1      51.937  18.372  41.407  1.00  0.00     0.053 A 
ATOM     29  C   UNL A   1      51.196  19.228  43.947  1.00  0.00     0.025 A 
ATOM     30  C   UNL A   1      52.822  18.224  42.485  1.00  0.00     0.025 A 
ATOM     31  C   UNL A   1      52.447  18.655  43.752  1.00  0.00     0.041 A 
ATOM     32  Cl  UNL A   1      53.520  18.467  45.082  1.00  0.00    -0.084 Cl
ENDBRANCH  18  26
ENDBRANCH  11  12
ENDBRANCH  10  11
ENDBRANCH   9  10
ENDBRANCH   7   9
ENDBRANCH   6   7
ENDBRANCH   5   6
ENDBRANCH   4   5
ENDBRANCH   3   4
ENDBRANCH   2   3
ENDBRANCH   1   2
BRANCH   1  33
ATOM     33  O   UNL A   1      48.388  25.375  28.658  1.00  0.00    -0.377 OA
BRANCH  33  34
ATOM     34  C   UNL A   1      47.907  24.845  27.425  1.00  0.00     0.188 C 
BRANCH  34  35
ATOM     35  C   UNL A   1      46.659  25.481  26.807  1.00  0.00     0.188 C 
BRANCH  35  36
ATOM     36  O   UNL A   1      46.017  24.782  25.740  1.00  0.00    -0.376 OA
BRANCH  36  37
ATOM     37  C   UNL A   1      45.044  23.790  26.053  1.00  0.00     0.202 C 
BRANCH  37  38
ATOM     38  C   UNL A   1      43.748  23.784  25.238  1.00  0.00     0.261 C 
BRANCH  38  39
ATOM     39  O   UNL A   1      43.180  25.088  25.076  1.00  0.00    -0.460 OA
BRANCH  39  40
ATOM     40  C   UNL A   1      42.395  25.494  26.100  1.00  0.00     0.338 C 
ATOM     41  O   UNL A   1      41.558  24.834  26.701  1.00  0.00    -0.246 OA
BRANCH  40  42
ATOM     42  C   UNL A   1      42.815  26.842  26.507  1.00  0.00     0.060 A 
ATOM     43  C   UNL A   1      43.648  26.985  27.626  1.00  0.00     0.016 A 
ATOM     44  C   UNL A   1      42.325  27.958  25.829  1.00  0.00     0.016 A 
ATOM     45  C   UNL A   1      43.964  28.253  28.098  1.00  0.00     0.010 A 
ATOM     46  C   UNL A   1      42.614  29.227  26.321  1.00  0.00     0.010 A 
ATOM     47  C   UNL A   1      43.397  29.371  27.480  1.00  0.00    -0.014 A 
BRANCH  47  48
ATOM     48  C   UNL A   1      43.387  30.668  28.187  1.00  0.00     0.031 A 
ATOM     49  C   UNL A   1      44.487  31.639  27.860  1.00  0.00     0.074 A 
ATOM     50  C   UNL A   1      42.443  30.953  29.097  1.00  0.00     0.049 A 
ATOM     51  N   UNL A   1      44.809  32.755  28.452  1.00  0.00    -0.248 NA
ATOM     52  C   UNL A   1      45.349  31.291  26.715  1.00  0.00     0.031 C 
ATOM     53  C   UNL A   1      41.298  30.103  29.422  1.00  0.00     0.029 A 
ATOM     54  N   UNL A   1      42.313  32.030  29.933  1.00  0.00    -0.354 N 
ATOM     55  C   UNL A   1      45.925  33.231  27.771  1.00  0.00     0.074 A 
ATOM     56  C   UNL A   1      46.234  32.274  26.732  1.00  0.00     0.031 C 
ATOM     57  C   UNL A   1      40.597  30.682  30.414  1.00  0.00     0.029 A 
ATOM     58  C   UNL A   1      41.277  31.906  30.828  1.00  0.00     0.049 A 
ATOM     59  H   UNL A   1      42.905  32.817  29.897  1.00  0.00     0.167 HD
ATOM     60  C   UNL A   1      46.627  34.363  28.005  1.00  0.00     0.034 A 
ATOM     61  C   UNL A   1      40.955  32.676  31.887  1.00  0.00     0.034 A 
ATOM     62  C   UNL A   1      46.292  35.294  29.051  1.00  0.00     0.049 A 
ATOM     63  C   UNL A   1      41.810  33.891  32.181  1.00  0.00     0.074 A 
ATOM     64  C   UNL A   1      46.917  36.483  29.376  1.00  0.00     0.029 A 
ATOM     65  N   UNL A   1      45.245  35.131  29.950  1.00  0.00    -0.354 N 
ATOM     66  N   UNL A   1      42.868  34.333  31.537  1.00  0.00    -0.248 NA
ATOM     67  C   UNL A   1      41.426  34.713  33.336  1.00  0.00     0.031 C 
ATOM     68  C   UNL A   1      46.302  36.996  30.521  1.00  0.00     0.029 A 
ATOM     69  C   UNL A   1      45.229  36.182  30.849  1.00  0.00     0.049 A 
ATOM     70  H   UNL A   1      44.609  34.380  29.946  1.00  0.00     0.167 HD
ATOM     71  C   UNL A   1      43.238  35.513  32.180  1.00  0.00     0.074 A 
ATOM     72  C   UNL A   1      42.293  35.712  33.258  1.00  0.00     0.031 C 
ATOM     73  C   UNL A   1      44.258  36.364  31.902  1.00  0.00     0.034 A 
BRANCH  60  74
ATOM     74  C   UNL A   1      47.852  34.622  27.167  1.00  0.00     0.023 A 
ATOM     75  C   UNL A   1      49.116  34.114  27.512  1.00  0.00     0.031 A 
ATOM     76  C   UNL A   1      47.746  35.389  25.993  1.00  0.00     0.131 A 
ATOM     77  C   UNL A   1      50.230  34.413  26.714  1.00  0.00     0.055 A 
ATOM     78  C   UNL A   1      48.844  35.621  25.163  1.00  0.00     0.041 A 
ATOM     79  F   UNL A   1      46.571  35.929  25.633  1.00  0.00    -0.206 F 
ATOM     80  C   UNL A   1      50.097  35.138  25.526  1.00  0.00     0.022 A 
BRANCH  77  81
ATOM     81  S   UNL A   1      51.876  33.933  27.302  1.00  0.00     0.124 S 
ATOM     82  O   UNL A   1      52.726  34.916  26.632  1.00  0.00    -0.237 OA
ATOM     83  O   UNL A   1      51.750  34.078  28.748  1.00  0.00    -0.237 OA
ATOM     84  O   UNL A   1      52.025  32.560  26.823  1.00  0.00    -0.744 OA
ENDBRANCH  77  81
ENDBRANCH  60  74
BRANCH  61  85
ATOM     85  C   UNL A   1      39.821  32.309  32.786  1.00  0.00     0.023 A 
ATOM     86  C   UNL A   1      38.561  32.906  32.635  1.00  0.00     0.031 A 
ATOM     87  C   UNL A   1      40.004  31.427  33.868  1.00  0.00     0.131 A 
ATOM     88  C   UNL A   1      37.559  32.678  33.591  1.00  0.00     0.055 A 
ATOM     89  C   UNL A   1      38.980  31.145  34.773  1.00  0.00     0.041 A 
ATOM     90  F   UNL A   1      41.189  30.828  34.065  1.00  0.00    -0.206 F 
ATOM     91  C   UNL A   1      37.754  31.789  34.650  1.00  0.00     0.022 A 
BRANCH  88  92
ATOM     92  S   UNL A   1      36.047  33.677  33.508  1.00  0.00     0.124 S 
ATOM     93  O   UNL A   1      36.590  35.031  33.523  1.00  0.00    -0.237 OA
ATOM     94  O   UNL A   1      35.462  33.233  32.248  1.00  0.00    -0.237 OA
ATOM     95  O   UNL A   1      35.315  33.283  34.709  1.00  0.00    -0.744 OA
ENDBRANCH  88  92
ENDBRANCH  61  85
BRANCH  73  96
ATOM     96  C   UNL A   1      44.350  37.632  32.714  1.00  0.00     0.023 A 
ATOM     97  C   UNL A   1      43.590  38.774  32.410  1.00  0.00     0.031 A 
ATOM     98  C   UNL A   1      45.195  37.676  33.838  1.00  0.00     0.131 A 
ATOM     99  C   UNL A   1      43.725  39.927  33.196  1.00  0.00     0.055 A 
ATOM    100  C   UNL A   1      45.275  38.803  34.654  1.00  0.00     0.041 A 
ATOM    101  F   UNL A   1      45.944  36.612  34.172  1.00  0.00    -0.206 F 
ATOM    102  C   UNL A   1      44.546  39.942  34.329  1.00  0.00     0.022 A 
BRANCH  99 103
ATOM    103  S   UNL A   1      42.873  41.441  32.678  1.00  0.00     0.124 S 
ATOM    104  O   UNL A   1      42.334  41.055  31.378  1.00  0.00    -0.237 OA
ATOM    105  O   UNL A   1      41.893  41.628  33.743  1.00  0.00    -0.237 OA
ATOM    106  O   UNL A   1      43.939  42.439  32.636  1.00  0.00    -0.744 OA
ENDBRANCH  99 103
ENDBRANCH  73  96
ENDBRANCH  47  48
ENDBRANCH  40  42
ENDBRANCH  39  40
ENDBRANCH  38  39
ENDBRANCH  37  38
ENDBRANCH  36  37
ENDBRANCH  35  36
ENDBRANCH  34  35
ENDBRANCH  33  34
ENDBRANCH   1  33
TORSDOF 27
ENDMDL
MODEL 3
REMARK VINA RESULT:      -7.5      5.320     10.884
REMARK SMILES O=C(COCC(=O)OCCOCCOCCOCCOC(=O)c1ccc(-c2c3nc(c(-c4cc(S(=O)(=O)[O-])ccc4F)c4ccc([nH]4)c(-c4cc(S(=O)(=O)[O-])ccc4F)c4nc(c(-c5cc(S(=O)(=O)[O-])ccc5F)c5ccc2[nH]5)C=C4)C=C3)cc1)/[NH+]=C1\S[C@@H]2CS(=O)(=O)C[C@H]2N1c1ccc(Cl)cc1
REMARK SMILES IDX 13 1 12 2 11 3 10 4 9 5 8 6 6 7 7 8 5 9 4 10 3 11 2 12 1 13
REMARK SMILES IDX 86 14 87 15 88 17 96 18 89 19 95 20 90 21 94 22 91 23 92 24
REMARK SMILES IDX 93 25 97 26 98 27 103 28 99 29 102 30 100 31 101 32 14 33
REMARK SMILES IDX 15 34 16 35 17 36 18 37 19 38 20 39 21 40 22 41 23 42 24 43
REMARK SMILES IDX 85 44 25 45 84 46 26 47 27 48 28 49 78 50 29 51 83 52 77 53
REMARK SMILES IDX 79 54 30 55 82 56 76 57 75 58 31 60 63 61 43 62 62 63 44 64
REMARK SMILES IDX 47 65 61 66 80 67 45 68 46 69 60 71 81 72 48 73 32 74 33 75
REMARK SMILES IDX 41 76 34 77 40 78 42 79 39 80 35 81 36 82 37 83 38 84 64 85
REMARK SMILES IDX 65 86 73 87 66 88 72 89 74 90 71 91 67 92 68 93 69 94 70 95
REMARK SMILES IDX 49 96 50 97 58 98 51 99 57 100 59 101 56 102 52 103 53 104
REMARK SMILES IDX 54 105 55 106
REMARK H PARENT 86 16 79 59 47 70
REMARK Flexibility Score: inf
ROOT
ATOM      1  C   UNL A   1      42.370  37.425  38.624  1.00  0.00     0.188 C 
ENDROOT
BRANCH   1   2
ATOM      2  C   UNL A   1      42.095  36.145  39.418  1.00  0.00     0.188 C 
BRANCH   2   3
ATOM      3  O   UNL A   1      43.220  35.281  39.605  1.00  0.00    -0.376 OA
BRANCH   3   4
ATOM      4  C   UNL A   1      42.962  33.880  39.685  1.00  0.00     0.202 C 
BRANCH   4   5
ATOM      5  C   UNL A   1      44.066  32.996  40.293  1.00  0.00     0.261 C 
BRANCH   5   6
ATOM      6  O   UNL A   1      45.085  32.558  39.371  1.00  0.00    -0.462 OA
BRANCH   6   7
ATOM      7  C   UNL A   1      44.645  32.089  38.172  1.00  0.00     0.332 C 
ATOM      8  O   UNL A   1      44.441  32.782  37.181  1.00  0.00    -0.250 OA
BRANCH   7   9
ATOM      9  C   UNL A   1      44.466  30.551  38.133  1.00  0.00     0.283 C 
BRANCH   9  10
ATOM     10  O   UNL A   1      43.677  29.853  37.183  1.00  0.00    -0.358 OA
BRANCH  10  11
ATOM     11  C   UNL A   1      44.337  28.733  36.623  1.00  0.00     0.288 C 
BRANCH  11  12
ATOM     12  C   UNL A   1      44.111  27.289  37.154  1.00  0.00     0.333 C 
ATOM     13  O   UNL A   1      43.462  27.105  38.184  1.00  0.00    -0.244 OA
ATOM     14  N   UNL A   1      44.674  26.235  36.478  1.00  0.00    -0.202 N 
ATOM     15  C   UNL A   1      44.311  25.968  35.272  1.00  0.00     0.319 C 
ATOM     16  H   UNL A   1      45.359  25.682  36.918  1.00  0.00     0.316 HD
ATOM     17  S   UNL A   1      43.154  26.945  34.312  1.00  0.00    -0.029 SA
ATOM     18  N   UNL A   1      44.821  24.957  34.449  1.00  0.00    -0.217 N 
ATOM     19  C   UNL A   1      44.210  26.632  32.894  1.00  0.00     0.120 C 
ATOM     20  C   UNL A   1      44.407  25.113  33.040  1.00  0.00     0.212 C 
ATOM     21  C   UNL A   1      43.766  26.927  31.491  1.00  0.00     0.156 C 
ATOM     22  C   UNL A   1      45.374  24.787  31.929  1.00  0.00     0.188 C 
ATOM     23  S   UNL A   1      44.717  25.730  30.548  1.00  0.00     0.155 S 
ATOM     24  O   UNL A   1      45.823  26.400  29.900  1.00  0.00    -0.229 OA
ATOM     25  O   UNL A   1      43.791  24.883  29.830  1.00  0.00    -0.229 OA
BRANCH  18  26
ATOM     26  C   UNL A   1      45.223  23.700  34.927  1.00  0.00     0.128 A 
ATOM     27  C   UNL A   1      46.332  23.563  35.776  1.00  0.00     0.053 A 
ATOM     28  C   UNL A   1      44.517  22.528  34.598  1.00  0.00     0.053 A 
ATOM     29  C   UNL A   1      46.733  22.312  36.264  1.00  0.00     0.025 A 
ATOM     30  C   UNL A   1      44.915  21.272  35.078  1.00  0.00     0.025 A 
ATOM     31  C   UNL A   1      46.025  21.170  35.910  1.00  0.00     0.041 A 
ATOM     32  Cl  UNL A   1      46.514  19.636  36.514  1.00  0.00    -0.084 Cl
ENDBRANCH  18  26
ENDBRANCH  11  12
ENDBRANCH  10  11
ENDBRANCH   9  10
ENDBRANCH   7   9
ENDBRANCH   6   7
ENDBRANCH   5   6
ENDBRANCH   4   5
ENDBRANCH   3   4
ENDBRANCH   2   3
ENDBRANCH   1   2
BRANCH   1  33
ATOM     33  O   UNL A   1      43.760  37.529  38.320  1.00  0.00    -0.377 OA
BRANCH  33  34
ATOM     34  C   UNL A   1      44.247  36.986  37.094  1.00  0.00     0.188 C 
BRANCH  34  35
ATOM     35  C   UNL A   1      43.684  37.548  35.786  1.00  0.00     0.188 C 
BRANCH  35  36
ATOM     36  O   UNL A   1      44.332  37.174  34.570  1.00  0.00    -0.376 OA
BRANCH  36  37
ATOM     37  C   UNL A   1      43.939  37.808  33.356  1.00  0.00     0.202 C 
BRANCH  37  38
ATOM     38  C   UNL A   1      44.973  37.889  32.230  1.00  0.00     0.261 C 
BRANCH  38  39
ATOM     39  O   UNL A   1      45.366  36.604  31.735  1.00  0.00    -0.460 OA
BRANCH  39  40
ATOM     40  C   UNL A   1      45.547  36.546  30.396  1.00  0.00     0.338 C 
ATOM     41  O   UNL A   1      45.919  37.447  29.657  1.00  0.00    -0.246 OA
BRANCH  40  42
ATOM     42  C   UNL A   1      45.379  35.153  29.961  1.00  0.00     0.060 A 
ATOM     43  C   UNL A   1      44.650  34.889  28.792  1.00  0.00     0.016 A 
ATOM     44  C   UNL A   1      45.878  34.113  30.747  1.00  0.00     0.016 A 
ATOM     45  C   UNL A   1      44.380  33.577  28.424  1.00  0.00     0.010 A 
ATOM     46  C   UNL A   1      45.580  32.800  30.396  1.00  0.00     0.010 A 
ATOM     47  C   UNL A   1      44.794  32.535  29.260  1.00  0.00    -0.014 A 
BRANCH  47  48
ATOM     48  C   UNL A   1      44.188  31.197  29.112  1.00  0.00     0.031 A 
ATOM     49  C   UNL A   1      44.960  30.175  28.326  1.00  0.00     0.074 A 
ATOM     50  C   UNL A   1      42.988  30.918  29.644  1.00  0.00     0.049 A 
ATOM     51  N   UNL A   1      44.586  29.000  27.902  1.00  0.00    -0.248 NA
ATOM     52  C   UNL A   1      46.341  30.538  27.956  1.00  0.00     0.031 C 
ATOM     53  C   UNL A   1      42.204  31.822  30.483  1.00  0.00     0.029 A 
ATOM     54  N   UNL A   1      42.208  29.797  29.534  1.00  0.00    -0.354 N 
ATOM     55  C   UNL A   1      45.671  28.493  27.195  1.00  0.00     0.074 A 
ATOM     56  C   UNL A   1      46.712  29.495  27.232  1.00  0.00     0.031 C 
ATOM     57  C   UNL A   1      41.036  31.229  30.787  1.00  0.00     0.029 A 
ATOM     58  C   UNL A   1      40.970  29.932  30.118  1.00  0.00     0.049 A 
ATOM     59  H   UNL A   1      42.505  28.974  29.080  1.00  0.00     0.167 HD
ATOM     60  C   UNL A   1      45.776  27.300  26.567  1.00  0.00     0.034 A 
ATOM     61  C   UNL A   1      39.898  29.116  30.066  1.00  0.00     0.034 A 
ATOM     62  C   UNL A   1      44.716  26.326  26.547  1.00  0.00     0.049 A 
ATOM     63  C   UNL A   1      40.012  27.825  29.283  1.00  0.00     0.074 A 
ATOM     64  C   UNL A   1      44.710  25.075  25.960  1.00  0.00     0.029 A 
ATOM     65  N   UNL A   1      43.470  26.500  27.136  1.00  0.00    -0.354 N 
ATOM     66  N   UNL A   1      41.040  27.354  28.610  1.00  0.00    -0.248 NA
ATOM     67  C   UNL A   1      38.830  26.954  29.255  1.00  0.00     0.031 C 
ATOM     68  C   UNL A   1      43.433  24.529  26.119  1.00  0.00     0.029 A 
ATOM     69  C   UNL A   1      42.676  25.394  26.894  1.00  0.00     0.049 A 
ATOM     70  H   UNL A   1      43.193  27.294  27.649  1.00  0.00     0.167 HD
ATOM     71  C   UNL A   1      40.640  26.109  28.129  1.00  0.00     0.074 A 
ATOM     72  C   UNL A   1      39.282  25.904  28.586  1.00  0.00     0.031 C 
ATOM     73  C   UNL A   1      41.331  25.209  27.384  1.00  0.00     0.034 A 
BRANCH  60  74
ATOM     74  C   UNL A   1      47.041  27.013  25.800  1.00  0.00     0.023 A 
ATOM     75  C   UNL A   1      48.153  26.394  26.397  1.00  0.00     0.031 A 
ATOM     76  C   UNL A   1      47.129  27.361  24.441  1.00  0.00     0.131 A 
ATOM     77  C   UNL A   1      49.319  26.181  25.646  1.00  0.00     0.055 A 
ATOM     78  C   UNL A   1      48.264  27.078  23.680  1.00  0.00     0.041 A 
ATOM     79  F   UNL A   1      46.111  27.986  23.828  1.00  0.00    -0.206 F 
ATOM     80  C   UNL A   1      49.371  26.491  24.285  1.00  0.00     0.022 A 
BRANCH  77  81
ATOM     81  S   UNL A   1      50.805  25.588  26.498  1.00  0.00     0.124 S 
ATOM     82  O   UNL A   1      51.672  25.243  25.372  1.00  0.00    -0.237 OA
ATOM     83  O   UNL A   1      51.208  26.752  27.279  1.00  0.00    -0.237 OA
ATOM     84  O   UNL A   1      50.325  24.449  27.277  1.00  0.00    -0.744 OA
ENDBRANCH  77  81
ENDBRANCH  60  74
BRANCH  61  85
ATOM     85  C   UNL A   1      38.610  29.500  30.715  1.00  0.00     0.023 A 
ATOM     86  C   UNL A   1      37.682  30.312  30.046  1.00  0.00     0.031 A 
ATOM     87  C   UNL A   1      38.328  29.141  32.046  1.00  0.00     0.131 A 
ATOM     88  C   UNL A   1      36.559  30.802  30.730  1.00  0.00     0.055 A 
ATOM     89  C   UNL A   1      37.171  29.570  32.698  1.00  0.00     0.041 A 
ATOM     90  F   UNL A   1      39.180  28.368  32.738  1.00  0.00    -0.206 F 
ATOM     91  C   UNL A   1      36.288  30.423  32.046  1.00  0.00     0.022 A 
BRANCH  88  92
ATOM     92  S   UNL A   1      35.536  32.060  29.916  1.00  0.00     0.124 S 
ATOM     93  O   UNL A   1      35.081  31.344  28.729  1.00  0.00    -0.237 OA
ATOM     94  O   UNL A   1      34.526  32.329  30.932  1.00  0.00    -0.237 OA
ATOM     95  O   UNL A   1      36.476  33.150  29.666  1.00  0.00    -0.744 OA
ENDBRANCH  88  92
ENDBRANCH  61  85
BRANCH  73  96
ATOM     96  C   UNL A   1      40.668  23.884  27.099  1.00  0.00     0.023 A 
ATOM     97  C   UNL A   1      39.521  23.777  26.295  1.00  0.00     0.031 A 
ATOM     98  C   UNL A   1      41.226  22.703  27.622  1.00  0.00     0.131 A 
ATOM     99  C   UNL A   1      38.943  22.518  26.073  1.00  0.00     0.055 A 
ATOM    100  C   UNL A   1      40.686  21.449  27.343  1.00  0.00     0.041 A 
ATOM    101  F   UNL A   1      42.321  22.750  28.398  1.00  0.00    -0.206 F 
ATOM    102  C   UNL A   1      39.531  21.351  26.573  1.00  0.00     0.022 A 
BRANCH  99 103
ATOM    103  S   UNL A   1      37.366  22.426  25.184  1.00  0.00     0.124 S 
ATOM    104  O   UNL A   1      37.641  21.401  24.183  1.00  0.00    -0.237 OA
ATOM    105  O   UNL A   1      36.433  22.050  26.241  1.00  0.00    -0.237 OA
ATOM    106  O   UNL A   1      37.190  23.777  24.656  1.00  0.00    -0.744 OA
ENDBRANCH  99 103
ENDBRANCH  73  96
ENDBRANCH  47  48
ENDBRANCH  40  42
ENDBRANCH  39  40
ENDBRANCH  38  39
ENDBRANCH  37  38
ENDBRANCH  36  37
ENDBRANCH  35  36
ENDBRANCH  34  35
ENDBRANCH  33  34
ENDBRANCH   1  33
TORSDOF 27
ENDMDL
