MODEL 1
REMARK VINA RESULT:      -7.7      0.000      0.000
REMARK SMILES CC(C)[NH2+][C@@]1(C(=O)OCCOCCOCCOCCOC(=O)c2ccc(-c3c4nc(c(-c5cc(S(=O)(=O)[O-])ccc5F)c5ccc([nH]5)c(-c5cc(S(=O)(=O)[O-])ccc5F)c5nc(c(-c6cc(S(=O)(=O)[O-])ccc6F)c6ccc3[nH]6)C=C5)C=C4)cc2)CCC[C@@H]1CCOC1CCOCC1
REMARK SMILES IDX 13 1 12 2 11 3 10 4 9 5 8 6 6 7 7 8 5 9 86 10 89 11 87 12
REMARK SMILES IDX 88 13 4 14 2 17 1 18 3 19 90 20 91 21 92 22 93 23 94 24
REMARK SMILES IDX 98 25 95 26 97 27 96 28 14 29 15 30 16 31 17 32 18 33 19 34
REMARK SMILES IDX 20 35 21 36 22 37 23 38 24 39 85 40 25 41 84 42 26 43 27 44
REMARK SMILES IDX 28 45 78 46 29 47 83 48 77 49 79 50 30 51 82 52 76 53 75 54
REMARK SMILES IDX 31 56 63 57 43 58 62 59 44 60 47 61 61 62 80 63 45 64 46 65
REMARK SMILES IDX 60 67 81 68 48 69 32 70 33 71 41 72 34 73 40 74 42 75 39 76
REMARK SMILES IDX 35 77 36 78 37 79 38 80 64 81 65 82 73 83 66 84 72 85 74 86
REMARK SMILES IDX 71 87 67 88 68 89 69 90 70 91 49 92 50 93 58 94 51 95 57 96
REMARK SMILES IDX 59 97 56 98 52 99 53 100 54 101 55 102
REMARK H PARENT 4 15 4 16 79 55 47 66
REMARK Flexibility Score: inf
ROOT
ATOM      1  C   UNL A   1      33.700  30.534  27.022  1.00  0.00     0.188 C 
ENDROOT
BRANCH   1   2
ATOM      2  C   UNL A   1      32.284  30.505  26.445  1.00  0.00     0.188 C 
BRANCH   2   3
ATOM      3  O   UNL A   1      32.034  29.945  25.157  1.00  0.00    -0.376 OA
BRANCH   3   4
ATOM      4  C   UNL A   1      32.996  29.081  24.572  1.00  0.00     0.202 C 
BRANCH   4   5
ATOM      5  C   UNL A   1      32.544  28.422  23.254  1.00  0.00     0.261 C 
BRANCH   5   6
ATOM      6  O   UNL A   1      31.970  27.101  23.347  1.00  0.00    -0.459 OA
BRANCH   6   7
ATOM      7  C   UNL A   1      32.839  26.055  23.354  1.00  0.00     0.368 C 
ATOM      8  O   UNL A   1      33.686  25.874  22.481  1.00  0.00    -0.245 OA
BRANCH   7   9
ATOM      9  C   UNL A   1      32.624  25.029  24.568  1.00  0.00     0.197 C 
ATOM     10  C   UNL A   1      33.009  25.939  25.765  1.00  0.00     0.081 C 
ATOM     11  C   UNL A   1      33.635  23.856  24.857  1.00  0.00     0.065 C 
ATOM     12  C   UNL A   1      34.549  25.924  25.744  1.00  0.00     0.008 C 
ATOM     13  C   UNL A   1      34.958  24.603  25.072  1.00  0.00     0.011 C 
BRANCH   9  14
ATOM     14  N   UNL A   1      31.202  24.646  24.497  1.00  0.00    -0.330 N 
ATOM     15  H   UNL A   1      30.843  25.076  23.645  1.00  0.00     0.347 HD
ATOM     16  H   UNL A   1      31.272  23.633  24.585  1.00  0.00     0.347 HD
BRANCH  14  17
ATOM     17  C   UNL A   1      30.226  24.945  25.530  1.00  0.00     0.176 C 
ATOM     18  C   UNL A   1      30.329  23.821  26.571  1.00  0.00     0.075 C 
ATOM     19  C   UNL A   1      30.511  26.263  26.250  1.00  0.00     0.075 C 
ENDBRANCH  14  17
ENDBRANCH   9  14
BRANCH  11  20
ATOM     20  C   UNL A   1      33.606  22.536  24.039  1.00  0.00     0.039 C 
BRANCH  20  21
ATOM     21  C   UNL A   1      32.974  21.268  24.638  1.00  0.00     0.161 C 
BRANCH  21  22
ATOM     22  O   UNL A   1      32.604  20.274  23.662  1.00  0.00    -0.378 OA
BRANCH  22  23
ATOM     23  C   UNL A   1      33.078  18.976  23.979  1.00  0.00     0.122 C 
ATOM     24  C   UNL A   1      32.887  17.957  22.862  1.00  0.00     0.060 C 
ATOM     25  C   UNL A   1      32.393  18.429  25.224  1.00  0.00     0.060 C 
ATOM     26  C   UNL A   1      33.539  16.652  23.323  1.00  0.00     0.163 C 
ATOM     27  C   UNL A   1      33.120  17.159  25.621  1.00  0.00     0.163 C 
ATOM     28  O   UNL A   1      33.005  16.196  24.574  1.00  0.00    -0.381 OA
ENDBRANCH  22  23
ENDBRANCH  21  22
ENDBRANCH  20  21
ENDBRANCH  11  20
ENDBRANCH   7   9
ENDBRANCH   6   7
ENDBRANCH   5   6
ENDBRANCH   4   5
ENDBRANCH   3   4
ENDBRANCH   2   3
ENDBRANCH   1   2
BRANCH   1  29
ATOM     29  O   UNL A   1      33.938  31.451  28.072  1.00  0.00    -0.377 OA
BRANCH  29  30
ATOM     30  C   UNL A   1      33.574  32.805  27.859  1.00  0.00     0.188 C 
BRANCH  30  31
ATOM     31  C   UNL A   1      34.710  33.827  27.972  1.00  0.00     0.188 C 
BRANCH  31  32
ATOM     32  O   UNL A   1      35.991  33.203  28.044  1.00  0.00    -0.376 OA
BRANCH  32  33
ATOM     33  C   UNL A   1      36.653  33.194  29.302  1.00  0.00     0.202 C 
BRANCH  33  34
ATOM     34  C   UNL A   1      37.833  32.220  29.472  1.00  0.00     0.261 C 
BRANCH  34  35
ATOM     35  O   UNL A   1      37.664  31.141  30.406  1.00  0.00    -0.460 OA
BRANCH  35  36
ATOM     36  C   UNL A   1      36.882  31.331  31.490  1.00  0.00     0.338 C 
ATOM     37  O   UNL A   1      35.766  30.876  31.674  1.00  0.00    -0.246 OA
BRANCH  36  38
ATOM     38  C   UNL A   1      37.703  32.021  32.508  1.00  0.00     0.060 A 
ATOM     39  C   UNL A   1      37.291  33.270  32.990  1.00  0.00     0.016 A 
ATOM     40  C   UNL A   1      38.856  31.417  33.017  1.00  0.00     0.016 A 
ATOM     41  C   UNL A   1      38.026  33.916  33.987  1.00  0.00     0.010 A 
ATOM     42  C   UNL A   1      39.610  32.083  33.989  1.00  0.00     0.010 A 
ATOM     43  C   UNL A   1      39.206  33.340  34.473  1.00  0.00    -0.014 A 
BRANCH  43  44
ATOM     44  C   UNL A   1      40.102  34.107  35.375  1.00  0.00     0.031 A 
ATOM     45  C   UNL A   1      39.859  34.034  36.857  1.00  0.00     0.074 A 
ATOM     46  C   UNL A   1      41.102  34.865  34.886  1.00  0.00     0.049 A 
ATOM     47  N   UNL A   1      40.433  34.696  37.826  1.00  0.00    -0.248 NA
ATOM     48  C   UNL A   1      38.830  33.081  37.304  1.00  0.00     0.031 C 
ATOM     49  C   UNL A   1      41.481  34.959  33.477  1.00  0.00     0.029 A 
ATOM     50  N   UNL A   1      41.976  35.714  35.524  1.00  0.00    -0.354 N 
ATOM     51  C   UNL A   1      39.825  34.256  38.997  1.00  0.00     0.074 A 
ATOM     52  C   UNL A   1      38.833  33.273  38.615  1.00  0.00     0.031 C 
ATOM     53  C   UNL A   1      42.496  35.835  33.355  1.00  0.00     0.029 A 
ATOM     54  C   UNL A   1      42.804  36.403  34.666  1.00  0.00     0.049 A 
ATOM     55  H   UNL A   1      42.007  35.818  36.502  1.00  0.00     0.167 HD
ATOM     56  C   UNL A   1      40.070  34.642  40.271  1.00  0.00     0.034 A 
ATOM     57  C   UNL A   1      43.672  37.408  34.909  1.00  0.00     0.034 A 
ATOM     58  C   UNL A   1      41.056  35.628  40.635  1.00  0.00     0.049 A 
ATOM     59  C   UNL A   1      43.832  37.908  36.331  1.00  0.00     0.074 A 
ATOM     60  C   UNL A   1      41.412  36.060  41.900  1.00  0.00     0.029 A 
ATOM     61  N   UNL A   1      41.823  36.355  39.736  1.00  0.00    -0.354 N 
ATOM     62  N   UNL A   1      43.276  37.460  37.433  1.00  0.00    -0.248 NA
ATOM     63  C   UNL A   1      44.729  39.055  36.539  1.00  0.00     0.031 C 
ATOM     64  C   UNL A   1      42.324  37.111  41.762  1.00  0.00     0.029 A 
ATOM     65  C   UNL A   1      42.605  37.275  40.415  1.00  0.00     0.049 A 
ATOM     66  H   UNL A   1      41.813  36.235  38.758  1.00  0.00     0.167 HD
ATOM     67  C   UNL A   1      43.780  38.252  38.464  1.00  0.00     0.074 A 
ATOM     68  C   UNL A   1      44.700  39.190  37.857  1.00  0.00     0.031 C 
ATOM     69  C   UNL A   1      43.512  38.210  39.794  1.00  0.00     0.034 A 
BRANCH  56  70
ATOM     70  C   UNL A   1      39.214  34.055  41.364  1.00  0.00     0.023 A 
ATOM     71  C   UNL A   1      39.512  32.820  41.963  1.00  0.00     0.031 A 
ATOM     72  C   UNL A   1      38.089  34.761  41.826  1.00  0.00     0.131 A 
ATOM     73  C   UNL A   1      38.670  32.312  42.966  1.00  0.00     0.055 A 
ATOM     74  C   UNL A   1      37.296  34.283  42.868  1.00  0.00     0.041 A 
ATOM     75  F   UNL A   1      37.745  35.934  41.269  1.00  0.00    -0.206 F 
ATOM     76  C   UNL A   1      37.580  33.047  43.439  1.00  0.00     0.022 A 
BRANCH  73  77
ATOM     77  S   UNL A   1      38.960  30.628  43.574  1.00  0.00     0.124 S 
ATOM     78  O   UNL A   1      37.605  30.083  43.594  1.00  0.00    -0.237 OA
ATOM     79  O   UNL A   1      39.855  30.077  42.563  1.00  0.00    -0.237 OA
ATOM     80  O   UNL A   1      39.559  30.837  44.891  1.00  0.00    -0.744 OA
ENDBRANCH  73  77
ENDBRANCH  56  70
BRANCH  57  81
ATOM     81  C   UNL A   1      44.413  38.079  33.798  1.00  0.00     0.023 A 
ATOM     82  C   UNL A   1      43.807  39.084  33.027  1.00  0.00     0.031 A 
ATOM     83  C   UNL A   1      45.697  37.647  33.415  1.00  0.00     0.131 A 
ATOM     84  C   UNL A   1      44.450  39.572  31.878  1.00  0.00     0.055 A 
ATOM     85  C   UNL A   1      46.362  38.187  32.311  1.00  0.00     0.041 A 
ATOM     86  F   UNL A   1      46.324  36.680  34.103  1.00  0.00    -0.206 F 
ATOM     87  C   UNL A   1      45.729  39.142  31.523  1.00  0.00     0.022 A 
BRANCH  84  88
ATOM     88  S   UNL A   1      43.527  40.679  30.773  1.00  0.00     0.124 S 
ATOM     89  O   UNL A   1      44.391  41.853  30.746  1.00  0.00    -0.237 OA
ATOM     90  O   UNL A   1      43.467  39.896  29.544  1.00  0.00    -0.237 OA
ATOM     91  O   UNL A   1      42.251  40.858  31.460  1.00  0.00    -0.744 OA
ENDBRANCH  84  88
ENDBRANCH  57  81
BRANCH  69  92
ATOM     92  C   UNL A   1      44.247  39.183  40.683  1.00  0.00     0.023 A 
ATOM     93  C   UNL A   1      43.738  40.466  40.952  1.00  0.00     0.031 A 
ATOM     94  C   UNL A   1      45.464  38.815  41.284  1.00  0.00     0.131 A 
ATOM     95  C   UNL A   1      44.464  41.350  41.763  1.00  0.00     0.055 A 
ATOM     96  C   UNL A   1      46.152  39.677  42.140  1.00  0.00     0.041 A 
ATOM     97  F   UNL A   1      45.998  37.604  41.060  1.00  0.00    -0.206 F 
ATOM     98  C   UNL A   1      45.658  40.956  42.375  1.00  0.00     0.022 A 
BRANCH  95  99
ATOM     99  S   UNL A   1      43.865  43.050  41.953  1.00  0.00     0.124 S 
ATOM    100  O   UNL A   1      44.065  43.594  40.613  1.00  0.00    -0.237 OA
ATOM    101  O   UNL A   1      42.478  42.852  42.359  1.00  0.00    -0.237 OA
ATOM    102  O   UNL A   1      44.737  43.609  42.985  1.00  0.00    -0.744 OA
ENDBRANCH  95  99
ENDBRANCH  69  92
ENDBRANCH  43  44
ENDBRANCH  36  38
ENDBRANCH  35  36
ENDBRANCH  34  35
ENDBRANCH  33  34
ENDBRANCH  32  33
ENDBRANCH  31  32
ENDBRANCH  30  31
ENDBRANCH  29  30
ENDBRANCH   1  29
TORSDOF 29
ENDMDL
MODEL 2
REMARK VINA RESULT:      -7.5      7.395     17.302
REMARK SMILES CC(C)[NH2+][C@@]1(C(=O)OCCOCCOCCOCCOC(=O)c2ccc(-c3c4nc(c(-c5cc(S(=O)(=O)[O-])ccc5F)c5ccc([nH]5)c(-c5cc(S(=O)(=O)[O-])ccc5F)c5nc(c(-c6cc(S(=O)(=O)[O-])ccc6F)c6ccc3[nH]6)C=C5)C=C4)cc2)CCC[C@@H]1CCOC1CCOCC1
REMARK SMILES IDX 13 1 12 2 11 3 10 4 9 5 8 6 6 7 7 8 5 9 86 10 89 11 87 12
REMARK SMILES IDX 88 13 4 14 2 17 1 18 3 19 90 20 91 21 92 22 93 23 94 24
REMARK SMILES IDX 98 25 95 26 97 27 96 28 14 29 15 30 16 31 17 32 18 33 19 34
REMARK SMILES IDX 20 35 21 36 22 37 23 38 24 39 85 40 25 41 84 42 26 43 27 44
REMARK SMILES IDX 28 45 78 46 29 47 83 48 77 49 79 50 30 51 82 52 76 53 75 54
REMARK SMILES IDX 31 56 63 57 43 58 62 59 44 60 47 61 61 62 80 63 45 64 46 65
REMARK SMILES IDX 60 67 81 68 48 69 32 70 33 71 41 72 34 73 40 74 42 75 39 76
REMARK SMILES IDX 35 77 36 78 37 79 38 80 64 81 65 82 73 83 66 84 72 85 74 86
REMARK SMILES IDX 71 87 67 88 68 89 69 90 70 91 49 92 50 93 58 94 51 95 57 96
REMARK SMILES IDX 59 97 56 98 52 99 53 100 54 101 55 102
REMARK H PARENT 4 15 4 16 79 55 47 66
REMARK Flexibility Score: inf
ROOT
ATOM      1  C   UNL A   1      45.994  40.961  32.722  1.00  0.00     0.188 C 
ENDROOT
BRANCH   1   2
ATOM      2  C   UNL A   1      45.062  40.015  33.479  1.00  0.00     0.188 C 
BRANCH   2   3
ATOM      3  O   UNL A   1      45.342  38.618  33.547  1.00  0.00    -0.376 OA
BRANCH   3   4
ATOM      4  C   UNL A   1      44.305  37.683  33.295  1.00  0.00     0.202 C 
BRANCH   4   5
ATOM      5  C   UNL A   1      43.601  37.155  34.559  1.00  0.00     0.261 C 
BRANCH   5   6
ATOM      6  O   UNL A   1      43.244  35.756  34.573  1.00  0.00    -0.459 OA
BRANCH   6   7
ATOM      7  C   UNL A   1      41.999  35.446  35.023  1.00  0.00     0.368 C 
ATOM      8  O   UNL A   1      41.301  36.226  35.668  1.00  0.00    -0.245 OA
BRANCH   7   9
ATOM      9  C   UNL A   1      41.537  33.945  34.699  1.00  0.00     0.197 C 
ATOM     10  C   UNL A   1      42.166  33.764  33.292  1.00  0.00     0.081 C 
ATOM     11  C   UNL A   1      40.050  33.595  34.315  1.00  0.00     0.065 C 
ATOM     12  C   UNL A   1      41.179  34.495  32.362  1.00  0.00     0.008 C 
ATOM     13  C   UNL A   1      39.816  34.462  33.070  1.00  0.00     0.011 C 
BRANCH   9  14
ATOM     14  N   UNL A   1      42.132  33.123  35.768  1.00  0.00    -0.330 N 
ATOM     15  H   UNL A   1      42.364  33.773  36.519  1.00  0.00     0.347 HD
ATOM     16  H   UNL A   1      41.409  32.415  35.891  1.00  0.00     0.347 HD
BRANCH  14  17
ATOM     17  C   UNL A   1      43.307  32.288  35.595  1.00  0.00     0.176 C 
ATOM     18  C   UNL A   1      44.161  32.464  36.860  1.00  0.00     0.075 C 
ATOM     19  C   UNL A   1      42.965  30.803  35.476  1.00  0.00     0.075 C 
ENDBRANCH  14  17
ENDBRANCH   9  14
BRANCH  11  20
ATOM     20  C   UNL A   1      38.940  33.459  35.393  1.00  0.00     0.039 C 
BRANCH  20  21
ATOM     21  C   UNL A   1      39.304  33.053  36.831  1.00  0.00     0.161 C 
BRANCH  21  22
ATOM     22  O   UNL A   1      38.818  33.959  37.842  1.00  0.00    -0.378 OA
BRANCH  22  23
ATOM     23  C   UNL A   1      38.408  33.301  39.030  1.00  0.00     0.122 C 
ATOM     24  C   UNL A   1      36.977  32.778  38.984  1.00  0.00     0.060 C 
ATOM     25  C   UNL A   1      38.523  34.222  40.237  1.00  0.00     0.060 C 
ATOM     26  C   UNL A   1      36.733  32.014  40.288  1.00  0.00     0.163 C 
ATOM     27  C   UNL A   1      38.295  33.379  41.475  1.00  0.00     0.163 C 
ATOM     28  O   UNL A   1      36.979  32.828  41.443  1.00  0.00    -0.381 OA
ENDBRANCH  22  23
ENDBRANCH  21  22
ENDBRANCH  20  21
ENDBRANCH  11  20
ENDBRANCH   7   9
ENDBRANCH   6   7
ENDBRANCH   5   6
ENDBRANCH   4   5
ENDBRANCH   3   4
ENDBRANCH   2   3
ENDBRANCH   1   2
BRANCH   1  29
ATOM     29  O   UNL A   1      45.482  42.244  32.414  1.00  0.00    -0.377 OA
BRANCH  29  30
ATOM     30  C   UNL A   1      44.534  42.340  31.365  1.00  0.00     0.188 C 
BRANCH  30  31
ATOM     31  C   UNL A   1      44.637  41.271  30.272  1.00  0.00     0.188 C 
BRANCH  31  32
ATOM     32  O   UNL A   1      43.612  40.286  30.384  1.00  0.00    -0.376 OA
BRANCH  32  33
ATOM     33  C   UNL A   1      43.147  39.674  29.187  1.00  0.00     0.202 C 
BRANCH  33  34
ATOM     34  C   UNL A   1      43.866  38.396  28.722  1.00  0.00     0.261 C 
BRANCH  34  35
ATOM     35  O   UNL A   1      44.655  37.694  29.698  1.00  0.00    -0.460 OA
BRANCH  35  36
ATOM     36  C   UNL A   1      45.744  37.011  29.289  1.00  0.00     0.338 C 
ATOM     37  O   UNL A   1      46.888  37.427  29.228  1.00  0.00    -0.246 OA
BRANCH  36  38
ATOM     38  C   UNL A   1      45.340  35.598  29.124  1.00  0.00     0.060 A 
ATOM     39  C   UNL A   1      44.766  35.186  27.914  1.00  0.00     0.016 A 
ATOM     40  C   UNL A   1      45.563  34.672  30.147  1.00  0.00     0.016 A 
ATOM     41  C   UNL A   1      44.421  33.846  27.720  1.00  0.00     0.010 A 
ATOM     42  C   UNL A   1      45.183  33.338  29.963  1.00  0.00     0.010 A 
ATOM     43  C   UNL A   1      44.601  32.919  28.754  1.00  0.00    -0.014 A 
BRANCH  43  44
ATOM     44  C   UNL A   1      44.050  31.545  28.637  1.00  0.00     0.031 A 
ATOM     45  C   UNL A   1      44.820  30.530  27.837  1.00  0.00     0.074 A 
ATOM     46  C   UNL A   1      42.883  31.209  29.218  1.00  0.00     0.049 A 
ATOM     47  N   UNL A   1      44.489  29.311  27.503  1.00  0.00    -0.248 NA
ATOM     48  C   UNL A   1      46.144  30.951  27.351  1.00  0.00     0.031 C 
ATOM     49  C   UNL A   1      42.083  32.082  30.075  1.00  0.00     0.029 A 
ATOM     50  N   UNL A   1      42.157  30.042  29.160  1.00  0.00    -0.354 N 
ATOM     51  C   UNL A   1      45.553  28.822  26.753  1.00  0.00     0.074 A 
ATOM     52  C   UNL A   1      46.538  29.880  26.677  1.00  0.00     0.031 C 
ATOM     53  C   UNL A   1      40.967  31.428  30.446  1.00  0.00     0.029 A 
ATOM     54  C   UNL A   1      40.945  30.112  29.810  1.00  0.00     0.049 A 
ATOM     55  H   UNL A   1      42.475  29.234  28.697  1.00  0.00     0.167 HD
ATOM     56  C   UNL A   1      45.690  27.604  26.178  1.00  0.00     0.034 A 
ATOM     57  C   UNL A   1      39.921  29.232  29.845  1.00  0.00     0.034 A 
ATOM     58  C   UNL A   1      44.696  26.563  26.257  1.00  0.00     0.049 A 
ATOM     59  C   UNL A   1      40.051  27.928  29.084  1.00  0.00     0.074 A 
ATOM     60  C   UNL A   1      44.755  25.279  25.745  1.00  0.00     0.029 A 
ATOM     61  N   UNL A   1      43.454  26.694  26.861  1.00  0.00    -0.354 N 
ATOM     62  N   UNL A   1      41.077  27.464  28.407  1.00  0.00    -0.248 NA
ATOM     63  C   UNL A   1      38.883  27.034  29.084  1.00  0.00     0.031 C 
ATOM     64  C   UNL A   1      43.516  24.667  25.959  1.00  0.00     0.029 A 
ATOM     65  C   UNL A   1      42.715  25.536  26.681  1.00  0.00     0.049 A 
ATOM     66  H   UNL A   1      43.143  27.493  27.346  1.00  0.00     0.167 HD
ATOM     67  C   UNL A   1      40.684  26.214  27.929  1.00  0.00     0.074 A 
ATOM     68  C   UNL A   1      39.339  25.988  28.412  1.00  0.00     0.031 C 
ATOM     69  C   UNL A   1      41.370  25.329  27.162  1.00  0.00     0.034 A 
BRANCH  56  70
ATOM     70  C   UNL A   1      46.925  27.348  25.352  1.00  0.00     0.023 A 
ATOM     71  C   UNL A   1      47.023  27.750  24.010  1.00  0.00     0.031 A 
ATOM     72  C   UNL A   1      48.032  26.705  25.934  1.00  0.00     0.131 A 
ATOM     73  C   UNL A   1      48.191  27.470  23.284  1.00  0.00     0.055 A 
ATOM     74  C   UNL A   1      49.214  26.491  25.227  1.00  0.00     0.041 A 
ATOM     75  F   UNL A   1      47.981  26.277  27.206  1.00  0.00    -0.206 F 
ATOM     76  C   UNL A   1      49.296  26.867  23.890  1.00  0.00     0.022 A 
BRANCH  73  77
ATOM     77  S   UNL A   1      48.211  27.814  21.503  1.00  0.00     0.124 S 
ATOM     78  O   UNL A   1      46.848  28.287  21.277  1.00  0.00    -0.237 OA
ATOM     79  O   UNL A   1      49.262  28.818  21.387  1.00  0.00    -0.237 OA
ATOM     80  O   UNL A   1      48.519  26.516  20.906  1.00  0.00    -0.744 OA
ENDBRANCH  73  77
ENDBRANCH  56  70
BRANCH  57  81
ATOM     81  C   UNL A   1      38.644  29.556  30.552  1.00  0.00     0.023 A 
ATOM     82  C   UNL A   1      37.695  30.415  29.974  1.00  0.00     0.031 A 
ATOM     83  C   UNL A   1      38.404  29.104  31.863  1.00  0.00     0.131 A 
ATOM     84  C   UNL A   1      36.592  30.850  30.727  1.00  0.00     0.055 A 
ATOM     85  C   UNL A   1      37.268  29.484  32.582  1.00  0.00     0.041 A 
ATOM     86  F   UNL A   1      39.280  28.292  32.474  1.00  0.00    -0.206 F 
ATOM     87  C   UNL A   1      36.363  30.379  32.021  1.00  0.00     0.022 A 
BRANCH  84  88
ATOM     88  S   UNL A   1      35.532  32.153  30.037  1.00  0.00     0.124 S 
ATOM     89  O   UNL A   1      35.095  31.543  28.786  1.00  0.00    -0.237 OA
ATOM     90  O   UNL A   1      34.515  32.294  31.072  1.00  0.00    -0.237 OA
ATOM     91  O   UNL A   1      36.440  33.289  29.895  1.00  0.00    -0.744 OA
ENDBRANCH  84  88
ENDBRANCH  57  81
BRANCH  69  92
ATOM     92  C   UNL A   1      40.690  24.024  26.828  1.00  0.00     0.023 A 
ATOM     93  C   UNL A   1      41.281  22.785  27.132  1.00  0.00     0.031 A 
ATOM     94  C   UNL A   1      39.426  24.021  26.212  1.00  0.00     0.131 A 
ATOM     95  C   UNL A   1      40.627  21.595  26.781  1.00  0.00     0.055 A 
ATOM     96  C   UNL A   1      38.753  22.833  25.921  1.00  0.00     0.041 A 
ATOM     97  F   UNL A   1      38.816  25.175  25.896  1.00  0.00    -0.206 F 
ATOM     98  C   UNL A   1      39.357  21.611  26.196  1.00  0.00     0.022 A 
BRANCH  95  99
ATOM     99  S   UNL A   1      41.489  20.020  27.034  1.00  0.00     0.124 S 
ATOM    100  O   UNL A   1      42.889  20.429  26.980  1.00  0.00    -0.237 OA
ATOM    101  O   UNL A   1      40.999  19.600  28.343  1.00  0.00    -0.237 OA
ATOM    102  O   UNL A   1      41.039  19.197  25.913  1.00  0.00    -0.744 OA
ENDBRANCH  95  99
ENDBRANCH  69  92
ENDBRANCH  43  44
ENDBRANCH  36  38
ENDBRANCH  35  36
ENDBRANCH  34  35
ENDBRANCH  33  34
ENDBRANCH  32  33
ENDBRANCH  31  32
ENDBRANCH  30  31
ENDBRANCH  29  30
ENDBRANCH   1  29
TORSDOF 29
ENDMDL
MODEL 3
REMARK VINA RESULT:      -7.4      7.313     15.190
REMARK SMILES CC(C)[NH2+][C@@]1(C(=O)OCCOCCOCCOCCOC(=O)c2ccc(-c3c4nc(c(-c5cc(S(=O)(=O)[O-])ccc5F)c5ccc([nH]5)c(-c5cc(S(=O)(=O)[O-])ccc5F)c5nc(c(-c6cc(S(=O)(=O)[O-])ccc6F)c6ccc3[nH]6)C=C5)C=C4)cc2)CCC[C@@H]1CCOC1CCOCC1
REMARK SMILES IDX 13 1 12 2 11 3 10 4 9 5 8 6 6 7 7 8 5 9 86 10 89 11 87 12
REMARK SMILES IDX 88 13 4 14 2 17 1 18 3 19 90 20 91 21 92 22 93 23 94 24
REMARK SMILES IDX 98 25 95 26 97 27 96 28 14 29 15 30 16 31 17 32 18 33 19 34
REMARK SMILES IDX 20 35 21 36 22 37 23 38 24 39 85 40 25 41 84 42 26 43 27 44
REMARK SMILES IDX 28 45 78 46 29 47 83 48 77 49 79 50 30 51 82 52 76 53 75 54
REMARK SMILES IDX 31 56 63 57 43 58 62 59 44 60 47 61 61 62 80 63 45 64 46 65
REMARK SMILES IDX 60 67 81 68 48 69 32 70 33 71 41 72 34 73 40 74 42 75 39 76
REMARK SMILES IDX 35 77 36 78 37 79 38 80 64 81 65 82 73 83 66 84 72 85 74 86
REMARK SMILES IDX 71 87 67 88 68 89 69 90 70 91 49 92 50 93 58 94 51 95 57 96
REMARK SMILES IDX 59 97 56 98 52 99 53 100 54 101 55 102
REMARK H PARENT 4 15 4 16 79 55 47 66
REMARK Flexibility Score: inf
ROOT
ATOM      1  C   UNL A   1      52.371  41.926  30.822  1.00  0.00     0.188 C 
ENDROOT
BRANCH   1   2
ATOM      2  C   UNL A   1      51.882  43.052  31.734  1.00  0.00     0.188 C 
BRANCH   2   3
ATOM      3  O   UNL A   1      51.113  44.132  31.206  1.00  0.00    -0.376 OA
BRANCH   3   4
ATOM      4  C   UNL A   1      49.749  43.924  30.876  1.00  0.00     0.202 C 
BRANCH   4   5
ATOM      5  C   UNL A   1      48.973  43.061  31.889  1.00  0.00     0.261 C 
BRANCH   5   6
ATOM      6  O   UNL A   1      47.541  42.980  31.717  1.00  0.00    -0.459 OA
BRANCH   6   7
ATOM      7  C   UNL A   1      46.780  43.143  32.832  1.00  0.00     0.368 C 
ATOM      8  O   UNL A   1      46.857  44.130  33.562  1.00  0.00    -0.245 OA
BRANCH   7   9
ATOM      9  C   UNL A   1      45.816  41.904  33.159  1.00  0.00     0.197 C 
ATOM     10  C   UNL A   1      45.615  42.111  34.684  1.00  0.00     0.081 C 
ATOM     11  C   UNL A   1      46.350  40.423  33.212  1.00  0.00     0.065 C 
ATOM     12  C   UNL A   1      46.908  41.540  35.295  1.00  0.00     0.008 C 
ATOM     13  C   UNL A   1      47.435  40.501  34.293  1.00  0.00     0.011 C 
BRANCH   9  14
ATOM     14  N   UNL A   1      44.618  42.124  32.327  1.00  0.00    -0.330 N 
ATOM     15  H   UNL A   1      44.887  42.825  31.637  1.00  0.00     0.347 HD
ATOM     16  H   UNL A   1      44.400  41.168  32.048  1.00  0.00     0.347 HD
BRANCH  14  17
ATOM     17  C   UNL A   1      43.334  42.557  32.848  1.00  0.00     0.176 C 
ATOM     18  C   UNL A   1      42.959  43.836  32.085  1.00  0.00     0.075 C 
ATOM     19  C   UNL A   1      42.222  41.536  32.604  1.00  0.00     0.075 C 
ENDBRANCH  14  17
ENDBRANCH   9  14
BRANCH  11  20
ATOM     20  C   UNL A   1      46.591  39.598  31.918  1.00  0.00     0.039 C 
BRANCH  20  21
ATOM     21  C   UNL A   1      45.983  40.056  30.583  1.00  0.00     0.161 C 
BRANCH  21  22
ATOM     22  O   UNL A   1      44.560  39.850  30.479  1.00  0.00    -0.378 OA
BRANCH  22  23
ATOM     23  C   UNL A   1      44.055  40.090  29.176  1.00  0.00     0.122 C 
ATOM     24  C   UNL A   1      42.535  40.053  29.085  1.00  0.00     0.060 C 
ATOM     25  C   UNL A   1      44.601  39.076  28.179  1.00  0.00     0.060 C 
ATOM     26  C   UNL A   1      42.157  40.430  27.650  1.00  0.00     0.163 C 
ATOM     27  C   UNL A   1      44.204  39.544  26.793  1.00  0.00     0.163 C 
ATOM     28  O   UNL A   1      42.781  39.571  26.686  1.00  0.00    -0.381 OA
ENDBRANCH  22  23
ENDBRANCH  21  22
ENDBRANCH  20  21
ENDBRANCH  11  20
ENDBRANCH   7   9
ENDBRANCH   6   7
ENDBRANCH   5   6
ENDBRANCH   4   5
ENDBRANCH   3   4
ENDBRANCH   2   3
ENDBRANCH   1   2
BRANCH   1  29
ATOM     29  O   UNL A   1      51.867  40.631  31.090  1.00  0.00    -0.377 OA
BRANCH  29  30
ATOM     30  C   UNL A   1      52.112  40.080  32.373  1.00  0.00     0.188 C 
BRANCH  30  31
ATOM     31  C   UNL A   1      51.578  38.663  32.605  1.00  0.00     0.188 C 
BRANCH  31  32
ATOM     32  O   UNL A   1      52.579  37.788  33.120  1.00  0.00    -0.376 OA
BRANCH  32  33
ATOM     33  C   UNL A   1      53.076  38.046  34.427  1.00  0.00     0.202 C 
BRANCH  33  34
ATOM     34  C   UNL A   1      52.285  37.461  35.610  1.00  0.00     0.261 C 
BRANCH  34  35
ATOM     35  O   UNL A   1      51.246  36.517  35.304  1.00  0.00    -0.460 OA
BRANCH  35  36
ATOM     36  C   UNL A   1      50.474  36.047  36.306  1.00  0.00     0.338 C 
ATOM     37  O   UNL A   1      50.790  35.921  37.476  1.00  0.00    -0.246 OA
BRANCH  36  38
ATOM     38  C   UNL A   1      49.101  35.905  35.772  1.00  0.00     0.060 A 
ATOM     39  C   UNL A   1      48.327  37.053  35.557  1.00  0.00     0.016 A 
ATOM     40  C   UNL A   1      48.594  34.644  35.445  1.00  0.00     0.016 A 
ATOM     41  C   UNL A   1      47.047  36.945  35.009  1.00  0.00     0.010 A 
ATOM     42  C   UNL A   1      47.298  34.536  34.929  1.00  0.00     0.010 A 
ATOM     43  C   UNL A   1      46.513  35.684  34.718  1.00  0.00    -0.014 A 
BRANCH  43  44
ATOM     44  C   UNL A   1      45.086  35.541  34.333  1.00  0.00     0.031 A 
ATOM     45  C   UNL A   1      44.065  35.363  35.423  1.00  0.00     0.074 A 
ATOM     46  C   UNL A   1      44.705  35.557  33.042  1.00  0.00     0.049 A 
ATOM     47  N   UNL A   1      42.787  35.110  35.330  1.00  0.00    -0.248 NA
ATOM     48  C   UNL A   1      44.557  35.490  36.805  1.00  0.00     0.031 C 
ATOM     49  C   UNL A   1      45.591  35.794  31.902  1.00  0.00     0.029 A 
ATOM     50  N   UNL A   1      43.472  35.352  32.469  1.00  0.00    -0.354 N 
ATOM     51  C   UNL A   1      42.321  35.029  36.639  1.00  0.00     0.074 A 
ATOM     52  C   UNL A   1      43.458  35.255  37.506  1.00  0.00     0.031 C 
ATOM     53  C   UNL A   1      44.876  35.700  30.766  1.00  0.00     0.029 A 
ATOM     54  C   UNL A   1      43.496  35.343  31.092  1.00  0.00     0.049 A 
ATOM     55  H   UNL A   1      42.650  35.225  32.994  1.00  0.00     0.167 HD
ATOM     56  C   UNL A   1      41.062  34.783  37.072  1.00  0.00     0.034 A 
ATOM     57  C   UNL A   1      42.526  35.036  30.204  1.00  0.00     0.034 A 
ATOM     58  C   UNL A   1      39.942  34.553  36.194  1.00  0.00     0.049 A 
ATOM     59  C   UNL A   1      41.159  34.639  30.723  1.00  0.00     0.074 A 
ATOM     60  C   UNL A   1      38.618  34.337  36.531  1.00  0.00     0.029 A 
ATOM     61  N   UNL A   1      40.018  34.481  34.811  1.00  0.00    -0.354 N 
ATOM     62  N   UNL A   1      40.723  34.600  31.961  1.00  0.00    -0.248 NA
ATOM     63  C   UNL A   1      40.156  34.237  29.725  1.00  0.00     0.031 C 
ATOM     64  C   UNL A   1      37.913  34.043  35.361  1.00  0.00     0.029 A 
ATOM     65  C   UNL A   1      38.777  34.163  34.285  1.00  0.00     0.049 A 
ATOM     66  H   UNL A   1      40.834  34.632  34.281  1.00  0.00     0.167 HD
ATOM     67  C   UNL A   1      39.390  34.198  31.884  1.00  0.00     0.074 A 
ATOM     68  C   UNL A   1      39.088  34.028  30.478  1.00  0.00     0.031 C 
ATOM     69  C   UNL A   1      38.493  33.988  32.880  1.00  0.00     0.034 A 
BRANCH  56  70
ATOM     70  C   UNL A   1      40.835  34.679  38.558  1.00  0.00     0.023 A 
ATOM     71  C   UNL A   1      40.421  35.777  39.329  1.00  0.00     0.031 A 
ATOM     72  C   UNL A   1      41.019  33.445  39.208  1.00  0.00     0.131 A 
ATOM     73  C   UNL A   1      40.240  35.627  40.714  1.00  0.00     0.055 A 
ATOM     74  C   UNL A   1      40.773  33.287  40.571  1.00  0.00     0.041 A 
ATOM     75  F   UNL A   1      41.440  32.370  38.522  1.00  0.00    -0.206 F 
ATOM     76  C   UNL A   1      40.389  34.384  41.334  1.00  0.00     0.022 A 
BRANCH  73  77
ATOM     77  S   UNL A   1      39.908  37.104  41.713  1.00  0.00     0.124 S 
ATOM     78  O   UNL A   1      38.976  37.836  40.858  1.00  0.00    -0.237 OA
ATOM     79  O   UNL A   1      39.346  36.539  42.934  1.00  0.00    -0.237 OA
ATOM     80  O   UNL A   1      41.224  37.723  41.859  1.00  0.00    -0.744 OA
ENDBRANCH  73  77
ENDBRANCH  56  70
BRANCH  57  81
ATOM     81  C   UNL A   1      42.801  35.006  28.735  1.00  0.00     0.023 A 
ATOM     82  C   UNL A   1      43.565  33.977  28.162  1.00  0.00     0.031 A 
ATOM     83  C   UNL A   1      42.402  36.066  27.899  1.00  0.00     0.131 A 
ATOM     84  C   UNL A   1      43.965  34.063  26.819  1.00  0.00     0.055 A 
ATOM     85  C   UNL A   1      42.744  36.111  26.545  1.00  0.00     0.041 A 
ATOM     86  F   UNL A   1      41.682  37.087  28.390  1.00  0.00    -0.206 F 
ATOM     87  C   UNL A   1      43.547  35.115  26.002  1.00  0.00     0.022 A 
BRANCH  84  88
ATOM     88  S   UNL A   1      45.159  32.847  26.190  1.00  0.00     0.124 S 
ATOM     89  O   UNL A   1      45.036  31.779  27.176  1.00  0.00    -0.237 OA
ATOM     90  O   UNL A   1      44.627  32.561  24.863  1.00  0.00    -0.237 OA
ATOM     91  O   UNL A   1      46.426  33.574  26.210  1.00  0.00    -0.744 OA
ENDBRANCH  84  88
ENDBRANCH  57  81
BRANCH  69  92
ATOM     92  C   UNL A   1      37.094  33.586  32.484  1.00  0.00     0.023 A 
ATOM     93  C   UNL A   1      36.092  34.542  32.242  1.00  0.00     0.031 A 
ATOM     94  C   UNL A   1      36.763  32.227  32.330  1.00  0.00     0.131 A 
ATOM     95  C   UNL A   1      34.797  34.125  31.900  1.00  0.00     0.055 A 
ATOM     96  C   UNL A   1      35.489  31.821  31.930  1.00  0.00     0.041 A 
ATOM     97  F   UNL A   1      37.679  31.271  32.551  1.00  0.00    -0.206 F 
ATOM     98  C   UNL A   1      34.495  32.771  31.723  1.00  0.00     0.022 A 
BRANCH  95  99
ATOM     99  S   UNL A   1      33.489  35.373  31.759  1.00  0.00     0.124 S 
ATOM    100  O   UNL A   1      33.245  35.395  30.321  1.00  0.00    -0.237 OA
ATOM    101  O   UNL A   1      32.422  34.804  32.577  1.00  0.00    -0.237 OA
ATOM    102  O   UNL A   1      34.107  36.582  32.303  1.00  0.00    -0.744 OA
ENDBRANCH  95  99
ENDBRANCH  69  92
ENDBRANCH  43  44
ENDBRANCH  36  38
ENDBRANCH  35  36
ENDBRANCH  34  35
ENDBRANCH  33  34
ENDBRANCH  32  33
ENDBRANCH  31  32
ENDBRANCH  30  31
ENDBRANCH  29  30
ENDBRANCH   1  29
TORSDOF 29
ENDMDL
