MODEL 1
REMARK VINA RESULT:      -9.0      0.000      0.000
REMARK SMILES Cc1ccc(Nc2c(F)cccc2I)c(CC(=O)OCCOCCOCCOCCOC(=O)c2ccc(-c3c4nc(c(-c5cc(S(=O)(=O)[O-])ccc5F)c5ccc([nH]5)c(-c5cc(S(=O)(=O)[O-])ccc5F)c5nc(c(-c6cc(S(=O)(=O)[O-])ccc6F)c6ccc3[nH]6)C=C5)C=C4)cc2)c1
REMARK SMILES IDX 25 1 24 2 23 3 22 4 21 5 20 6 19 7 17 8 18 9 16 10 15 11
REMARK SMILES IDX 1 12 2 13 3 14 97 15 4 16 5 17 6 18 7 20 8 21 13 22 9 23
REMARK SMILES IDX 10 24 12 25 14 26 11 27 26 28 27 29 28 30 29 31 30 32 31 33
REMARK SMILES IDX 32 34 33 35 34 36 35 37 96 38 36 39 95 40 37 41 38 42 39 43
REMARK SMILES IDX 89 44 40 45 94 46 88 47 90 48 41 49 93 50 87 51 86 52 42 54
REMARK SMILES IDX 74 55 54 56 73 57 55 58 58 59 72 60 91 61 56 62 57 63 71 65
REMARK SMILES IDX 92 66 59 67 43 68 44 69 52 70 45 71 51 72 53 73 50 74 46 75
REMARK SMILES IDX 47 76 48 77 49 78 75 79 76 80 84 81 77 82 83 83 85 84 82 85
REMARK SMILES IDX 78 86 79 87 80 88 81 89 60 90 61 91 69 92 62 93 68 94 70 95
REMARK SMILES IDX 67 96 63 97 64 98 65 99 66 100
REMARK H PARENT 6 19 90 53 58 64
REMARK Flexibility Score: inf
ROOT
ATOM      1  O   UNL A   1      40.439  21.792  26.937  1.00  0.00    -0.377 OA
ENDROOT
BRANCH   1   2
ATOM      2  C   UNL A   1      39.744  21.120  25.916  1.00  0.00     0.188 C 
BRANCH   2   3
ATOM      3  C   UNL A   1      38.340  21.692  25.753  1.00  0.00     0.188 C 
BRANCH   3   4
ATOM      4  O   UNL A   1      37.448  21.121  24.813  1.00  0.00    -0.376 OA
BRANCH   4   5
ATOM      5  C   UNL A   1      36.803  22.083  24.008  1.00  0.00     0.202 C 
BRANCH   5   6
ATOM      6  C   UNL A   1      35.321  22.363  24.246  1.00  0.00     0.261 C 
BRANCH   6   7
ATOM      7  O   UNL A   1      34.627  22.990  23.155  1.00  0.00    -0.463 OA
BRANCH   7   8
ATOM      8  C   UNL A   1      34.199  24.256  23.373  1.00  0.00     0.310 C 
ATOM      9  O   UNL A   1      34.041  25.108  22.506  1.00  0.00    -0.252 OA
BRANCH   8  10
ATOM     10  C   UNL A   1      33.946  24.553  24.826  1.00  0.00     0.160 C 
BRANCH  10  11
ATOM     11  C   UNL A   1      32.518  24.814  25.276  1.00  0.00    -0.013 A 
ATOM     12  C   UNL A   1      29.916  22.591  27.079  1.00  0.00     0.044 C 
ATOM     13  C   UNL A   1      30.578  23.755  26.403  1.00  0.00    -0.051 A 
ATOM     14  C   UNL A   1      29.879  24.937  26.241  1.00  0.00     0.005 A 
ATOM     15  C   UNL A   1      31.884  23.700  25.913  1.00  0.00     0.009 A 
ATOM     16  C   UNL A   1      30.476  26.031  25.603  1.00  0.00     0.026 A 
ATOM     17  C   UNL A   1      31.803  26.037  25.118  1.00  0.00     0.042 A 
BRANCH  17  18
ATOM     18  N   UNL A   1      32.333  27.185  24.429  1.00  0.00    -0.352 N 
ATOM     19  H   UNL A   1      32.769  26.993  23.568  1.00  0.00     0.167 HD
BRANCH  18  20
ATOM     20  C   UNL A   1      32.321  28.577  24.814  1.00  0.00     0.088 A 
ATOM     21  C   UNL A   1      33.186  29.095  25.789  1.00  0.00     0.147 A 
ATOM     22  C   UNL A   1      31.283  29.456  24.420  1.00  0.00     0.040 A 
ATOM     23  F   UNL A   1      34.366  28.501  26.028  1.00  0.00    -0.205 F 
ATOM     24  C   UNL A   1      32.891  30.241  26.535  1.00  0.00     0.041 A 
ATOM     25  C   UNL A   1      30.949  30.592  25.190  1.00  0.00     0.017 A 
ATOM     26  I   UNL A   1      30.191  29.204  22.631  1.00  0.00    -0.042 I 
ATOM     27  C   UNL A   1      31.727  30.953  26.285  1.00  0.00     0.004 A 
ENDBRANCH  18  20
ENDBRANCH  17  18
ENDBRANCH  10  11
ENDBRANCH   8  10
ENDBRANCH   7   8
ENDBRANCH   6   7
ENDBRANCH   5   6
ENDBRANCH   4   5
ENDBRANCH   3   4
ENDBRANCH   2   3
ENDBRANCH   1   2
BRANCH   1  28
ATOM     28  C   UNL A   1      40.247  23.180  26.889  1.00  0.00     0.188 C 
BRANCH  28  29
ATOM     29  C   UNL A   1      41.405  23.975  27.521  1.00  0.00     0.188 C 
BRANCH  29  30
ATOM     30  O   UNL A   1      41.911  25.016  26.690  1.00  0.00    -0.376 OA
BRANCH  30  31
ATOM     31  C   UNL A   1      40.875  25.851  26.149  1.00  0.00     0.202 C 
BRANCH  31  32
ATOM     32  C   UNL A   1      40.748  27.294  26.742  1.00  0.00     0.261 C 
BRANCH  32  33
ATOM     33  O   UNL A   1      39.650  27.462  27.688  1.00  0.00    -0.460 OA
BRANCH  33  34
ATOM     34  C   UNL A   1      39.347  28.714  28.176  1.00  0.00     0.338 C 
ATOM     35  O   UNL A   1      38.436  29.414  27.849  1.00  0.00    -0.246 OA
BRANCH  34  36
ATOM     36  C   UNL A   1      40.184  28.924  29.420  1.00  0.00     0.060 A 
ATOM     37  C   UNL A   1      39.724  28.584  30.691  1.00  0.00     0.016 A 
ATOM     38  C   UNL A   1      41.297  29.765  29.311  1.00  0.00     0.016 A 
ATOM     39  C   UNL A   1      40.231  29.259  31.822  1.00  0.00     0.010 A 
ATOM     40  C   UNL A   1      41.692  30.535  30.415  1.00  0.00     0.010 A 
ATOM     41  C   UNL A   1      41.099  30.355  31.675  1.00  0.00    -0.014 A 
BRANCH  41  42
ATOM     42  C   UNL A   1      41.121  31.500  32.645  1.00  0.00     0.031 A 
ATOM     43  C   UNL A   1      42.291  31.808  33.552  1.00  0.00     0.074 A 
ATOM     44  C   UNL A   1      40.199  32.490  32.447  1.00  0.00     0.049 A 
ATOM     45  N   UNL A   1      42.336  32.801  34.387  1.00  0.00    -0.248 NA
ATOM     46  C   UNL A   1      43.535  31.038  33.601  1.00  0.00     0.031 C 
ATOM     47  C   UNL A   1      40.291  33.899  32.842  1.00  0.00     0.029 A 
ATOM     48  N   UNL A   1      38.977  32.457  31.756  1.00  0.00    -0.354 N 
ATOM     49  C   UNL A   1      43.652  33.031  34.758  1.00  0.00     0.074 A 
ATOM     50  C   UNL A   1      44.329  31.822  34.349  1.00  0.00     0.031 C 
ATOM     51  C   UNL A   1      39.206  34.577  32.452  1.00  0.00     0.029 A 
ATOM     52  C   UNL A   1      38.215  33.581  32.168  1.00  0.00     0.049 A 
ATOM     53  H   UNL A   1      38.698  31.776  31.101  1.00  0.00     0.167 HD
ATOM     54  C   UNL A   1      44.033  34.272  35.217  1.00  0.00     0.034 A 
ATOM     55  C   UNL A   1      37.122  33.390  32.968  1.00  0.00     0.034 A 
ATOM     56  C   UNL A   1      42.886  35.163  35.515  1.00  0.00     0.049 A 
ATOM     57  C   UNL A   1      37.379  33.790  34.434  1.00  0.00     0.074 A 
ATOM     58  C   UNL A   1      42.575  36.511  35.381  1.00  0.00     0.029 A 
ATOM     59  N   UNL A   1      41.727  34.591  36.015  1.00  0.00    -0.354 N 
ATOM     60  N   UNL A   1      38.389  34.528  34.845  1.00  0.00    -0.248 NA
ATOM     61  C   UNL A   1      36.559  33.358  35.562  1.00  0.00     0.031 C 
ATOM     62  C   UNL A   1      41.200  36.703  35.742  1.00  0.00     0.029 A 
ATOM     63  C   UNL A   1      40.707  35.493  36.188  1.00  0.00     0.049 A 
ATOM     64  H   UNL A   1      41.644  33.633  36.225  1.00  0.00     0.167 HD
ATOM     65  C   UNL A   1      38.476  34.517  36.215  1.00  0.00     0.074 A 
ATOM     66  C   UNL A   1      37.266  33.812  36.616  1.00  0.00     0.031 C 
ATOM     67  C   UNL A   1      39.548  35.015  36.919  1.00  0.00     0.034 A 
BRANCH  54  68
ATOM     68  C   UNL A   1      45.475  34.804  35.284  1.00  0.00     0.023 A 
ATOM     69  C   UNL A   1      46.236  34.920  34.092  1.00  0.00     0.031 A 
ATOM     70  C   UNL A   1      46.200  35.068  36.467  1.00  0.00     0.131 A 
ATOM     71  C   UNL A   1      47.615  35.233  34.104  1.00  0.00     0.055 A 
ATOM     72  C   UNL A   1      47.555  35.451  36.474  1.00  0.00     0.041 A 
ATOM     73  F   UNL A   1      45.658  34.916  37.681  1.00  0.00    -0.206 F 
ATOM     74  C   UNL A   1      48.276  35.522  35.292  1.00  0.00     0.022 A 
BRANCH  71  75
ATOM     75  S   UNL A   1      48.561  35.207  32.549  1.00  0.00     0.124 S 
ATOM     76  O   UNL A   1      49.637  34.272  32.859  1.00  0.00    -0.237 OA
ATOM     77  O   UNL A   1      47.568  34.751  31.583  1.00  0.00    -0.237 OA
ATOM     78  O   UNL A   1      48.984  36.598  32.382  1.00  0.00    -0.744 OA
ENDBRANCH  71  75
ENDBRANCH  54  68
BRANCH  55  79
ATOM     79  C   UNL A   1      36.267  32.322  32.342  1.00  0.00     0.023 A 
ATOM     80  C   UNL A   1      35.615  32.745  31.149  1.00  0.00     0.031 A 
ATOM     81  C   UNL A   1      36.593  30.960  32.446  1.00  0.00     0.131 A 
ATOM     82  C   UNL A   1      35.589  31.907  30.022  1.00  0.00     0.055 A 
ATOM     83  C   UNL A   1      36.454  30.095  31.345  1.00  0.00     0.041 A 
ATOM     84  F   UNL A   1      37.228  30.491  33.530  1.00  0.00    -0.206 F 
ATOM     85  C   UNL A   1      36.021  30.584  30.109  1.00  0.00     0.022 A 
BRANCH  82  86
ATOM     86  S   UNL A   1      35.323  32.666  28.381  1.00  0.00     0.124 S 
ATOM     87  O   UNL A   1      35.740  31.596  27.481  1.00  0.00    -0.237 OA
ATOM     88  O   UNL A   1      33.896  32.971  28.390  1.00  0.00    -0.237 OA
ATOM     89  O   UNL A   1      36.191  33.842  28.403  1.00  0.00    -0.744 OA
ENDBRANCH  82  86
ENDBRANCH  55  79
BRANCH  67  90
ATOM     90  C   UNL A   1      39.688  34.968  38.429  1.00  0.00     0.023 A 
ATOM     91  C   UNL A   1      40.066  33.796  39.080  1.00  0.00     0.031 A 
ATOM     92  C   UNL A   1      39.407  36.080  39.273  1.00  0.00     0.131 A 
ATOM     93  C   UNL A   1      40.316  33.795  40.461  1.00  0.00     0.055 A 
ATOM     94  C   UNL A   1      39.558  36.045  40.660  1.00  0.00     0.041 A 
ATOM     95  F   UNL A   1      39.002  37.266  38.800  1.00  0.00    -0.206 F 
ATOM     96  C   UNL A   1      40.052  34.904  41.262  1.00  0.00     0.022 A 
BRANCH  93  97
ATOM     97  S   UNL A   1      41.127  32.340  41.151  1.00  0.00     0.124 S 
ATOM     98  O   UNL A   1      41.958  31.885  40.041  1.00  0.00    -0.237 OA
ATOM     99  O   UNL A   1      41.846  32.919  42.284  1.00  0.00    -0.237 OA
ATOM    100  O   UNL A   1      40.016  31.460  41.504  1.00  0.00    -0.744 OA
ENDBRANCH  93  97
ENDBRANCH  67  90
ENDBRANCH  41  42
ENDBRANCH  34  36
ENDBRANCH  33  34
ENDBRANCH  32  33
ENDBRANCH  31  32
ENDBRANCH  30  31
ENDBRANCH  29  30
ENDBRANCH  28  29
ENDBRANCH   1  28
TORSDOF 26
ENDMDL
MODEL 2
REMARK VINA RESULT:      -8.6      1.855      2.112
REMARK SMILES Cc1ccc(Nc2c(F)cccc2I)c(CC(=O)OCCOCCOCCOCCOC(=O)c2ccc(-c3c4nc(c(-c5cc(S(=O)(=O)[O-])ccc5F)c5ccc([nH]5)c(-c5cc(S(=O)(=O)[O-])ccc5F)c5nc(c(-c6cc(S(=O)(=O)[O-])ccc6F)c6ccc3[nH]6)C=C5)C=C4)cc2)c1
REMARK SMILES IDX 25 1 24 2 23 3 22 4 21 5 20 6 19 7 17 8 18 9 16 10 15 11
REMARK SMILES IDX 1 12 2 13 3 14 97 15 4 16 5 17 6 18 7 20 8 21 13 22 9 23
REMARK SMILES IDX 10 24 12 25 14 26 11 27 26 28 27 29 28 30 29 31 30 32 31 33
REMARK SMILES IDX 32 34 33 35 34 36 35 37 96 38 36 39 95 40 37 41 38 42 39 43
REMARK SMILES IDX 89 44 40 45 94 46 88 47 90 48 41 49 93 50 87 51 86 52 42 54
REMARK SMILES IDX 74 55 54 56 73 57 55 58 58 59 72 60 91 61 56 62 57 63 71 65
REMARK SMILES IDX 92 66 59 67 43 68 44 69 52 70 45 71 51 72 53 73 50 74 46 75
REMARK SMILES IDX 47 76 48 77 49 78 75 79 76 80 84 81 77 82 83 83 85 84 82 85
REMARK SMILES IDX 78 86 79 87 80 88 81 89 60 90 61 91 69 92 62 93 68 94 70 95
REMARK SMILES IDX 67 96 63 97 64 98 65 99 66 100
REMARK H PARENT 6 19 90 53 58 64
REMARK Flexibility Score: inf
ROOT
ATOM      1  O   UNL A   1      40.456  21.654  26.983  1.00  0.00    -0.377 OA
ENDROOT
BRANCH   1   2
ATOM      2  C   UNL A   1      39.669  20.856  26.134  1.00  0.00     0.188 C 
BRANCH   2   3
ATOM      3  C   UNL A   1      38.431  21.618  25.673  1.00  0.00     0.188 C 
BRANCH   3   4
ATOM      4  O   UNL A   1      37.610  21.081  24.653  1.00  0.00    -0.376 OA
BRANCH   4   5
ATOM      5  C   UNL A   1      36.836  22.059  23.994  1.00  0.00     0.202 C 
BRANCH   5   6
ATOM      6  C   UNL A   1      35.399  22.292  24.459  1.00  0.00     0.261 C 
BRANCH   6   7
ATOM      7  O   UNL A   1      34.512  22.841  23.472  1.00  0.00    -0.463 OA
BRANCH   7   8
ATOM      8  C   UNL A   1      34.135  24.127  23.662  1.00  0.00     0.310 C 
ATOM      9  O   UNL A   1      34.093  24.988  22.790  1.00  0.00    -0.252 OA
BRANCH   8  10
ATOM     10  C   UNL A   1      33.783  24.436  25.092  1.00  0.00     0.160 C 
BRANCH  10  11
ATOM     11  C   UNL A   1      32.329  24.704  25.440  1.00  0.00    -0.013 A 
ATOM     12  C   UNL A   1      29.640  22.549  27.198  1.00  0.00     0.044 C 
ATOM     13  C   UNL A   1      30.333  23.683  26.502  1.00  0.00    -0.051 A 
ATOM     14  C   UNL A   1      29.635  24.846  26.235  1.00  0.00     0.005 A 
ATOM     15  C   UNL A   1      31.666  23.618  26.096  1.00  0.00     0.009 A 
ATOM     16  C   UNL A   1      30.260  25.912  25.577  1.00  0.00     0.026 A 
ATOM     17  C   UNL A   1      31.614  25.908  25.173  1.00  0.00     0.042 A 
BRANCH  17  18
ATOM     18  N   UNL A   1      32.175  27.024  24.457  1.00  0.00    -0.352 N 
ATOM     19  H   UNL A   1      32.574  26.804  23.584  1.00  0.00     0.167 HD
BRANCH  18  20
ATOM     20  C   UNL A   1      32.240  28.418  24.828  1.00  0.00     0.088 A 
ATOM     21  C   UNL A   1      33.126  28.895  25.806  1.00  0.00     0.147 A 
ATOM     22  C   UNL A   1      31.259  29.351  24.416  1.00  0.00     0.040 A 
ATOM     23  F   UNL A   1      34.267  28.237  26.062  1.00  0.00    -0.205 F 
ATOM     24  C   UNL A   1      32.891  30.064  26.538  1.00  0.00     0.041 A 
ATOM     25  C   UNL A   1      30.984  30.513  25.172  1.00  0.00     0.017 A 
ATOM     26  I   UNL A   1      30.170  29.145  22.620  1.00  0.00    -0.042 I 
ATOM     27  C   UNL A   1      31.772  30.839  26.270  1.00  0.00     0.004 A 
ENDBRANCH  18  20
ENDBRANCH  17  18
ENDBRANCH  10  11
ENDBRANCH   8  10
ENDBRANCH   7   8
ENDBRANCH   6   7
ENDBRANCH   5   6
ENDBRANCH   4   5
ENDBRANCH   3   4
ENDBRANCH   2   3
ENDBRANCH   1   2
BRANCH   1  28
ATOM     28  C   UNL A   1      40.400  23.013  26.642  1.00  0.00     0.188 C 
BRANCH  28  29
ATOM     29  C   UNL A   1      41.573  23.832  27.211  1.00  0.00     0.188 C 
BRANCH  29  30
ATOM     30  O   UNL A   1      42.007  24.890  26.360  1.00  0.00    -0.376 OA
BRANCH  30  31
ATOM     31  C   UNL A   1      40.952  25.809  26.034  1.00  0.00     0.202 C 
BRANCH  31  32
ATOM     32  C   UNL A   1      40.941  27.173  26.801  1.00  0.00     0.261 C 
BRANCH  32  33
ATOM     33  O   UNL A   1      39.772  27.378  27.649  1.00  0.00    -0.460 OA
BRANCH  33  34
ATOM     34  C   UNL A   1      39.476  28.637  28.123  1.00  0.00     0.338 C 
ATOM     35  O   UNL A   1      38.612  29.366  27.739  1.00  0.00    -0.246 OA
BRANCH  34  36
ATOM     36  C   UNL A   1      40.234  28.817  29.421  1.00  0.00     0.060 A 
ATOM     37  C   UNL A   1      39.666  28.523  30.659  1.00  0.00     0.016 A 
ATOM     38  C   UNL A   1      41.400  29.591  29.382  1.00  0.00     0.016 A 
ATOM     39  C   UNL A   1      40.131  29.185  31.816  1.00  0.00     0.010 A 
ATOM     40  C   UNL A   1      41.760  30.353  30.503  1.00  0.00     0.010 A 
ATOM     41  C   UNL A   1      41.070  30.227  31.720  1.00  0.00    -0.014 A 
BRANCH  41  42
ATOM     42  C   UNL A   1      41.091  31.383  32.676  1.00  0.00     0.031 A 
ATOM     43  C   UNL A   1      42.240  31.675  33.615  1.00  0.00     0.074 A 
ATOM     44  C   UNL A   1      40.200  32.392  32.439  1.00  0.00     0.049 A 
ATOM     45  N   UNL A   1      42.284  32.677  34.439  1.00  0.00    -0.248 NA
ATOM     46  C   UNL A   1      43.462  30.875  33.711  1.00  0.00     0.031 C 
ATOM     47  C   UNL A   1      40.314  33.804  32.819  1.00  0.00     0.029 A 
ATOM     48  N   UNL A   1      38.999  32.380  31.711  1.00  0.00    -0.354 N 
ATOM     49  C   UNL A   1      43.593  32.879  34.847  1.00  0.00     0.074 A 
ATOM     50  C   UNL A   1      44.252  31.649  34.473  1.00  0.00     0.031 C 
ATOM     51  C   UNL A   1      39.258  34.503  32.388  1.00  0.00     0.029 A 
ATOM     52  C   UNL A   1      38.252  33.527  32.086  1.00  0.00     0.049 A 
ATOM     53  H   UNL A   1      38.723  31.698  31.056  1.00  0.00     0.167 HD
ATOM     54  C   UNL A   1      43.991  34.116  35.302  1.00  0.00     0.034 A 
ATOM     55  C   UNL A   1      37.131  33.372  32.855  1.00  0.00     0.034 A 
ATOM     56  C   UNL A   1      42.857  35.039  35.554  1.00  0.00     0.049 A 
ATOM     57  C   UNL A   1      37.354  33.785  34.323  1.00  0.00     0.074 A 
ATOM     58  C   UNL A   1      42.584  36.392  35.395  1.00  0.00     0.029 A 
ATOM     59  N   UNL A   1      41.670  34.501  36.026  1.00  0.00    -0.354 N 
ATOM     60  N   UNL A   1      38.368  34.503  34.756  1.00  0.00    -0.248 NA
ATOM     61  C   UNL A   1      36.490  33.388  35.431  1.00  0.00     0.031 C 
ATOM     62  C   UNL A   1      41.203  36.621  35.712  1.00  0.00     0.029 A 
ATOM     63  C   UNL A   1      40.668  35.429  36.157  1.00  0.00     0.049 A 
ATOM     64  H   UNL A   1      41.557  33.548  36.245  1.00  0.00     0.167 HD
ATOM     65  C   UNL A   1      38.414  34.508  36.128  1.00  0.00     0.074 A 
ATOM     66  C   UNL A   1      37.176  33.838  36.500  1.00  0.00     0.031 C 
ATOM     67  C   UNL A   1      39.476  34.989  36.858  1.00  0.00     0.034 A 
BRANCH  54  68
ATOM     68  C   UNL A   1      45.443  34.615  35.407  1.00  0.00     0.023 A 
ATOM     69  C   UNL A   1      45.905  35.178  36.624  1.00  0.00     0.031 A 
ATOM     70  C   UNL A   1      46.361  34.705  34.337  1.00  0.00     0.131 A 
ATOM     71  C   UNL A   1      47.165  35.812  36.732  1.00  0.00     0.055 A 
ATOM     72  C   UNL A   1      47.643  35.271  34.464  1.00  0.00     0.041 A 
ATOM     73  F   UNL A   1      46.049  34.304  33.098  1.00  0.00    -0.206 F 
ATOM     74  C   UNL A   1      48.049  35.841  35.661  1.00  0.00     0.022 A 
BRANCH  71  75
ATOM     75  S   UNL A   1      47.623  36.652  38.281  1.00  0.00     0.124 S 
ATOM     76  O   UNL A   1      48.451  35.648  38.942  1.00  0.00    -0.237 OA
ATOM     77  O   UNL A   1      48.313  37.843  37.802  1.00  0.00    -0.237 OA
ATOM     78  O   UNL A   1      46.334  36.907  38.926  1.00  0.00    -0.744 OA
ENDBRANCH  71  75
ENDBRANCH  54  68
BRANCH  55  79
ATOM     79  C   UNL A   1      36.270  32.318  32.216  1.00  0.00     0.023 A 
ATOM     80  C   UNL A   1      35.593  32.769  31.048  1.00  0.00     0.031 A 
ATOM     81  C   UNL A   1      36.604  30.956  32.276  1.00  0.00     0.131 A 
ATOM     82  C   UNL A   1      35.550  31.963  29.898  1.00  0.00     0.055 A 
ATOM     83  C   UNL A   1      36.448  30.120  31.154  1.00  0.00     0.041 A 
ATOM     84  F   UNL A   1      37.262  30.460  33.334  1.00  0.00    -0.206 F 
ATOM     85  C   UNL A   1      35.990  30.641  29.941  1.00  0.00     0.022 A 
BRANCH  82  86
ATOM     86  S   UNL A   1      35.250  32.765  28.284  1.00  0.00     0.124 S 
ATOM     87  O   UNL A   1      33.907  33.305  28.458  1.00  0.00    -0.237 OA
ATOM     88  O   UNL A   1      36.326  33.748  28.204  1.00  0.00    -0.237 OA
ATOM     89  O   UNL A   1      35.366  31.665  27.328  1.00  0.00    -0.744 OA
ENDBRANCH  82  86
ENDBRANCH  55  79
BRANCH  67  90
ATOM     90  C   UNL A   1      39.569  34.958  38.372  1.00  0.00     0.023 A 
ATOM     91  C   UNL A   1      39.945  36.089  39.093  1.00  0.00     0.031 A 
ATOM     92  C   UNL A   1      39.327  33.786  39.144  1.00  0.00     0.131 A 
ATOM     93  C   UNL A   1      39.905  36.087  40.496  1.00  0.00     0.055 A 
ATOM     94  C   UNL A   1      39.389  33.761  40.538  1.00  0.00     0.041 A 
ATOM     95  F   UNL A   1      38.989  32.612  38.594  1.00  0.00    -0.206 F 
ATOM     96  C   UNL A   1      39.645  34.931  41.228  1.00  0.00     0.022 A 
BRANCH  93  97
ATOM     97  S   UNL A   1      40.068  37.679  41.327  1.00  0.00     0.124 S 
ATOM     98  O   UNL A   1      41.429  38.077  40.982  1.00  0.00    -0.237 OA
ATOM     99  O   UNL A   1      39.003  38.450  40.689  1.00  0.00    -0.237 OA
ATOM    100  O   UNL A   1      39.846  37.358  42.734  1.00  0.00    -0.744 OA
ENDBRANCH  93  97
ENDBRANCH  67  90
ENDBRANCH  41  42
ENDBRANCH  34  36
ENDBRANCH  33  34
ENDBRANCH  32  33
ENDBRANCH  31  32
ENDBRANCH  30  31
ENDBRANCH  29  30
ENDBRANCH  28  29
ENDBRANCH   1  28
TORSDOF 26
ENDMDL
MODEL 3
REMARK VINA RESULT:      -8.5      5.077     11.161
REMARK SMILES Cc1ccc(Nc2c(F)cccc2I)c(CC(=O)OCCOCCOCCOCCOC(=O)c2ccc(-c3c4nc(c(-c5cc(S(=O)(=O)[O-])ccc5F)c5ccc([nH]5)c(-c5cc(S(=O)(=O)[O-])ccc5F)c5nc(c(-c6cc(S(=O)(=O)[O-])ccc6F)c6ccc3[nH]6)C=C5)C=C4)cc2)c1
REMARK SMILES IDX 25 1 24 2 23 3 22 4 21 5 20 6 19 7 17 8 18 9 16 10 15 11
REMARK SMILES IDX 1 12 2 13 3 14 97 15 4 16 5 17 6 18 7 20 8 21 13 22 9 23
REMARK SMILES IDX 10 24 12 25 14 26 11 27 26 28 27 29 28 30 29 31 30 32 31 33
REMARK SMILES IDX 32 34 33 35 34 36 35 37 96 38 36 39 95 40 37 41 38 42 39 43
REMARK SMILES IDX 89 44 40 45 94 46 88 47 90 48 41 49 93 50 87 51 86 52 42 54
REMARK SMILES IDX 74 55 54 56 73 57 55 58 58 59 72 60 91 61 56 62 57 63 71 65
REMARK SMILES IDX 92 66 59 67 43 68 44 69 52 70 45 71 51 72 53 73 50 74 46 75
REMARK SMILES IDX 47 76 48 77 49 78 75 79 76 80 84 81 77 82 83 83 85 84 82 85
REMARK SMILES IDX 78 86 79 87 80 88 81 89 60 90 61 91 69 92 62 93 68 94 70 95
REMARK SMILES IDX 67 96 63 97 64 98 65 99 66 100
REMARK H PARENT 6 19 90 53 58 64
REMARK Flexibility Score: inf
ROOT
ATOM      1  O   UNL A   1      35.268  31.889  31.980  1.00  0.00    -0.377 OA
ENDROOT
BRANCH   1   2
ATOM      2  C   UNL A   1      35.736  31.946  30.655  1.00  0.00     0.188 C 
BRANCH   2   3
ATOM      3  C   UNL A   1      34.780  32.750  29.780  1.00  0.00     0.188 C 
BRANCH   3   4
ATOM      4  O   UNL A   1      34.116  32.123  28.698  1.00  0.00    -0.376 OA
BRANCH   4   5
ATOM      5  C   UNL A   1      35.002  31.532  27.773  1.00  0.00     0.202 C 
BRANCH   5   6
ATOM      6  C   UNL A   1      34.874  30.037  27.487  1.00  0.00     0.261 C 
BRANCH   6   7
ATOM      7  O   UNL A   1      33.747  29.656  26.682  1.00  0.00    -0.463 OA
BRANCH   7   8
ATOM      8  C   UNL A   1      33.717  28.364  26.278  1.00  0.00     0.310 C 
ATOM      9  O   UNL A   1      34.702  27.681  26.018  1.00  0.00    -0.252 OA
BRANCH   8  10
ATOM     10  C   UNL A   1      32.321  27.818  26.142  1.00  0.00     0.160 C 
BRANCH  10  11
ATOM     11  C   UNL A   1      31.663  27.840  24.773  1.00  0.00    -0.013 A 
ATOM     12  C   UNL A   1      29.248  30.352  23.092  1.00  0.00     0.044 C 
ATOM     13  C   UNL A   1      30.132  29.165  23.339  1.00  0.00    -0.051 A 
ATOM     14  C   UNL A   1      30.284  28.212  22.350  1.00  0.00     0.005 A 
ATOM     15  C   UNL A   1      30.813  28.968  24.542  1.00  0.00     0.009 A 
ATOM     16  C   UNL A   1      31.095  27.091  22.565  1.00  0.00     0.026 A 
ATOM     17  C   UNL A   1      31.829  26.860  23.750  1.00  0.00     0.042 A 
BRANCH  17  18
ATOM     18  N   UNL A   1      32.606  25.660  23.917  1.00  0.00    -0.352 N 
ATOM     19  H   UNL A   1      33.465  25.647  23.437  1.00  0.00     0.167 HD
BRANCH  18  20
ATOM     20  C   UNL A   1      32.313  24.472  24.683  1.00  0.00     0.088 A 
ATOM     21  C   UNL A   1      31.021  23.933  24.771  1.00  0.00     0.147 A 
ATOM     22  C   UNL A   1      33.247  23.914  25.589  1.00  0.00     0.040 A 
ATOM     23  F   UNL A   1      30.132  24.148  23.788  1.00  0.00    -0.205 F 
ATOM     24  C   UNL A   1      30.598  23.143  25.846  1.00  0.00     0.041 A 
ATOM     25  C   UNL A   1      32.827  23.151  26.703  1.00  0.00     0.017 A 
ATOM     26  I   UNL A   1      35.334  24.099  25.337  1.00  0.00    -0.042 I 
ATOM     27  C   UNL A   1      31.487  22.813  26.857  1.00  0.00     0.004 A 
ENDBRANCH  18  20
ENDBRANCH  17  18
ENDBRANCH  10  11
ENDBRANCH   8  10
ENDBRANCH   7   8
ENDBRANCH   6   7
ENDBRANCH   5   6
ENDBRANCH   4   5
ENDBRANCH   3   4
ENDBRANCH   2   3
ENDBRANCH   1   2
BRANCH   1  28
ATOM     28  C   UNL A   1      34.304  32.871  32.248  1.00  0.00     0.188 C 
BRANCH  28  29
ATOM     29  C   UNL A   1      34.400  33.445  33.673  1.00  0.00     0.188 C 
BRANCH  29  30
ATOM     30  O   UNL A   1      35.688  33.304  34.268  1.00  0.00    -0.376 OA
BRANCH  30  31
ATOM     31  C   UNL A   1      36.511  34.468  34.093  1.00  0.00     0.202 C 
BRANCH  31  32
ATOM     32  C   UNL A   1      37.426  34.502  32.825  1.00  0.00     0.261 C 
BRANCH  32  33
ATOM     33  O   UNL A   1      38.236  33.304  32.633  1.00  0.00    -0.460 OA
BRANCH  33  34
ATOM     34  C   UNL A   1      39.296  33.046  33.474  1.00  0.00     0.338 C 
ATOM     35  O   UNL A   1      39.247  32.588  34.576  1.00  0.00    -0.246 OA
BRANCH  34  36
ATOM     36  C   UNL A   1      40.560  33.155  32.648  1.00  0.00     0.060 A 
ATOM     37  C   UNL A   1      40.550  33.610  31.331  1.00  0.00     0.016 A 
ATOM     38  C   UNL A   1      41.695  32.484  33.118  1.00  0.00     0.016 A 
ATOM     39  C   UNL A   1      41.565  33.197  30.441  1.00  0.00     0.010 A 
ATOM     40  C   UNL A   1      42.617  31.958  32.201  1.00  0.00     0.010 A 
ATOM     41  C   UNL A   1      42.514  32.236  30.828  1.00  0.00    -0.014 A 
BRANCH  41  42
ATOM     42  C   UNL A   1      43.121  31.266  29.857  1.00  0.00     0.031 A 
ATOM     43  C   UNL A   1      42.902  29.772  29.916  1.00  0.00     0.074 A 
ATOM     44  C   UNL A   1      43.600  31.788  28.687  1.00  0.00     0.049 A 
ATOM     45  N   UNL A   1      43.406  28.918  29.078  1.00  0.00    -0.248 NA
ATOM     46  C   UNL A   1      42.080  29.088  30.916  1.00  0.00     0.031 C 
ATOM     47  C   UNL A   1      43.745  31.114  27.393  1.00  0.00     0.029 A 
ATOM     48  N   UNL A   1      43.995  33.100  28.381  1.00  0.00    -0.354 N 
ATOM     49  C   UNL A   1      42.712  27.721  29.167  1.00  0.00     0.074 A 
ATOM     50  C   UNL A   1      41.997  27.843  30.416  1.00  0.00     0.031 C 
ATOM     51  C   UNL A   1      44.220  31.954  26.466  1.00  0.00     0.029 A 
ATOM     52  C   UNL A   1      44.777  33.053  27.198  1.00  0.00     0.049 A 
ATOM     53  H   UNL A   1      43.769  33.909  28.895  1.00  0.00     0.167 HD
ATOM     54  C   UNL A   1      42.701  26.848  28.102  1.00  0.00     0.034 A 
ATOM     55  C   UNL A   1      46.126  33.267  27.280  1.00  0.00     0.034 A 
ATOM     56  C   UNL A   1      43.691  27.195  27.052  1.00  0.00     0.049 A 
ATOM     57  C   UNL A   1      46.944  31.968  27.147  1.00  0.00     0.074 A 
ATOM     58  C   UNL A   1      43.759  27.177  25.664  1.00  0.00     0.029 A 
ATOM     59  N   UNL A   1      44.895  27.755  27.448  1.00  0.00    -0.354 N 
ATOM     60  N   UNL A   1      46.474  30.827  26.688  1.00  0.00    -0.248 NA
ATOM     61  C   UNL A   1      48.337  31.825  27.562  1.00  0.00     0.031 C 
ATOM     62  C   UNL A   1      44.987  27.798  25.258  1.00  0.00     0.029 A 
ATOM     63  C   UNL A   1      45.705  28.102  26.397  1.00  0.00     0.049 A 
ATOM     64  H   UNL A   1      45.144  27.890  28.391  1.00  0.00     0.167 HD
ATOM     65  C   UNL A   1      47.366  29.807  26.908  1.00  0.00     0.074 A 
ATOM     66  C   UNL A   1      48.543  30.502  27.409  1.00  0.00     0.031 C 
ATOM     67  C   UNL A   1      47.066  28.476  26.734  1.00  0.00     0.034 A 
BRANCH  54  68
ATOM     68  C   UNL A   1      41.691  25.709  27.879  1.00  0.00     0.023 A 
ATOM     69  C   UNL A   1      42.150  24.442  27.436  1.00  0.00     0.031 A 
ATOM     70  C   UNL A   1      40.286  25.834  27.934  1.00  0.00     0.131 A 
ATOM     71  C   UNL A   1      41.263  23.412  27.046  1.00  0.00     0.055 A 
ATOM     72  C   UNL A   1      39.403  24.786  27.615  1.00  0.00     0.041 A 
ATOM     73  F   UNL A   1      39.687  26.991  28.243  1.00  0.00    -0.206 F 
ATOM     74  C   UNL A   1      39.887  23.570  27.154  1.00  0.00     0.022 A 
BRANCH  71  75
ATOM     75  S   UNL A   1      41.924  21.871  26.338  1.00  0.00     0.124 S 
ATOM     76  O   UNL A   1      42.613  22.351  25.145  1.00  0.00    -0.237 OA
ATOM     77  O   UNL A   1      42.771  21.368  27.413  1.00  0.00    -0.237 OA
ATOM     78  O   UNL A   1      40.725  21.073  26.077  1.00  0.00    -0.744 OA
ENDBRANCH  71  75
ENDBRANCH  54  68
BRANCH  55  79
ATOM     79  C   UNL A   1      46.350  34.534  28.060  1.00  0.00     0.023 A 
ATOM     80  C   UNL A   1      45.505  35.605  27.655  1.00  0.00     0.031 A 
ATOM     81  C   UNL A   1      46.758  34.511  29.403  1.00  0.00     0.131 A 
ATOM     82  C   UNL A   1      44.869  36.407  28.617  1.00  0.00     0.055 A 
ATOM     83  C   UNL A   1      46.203  35.398  30.344  1.00  0.00     0.041 A 
ATOM     84  F   UNL A   1      47.536  33.521  29.864  1.00  0.00    -0.206 F 
ATOM     85  C   UNL A   1      45.202  36.298  29.967  1.00  0.00     0.022 A 
BRANCH  82  86
ATOM     86  S   UNL A   1      43.366  37.325  28.129  1.00  0.00     0.124 S 
ATOM     87  O   UNL A   1      43.520  37.409  26.681  1.00  0.00    -0.237 OA
ATOM     88  O   UNL A   1      42.289  36.463  28.606  1.00  0.00    -0.237 OA
ATOM     89  O   UNL A   1      43.488  38.591  28.849  1.00  0.00    -0.744 OA
ENDBRANCH  82  86
ENDBRANCH  55  79
BRANCH  67  90
ATOM     90  C   UNL A   1      48.019  27.331  27.018  1.00  0.00     0.023 A 
ATOM     91  C   UNL A   1      48.546  27.133  28.293  1.00  0.00     0.031 A 
ATOM     92  C   UNL A   1      48.468  26.423  26.018  1.00  0.00     0.131 A 
ATOM     93  C   UNL A   1      49.324  26.000  28.576  1.00  0.00     0.055 A 
ATOM     94  C   UNL A   1      49.326  25.354  26.282  1.00  0.00     0.041 A 
ATOM     95  F   UNL A   1      48.078  26.502  24.739  1.00  0.00    -0.206 F 
ATOM     96  C   UNL A   1      49.733  25.115  27.581  1.00  0.00     0.022 A 
BRANCH  93  97
ATOM     97  S   UNL A   1      49.668  25.649  30.311  1.00  0.00     0.124 S 
ATOM     98  O   UNL A   1      48.330  25.486  30.871  1.00  0.00    -0.237 OA
ATOM     99  O   UNL A   1      50.463  24.427  30.207  1.00  0.00    -0.237 OA
ATOM    100  O   UNL A   1      50.398  26.829  30.764  1.00  0.00    -0.744 OA
ENDBRANCH  93  97
ENDBRANCH  67  90
ENDBRANCH  41  42
ENDBRANCH  34  36
ENDBRANCH  33  34
ENDBRANCH  32  33
ENDBRANCH  31  32
ENDBRANCH  30  31
ENDBRANCH  29  30
ENDBRANCH  28  29
ENDBRANCH   1  28
TORSDOF 26
ENDMDL
