MODEL 1
REMARK VINA RESULT:     -10.3      0.000      0.000
REMARK SMILES Cc1[nH]c2c(C(=O)N3CC[C@H](O)C[C@@H]3C(=O)OCCOCCOCCOCCOC(=O)c3ccc(-c4c5nc(c(-c6cc(S(=O)(=O)[O-])ccc6F)c6ccc([nH]6)c(-c6cc(S(=O)(=O)[O-])ccc6F)c6nc(c(-c7cc(S(=O)(=O)[O-])ccc7F)c7ccc4[nH]7)C=C6)C=C5)cc3)cccc2c1C
REMARK SMILES IDX 24 1 23 2 22 3 21 4 20 5 19 6 18 7 17 8 15 9 16 10 14 11
REMARK SMILES IDX 8 12 9 13 10 14 13 15 11 16 6 17 7 18 5 19 1 20 2 21 3 22
REMARK SMILES IDX 99 23 4 24 98 26 100 27 97 28 95 29 96 30 12 31 25 33 26 34
REMARK SMILES IDX 27 35 28 36 29 37 30 38 31 39 32 40 33 41 94 42 34 43 93 44
REMARK SMILES IDX 35 45 36 46 37 47 87 48 38 49 92 50 86 51 88 52 39 53 91 54
REMARK SMILES IDX 85 55 84 56 40 58 72 59 52 60 71 61 53 62 56 63 70 64 89 65
REMARK SMILES IDX 54 66 55 67 69 69 90 70 57 71 41 72 42 73 50 74 43 75 49 76
REMARK SMILES IDX 51 77 48 78 44 79 45 80 46 81 47 82 73 83 74 84 82 85 75 86
REMARK SMILES IDX 81 87 83 88 80 89 76 90 77 91 78 92 79 93 58 94 59 95 67 96
REMARK SMILES IDX 60 97 66 98 68 99 65 100 61 101 62 102 63 103 64 104
REMARK H PARENT 3 25 12 32 88 57 56 68
REMARK Flexibility Score: inf
ROOT
ATOM      1  C   UNL A   1      32.338  28.183  23.328  1.00  0.00     0.188 C 
ENDROOT
BRANCH   1   2
ATOM      2  O   UNL A   1      32.380  27.192  22.292  1.00  0.00    -0.377 OA
BRANCH   2   3
ATOM      3  C   UNL A   1      31.431  26.127  22.327  1.00  0.00     0.188 C 
BRANCH   3   4
ATOM      4  C   UNL A   1      31.920  24.761  22.810  1.00  0.00     0.188 C 
BRANCH   4   5
ATOM      5  O   UNL A   1      31.238  24.245  23.931  1.00  0.00    -0.376 OA
BRANCH   5   6
ATOM      6  C   UNL A   1      30.985  25.103  25.037  1.00  0.00     0.202 C 
BRANCH   6   7
ATOM      7  C   UNL A   1      31.825  25.089  26.329  1.00  0.00     0.261 C 
BRANCH   7   8
ATOM      8  O   UNL A   1      32.524  23.869  26.679  1.00  0.00    -0.462 OA
BRANCH   8   9
ATOM      9  C   UNL A   1      33.791  23.751  26.189  1.00  0.00     0.329 C 
ATOM     10  O   UNL A   1      34.454  24.719  25.815  1.00  0.00    -0.250 OA
BRANCH   9  11
ATOM     11  C   UNL A   1      34.277  22.313  25.916  1.00  0.00     0.198 C 
ATOM     12  N   UNL A   1      34.489  22.168  24.477  1.00  0.00    -0.325 N 
ATOM     13  C   UNL A   1      33.457  21.511  23.674  1.00  0.00     0.123 C 
ATOM     14  C   UNL A   1      33.067  20.176  24.297  1.00  0.00     0.053 C 
ATOM     15  C   UNL A   1      33.647  21.092  26.574  1.00  0.00     0.069 C 
ATOM     16  C   UNL A   1      32.586  20.396  25.729  1.00  0.00     0.118 C 
BRANCH  12  17
ATOM     17  C   UNL A   1      35.760  22.434  23.998  1.00  0.00     0.256 C 
ATOM     18  O   UNL A   1      35.938  23.194  23.046  1.00  0.00    -0.269 OA
BRANCH  17  19
ATOM     19  C   UNL A   1      36.909  21.671  24.550  1.00  0.00     0.064 A 
ATOM     20  C   UNL A   1      39.890  24.933  26.879  1.00  0.00     0.064 C 
ATOM     21  C   UNL A   1      39.334  23.617  26.468  1.00  0.00     0.016 A 
ATOM     22  N   UNL A   1      38.168  23.522  25.757  1.00  0.00    -0.358 N 
ATOM     23  C   UNL A   1      39.785  22.330  26.685  1.00  0.00    -0.023 A 
ATOM     24  C   UNL A   1      37.926  22.231  25.353  1.00  0.00     0.059 A 
ATOM     25  H   UNL A   1      37.577  24.284  25.562  1.00  0.00     0.166 HD
ATOM     26  C   UNL A   1      38.912  21.451  25.963  1.00  0.00     0.003 A 
ATOM     27  C   UNL A   1      40.970  21.930  27.487  1.00  0.00     0.047 C 
ATOM     28  C   UNL A   1      38.876  20.053  25.781  1.00  0.00     0.010 A 
ATOM     29  C   UNL A   1      36.908  20.275  24.392  1.00  0.00     0.016 A 
ATOM     30  C   UNL A   1      37.874  19.477  24.996  1.00  0.00     0.002 A 
ENDBRANCH  17  19
ENDBRANCH  12  17
BRANCH  16  31
ATOM     31  O   UNL A   1      31.392  21.161  25.695  1.00  0.00    -0.393 OA
ATOM     32  H   UNL A   1      30.804  20.814  25.006  1.00  0.00     0.210 HD
ENDBRANCH  16  31
ENDBRANCH   9  11
ENDBRANCH   8   9
ENDBRANCH   7   8
ENDBRANCH   6   7
ENDBRANCH   5   6
ENDBRANCH   4   5
ENDBRANCH   3   4
ENDBRANCH   2   3
ENDBRANCH   1   2
BRANCH   1  33
ATOM     33  C   UNL A   1      30.974  28.717  23.758  1.00  0.00     0.188 C 
BRANCH  33  34
ATOM     34  O   UNL A   1      30.956  29.734  24.762  1.00  0.00    -0.376 OA
BRANCH  34  35
ATOM     35  C   UNL A   1      31.861  29.641  25.859  1.00  0.00     0.202 C 
BRANCH  35  36
ATOM     36  C   UNL A   1      32.370  30.976  26.395  1.00  0.00     0.261 C 
BRANCH  36  37
ATOM     37  O   UNL A   1      33.206  30.809  27.548  1.00  0.00    -0.460 OA
BRANCH  37  38
ATOM     38  C   UNL A   1      34.046  31.843  27.791  1.00  0.00     0.338 C 
ATOM     39  O   UNL A   1      33.775  33.028  27.776  1.00  0.00    -0.246 OA
BRANCH  38  40
ATOM     40  C   UNL A   1      35.357  31.321  28.215  1.00  0.00     0.060 A 
ATOM     41  C   UNL A   1      35.457  29.957  28.518  1.00  0.00     0.016 A 
ATOM     42  C   UNL A   1      36.442  32.178  28.411  1.00  0.00     0.016 A 
ATOM     43  C   UNL A   1      36.627  29.458  29.083  1.00  0.00     0.010 A 
ATOM     44  C   UNL A   1      37.612  31.677  28.982  1.00  0.00     0.010 A 
ATOM     45  C   UNL A   1      37.689  30.325  29.363  1.00  0.00    -0.014 A 
BRANCH  45  46
ATOM     46  C   UNL A   1      38.805  29.869  30.222  1.00  0.00     0.031 A 
ATOM     47  C   UNL A   1      38.876  30.382  31.635  1.00  0.00     0.074 A 
ATOM     48  C   UNL A   1      39.721  29.004  29.755  1.00  0.00     0.049 A 
ATOM     49  N   UNL A   1      39.795  30.191  32.544  1.00  0.00    -0.248 NA
ATOM     50  C   UNL A   1      37.758  31.231  32.076  1.00  0.00     0.031 C 
ATOM     51  C   UNL A   1      39.711  28.406  28.421  1.00  0.00     0.029 A 
ATOM     52  N   UNL A   1      40.843  28.487  30.351  1.00  0.00    -0.354 N 
ATOM     53  C   UNL A   1      39.372  30.900  33.663  1.00  0.00     0.074 A 
ATOM     54  C   UNL A   1      38.135  31.558  33.302  1.00  0.00     0.031 C 
ATOM     55  C   UNL A   1      40.783  27.606  28.297  1.00  0.00     0.029 A 
ATOM     56  C   UNL A   1      41.578  27.675  29.521  1.00  0.00     0.049 A 
ATOM     57  H   UNL A   1      41.096  28.679  31.282  1.00  0.00     0.167 HD
ATOM     58  C   UNL A   1      39.959  30.985  34.882  1.00  0.00     0.034 A 
ATOM     59  C   UNL A   1      42.773  27.083  29.723  1.00  0.00     0.034 A 
ATOM     60  C   UNL A   1      41.203  30.331  35.210  1.00  0.00     0.049 A 
ATOM     61  C   UNL A   1      43.462  27.276  31.054  1.00  0.00     0.074 A 
ATOM     62  C   UNL A   1      41.895  30.344  36.408  1.00  0.00     0.029 A 
ATOM     63  N   UNL A   1      41.949  29.556  34.329  1.00  0.00    -0.354 N 
ATOM     64  N   UNL A   1      43.058  27.954  32.105  1.00  0.00    -0.248 NA
ATOM     65  C   UNL A   1      44.763  26.620  31.225  1.00  0.00     0.031 C 
ATOM     66  C   UNL A   1      43.093  29.644  36.229  1.00  0.00     0.029 A 
ATOM     67  C   UNL A   1      43.109  29.116  34.947  1.00  0.00     0.049 A 
ATOM     68  H   UNL A   1      41.691  29.350  33.403  1.00  0.00     0.167 HD
ATOM     69  C   UNL A   1      44.042  27.773  33.075  1.00  0.00     0.074 A 
ATOM     70  C   UNL A   1      45.048  26.914  32.486  1.00  0.00     0.031 C 
ATOM     71  C   UNL A   1      44.106  28.265  34.339  1.00  0.00     0.034 A 
BRANCH  58  72
ATOM     72  C   UNL A   1      39.291  31.856  35.919  1.00  0.00     0.023 A 
ATOM     73  C   UNL A   1      38.556  31.307  36.986  1.00  0.00     0.031 A 
ATOM     74  C   UNL A   1      39.360  33.256  35.822  1.00  0.00     0.131 A 
ATOM     75  C   UNL A   1      37.864  32.152  37.868  1.00  0.00     0.055 A 
ATOM     76  C   UNL A   1      38.739  34.092  36.752  1.00  0.00     0.041 A 
ATOM     77  F   UNL A   1      40.023  33.839  34.810  1.00  0.00    -0.206 F 
ATOM     78  C   UNL A   1      37.973  33.542  37.774  1.00  0.00     0.022 A 
BRANCH  75  79
ATOM     79  S   UNL A   1      36.701  31.411  39.046  1.00  0.00     0.124 S 
ATOM     80  O   UNL A   1      37.480  31.429  40.280  1.00  0.00    -0.237 OA
ATOM     81  O   UNL A   1      35.569  32.328  38.990  1.00  0.00    -0.237 OA
ATOM     82  O   UNL A   1      36.454  30.080  38.492  1.00  0.00    -0.744 OA
ENDBRANCH  75  79
ENDBRANCH  58  72
BRANCH  59  83
ATOM     83  C   UNL A   1      43.415  26.286  28.639  1.00  0.00     0.023 A 
ATOM     84  C   UNL A   1      44.303  26.885  27.731  1.00  0.00     0.031 A 
ATOM     85  C   UNL A   1      43.113  24.924  28.463  1.00  0.00     0.131 A 
ATOM     86  C   UNL A   1      44.819  26.137  26.662  1.00  0.00     0.055 A 
ATOM     87  C   UNL A   1      43.676  24.169  27.432  1.00  0.00     0.041 A 
ATOM     88  F   UNL A   1      42.269  24.301  29.301  1.00  0.00    -0.206 F 
ATOM     89  C   UNL A   1      44.524  24.780  26.515  1.00  0.00     0.022 A 
BRANCH  86  90
ATOM     90  S   UNL A   1      45.814  26.991  25.409  1.00  0.00     0.124 S 
ATOM     91  O   UNL A   1      46.330  25.873  24.628  1.00  0.00    -0.237 OA
ATOM     92  O   UNL A   1      44.817  27.828  24.751  1.00  0.00    -0.237 OA
ATOM     93  O   UNL A   1      46.809  27.714  26.199  1.00  0.00    -0.744 OA
ENDBRANCH  86  90
ENDBRANCH  59  83
BRANCH  71  94
ATOM     94  C   UNL A   1      45.283  27.837  35.184  1.00  0.00     0.023 A 
ATOM     95  C   UNL A   1      45.205  26.751  36.072  1.00  0.00     0.031 A 
ATOM     96  C   UNL A   1      46.501  28.536  35.100  1.00  0.00     0.131 A 
ATOM     97  C   UNL A   1      46.305  26.431  36.884  1.00  0.00     0.055 A 
ATOM     98  C   UNL A   1      47.614  28.170  35.859  1.00  0.00     0.041 A 
ATOM     99  F   UNL A   1      46.633  29.584  34.272  1.00  0.00    -0.206 F 
ATOM    100  C   UNL A   1      47.515  27.120  36.768  1.00  0.00     0.022 A 
BRANCH  97 101
ATOM    101  S   UNL A   1      46.099  25.167  38.168  1.00  0.00     0.124 S 
ATOM    102  O   UNL A   1      45.962  23.950  37.376  1.00  0.00    -0.237 OA
ATOM    103  O   UNL A   1      47.336  25.294  38.933  1.00  0.00    -0.237 OA
ATOM    104  O   UNL A   1      44.890  25.589  38.873  1.00  0.00    -0.744 OA
ENDBRANCH  97 101
ENDBRANCH  71  94
ENDBRANCH  45  46
ENDBRANCH  38  40
ENDBRANCH  37  38
ENDBRANCH  36  37
ENDBRANCH  35  36
ENDBRANCH  34  35
ENDBRANCH  33  34
ENDBRANCH   1  33
TORSDOF 26
ENDMDL
MODEL 2
REMARK VINA RESULT:     -10.1      2.381      3.280
REMARK SMILES Cc1[nH]c2c(C(=O)N3CC[C@H](O)C[C@@H]3C(=O)OCCOCCOCCOCCOC(=O)c3ccc(-c4c5nc(c(-c6cc(S(=O)(=O)[O-])ccc6F)c6ccc([nH]6)c(-c6cc(S(=O)(=O)[O-])ccc6F)c6nc(c(-c7cc(S(=O)(=O)[O-])ccc7F)c7ccc4[nH]7)C=C6)C=C5)cc3)cccc2c1C
REMARK SMILES IDX 24 1 23 2 22 3 21 4 20 5 19 6 18 7 17 8 15 9 16 10 14 11
REMARK SMILES IDX 8 12 9 13 10 14 13 15 11 16 6 17 7 18 5 19 1 20 2 21 3 22
REMARK SMILES IDX 99 23 4 24 98 26 100 27 97 28 95 29 96 30 12 31 25 33 26 34
REMARK SMILES IDX 27 35 28 36 29 37 30 38 31 39 32 40 33 41 94 42 34 43 93 44
REMARK SMILES IDX 35 45 36 46 37 47 87 48 38 49 92 50 86 51 88 52 39 53 91 54
REMARK SMILES IDX 85 55 84 56 40 58 72 59 52 60 71 61 53 62 56 63 70 64 89 65
REMARK SMILES IDX 54 66 55 67 69 69 90 70 57 71 41 72 42 73 50 74 43 75 49 76
REMARK SMILES IDX 51 77 48 78 44 79 45 80 46 81 47 82 73 83 74 84 82 85 75 86
REMARK SMILES IDX 81 87 83 88 80 89 76 90 77 91 78 92 79 93 58 94 59 95 67 96
REMARK SMILES IDX 60 97 66 98 68 99 65 100 61 101 62 102 63 103 64 104
REMARK H PARENT 3 25 12 32 88 57 56 68
REMARK Flexibility Score: inf
ROOT
ATOM      1  C   UNL A   1      32.774  28.958  24.988  1.00  0.00     0.188 C 
ENDROOT
BRANCH   1   2
ATOM      2  O   UNL A   1      33.263  29.365  23.702  1.00  0.00    -0.377 OA
BRANCH   2   3
ATOM      3  C   UNL A   1      32.565  28.928  22.537  1.00  0.00     0.188 C 
BRANCH   3   4
ATOM      4  C   UNL A   1      32.091  27.474  22.501  1.00  0.00     0.188 C 
BRANCH   4   5
ATOM      5  O   UNL A   1      30.705  27.303  22.313  1.00  0.00    -0.376 OA
BRANCH   5   6
ATOM      6  C   UNL A   1      29.883  27.045  23.444  1.00  0.00     0.202 C 
BRANCH   6   7
ATOM      7  C   UNL A   1      30.057  25.813  24.354  1.00  0.00     0.261 C 
BRANCH   7   8
ATOM      8  O   UNL A   1      30.367  24.541  23.734  1.00  0.00    -0.462 OA
BRANCH   8   9
ATOM      9  C   UNL A   1      30.940  23.609  24.549  1.00  0.00     0.329 C 
ATOM     10  O   UNL A   1      30.484  23.321  25.656  1.00  0.00    -0.250 OA
BRANCH   9  11
ATOM     11  C   UNL A   1      32.322  23.088  24.107  1.00  0.00     0.198 C 
ATOM     12  N   UNL A   1      33.338  24.019  24.596  1.00  0.00    -0.325 N 
ATOM     13  C   UNL A   1      33.894  25.006  23.670  1.00  0.00     0.123 C 
ATOM     14  C   UNL A   1      34.358  24.329  22.385  1.00  0.00     0.053 C 
ATOM     15  C   UNL A   1      32.594  22.556  22.706  1.00  0.00     0.069 C 
ATOM     16  C   UNL A   1      33.191  23.579  21.747  1.00  0.00     0.118 C 
BRANCH  12  17
ATOM     17  C   UNL A   1      33.896  23.749  25.834  1.00  0.00     0.256 C 
ATOM     18  O   UNL A   1      33.314  24.051  26.875  1.00  0.00    -0.269 OA
BRANCH  17  19
ATOM     19  C   UNL A   1      35.284  23.224  25.896  1.00  0.00     0.064 A 
ATOM     20  C   UNL A   1      35.124  18.409  24.579  1.00  0.00     0.064 C 
ATOM     21  C   UNL A   1      35.711  19.737  24.895  1.00  0.00     0.016 A 
ATOM     22  N   UNL A   1      34.926  20.843  25.078  1.00  0.00    -0.358 N 
ATOM     23  C   UNL A   1      37.024  20.140  25.045  1.00  0.00    -0.023 A 
ATOM     24  C   UNL A   1      35.661  21.921  25.510  1.00  0.00     0.059 A 
ATOM     25  H   UNL A   1      33.955  20.864  24.918  1.00  0.00     0.166 HD
ATOM     26  C   UNL A   1      36.998  21.513  25.457  1.00  0.00     0.003 A 
ATOM     27  C   UNL A   1      38.235  19.303  24.849  1.00  0.00     0.047 C 
ATOM     28  C   UNL A   1      38.002  22.447  25.786  1.00  0.00     0.010 A 
ATOM     29  C   UNL A   1      36.313  24.125  26.218  1.00  0.00     0.016 A 
ATOM     30  C   UNL A   1      37.651  23.746  26.164  1.00  0.00     0.002 A 
ENDBRANCH  17  19
ENDBRANCH  12  17
BRANCH  16  31
ATOM     31  O   UNL A   1      32.210  24.522  21.346  1.00  0.00    -0.393 OA
ATOM     32  H   UNL A   1      32.507  24.976  20.542  1.00  0.00     0.210 HD
ENDBRANCH  16  31
ENDBRANCH   9  11
ENDBRANCH   8   9
ENDBRANCH   7   8
ENDBRANCH   6   7
ENDBRANCH   5   6
ENDBRANCH   4   5
ENDBRANCH   3   4
ENDBRANCH   2   3
ENDBRANCH   1   2
BRANCH   1  33
ATOM     33  C   UNL A   1      31.434  29.518  25.458  1.00  0.00     0.188 C 
BRANCH  33  34
ATOM     34  O   UNL A   1      31.361  30.926  25.693  1.00  0.00    -0.376 OA
BRANCH  34  35
ATOM     35  C   UNL A   1      32.053  31.481  26.808  1.00  0.00     0.202 C 
BRANCH  35  36
ATOM     36  C   UNL A   1      32.139  33.004  26.827  1.00  0.00     0.261 C 
BRANCH  36  37
ATOM     37  O   UNL A   1      32.526  33.504  28.114  1.00  0.00    -0.460 OA
BRANCH  37  38
ATOM     38  C   UNL A   1      33.688  34.201  28.123  1.00  0.00     0.338 C 
ATOM     39  O   UNL A   1      33.823  35.404  28.013  1.00  0.00    -0.246 OA
BRANCH  38  40
ATOM     40  C   UNL A   1      34.806  33.287  28.417  1.00  0.00     0.060 A 
ATOM     41  C   UNL A   1      34.518  32.085  29.078  1.00  0.00     0.016 A 
ATOM     42  C   UNL A   1      36.125  33.652  28.140  1.00  0.00     0.016 A 
ATOM     43  C   UNL A   1      35.558  31.276  29.525  1.00  0.00     0.010 A 
ATOM     44  C   UNL A   1      37.166  32.842  28.592  1.00  0.00     0.010 A 
ATOM     45  C   UNL A   1      36.885  31.676  29.327  1.00  0.00    -0.014 A 
BRANCH  45  46
ATOM     46  C   UNL A   1      37.977  30.985  30.048  1.00  0.00     0.031 A 
ATOM     47  C   UNL A   1      38.253  31.374  31.475  1.00  0.00     0.074 A 
ATOM     48  C   UNL A   1      38.693  30.020  29.446  1.00  0.00     0.049 A 
ATOM     49  N   UNL A   1      39.201  30.971  32.279  1.00  0.00    -0.248 NA
ATOM     50  C   UNL A   1      37.335  32.358  32.070  1.00  0.00     0.031 C 
ATOM     51  C   UNL A   1      38.470  29.530  28.087  1.00  0.00     0.029 A 
ATOM     52  N   UNL A   1      39.758  29.286  29.901  1.00  0.00    -0.354 N 
ATOM     53  C   UNL A   1      38.999  31.656  33.473  1.00  0.00     0.074 A 
ATOM     54  C   UNL A   1      37.864  32.530  33.271  1.00  0.00     0.031 C 
ATOM     55  C   UNL A   1      39.379  28.578  27.814  1.00  0.00     0.029 A 
ATOM     56  C   UNL A   1      40.275  28.429  28.959  1.00  0.00     0.049 A 
ATOM     57  H   UNL A   1      40.118  29.366  30.813  1.00  0.00     0.167 HD
ATOM     58  C   UNL A   1      39.694  31.556  34.633  1.00  0.00     0.034 A 
ATOM     59  C   UNL A   1      41.366  27.638  29.011  1.00  0.00     0.034 A 
ATOM     60  C   UNL A   1      40.833  30.688  34.802  1.00  0.00     0.049 A 
ATOM     61  C   UNL A   1      42.188  27.620  30.278  1.00  0.00     0.074 A 
ATOM     62  C   UNL A   1      41.617  30.501  35.928  1.00  0.00     0.029 A 
ATOM     63  N   UNL A   1      41.362  29.869  33.810  1.00  0.00    -0.354 N 
ATOM     64  N   UNL A   1      41.994  28.275  31.401  1.00  0.00    -0.248 NA
ATOM     65  C   UNL A   1      43.371  26.751  30.286  1.00  0.00     0.031 C 
ATOM     66  C   UNL A   1      42.661  29.632  35.594  1.00  0.00     0.029 A 
ATOM     67  C   UNL A   1      42.480  29.203  34.288  1.00  0.00     0.049 A 
ATOM     68  H   UNL A   1      40.995  29.775  32.902  1.00  0.00     0.167 HD
ATOM     69  C   UNL A   1      43.012  27.867  32.260  1.00  0.00     0.074 A 
ATOM     70  C   UNL A   1      43.807  26.902  31.529  1.00  0.00     0.031 C 
ATOM     71  C   UNL A   1      43.265  28.249  33.539  1.00  0.00     0.034 A 
BRANCH  58  72
ATOM     72  C   UNL A   1      39.271  32.445  35.778  1.00  0.00     0.023 A 
ATOM     73  C   UNL A   1      39.677  33.789  35.862  1.00  0.00     0.031 A 
ATOM     74  C   UNL A   1      38.476  31.934  36.819  1.00  0.00     0.131 A 
ATOM     75  C   UNL A   1      39.348  34.552  36.994  1.00  0.00     0.055 A 
ATOM     76  C   UNL A   1      38.081  32.722  37.902  1.00  0.00     0.041 A 
ATOM     77  F   UNL A   1      38.079  30.652  36.809  1.00  0.00    -0.206 F 
ATOM     78  C   UNL A   1      38.530  34.035  38.001  1.00  0.00     0.022 A 
BRANCH  75  79
ATOM     79  S   UNL A   1      40.128  36.176  37.202  1.00  0.00     0.124 S 
ATOM     80  O   UNL A   1      39.332  36.749  38.283  1.00  0.00    -0.237 OA
ATOM     81  O   UNL A   1      41.503  35.825  37.537  1.00  0.00    -0.237 OA
ATOM     82  O   UNL A   1      39.947  36.813  35.899  1.00  0.00    -0.744 OA
ENDBRANCH  75  79
ENDBRANCH  58  72
BRANCH  59  83
ATOM     83  C   UNL A   1      41.771  26.830  27.826  1.00  0.00     0.023 A 
ATOM     84  C   UNL A   1      41.648  25.432  27.828  1.00  0.00     0.031 A 
ATOM     85  C   UNL A   1      42.335  27.438  26.690  1.00  0.00     0.131 A 
ATOM     86  C   UNL A   1      42.125  24.685  26.740  1.00  0.00     0.055 A 
ATOM     87  C   UNL A   1      42.755  26.696  25.584  1.00  0.00     0.041 A 
ATOM     88  F   UNL A   1      42.478  28.772  26.634  1.00  0.00    -0.206 F 
ATOM     89  C   UNL A   1      42.664  25.308  25.612  1.00  0.00     0.022 A 
BRANCH  86  90
ATOM     90  S   UNL A   1      42.115  22.875  26.860  1.00  0.00     0.124 S 
ATOM     91  O   UNL A   1      43.404  22.614  27.490  1.00  0.00    -0.237 OA
ATOM     92  O   UNL A   1      40.936  22.635  27.685  1.00  0.00    -0.237 OA
ATOM     93  O   UNL A   1      41.999  22.443  25.469  1.00  0.00    -0.744 OA
ENDBRANCH  86  90
ENDBRANCH  59  83
BRANCH  71  94
ATOM     94  C   UNL A   1      44.421  27.576  34.241  1.00  0.00     0.023 A 
ATOM     95  C   UNL A   1      44.265  26.365  34.937  1.00  0.00     0.031 A 
ATOM     96  C   UNL A   1      45.699  28.164  34.216  1.00  0.00     0.131 A 
ATOM     97  C   UNL A   1      45.354  25.811  35.628  1.00  0.00     0.055 A 
ATOM     98  C   UNL A   1      46.794  27.572  34.846  1.00  0.00     0.041 A 
ATOM     99  F   UNL A   1      45.907  29.322  33.569  1.00  0.00    -0.206 F 
ATOM    100  C   UNL A   1      46.622  26.396  35.570  1.00  0.00     0.022 A 
BRANCH  97 101
ATOM    101  S   UNL A   1      45.067  24.370  36.692  1.00  0.00     0.124 S 
ATOM    102  O   UNL A   1      46.397  24.130  37.241  1.00  0.00    -0.237 OA
ATOM    103  O   UNL A   1      44.070  24.870  37.633  1.00  0.00    -0.237 OA
ATOM    104  O   UNL A   1      44.585  23.350  35.763  1.00  0.00    -0.744 OA
ENDBRANCH  97 101
ENDBRANCH  71  94
ENDBRANCH  45  46
ENDBRANCH  38  40
ENDBRANCH  37  38
ENDBRANCH  36  37
ENDBRANCH  35  36
ENDBRANCH  34  35
ENDBRANCH  33  34
ENDBRANCH   1  33
TORSDOF 26
ENDMDL
MODEL 3
REMARK VINA RESULT:     -10.0      2.467      8.378
REMARK SMILES Cc1[nH]c2c(C(=O)N3CC[C@H](O)C[C@@H]3C(=O)OCCOCCOCCOCCOC(=O)c3ccc(-c4c5nc(c(-c6cc(S(=O)(=O)[O-])ccc6F)c6ccc([nH]6)c(-c6cc(S(=O)(=O)[O-])ccc6F)c6nc(c(-c7cc(S(=O)(=O)[O-])ccc7F)c7ccc4[nH]7)C=C6)C=C5)cc3)cccc2c1C
REMARK SMILES IDX 24 1 23 2 22 3 21 4 20 5 19 6 18 7 17 8 15 9 16 10 14 11
REMARK SMILES IDX 8 12 9 13 10 14 13 15 11 16 6 17 7 18 5 19 1 20 2 21 3 22
REMARK SMILES IDX 99 23 4 24 98 26 100 27 97 28 95 29 96 30 12 31 25 33 26 34
REMARK SMILES IDX 27 35 28 36 29 37 30 38 31 39 32 40 33 41 94 42 34 43 93 44
REMARK SMILES IDX 35 45 36 46 37 47 87 48 38 49 92 50 86 51 88 52 39 53 91 54
REMARK SMILES IDX 85 55 84 56 40 58 72 59 52 60 71 61 53 62 56 63 70 64 89 65
REMARK SMILES IDX 54 66 55 67 69 69 90 70 57 71 41 72 42 73 50 74 43 75 49 76
REMARK SMILES IDX 51 77 48 78 44 79 45 80 46 81 47 82 73 83 74 84 82 85 75 86
REMARK SMILES IDX 81 87 83 88 80 89 76 90 77 91 78 92 79 93 58 94 59 95 67 96
REMARK SMILES IDX 60 97 66 98 68 99 65 100 61 101 62 102 63 103 64 104
REMARK H PARENT 3 25 12 32 88 57 56 68
REMARK Flexibility Score: inf
ROOT
ATOM      1  C   UNL A   1      34.657  34.142  27.864  1.00  0.00     0.188 C 
ENDROOT
BRANCH   1   2
ATOM      2  O   UNL A   1      35.420  32.955  27.605  1.00  0.00    -0.377 OA
BRANCH   2   3
ATOM      3  C   UNL A   1      35.766  32.114  28.705  1.00  0.00     0.188 C 
BRANCH   3   4
ATOM      4  C   UNL A   1      35.376  30.637  28.614  1.00  0.00     0.188 C 
BRANCH   4   5
ATOM      5  O   UNL A   1      35.280  30.125  27.304  1.00  0.00    -0.376 OA
BRANCH   5   6
ATOM      6  C   UNL A   1      34.062  29.520  26.889  1.00  0.00     0.202 C 
BRANCH   6   7
ATOM      7  C   UNL A   1      33.968  28.067  26.382  1.00  0.00     0.261 C 
BRANCH   7   8
ATOM      8  O   UNL A   1      34.318  27.799  25.002  1.00  0.00    -0.462 OA
BRANCH   8   9
ATOM      9  C   UNL A   1      33.459  28.297  24.066  1.00  0.00     0.329 C 
ATOM     10  O   UNL A   1      33.840  28.926  23.079  1.00  0.00    -0.250 OA
BRANCH   9  11
ATOM     11  C   UNL A   1      31.961  28.226  24.422  1.00  0.00     0.198 C 
ATOM     12  N   UNL A   1      31.420  26.983  23.874  1.00  0.00    -0.325 N 
ATOM     13  C   UNL A   1      30.676  27.032  22.614  1.00  0.00     0.123 C 
ATOM     14  C   UNL A   1      29.597  28.108  22.675  1.00  0.00     0.053 C 
ATOM     15  C   UNL A   1      31.023  29.419  24.289  1.00  0.00     0.069 C 
ATOM     16  C   UNL A   1      30.234  29.460  22.986  1.00  0.00     0.118 C 
BRANCH  12  17
ATOM     17  C   UNL A   1      31.426  25.874  24.702  1.00  0.00     0.256 C 
ATOM     18  O   UNL A   1      31.084  25.956  25.881  1.00  0.00    -0.269 OA
BRANCH  17  19
ATOM     19  C   UNL A   1      31.998  24.601  24.192  1.00  0.00     0.064 A 
ATOM     20  C   UNL A   1      36.627  24.202  26.025  1.00  0.00     0.064 C 
ATOM     21  C   UNL A   1      35.362  23.790  25.363  1.00  0.00     0.016 A 
ATOM     22  N   UNL A   1      34.259  24.601  25.356  1.00  0.00    -0.358 N 
ATOM     23  C   UNL A   1      35.020  22.632  24.693  1.00  0.00    -0.023 A 
ATOM     24  C   UNL A   1      33.261  24.092  24.560  1.00  0.00     0.059 A 
ATOM     25  H   UNL A   1      34.190  25.444  25.859  1.00  0.00     0.166 HD
ATOM     26  C   UNL A   1      33.701  22.825  24.164  1.00  0.00     0.003 A 
ATOM     27  C   UNL A   1      35.868  21.423  24.523  1.00  0.00     0.047 C 
ATOM     28  C   UNL A   1      32.842  22.026  23.381  1.00  0.00     0.010 A 
ATOM     29  C   UNL A   1      31.172  23.776  23.412  1.00  0.00     0.016 A 
ATOM     30  C   UNL A   1      31.584  22.509  23.011  1.00  0.00     0.002 A 
ENDBRANCH  17  19
ENDBRANCH  12  17
BRANCH  16  31
ATOM     31  O   UNL A   1      31.074  29.827  21.903  1.00  0.00    -0.393 OA
ATOM     32  H   UNL A   1      31.981  29.536  22.085  1.00  0.00     0.210 HD
ENDBRANCH  16  31
ENDBRANCH   9  11
ENDBRANCH   8   9
ENDBRANCH   7   8
ENDBRANCH   6   7
ENDBRANCH   5   6
ENDBRANCH   4   5
ENDBRANCH   3   4
ENDBRANCH   2   3
ENDBRANCH   1   2
BRANCH   1  33
ATOM     33  C   UNL A   1      33.164  33.990  28.147  1.00  0.00     0.188 C 
BRANCH  33  34
ATOM     34  O   UNL A   1      32.545  34.999  28.947  1.00  0.00    -0.376 OA
BRANCH  34  35
ATOM     35  C   UNL A   1      33.312  36.128  29.357  1.00  0.00     0.202 C 
BRANCH  35  36
ATOM     36  C   UNL A   1      33.026  36.629  30.769  1.00  0.00     0.261 C 
BRANCH  36  37
ATOM     37  O   UNL A   1      34.000  36.163  31.713  1.00  0.00    -0.460 OA
BRANCH  37  38
ATOM     38  C   UNL A   1      33.735  34.944  32.242  1.00  0.00     0.338 C 
ATOM     39  O   UNL A   1      32.658  34.528  32.624  1.00  0.00    -0.246 OA
BRANCH  38  40
ATOM     40  C   UNL A   1      34.947  34.109  32.181  1.00  0.00     0.060 A 
ATOM     41  C   UNL A   1      34.906  32.843  32.779  1.00  0.00     0.016 A 
ATOM     42  C   UNL A   1      36.134  34.603  31.635  1.00  0.00     0.016 A 
ATOM     43  C   UNL A   1      36.074  32.094  32.894  1.00  0.00     0.010 A 
ATOM     44  C   UNL A   1      37.304  33.854  31.754  1.00  0.00     0.010 A 
ATOM     45  C   UNL A   1      37.285  32.618  32.426  1.00  0.00    -0.014 A 
BRANCH  45  46
ATOM     46  C   UNL A   1      38.561  31.971  32.803  1.00  0.00     0.031 A 
ATOM     47  C   UNL A   1      39.129  30.920  31.888  1.00  0.00     0.074 A 
ATOM     48  C   UNL A   1      39.204  32.326  33.928  1.00  0.00     0.049 A 
ATOM     49  N   UNL A   1      40.182  30.162  32.044  1.00  0.00    -0.248 NA
ATOM     50  C   UNL A   1      38.403  30.693  30.628  1.00  0.00     0.031 C 
ATOM     51  C   UNL A   1      38.768  33.370  34.854  1.00  0.00     0.029 A 
ATOM     52  N   UNL A   1      40.359  31.840  34.486  1.00  0.00    -0.354 N 
ATOM     53  C   UNL A   1      40.243  29.363  30.907  1.00  0.00     0.074 A 
ATOM     54  C   UNL A   1      39.097  29.701  30.091  1.00  0.00     0.031 C 
ATOM     55  C   UNL A   1      39.642  33.441  35.871  1.00  0.00     0.029 A 
ATOM     56  C   UNL A   1      40.669  32.417  35.694  1.00  0.00     0.049 A 
ATOM     57  H   UNL A   1      40.911  31.144  34.062  1.00  0.00     0.167 HD
ATOM     58  C   UNL A   1      41.177  28.438  30.572  1.00  0.00     0.034 A 
ATOM     59  C   UNL A   1      41.655  32.125  36.567  1.00  0.00     0.034 A 
ATOM     60  C   UNL A   1      42.302  28.108  31.412  1.00  0.00     0.049 A 
ATOM     61  C   UNL A   1      42.624  31.019  36.223  1.00  0.00     0.074 A 
ATOM     62  C   UNL A   1      43.312  27.191  31.182  1.00  0.00     0.029 A 
ATOM     63  N   UNL A   1      42.559  28.677  32.655  1.00  0.00    -0.354 N 
ATOM     64  N   UNL A   1      42.671  30.264  35.148  1.00  0.00    -0.248 NA
ATOM     65  C   UNL A   1      43.675  30.731  37.206  1.00  0.00     0.031 C 
ATOM     66  C   UNL A   1      44.132  27.149  32.314  1.00  0.00     0.029 A 
ATOM     67  C   UNL A   1      43.690  28.105  33.216  1.00  0.00     0.049 A 
ATOM     68  H   UNL A   1      42.018  29.383  33.074  1.00  0.00     0.167 HD
ATOM     69  C   UNL A   1      43.781  29.437  35.313  1.00  0.00     0.074 A 
ATOM     70  C   UNL A   1      44.378  29.796  36.583  1.00  0.00     0.031 C 
ATOM     71  C   UNL A   1      44.267  28.472  34.489  1.00  0.00     0.034 A 
BRANCH  58  72
ATOM     72  C   UNL A   1      40.983  27.689  29.276  1.00  0.00     0.023 A 
ATOM     73  C   UNL A   1      41.858  27.852  28.187  1.00  0.00     0.031 A 
ATOM     74  C   UNL A   1      39.888  26.823  29.113  1.00  0.00     0.131 A 
ATOM     75  C   UNL A   1      41.584  27.217  26.965  1.00  0.00     0.055 A 
ATOM     76  C   UNL A   1      39.666  26.129  27.922  1.00  0.00     0.041 A 
ATOM     77  F   UNL A   1      39.002  26.648  30.106  1.00  0.00    -0.206 F 
ATOM     78  C   UNL A   1      40.509  26.335  26.834  1.00  0.00     0.022 A 
BRANCH  75  79
ATOM     79  S   UNL A   1      42.563  27.677  25.509  1.00  0.00     0.124 S 
ATOM     80  O   UNL A   1      43.874  27.925  26.103  1.00  0.00    -0.237 OA
ATOM     81  O   UNL A   1      42.456  26.489  24.670  1.00  0.00    -0.237 OA
ATOM     82  O   UNL A   1      41.882  28.866  24.999  1.00  0.00    -0.744 OA
ENDBRANCH  75  79
ENDBRANCH  58  72
BRANCH  59  83
ATOM     83  C   UNL A   1      41.759  32.857  37.862  1.00  0.00     0.023 A 
ATOM     84  C   UNL A   1      41.227  32.315  39.042  1.00  0.00     0.031 A 
ATOM     85  C   UNL A   1      42.348  34.132  37.930  1.00  0.00     0.131 A 
ATOM     86  C   UNL A   1      41.252  33.064  40.229  1.00  0.00     0.055 A 
ATOM     87  C   UNL A   1      42.424  34.849  39.126  1.00  0.00     0.041 A 
ATOM     88  F   UNL A   1      42.872  34.698  36.831  1.00  0.00    -0.206 F 
ATOM     89  C   UNL A   1      41.860  34.321  40.282  1.00  0.00     0.022 A 
BRANCH  86  90
ATOM     90  S   UNL A   1      40.393  32.409  41.685  1.00  0.00     0.124 S 
ATOM     91  O   UNL A   1      41.305  31.357  42.118  1.00  0.00    -0.237 OA
ATOM     92  O   UNL A   1      40.315  33.585  42.544  1.00  0.00    -0.237 OA
ATOM     93  O   UNL A   1      39.116  31.946  41.147  1.00  0.00    -0.744 OA
ENDBRANCH  86  90
ENDBRANCH  59  83
BRANCH  71  94
ATOM     94  C   UNL A   1      45.538  27.779  34.918  1.00  0.00     0.023 A 
ATOM     95  C   UNL A   1      45.521  26.583  35.656  1.00  0.00     0.031 A 
ATOM     96  C   UNL A   1      46.789  28.330  34.583  1.00  0.00     0.131 A 
ATOM     97  C   UNL A   1      46.728  26.010  36.086  1.00  0.00     0.055 A 
ATOM     98  C   UNL A   1      47.987  27.718  34.953  1.00  0.00     0.041 A 
ATOM     99  F   UNL A   1      46.867  29.472  33.881  1.00  0.00    -0.206 F 
ATOM    100  C   UNL A   1      47.960  26.558  35.723  1.00  0.00     0.022 A 
BRANCH  97 101
ATOM    101  S   UNL A   1      46.663  24.593  37.217  1.00  0.00     0.124 S 
ATOM    102  O   UNL A   1      46.728  23.465  36.294  1.00  0.00    -0.237 OA
ATOM    103  O   UNL A   1      47.843  24.804  38.050  1.00  0.00    -0.237 OA
ATOM    104  O   UNL A   1      45.383  24.761  37.903  1.00  0.00    -0.744 OA
ENDBRANCH  97 101
ENDBRANCH  71  94
ENDBRANCH  45  46
ENDBRANCH  38  40
ENDBRANCH  37  38
ENDBRANCH  36  37
ENDBRANCH  35  36
ENDBRANCH  34  35
ENDBRANCH  33  34
ENDBRANCH   1  33
TORSDOF 26
ENDMDL
