MODEL 1
REMARK VINA RESULT:      -9.5      0.000      0.000
REMARK SMILES Cc1cc(C)n2nc(SCC(=O)N3CCC(C(=O)OCCOCCOCCOCCOC(=O)c4ccc(-c5c6nc(c(-c7cc(S(=O)(=O)[O-])ccc7F)c7ccc([nH]7)c(-c7cc(S(=O)(=O)[O-])ccc7F)c7nc(c(-c8cc(S(=O)(=O)[O-])ccc8F)c8ccc5[nH]8)C=C7)C=C6)cc4)CC3)nc2n1
REMARK SMILES IDX 25 1 24 2 23 3 22 4 21 5 20 6 19 7 17 8 18 9 16 10 11 11
REMARK SMILES IDX 12 12 13 13 14 14 98 15 15 16 97 17 10 18 9 19 8 20 1 21
REMARK SMILES IDX 2 22 3 23 101 24 4 25 100 26 5 27 6 28 99 29 7 30 26 31
REMARK SMILES IDX 27 32 28 33 29 34 30 35 31 36 32 37 33 38 34 39 35 40 96 41
REMARK SMILES IDX 36 42 95 43 37 44 38 45 39 46 89 47 40 48 94 49 88 50 90 51
REMARK SMILES IDX 41 52 93 53 87 54 86 55 42 57 74 58 54 59 73 60 55 61 58 62
REMARK SMILES IDX 72 63 91 64 56 65 57 66 71 68 92 69 59 70 43 71 44 72 52 73
REMARK SMILES IDX 45 74 51 75 53 76 50 77 46 78 47 79 48 80 49 81 75 82 76 83
REMARK SMILES IDX 84 84 77 85 83 86 85 87 82 88 78 89 79 90 80 91 81 92 60 93
REMARK SMILES IDX 61 94 69 95 62 96 68 97 70 98 67 99 63 100 64 101 65 102
REMARK SMILES IDX 66 103
REMARK H PARENT 90 56 58 67
REMARK Flexibility Score: inf
ROOT
ATOM      1  O   UNL A   1      37.984  24.224  25.832  1.00  0.00    -0.377 OA
ENDROOT
BRANCH   1   2
ATOM      2  C   UNL A   1      36.590  24.008  25.782  1.00  0.00     0.188 C 
BRANCH   2   3
ATOM      3  C   UNL A   1      36.094  22.603  26.184  1.00  0.00     0.188 C 
BRANCH   3   4
ATOM      4  O   UNL A   1      36.534  21.436  25.498  1.00  0.00    -0.376 OA
BRANCH   4   5
ATOM      5  C   UNL A   1      35.637  20.745  24.645  1.00  0.00     0.202 C 
BRANCH   5   6
ATOM      6  C   UNL A   1      35.463  19.225  24.814  1.00  0.00     0.261 C 
BRANCH   6   7
ATOM      7  O   UNL A   1      34.134  18.752  25.117  1.00  0.00    -0.463 OA
BRANCH   7   8
ATOM      8  C   UNL A   1      33.232  18.836  24.110  1.00  0.00     0.309 C 
ATOM      9  O   UNL A   1      33.192  18.068  23.152  1.00  0.00    -0.252 OA
BRANCH   8  10
ATOM     10  C   UNL A   1      32.251  19.999  24.223  1.00  0.00     0.103 C 
ATOM     11  C   UNL A   1      32.314  24.019  24.083  1.00  0.00     0.233 C 
ATOM     12  O   UNL A   1      32.973  24.385  25.064  1.00  0.00    -0.274 OA
ATOM     13  N   UNL A   1      31.618  22.816  24.110  1.00  0.00    -0.342 N 
ATOM     14  C   UNL A   1      31.445  22.149  25.384  1.00  0.00     0.120 C 
ATOM     15  C   UNL A   1      31.336  21.958  22.969  1.00  0.00     0.120 C 
ATOM     16  C   UNL A   1      32.293  20.887  25.478  1.00  0.00     0.037 C 
ATOM     17  C   UNL A   1      32.370  20.837  22.947  1.00  0.00     0.037 C 
BRANCH  11  18
ATOM     18  C   UNL A   1      32.042  25.012  22.967  1.00  0.00     0.178 C 
BRANCH  18  19
ATOM     19  S   UNL A   1      33.344  26.142  22.477  1.00  0.00    -0.074 SA
BRANCH  19  20
ATOM     20  C   UNL A   1      33.196  27.473  23.575  1.00  0.00     0.211 A 
ATOM     21  C   UNL A   1      30.901  31.867  26.461  1.00  0.00     0.067 C 
ATOM     22  C   UNL A   1      31.786  30.743  25.985  1.00  0.00     0.043 A 
ATOM     23  C   UNL A   1      32.912  30.341  26.889  1.00  0.00     0.047 A 
ATOM     24  N   UNL A   1      31.523  30.204  24.832  1.00  0.00    -0.216 NA
ATOM     25  C   UNL A   1      33.678  29.315  26.475  1.00  0.00     0.045 A 
ATOM     26  C   UNL A   1      32.315  29.161  24.457  1.00  0.00     0.253 A 
ATOM     27  C   UNL A   1      34.836  28.792  27.264  1.00  0.00     0.067 C 
ATOM     28  N   UNL A   1      33.372  28.700  25.256  1.00  0.00    -0.200 N 
ATOM     29  N   UNL A   1      32.224  28.405  23.389  1.00  0.00    -0.183 NA
ATOM     30  N   UNL A   1      33.935  27.616  24.670  1.00  0.00    -0.138 NA
ENDBRANCH  19  20
ENDBRANCH  18  19
ENDBRANCH  11  18
ENDBRANCH   8  10
ENDBRANCH   7   8
ENDBRANCH   6   7
ENDBRANCH   5   6
ENDBRANCH   4   5
ENDBRANCH   3   4
ENDBRANCH   2   3
ENDBRANCH   1   2
BRANCH   1  31
ATOM     31  C   UNL A   1      38.584  23.921  27.084  1.00  0.00     0.188 C 
BRANCH  31  32
ATOM     32  C   UNL A   1      39.880  23.078  27.024  1.00  0.00     0.188 C 
BRANCH  32  33
ATOM     33  O   UNL A   1      39.822  21.944  26.159  1.00  0.00    -0.376 OA
BRANCH  33  34
ATOM     34  C   UNL A   1      40.503  20.733  26.462  1.00  0.00     0.202 C 
BRANCH  34  35
ATOM     35  C   UNL A   1      42.036  20.728  26.453  1.00  0.00     0.261 C 
BRANCH  35  36
ATOM     36  O   UNL A   1      42.611  21.520  25.435  1.00  0.00    -0.460 OA
BRANCH  36  37
ATOM     37  C   UNL A   1      43.951  21.396  25.330  1.00  0.00     0.338 C 
ATOM     38  O   UNL A   1      44.585  20.377  25.165  1.00  0.00    -0.246 OA
BRANCH  37  39
ATOM     39  C   UNL A   1      44.540  22.723  25.500  1.00  0.00     0.060 A 
ATOM     40  C   UNL A   1      45.372  22.883  26.607  1.00  0.00     0.016 A 
ATOM     41  C   UNL A   1      43.965  23.800  24.810  1.00  0.00     0.016 A 
ATOM     42  C   UNL A   1      45.352  24.103  27.228  1.00  0.00     0.010 A 
ATOM     43  C   UNL A   1      43.937  25.011  25.437  1.00  0.00     0.010 A 
ATOM     44  C   UNL A   1      44.522  25.094  26.696  1.00  0.00    -0.014 A 
BRANCH  44  45
ATOM     45  C   UNL A   1      44.279  26.271  27.487  1.00  0.00     0.031 A 
ATOM     46  C   UNL A   1      45.342  27.270  27.313  1.00  0.00     0.074 A 
ATOM     47  C   UNL A   1      43.156  26.420  28.214  1.00  0.00     0.049 A 
ATOM     48  N   UNL A   1      46.294  27.533  28.141  1.00  0.00    -0.248 NA
ATOM     49  C   UNL A   1      45.521  27.858  25.977  1.00  0.00     0.031 C 
ATOM     50  C   UNL A   1      41.959  25.578  28.259  1.00  0.00     0.029 A 
ATOM     51  N   UNL A   1      42.826  27.448  29.032  1.00  0.00    -0.354 N 
ATOM     52  C   UNL A   1      47.037  28.526  27.526  1.00  0.00     0.074 A 
ATOM     53  C   UNL A   1      46.684  28.491  26.132  1.00  0.00     0.031 C 
ATOM     54  C   UNL A   1      40.959  26.255  28.874  1.00  0.00     0.029 A 
ATOM     55  C   UNL A   1      41.481  27.516  29.377  1.00  0.00     0.049 A 
ATOM     56  H   UNL A   1      43.489  28.098  29.358  1.00  0.00     0.167 HD
ATOM     57  C   UNL A   1      47.646  29.491  28.261  1.00  0.00     0.034 A 
ATOM     58  C   UNL A   1      40.865  28.579  29.966  1.00  0.00     0.034 A 
ATOM     59  C   UNL A   1      47.748  29.108  29.650  1.00  0.00     0.049 A 
ATOM     60  C   UNL A   1      41.943  29.348  30.651  1.00  0.00     0.074 A 
ATOM     61  C   UNL A   1      48.348  28.056  30.316  1.00  0.00     0.029 A 
ATOM     62  N   UNL A   1      46.816  29.619  30.526  1.00  0.00    -0.354 N 
ATOM     63  N   UNL A   1      42.636  28.865  31.648  1.00  0.00    -0.248 NA
ATOM     64  C   UNL A   1      42.598  30.412  29.901  1.00  0.00     0.031 C 
ATOM     65  C   UNL A   1      47.422  27.687  31.336  1.00  0.00     0.029 A 
ATOM     66  C   UNL A   1      46.348  28.578  31.293  1.00  0.00     0.049 A 
ATOM     67  H   UNL A   1      46.536  30.561  30.592  1.00  0.00     0.167 HD
ATOM     68  C   UNL A   1      43.947  29.245  31.396  1.00  0.00     0.074 A 
ATOM     69  C   UNL A   1      43.850  30.260  30.345  1.00  0.00     0.031 C 
ATOM     70  C   UNL A   1      45.002  28.499  31.837  1.00  0.00     0.034 A 
BRANCH  57  71
ATOM     71  C   UNL A   1      47.802  30.910  27.790  1.00  0.00     0.023 A 
ATOM     72  C   UNL A   1      46.641  31.607  27.428  1.00  0.00     0.031 A 
ATOM     73  C   UNL A   1      49.032  31.518  27.432  1.00  0.00     0.131 A 
ATOM     74  C   UNL A   1      46.725  32.809  26.707  1.00  0.00     0.055 A 
ATOM     75  C   UNL A   1      49.111  32.745  26.776  1.00  0.00     0.041 A 
ATOM     76  F   UNL A   1      50.216  30.918  27.606  1.00  0.00    -0.206 F 
ATOM     77  C   UNL A   1      47.951  33.388  26.385  1.00  0.00     0.022 A 
BRANCH  74  78
ATOM     78  S   UNL A   1      45.196  33.539  26.076  1.00  0.00     0.124 S 
ATOM     79  O   UNL A   1      45.667  34.231  24.882  1.00  0.00    -0.237 OA
ATOM     80  O   UNL A   1      44.370  32.356  25.851  1.00  0.00    -0.237 OA
ATOM     81  O   UNL A   1      44.758  34.405  27.169  1.00  0.00    -0.744 OA
ENDBRANCH  74  78
ENDBRANCH  57  71
BRANCH  58  82
ATOM     82  C   UNL A   1      39.532  29.165  29.623  1.00  0.00     0.023 A 
ATOM     83  C   UNL A   1      38.669  29.707  30.604  1.00  0.00     0.031 A 
ATOM     84  C   UNL A   1      39.195  29.441  28.278  1.00  0.00     0.131 A 
ATOM     85  C   UNL A   1      37.547  30.487  30.227  1.00  0.00     0.055 A 
ATOM     86  C   UNL A   1      38.087  30.212  27.911  1.00  0.00     0.041 A 
ATOM     87  F   UNL A   1      39.982  29.048  27.265  1.00  0.00    -0.206 F 
ATOM     88  C   UNL A   1      37.265  30.749  28.886  1.00  0.00     0.022 A 
BRANCH  85  89
ATOM     89  S   UNL A   1      36.494  31.282  31.487  1.00  0.00     0.124 S 
ATOM     90  O   UNL A   1      36.211  30.174  32.392  1.00  0.00    -0.237 OA
ATOM     91  O   UNL A   1      37.357  32.338  32.005  1.00  0.00    -0.237 OA
ATOM     92  O   UNL A   1      35.344  31.758  30.717  1.00  0.00    -0.744 OA
ENDBRANCH  85  89
ENDBRANCH  58  82
BRANCH  70  93
ATOM     93  C   UNL A   1      44.736  27.380  32.826  1.00  0.00     0.023 A 
ATOM     94  C   UNL A   1      44.528  27.550  34.216  1.00  0.00     0.031 A 
ATOM     95  C   UNL A   1      44.528  26.098  32.289  1.00  0.00     0.131 A 
ATOM     96  C   UNL A   1      44.126  26.452  35.008  1.00  0.00     0.055 A 
ATOM     97  C   UNL A   1      44.112  25.022  33.071  1.00  0.00     0.041 A 
ATOM     98  F   UNL A   1      44.680  25.883  30.972  1.00  0.00    -0.206 F 
ATOM     99  C   UNL A   1      43.910  25.194  34.435  1.00  0.00     0.022 A 
BRANCH  96 100
ATOM    100  S   UNL A   1      43.846  26.643  36.802  1.00  0.00     0.124 S 
ATOM    101  O   UNL A   1      43.943  25.277  37.303  1.00  0.00    -0.237 OA
ATOM    102  O   UNL A   1      44.920  27.549  37.198  1.00  0.00    -0.237 OA
ATOM    103  O   UNL A   1      42.505  27.226  36.881  1.00  0.00    -0.744 OA
ENDBRANCH  96 100
ENDBRANCH  70  93
ENDBRANCH  44  45
ENDBRANCH  37  39
ENDBRANCH  36  37
ENDBRANCH  35  36
ENDBRANCH  34  35
ENDBRANCH  33  34
ENDBRANCH  32  33
ENDBRANCH  31  32
ENDBRANCH   1  31
TORSDOF 26
ENDMDL
MODEL 2
REMARK VINA RESULT:      -9.2      3.282      8.791
REMARK SMILES Cc1cc(C)n2nc(SCC(=O)N3CCC(C(=O)OCCOCCOCCOCCOC(=O)c4ccc(-c5c6nc(c(-c7cc(S(=O)(=O)[O-])ccc7F)c7ccc([nH]7)c(-c7cc(S(=O)(=O)[O-])ccc7F)c7nc(c(-c8cc(S(=O)(=O)[O-])ccc8F)c8ccc5[nH]8)C=C7)C=C6)cc4)CC3)nc2n1
REMARK SMILES IDX 25 1 24 2 23 3 22 4 21 5 20 6 19 7 17 8 18 9 16 10 11 11
REMARK SMILES IDX 12 12 13 13 14 14 98 15 15 16 97 17 10 18 9 19 8 20 1 21
REMARK SMILES IDX 2 22 3 23 101 24 4 25 100 26 5 27 6 28 99 29 7 30 26 31
REMARK SMILES IDX 27 32 28 33 29 34 30 35 31 36 32 37 33 38 34 39 35 40 96 41
REMARK SMILES IDX 36 42 95 43 37 44 38 45 39 46 89 47 40 48 94 49 88 50 90 51
REMARK SMILES IDX 41 52 93 53 87 54 86 55 42 57 74 58 54 59 73 60 55 61 58 62
REMARK SMILES IDX 72 63 91 64 56 65 57 66 71 68 92 69 59 70 43 71 44 72 52 73
REMARK SMILES IDX 45 74 51 75 53 76 50 77 46 78 47 79 48 80 49 81 75 82 76 83
REMARK SMILES IDX 84 84 77 85 83 86 85 87 82 88 78 89 79 90 80 91 81 92 60 93
REMARK SMILES IDX 61 94 69 95 62 96 68 97 70 98 67 99 63 100 64 101 65 102
REMARK SMILES IDX 66 103
REMARK H PARENT 90 56 58 67
REMARK Flexibility Score: inf
ROOT
ATOM      1  O   UNL A   1      34.876  35.300  31.937  1.00  0.00    -0.377 OA
ENDROOT
BRANCH   1   2
ATOM      2  C   UNL A   1      33.703  35.877  31.405  1.00  0.00     0.188 C 
BRANCH   2   3
ATOM      3  C   UNL A   1      32.871  34.995  30.449  1.00  0.00     0.188 C 
BRANCH   3   4
ATOM      4  O   UNL A   1      32.941  35.161  29.037  1.00  0.00    -0.376 OA
BRANCH   4   5
ATOM      5  C   UNL A   1      34.198  35.089  28.386  1.00  0.00     0.202 C 
BRANCH   5   6
ATOM      6  C   UNL A   1      34.877  33.718  28.215  1.00  0.00     0.261 C 
BRANCH   6   7
ATOM      7  O   UNL A   1      34.024  32.556  28.280  1.00  0.00    -0.463 OA
BRANCH   7   8
ATOM      8  C   UNL A   1      34.526  31.422  27.735  1.00  0.00     0.309 C 
ATOM      9  O   UNL A   1      35.720  31.227  27.525  1.00  0.00    -0.252 OA
BRANCH   8  10
ATOM     10  C   UNL A   1      33.482  30.377  27.355  1.00  0.00     0.103 C 
ATOM     11  C   UNL A   1      32.869  27.637  24.473  1.00  0.00     0.233 C 
ATOM     12  O   UNL A   1      32.720  28.274  23.423  1.00  0.00    -0.274 OA
ATOM     13  N   UNL A   1      32.537  28.208  25.696  1.00  0.00    -0.342 N 
ATOM     14  C   UNL A   1      31.757  29.428  25.698  1.00  0.00     0.120 C 
ATOM     15  C   UNL A   1      33.165  27.926  26.979  1.00  0.00     0.120 C 
ATOM     16  C   UNL A   1      32.592  30.629  26.126  1.00  0.00     0.037 C 
ATOM     17  C   UNL A   1      34.189  29.022  27.259  1.00  0.00     0.037 C 
BRANCH  11  18
ATOM     18  C   UNL A   1      33.148  26.147  24.397  1.00  0.00     0.178 C 
BRANCH  18  19
ATOM     19  S   UNL A   1      31.862  25.054  23.796  1.00  0.00    -0.074 SA
BRANCH  19  20
ATOM     20  C   UNL A   1      32.444  23.463  24.156  1.00  0.00     0.211 A 
ATOM     21  C   UNL A   1      33.198  17.785  23.841  1.00  0.00     0.067 C 
ATOM     22  C   UNL A   1      33.327  19.255  24.153  1.00  0.00     0.043 A 
ATOM     23  C   UNL A   1      34.578  19.688  24.856  1.00  0.00     0.047 A 
ATOM     24  N   UNL A   1      32.354  20.041  23.804  1.00  0.00    -0.216 NA
ATOM     25  C   UNL A   1      34.703  21.005  25.102  1.00  0.00     0.045 A 
ATOM     26  C   UNL A   1      32.526  21.369  24.061  1.00  0.00     0.253 A 
ATOM     27  C   UNL A   1      35.892  21.598  25.790  1.00  0.00     0.067 C 
ATOM     28  N   UNL A   1      33.679  21.865  24.688  1.00  0.00    -0.200 N 
ATOM     29  N   UNL A   1      31.740  22.372  23.753  1.00  0.00    -0.183 NA
ATOM     30  N   UNL A   1      33.608  23.216  24.748  1.00  0.00    -0.138 NA
ENDBRANCH  19  20
ENDBRANCH  18  19
ENDBRANCH  11  18
ENDBRANCH   8  10
ENDBRANCH   7   8
ENDBRANCH   6   7
ENDBRANCH   5   6
ENDBRANCH   4   5
ENDBRANCH   3   4
ENDBRANCH   2   3
ENDBRANCH   1   2
BRANCH   1  31
ATOM     31  C   UNL A   1      34.762  34.869  33.286  1.00  0.00     0.188 C 
BRANCH  31  32
ATOM     32  C   UNL A   1      36.022  34.205  33.890  1.00  0.00     0.188 C 
BRANCH  32  33
ATOM     33  O   UNL A   1      36.717  33.319  33.012  1.00  0.00    -0.376 OA
BRANCH  33  34
ATOM     34  C   UNL A   1      36.033  32.527  32.049  1.00  0.00     0.202 C 
BRANCH  34  35
ATOM     35  C   UNL A   1      36.791  32.074  30.797  1.00  0.00     0.261 C 
BRANCH  35  36
ATOM     36  O   UNL A   1      37.603  30.934  30.992  1.00  0.00    -0.460 OA
BRANCH  36  37
ATOM     37  C   UNL A   1      37.100  29.801  30.458  1.00  0.00     0.338 C 
ATOM     38  O   UNL A   1      35.996  29.335  30.628  1.00  0.00    -0.246 OA
BRANCH  37  39
ATOM     39  C   UNL A   1      38.149  29.181  29.650  1.00  0.00     0.060 A 
ATOM     40  C   UNL A   1      38.443  27.852  29.952  1.00  0.00     0.016 A 
ATOM     41  C   UNL A   1      39.016  30.015  28.930  1.00  0.00     0.016 A 
ATOM     42  C   UNL A   1      39.750  27.462  29.829  1.00  0.00     0.010 A 
ATOM     43  C   UNL A   1      40.320  29.627  28.819  1.00  0.00     0.010 A 
ATOM     44  C   UNL A   1      40.678  28.412  29.391  1.00  0.00    -0.014 A 
BRANCH  44  45
ATOM     45  C   UNL A   1      42.076  28.103  29.524  1.00  0.00     0.031 A 
ATOM     46  C   UNL A   1      42.482  27.027  28.610  1.00  0.00     0.074 A 
ATOM     47  C   UNL A   1      42.886  28.803  30.340  1.00  0.00     0.049 A 
ATOM     48  N   UNL A   1      42.706  25.796  28.921  1.00  0.00    -0.248 NA
ATOM     49  C   UNL A   1      42.382  27.278  27.164  1.00  0.00     0.031 C 
ATOM     50  C   UNL A   1      42.607  30.021  31.103  1.00  0.00     0.029 A 
ATOM     51  N   UNL A   1      44.199  28.590  30.590  1.00  0.00    -0.354 N 
ATOM     52  C   UNL A   1      43.041  25.182  27.726  1.00  0.00     0.074 A 
ATOM     53  C   UNL A   1      42.575  26.051  26.680  1.00  0.00     0.031 C 
ATOM     54  C   UNL A   1      43.776  30.557  31.532  1.00  0.00     0.029 A 
ATOM     55  C   UNL A   1      44.865  29.655  31.187  1.00  0.00     0.049 A 
ATOM     56  H   UNL A   1      44.650  27.743  30.367  1.00  0.00     0.167 HD
ATOM     57  C   UNL A   1      43.941  24.166  27.698  1.00  0.00     0.034 A 
ATOM     58  C   UNL A   1      46.216  29.783  31.304  1.00  0.00     0.034 A 
ATOM     59  C   UNL A   1      44.138  23.602  29.014  1.00  0.00     0.049 A 
ATOM     60  C   UNL A   1      46.767  28.400  31.212  1.00  0.00     0.074 A 
ATOM     61  C   UNL A   1      43.305  22.996  29.935  1.00  0.00     0.029 A 
ATOM     62  N   UNL A   1      45.248  24.005  29.724  1.00  0.00    -0.354 N 
ATOM     63  N   UNL A   1      46.516  27.475  32.101  1.00  0.00    -0.248 NA
ATOM     64  C   UNL A   1      47.139  27.904  29.893  1.00  0.00     0.031 C 
ATOM     65  C   UNL A   1      43.724  23.502  31.201  1.00  0.00     0.029 A 
ATOM     66  C   UNL A   1      44.836  24.321  30.998  1.00  0.00     0.049 A 
ATOM     67  H   UNL A   1      46.169  24.057  29.381  1.00  0.00     0.167 HD
ATOM     68  C   UNL A   1      46.280  26.322  31.366  1.00  0.00     0.074 A 
ATOM     69  C   UNL A   1      46.751  26.631  30.015  1.00  0.00     0.031 C 
ATOM     70  C   UNL A   1      45.456  25.337  31.833  1.00  0.00     0.034 A 
BRANCH  57  71
ATOM     71  C   UNL A   1      44.899  23.945  26.561  1.00  0.00     0.023 A 
ATOM     72  C   UNL A   1      45.922  24.887  26.381  1.00  0.00     0.031 A 
ATOM     73  C   UNL A   1      44.709  23.020  25.505  1.00  0.00     0.131 A 
ATOM     74  C   UNL A   1      46.661  24.918  25.187  1.00  0.00     0.055 A 
ATOM     75  C   UNL A   1      45.490  23.012  24.351  1.00  0.00     0.041 A 
ATOM     76  F   UNL A   1      43.699  22.141  25.482  1.00  0.00    -0.206 F 
ATOM     77  C   UNL A   1      46.458  23.983  24.174  1.00  0.00     0.022 A 
BRANCH  74  78
ATOM     78  S   UNL A   1      47.806  26.292  24.924  1.00  0.00     0.124 S 
ATOM     79  O   UNL A   1      47.541  26.638  23.531  1.00  0.00    -0.237 OA
ATOM     80  O   UNL A   1      47.354  27.254  25.924  1.00  0.00    -0.237 OA
ATOM     81  O   UNL A   1      49.115  25.695  25.181  1.00  0.00    -0.744 OA
ENDBRANCH  74  78
ENDBRANCH  57  71
BRANCH  58  82
ATOM     82  C   UNL A   1      47.040  31.010  31.069  1.00  0.00     0.023 A 
ATOM     83  C   UNL A   1      47.636  31.291  29.818  1.00  0.00     0.031 A 
ATOM     84  C   UNL A   1      47.037  32.066  32.009  1.00  0.00     0.131 A 
ATOM     85  C   UNL A   1      48.179  32.573  29.549  1.00  0.00     0.055 A 
ATOM     86  C   UNL A   1      47.574  33.329  31.739  1.00  0.00     0.041 A 
ATOM     87  F   UNL A   1      46.430  31.943  33.198  1.00  0.00    -0.206 F 
ATOM     88  C   UNL A   1      48.136  33.592  30.501  1.00  0.00     0.022 A 
BRANCH  85  89
ATOM     89  S   UNL A   1      48.849  32.979  27.901  1.00  0.00     0.124 S 
ATOM     90  O   UNL A   1      49.260  34.367  28.072  1.00  0.00    -0.237 OA
ATOM     91  O   UNL A   1      49.919  32.001  27.742  1.00  0.00    -0.237 OA
ATOM     92  O   UNL A   1      47.704  32.780  27.011  1.00  0.00    -0.744 OA
ENDBRANCH  85  89
ENDBRANCH  58  82
BRANCH  70  93
ATOM     93  C   UNL A   1      44.998  25.398  33.278  1.00  0.00     0.023 A 
ATOM     94  C   UNL A   1      43.849  26.082  33.742  1.00  0.00     0.031 A 
ATOM     95  C   UNL A   1      45.686  24.584  34.194  1.00  0.00     0.131 A 
ATOM     96  C   UNL A   1      43.433  25.931  35.083  1.00  0.00     0.055 A 
ATOM     97  C   UNL A   1      45.260  24.423  35.511  1.00  0.00     0.041 A 
ATOM     98  F   UNL A   1      46.765  23.887  33.803  1.00  0.00    -0.206 F 
ATOM     99  C   UNL A   1      44.132  25.096  35.962  1.00  0.00     0.022 A 
BRANCH  96 100
ATOM    100  S   UNL A   1      41.952  26.797  35.708  1.00  0.00     0.124 S 
ATOM    101  O   UNL A   1      41.701  27.809  34.688  1.00  0.00    -0.237 OA
ATOM    102  O   UNL A   1      40.968  25.722  35.799  1.00  0.00    -0.237 OA
ATOM    103  O   UNL A   1      42.385  27.331  37.000  1.00  0.00    -0.744 OA
ENDBRANCH  96 100
ENDBRANCH  70  93
ENDBRANCH  44  45
ENDBRANCH  37  39
ENDBRANCH  36  37
ENDBRANCH  35  36
ENDBRANCH  34  35
ENDBRANCH  33  34
ENDBRANCH  32  33
ENDBRANCH  31  32
ENDBRANCH   1  31
TORSDOF 26
ENDMDL
MODEL 3
REMARK VINA RESULT:      -9.1      1.835      2.245
REMARK SMILES Cc1cc(C)n2nc(SCC(=O)N3CCC(C(=O)OCCOCCOCCOCCOC(=O)c4ccc(-c5c6nc(c(-c7cc(S(=O)(=O)[O-])ccc7F)c7ccc([nH]7)c(-c7cc(S(=O)(=O)[O-])ccc7F)c7nc(c(-c8cc(S(=O)(=O)[O-])ccc8F)c8ccc5[nH]8)C=C7)C=C6)cc4)CC3)nc2n1
REMARK SMILES IDX 25 1 24 2 23 3 22 4 21 5 20 6 19 7 17 8 18 9 16 10 11 11
REMARK SMILES IDX 12 12 13 13 14 14 98 15 15 16 97 17 10 18 9 19 8 20 1 21
REMARK SMILES IDX 2 22 3 23 101 24 4 25 100 26 5 27 6 28 99 29 7 30 26 31
REMARK SMILES IDX 27 32 28 33 29 34 30 35 31 36 32 37 33 38 34 39 35 40 96 41
REMARK SMILES IDX 36 42 95 43 37 44 38 45 39 46 89 47 40 48 94 49 88 50 90 51
REMARK SMILES IDX 41 52 93 53 87 54 86 55 42 57 74 58 54 59 73 60 55 61 58 62
REMARK SMILES IDX 72 63 91 64 56 65 57 66 71 68 92 69 59 70 43 71 44 72 52 73
REMARK SMILES IDX 45 74 51 75 53 76 50 77 46 78 47 79 48 80 49 81 75 82 76 83
REMARK SMILES IDX 84 84 77 85 83 86 85 87 82 88 78 89 79 90 80 91 81 92 60 93
REMARK SMILES IDX 61 94 69 95 62 96 68 97 70 98 67 99 63 100 64 101 65 102
REMARK SMILES IDX 66 103
REMARK H PARENT 90 56 58 67
REMARK Flexibility Score: inf
ROOT
ATOM      1  O   UNL A   1      37.909  23.779  25.373  1.00  0.00    -0.377 OA
ENDROOT
BRANCH   1   2
ATOM      2  C   UNL A   1      36.517  23.549  25.385  1.00  0.00     0.188 C 
BRANCH   2   3
ATOM      3  C   UNL A   1      36.034  22.263  26.089  1.00  0.00     0.188 C 
BRANCH   3   4
ATOM      4  O   UNL A   1      36.369  20.973  25.588  1.00  0.00    -0.376 OA
BRANCH   4   5
ATOM      5  C   UNL A   1      35.426  20.259  24.807  1.00  0.00     0.202 C 
BRANCH   5   6
ATOM      6  C   UNL A   1      35.532  18.726  24.720  1.00  0.00     0.261 C 
BRANCH   6   7
ATOM      7  O   UNL A   1      34.306  17.979  24.862  1.00  0.00    -0.463 OA
BRANCH   7   8
ATOM      8  C   UNL A   1      33.437  18.066  23.826  1.00  0.00     0.309 C 
ATOM      9  O   UNL A   1      33.412  17.286  22.878  1.00  0.00    -0.252 OA
BRANCH   8  10
ATOM     10  C   UNL A   1      32.475  19.249  23.893  1.00  0.00     0.103 C 
ATOM     11  C   UNL A   1      32.602  23.258  23.586  1.00  0.00     0.233 C 
ATOM     12  O   UNL A   1      33.271  23.654  24.549  1.00  0.00    -0.274 OA
ATOM     13  N   UNL A   1      31.888  22.069  23.665  1.00  0.00    -0.342 N 
ATOM     14  C   UNL A   1      31.708  21.458  24.966  1.00  0.00     0.120 C 
ATOM     15  C   UNL A   1      31.587  21.168  22.561  1.00  0.00     0.120 C 
ATOM     16  C   UNL A   1      32.536  20.187  25.110  1.00  0.00     0.037 C 
ATOM     17  C   UNL A   1      32.604  20.031  22.583  1.00  0.00     0.037 C 
BRANCH  11  18
ATOM     18  C   UNL A   1      32.343  24.208  22.431  1.00  0.00     0.178 C 
BRANCH  18  19
ATOM     19  S   UNL A   1      33.405  25.637  22.228  1.00  0.00    -0.074 SA
BRANCH  19  20
ATOM     20  C   UNL A   1      32.573  26.913  23.053  1.00  0.00     0.211 A 
ATOM     21  C   UNL A   1      31.594  31.330  26.579  1.00  0.00     0.067 C 
ATOM     22  C   UNL A   1      31.504  30.288  25.493  1.00  0.00     0.043 A 
ATOM     23  C   UNL A   1      30.417  30.465  24.476  1.00  0.00     0.047 A 
ATOM     24  N   UNL A   1      32.360  29.311  25.512  1.00  0.00    -0.216 NA
ATOM     25  C   UNL A   1      30.362  29.551  23.490  1.00  0.00     0.045 A 
ATOM     26  C   UNL A   1      32.276  28.414  24.488  1.00  0.00     0.253 A 
ATOM     27  C   UNL A   1      29.341  29.589  22.397  1.00  0.00     0.067 C 
ATOM     28  N   UNL A   1      31.310  28.521  23.478  1.00  0.00    -0.200 N 
ATOM     29  N   UNL A   1      33.052  27.387  24.233  1.00  0.00    -0.183 NA
ATOM     30  N   UNL A   1      31.510  27.542  22.563  1.00  0.00    -0.138 NA
ENDBRANCH  19  20
ENDBRANCH  18  19
ENDBRANCH  11  18
ENDBRANCH   8  10
ENDBRANCH   7   8
ENDBRANCH   6   7
ENDBRANCH   5   6
ENDBRANCH   4   5
ENDBRANCH   3   4
ENDBRANCH   2   3
ENDBRANCH   1   2
BRANCH   1  31
ATOM     31  C   UNL A   1      38.519  23.773  26.657  1.00  0.00     0.188 C 
BRANCH  31  32
ATOM     32  C   UNL A   1      39.865  23.017  26.760  1.00  0.00     0.188 C 
BRANCH  32  33
ATOM     33  O   UNL A   1      39.862  21.702  26.204  1.00  0.00    -0.376 OA
BRANCH  33  34
ATOM     34  C   UNL A   1      40.575  20.630  26.808  1.00  0.00     0.202 C 
BRANCH  34  35
ATOM     35  C   UNL A   1      42.105  20.618  26.713  1.00  0.00     0.261 C 
BRANCH  35  36
ATOM     36  O   UNL A   1      42.614  21.132  25.500  1.00  0.00    -0.460 OA
BRANCH  36  37
ATOM     37  C   UNL A   1      43.956  21.050  25.386  1.00  0.00     0.338 C 
ATOM     38  O   UNL A   1      44.628  20.046  25.303  1.00  0.00    -0.246 OA
BRANCH  37  39
ATOM     39  C   UNL A   1      44.494  22.409  25.428  1.00  0.00     0.060 A 
ATOM     40  C   UNL A   1      45.409  22.670  26.447  1.00  0.00     0.016 A 
ATOM     41  C   UNL A   1      43.812  23.417  24.731  1.00  0.00     0.016 A 
ATOM     42  C   UNL A   1      45.384  23.924  26.997  1.00  0.00     0.010 A 
ATOM     43  C   UNL A   1      43.781  24.662  25.289  1.00  0.00     0.010 A 
ATOM     44  C   UNL A   1      44.466  24.845  26.484  1.00  0.00    -0.014 A 
BRANCH  44  45
ATOM     45  C   UNL A   1      44.236  26.056  27.226  1.00  0.00     0.031 A 
ATOM     46  C   UNL A   1      45.257  27.071  26.936  1.00  0.00     0.074 A 
ATOM     47  C   UNL A   1      43.154  26.215  28.011  1.00  0.00     0.049 A 
ATOM     48  N   UNL A   1      46.248  27.404  27.690  1.00  0.00    -0.248 NA
ATOM     49  C   UNL A   1      45.340  27.590  25.562  1.00  0.00     0.031 C 
ATOM     50  C   UNL A   1      41.987  25.346  28.172  1.00  0.00     0.029 A 
ATOM     51  N   UNL A   1      42.843  27.277  28.792  1.00  0.00    -0.354 N 
ATOM     52  C   UNL A   1      46.924  28.381  26.979  1.00  0.00     0.074 A 
ATOM     53  C   UNL A   1      46.491  28.261  25.613  1.00  0.00     0.031 C 
ATOM     54  C   UNL A   1      41.006  26.029  28.810  1.00  0.00     0.029 A 
ATOM     55  C   UNL A   1      41.519  27.329  29.214  1.00  0.00     0.049 A 
ATOM     56  H   UNL A   1      43.505  27.961  29.043  1.00  0.00     0.167 HD
ATOM     57  C   UNL A   1      47.548  29.400  27.624  1.00  0.00     0.034 A 
ATOM     58  C   UNL A   1      40.908  28.406  29.783  1.00  0.00     0.034 A 
ATOM     59  C   UNL A   1      47.743  29.096  29.023  1.00  0.00     0.049 A 
ATOM     60  C   UNL A   1      42.002  29.239  30.359  1.00  0.00     0.074 A 
ATOM     61  C   UNL A   1      48.412  28.097  29.706  1.00  0.00     0.029 A 
ATOM     62  N   UNL A   1      46.849  29.630  29.925  1.00  0.00    -0.354 N 
ATOM     63  N   UNL A   1      42.767  28.829  31.337  1.00  0.00    -0.248 NA
ATOM     64  C   UNL A   1      42.580  30.278  29.516  1.00  0.00     0.031 C 
ATOM     65  C   UNL A   1      47.558  27.760  30.797  1.00  0.00     0.029 A 
ATOM     66  C   UNL A   1      46.458  28.619  30.774  1.00  0.00     0.049 A 
ATOM     67  H   UNL A   1      46.546  30.566  29.958  1.00  0.00     0.167 HD
ATOM     68  C   UNL A   1      44.048  29.228  30.986  1.00  0.00     0.074 A 
ATOM     69  C   UNL A   1      43.860  30.182  29.890  1.00  0.00     0.031 C 
ATOM     70  C   UNL A   1      45.150  28.535  31.401  1.00  0.00     0.034 A 
BRANCH  57  71
ATOM     71  C   UNL A   1      47.634  30.795  27.070  1.00  0.00     0.023 A 
ATOM     72  C   UNL A   1      48.894  31.411  27.053  1.00  0.00     0.031 A 
ATOM     73  C   UNL A   1      46.524  31.636  26.806  1.00  0.00     0.131 A 
ATOM     74  C   UNL A   1      49.009  32.794  26.837  1.00  0.00     0.055 A 
ATOM     75  C   UNL A   1      46.650  32.995  26.525  1.00  0.00     0.041 A 
ATOM     76  F   UNL A   1      45.257  31.217  26.903  1.00  0.00    -0.206 F 
ATOM     77  C   UNL A   1      47.898  33.589  26.564  1.00  0.00     0.022 A 
BRANCH  74  78
ATOM     78  S   UNL A   1      50.631  33.562  27.052  1.00  0.00     0.124 S 
ATOM     79  O   UNL A   1      51.385  32.978  25.948  1.00  0.00    -0.237 OA
ATOM     80  O   UNL A   1      50.309  34.981  26.932  1.00  0.00    -0.237 OA
ATOM     81  O   UNL A   1      51.038  33.127  28.386  1.00  0.00    -0.744 OA
ENDBRANCH  74  78
ENDBRANCH  57  71
BRANCH  58  82
ATOM     82  C   UNL A   1      39.541  28.938  29.490  1.00  0.00     0.023 A 
ATOM     83  C   UNL A   1      38.734  29.537  30.485  1.00  0.00     0.031 A 
ATOM     84  C   UNL A   1      39.106  29.102  28.154  1.00  0.00     0.131 A 
ATOM     85  C   UNL A   1      37.570  30.264  30.130  1.00  0.00     0.055 A 
ATOM     86  C   UNL A   1      37.957  29.820  27.809  1.00  0.00     0.041 A 
ATOM     87  F   UNL A   1      39.831  28.648  27.122  1.00  0.00    -0.206 F 
ATOM     88  C   UNL A   1      37.190  30.416  28.796  1.00  0.00     0.022 A 
BRANCH  85  89
ATOM     89  S   UNL A   1      36.586  31.134  31.397  1.00  0.00     0.124 S 
ATOM     90  O   UNL A   1      36.501  30.135  32.456  1.00  0.00    -0.237 OA
ATOM     91  O   UNL A   1      37.399  32.311  31.680  1.00  0.00    -0.237 OA
ATOM     92  O   UNL A   1      35.324  31.415  30.712  1.00  0.00    -0.744 OA
ENDBRANCH  85  89
ENDBRANCH  58  82
BRANCH  70  93
ATOM     93  C   UNL A   1      44.975  27.465  32.462  1.00  0.00     0.023 A 
ATOM     94  C   UNL A   1      44.657  26.108  32.210  1.00  0.00     0.031 A 
ATOM     95  C   UNL A   1      45.308  27.821  33.780  1.00  0.00     0.131 A 
ATOM     96  C   UNL A   1      44.682  25.171  33.265  1.00  0.00     0.055 A 
ATOM     97  C   UNL A   1      45.352  26.889  34.814  1.00  0.00     0.041 A 
ATOM     98  F   UNL A   1      45.649  29.087  34.073  1.00  0.00    -0.206 F 
ATOM     99  C   UNL A   1      45.038  25.559  34.562  1.00  0.00     0.022 A 
BRANCH  96 100
ATOM    100  S   UNL A   1      44.281  23.414  32.969  1.00  0.00     0.124 S 
ATOM    101  O   UNL A   1      45.441  22.712  33.506  1.00  0.00    -0.237 OA
ATOM    102  O   UNL A   1      43.031  23.244  33.703  1.00  0.00    -0.237 OA
ATOM    103  O   UNL A   1      44.143  23.334  31.513  1.00  0.00    -0.744 OA
ENDBRANCH  96 100
ENDBRANCH  70  93
ENDBRANCH  44  45
ENDBRANCH  37  39
ENDBRANCH  36  37
ENDBRANCH  35  36
ENDBRANCH  34  35
ENDBRANCH  33  34
ENDBRANCH  32  33
ENDBRANCH  31  32
ENDBRANCH   1  31
TORSDOF 26
ENDMDL
