MODEL 1
REMARK VINA RESULT:      -8.3      0.000      0.000
REMARK SMILES CC(C)=CC[N@H+]1CCCC[C@H]1C(=O)OCCOCCOCCOCCOC(=O)c1ccc(-c2c3nc(c(-c4cc(S(=O)(=O)[O-])ccc4F)c4ccc([nH]4)c(-c4cc(S(=O)(=O)[O-])ccc4F)c4nc(c(-c5cc(S(=O)(=O)[O-])ccc5F)c5ccc2[nH]5)C=C4)C=C3)cc1
REMARK SMILES IDX 21 1 20 2 19 3 18 4 17 5 16 6 15 7 14 8 12 9 13 10 11 11
REMARK SMILES IDX 6 12 7 13 8 15 10 16 9 17 5 18 4 19 1 20 2 21 3 22 22 23
REMARK SMILES IDX 23 24 24 25 25 26 26 27 27 28 28 29 29 30 30 31 91 32 31 33
REMARK SMILES IDX 90 34 32 35 33 36 34 37 84 38 35 39 89 40 83 41 85 42 36 43
REMARK SMILES IDX 88 44 82 45 81 46 37 48 69 49 49 50 68 51 50 52 53 53 67 54
REMARK SMILES IDX 86 55 51 56 52 57 66 59 87 60 54 61 38 62 39 63 47 64 40 65
REMARK SMILES IDX 46 66 48 67 45 68 41 69 42 70 43 71 44 72 70 73 71 74 79 75
REMARK SMILES IDX 72 76 78 77 80 78 77 79 73 80 74 81 75 82 76 83 55 84 56 85
REMARK SMILES IDX 64 86 57 87 63 88 65 89 62 90 58 91 59 92 60 93 61 94
REMARK H PARENT 6 14 85 47 53 58
REMARK Flexibility Score: inf
ROOT
ATOM      1  C   UNL A   1      37.462  29.335  29.374  1.00  0.00     0.188 C 
ENDROOT
BRANCH   1   2
ATOM      2  O   UNL A   1      38.569  28.453  29.450  1.00  0.00    -0.377 OA
BRANCH   2   3
ATOM      3  C   UNL A   1      39.199  28.129  28.230  1.00  0.00     0.188 C 
BRANCH   3   4
ATOM      4  C   UNL A   1      39.707  26.678  28.134  1.00  0.00     0.188 C 
BRANCH   4   5
ATOM      5  O   UNL A   1      38.917  25.648  27.561  1.00  0.00    -0.376 OA
BRANCH   5   6
ATOM      6  C   UNL A   1      39.467  24.401  27.181  1.00  0.00     0.202 C 
BRANCH   6   7
ATOM      7  C   UNL A   1      38.691  23.353  26.360  1.00  0.00     0.261 C 
BRANCH   7   8
ATOM      8  O   UNL A   1      37.698  23.765  25.411  1.00  0.00    -0.459 OA
BRANCH   8   9
ATOM      9  C   UNL A   1      36.850  22.782  25.008  1.00  0.00     0.364 C 
ATOM     10  O   UNL A   1      37.065  22.070  24.033  1.00  0.00    -0.245 OA
BRANCH   9  11
ATOM     11  C   UNL A   1      35.558  22.750  25.876  1.00  0.00     0.295 C 
ATOM     12  N   UNL A   1      34.469  23.540  25.232  1.00  0.00    -0.320 N 
ATOM     13  C   UNL A   1      33.979  22.862  24.007  1.00  0.00     0.263 C 
ATOM     14  H   UNL A   1      33.711  23.586  25.913  1.00  0.00     0.349 HD
ATOM     15  C   UNL A   1      33.559  21.396  24.203  1.00  0.00     0.062 C 
ATOM     16  C   UNL A   1      34.976  21.384  26.268  1.00  0.00     0.078 C 
ATOM     17  C   UNL A   1      34.498  20.577  25.076  1.00  0.00     0.013 C 
BRANCH  12  18
ATOM     18  C   UNL A   1      34.851  24.947  24.938  1.00  0.00     0.291 C 
BRANCH  18  19
ATOM     19  C   UNL A   1      33.742  25.970  25.083  1.00  0.00     0.032 C 
ATOM     20  C   UNL A   1      33.249  26.273  22.627  1.00  0.00     0.039 C 
ATOM     21  C   UNL A   1      33.080  26.602  24.088  1.00  0.00    -0.075 C 
ATOM     22  C   UNL A   1      32.200  27.789  24.401  1.00  0.00     0.039 C 
ENDBRANCH  18  19
ENDBRANCH  12  18
ENDBRANCH   9  11
ENDBRANCH   8   9
ENDBRANCH   7   8
ENDBRANCH   6   7
ENDBRANCH   5   6
ENDBRANCH   4   5
ENDBRANCH   3   4
ENDBRANCH   2   3
ENDBRANCH   1   2
BRANCH   1  23
ATOM     23  C   UNL A   1      37.186  30.012  28.019  1.00  0.00     0.188 C 
BRANCH  23  24
ATOM     24  O   UNL A   1      36.162  29.384  27.258  1.00  0.00    -0.376 OA
BRANCH  24  25
ATOM     25  C   UNL A   1      34.801  29.599  27.582  1.00  0.00     0.202 C 
BRANCH  25  26
ATOM     26  C   UNL A   1      34.156  30.917  27.126  1.00  0.00     0.261 C 
BRANCH  26  27
ATOM     27  O   UNL A   1      33.243  31.537  28.038  1.00  0.00    -0.460 OA
BRANCH  27  28
ATOM     28  C   UNL A   1      33.334  32.882  28.196  1.00  0.00     0.338 C 
ATOM     29  O   UNL A   1      32.593  33.717  27.740  1.00  0.00    -0.246 OA
BRANCH  28  30
ATOM     30  C   UNL A   1      34.372  33.128  29.228  1.00  0.00     0.060 A 
ATOM     31  C   UNL A   1      34.798  34.445  29.451  1.00  0.00     0.016 A 
ATOM     32  C   UNL A   1      34.877  32.079  30.002  1.00  0.00     0.016 A 
ATOM     33  C   UNL A   1      35.755  34.713  30.428  1.00  0.00     0.010 A 
ATOM     34  C   UNL A   1      35.866  32.344  30.952  1.00  0.00     0.010 A 
ATOM     35  C   UNL A   1      36.334  33.657  31.142  1.00  0.00    -0.014 A 
BRANCH  35  36
ATOM     36  C   UNL A   1      37.607  33.890  31.863  1.00  0.00     0.031 A 
ATOM     37  C   UNL A   1      38.827  34.180  31.029  1.00  0.00     0.074 A 
ATOM     38  C   UNL A   1      37.678  33.891  33.205  1.00  0.00     0.049 A 
ATOM     39  N   UNL A   1      40.064  34.371  31.398  1.00  0.00    -0.248 NA
ATOM     40  C   UNL A   1      38.612  34.262  29.574  1.00  0.00     0.031 C 
ATOM     41  C   UNL A   1      36.551  33.693  34.112  1.00  0.00     0.029 A 
ATOM     42  N   UNL A   1      38.755  34.064  34.037  1.00  0.00    -0.354 N 
ATOM     43  C   UNL A   1      40.775  34.597  30.225  1.00  0.00     0.074 A 
ATOM     44  C   UNL A   1      39.839  34.475  29.131  1.00  0.00     0.031 C 
ATOM     45  C   UNL A   1      36.999  33.747  35.379  1.00  0.00     0.029 A 
ATOM     46  C   UNL A   1      38.448  33.940  35.371  1.00  0.00     0.049 A 
ATOM     47  H   UNL A   1      39.663  34.259  33.709  1.00  0.00     0.167 HD
ATOM     48  C   UNL A   1      42.090  34.888  30.075  1.00  0.00     0.034 A 
ATOM     49  C   UNL A   1      39.254  33.956  36.453  1.00  0.00     0.034 A 
ATOM     50  C   UNL A   1      43.014  34.980  31.176  1.00  0.00     0.049 A 
ATOM     51  C   UNL A   1      40.740  34.163  36.253  1.00  0.00     0.074 A 
ATOM     52  C   UNL A   1      44.369  35.255  31.143  1.00  0.00     0.029 A 
ATOM     53  N   UNL A   1      42.680  34.783  32.510  1.00  0.00    -0.354 N 
ATOM     54  N   UNL A   1      41.407  34.365  35.139  1.00  0.00    -0.248 NA
ATOM     55  C   UNL A   1      41.579  34.149  37.459  1.00  0.00     0.031 C 
ATOM     56  C   UNL A   1      44.869  35.146  32.445  1.00  0.00     0.029 A 
ATOM     57  C   UNL A   1      43.809  34.895  33.305  1.00  0.00     0.049 A 
ATOM     58  H   UNL A   1      41.773  34.592  32.842  1.00  0.00     0.167 HD
ATOM     59  C   UNL A   1      42.737  34.540  35.517  1.00  0.00     0.074 A 
ATOM     60  C   UNL A   1      42.773  34.433  36.961  1.00  0.00     0.031 C 
ATOM     61  C   UNL A   1      43.829  34.778  34.745  1.00  0.00     0.034 A 
BRANCH  48  62
ATOM     62  C   UNL A   1      42.601  35.062  28.665  1.00  0.00     0.023 A 
ATOM     63  C   UNL A   1      43.214  34.008  27.964  1.00  0.00     0.031 A 
ATOM     64  C   UNL A   1      42.513  36.312  28.029  1.00  0.00     0.131 A 
ATOM     65  C   UNL A   1      43.781  34.245  26.702  1.00  0.00     0.055 A 
ATOM     66  C   UNL A   1      43.002  36.518  26.739  1.00  0.00     0.041 A 
ATOM     67  F   UNL A   1      41.966  37.363  28.660  1.00  0.00    -0.206 F 
ATOM     68  C   UNL A   1      43.654  35.485  26.073  1.00  0.00     0.022 A 
BRANCH  65  69
ATOM     69  S   UNL A   1      44.820  32.953  25.964  1.00  0.00     0.124 S 
ATOM     70  O   UNL A   1      46.159  33.498  26.170  1.00  0.00    -0.237 OA
ATOM     71  O   UNL A   1      44.477  31.779  26.757  1.00  0.00    -0.237 OA
ATOM     72  O   UNL A   1      44.380  32.916  24.570  1.00  0.00    -0.744 OA
ENDBRANCH  65  69
ENDBRANCH  48  62
BRANCH  49  73
ATOM     73  C   UNL A   1      38.699  33.727  37.820  1.00  0.00     0.023 A 
ATOM     74  C   UNL A   1      38.778  34.717  38.813  1.00  0.00     0.031 A 
ATOM     75  C   UNL A   1      38.144  32.484  38.175  1.00  0.00     0.131 A 
ATOM     76  C   UNL A   1      38.358  34.432  40.123  1.00  0.00     0.055 A 
ATOM     77  C   UNL A   1      37.672  32.226  39.463  1.00  0.00     0.041 A 
ATOM     78  F   UNL A   1      38.050  31.498  37.270  1.00  0.00    -0.206 F 
ATOM     79  C   UNL A   1      37.791  33.199  40.451  1.00  0.00     0.022 A 
BRANCH  76  80
ATOM     80  S   UNL A   1      38.654  35.667  41.419  1.00  0.00     0.124 S 
ATOM     81  O   UNL A   1      37.567  35.384  42.350  1.00  0.00    -0.237 OA
ATOM     82  O   UNL A   1      39.995  35.314  41.871  1.00  0.00    -0.237 OA
ATOM     83  O   UNL A   1      38.552  36.938  40.706  1.00  0.00    -0.744 OA
ENDBRANCH  76  80
ENDBRANCH  49  73
BRANCH  61  84
ATOM     84  C   UNL A   1      45.147  34.993  35.454  1.00  0.00     0.023 A 
ATOM     85  C   UNL A   1      46.034  33.934  35.713  1.00  0.00     0.031 A 
ATOM     86  C   UNL A   1      45.516  36.282  35.876  1.00  0.00     0.131 A 
ATOM     87  C   UNL A   1      47.217  34.174  36.429  1.00  0.00     0.055 A 
ATOM     88  C   UNL A   1      46.727  36.527  36.526  1.00  0.00     0.041 A 
ATOM     89  F   UNL A   1      44.708  37.332  35.658  1.00  0.00    -0.206 F 
ATOM     90  C   UNL A   1      47.579  35.466  36.818  1.00  0.00     0.022 A 
BRANCH  87  91
ATOM     91  S   UNL A   1      48.231  32.759  36.936  1.00  0.00     0.124 S 
ATOM     92  O   UNL A   1      47.347  31.634  36.648  1.00  0.00    -0.237 OA
ATOM     93  O   UNL A   1      49.400  32.886  36.071  1.00  0.00    -0.237 OA
ATOM     94  O   UNL A   1      48.480  33.005  38.355  1.00  0.00    -0.744 OA
ENDBRANCH  87  91
ENDBRANCH  61  84
ENDBRANCH  35  36
ENDBRANCH  28  30
ENDBRANCH  27  28
ENDBRANCH  26  27
ENDBRANCH  25  26
ENDBRANCH  24  25
ENDBRANCH  23  24
ENDBRANCH   1  23
TORSDOF 25
ENDMDL
MODEL 2
REMARK VINA RESULT:      -8.3      5.371      7.928
REMARK SMILES CC(C)=CC[N@H+]1CCCC[C@H]1C(=O)OCCOCCOCCOCCOC(=O)c1ccc(-c2c3nc(c(-c4cc(S(=O)(=O)[O-])ccc4F)c4ccc([nH]4)c(-c4cc(S(=O)(=O)[O-])ccc4F)c4nc(c(-c5cc(S(=O)(=O)[O-])ccc5F)c5ccc2[nH]5)C=C4)C=C3)cc1
REMARK SMILES IDX 21 1 20 2 19 3 18 4 17 5 16 6 15 7 14 8 12 9 13 10 11 11
REMARK SMILES IDX 6 12 7 13 8 15 10 16 9 17 5 18 4 19 1 20 2 21 3 22 22 23
REMARK SMILES IDX 23 24 24 25 25 26 26 27 27 28 28 29 29 30 30 31 91 32 31 33
REMARK SMILES IDX 90 34 32 35 33 36 34 37 84 38 35 39 89 40 83 41 85 42 36 43
REMARK SMILES IDX 88 44 82 45 81 46 37 48 69 49 49 50 68 51 50 52 53 53 67 54
REMARK SMILES IDX 86 55 51 56 52 57 66 59 87 60 54 61 38 62 39 63 47 64 40 65
REMARK SMILES IDX 46 66 48 67 45 68 41 69 42 70 43 71 44 72 70 73 71 74 79 75
REMARK SMILES IDX 72 76 78 77 80 78 77 79 73 80 74 81 75 82 76 83 55 84 56 85
REMARK SMILES IDX 64 86 57 87 63 88 65 89 62 90 58 91 59 92 60 93 61 94
REMARK H PARENT 6 14 85 47 53 58
REMARK Flexibility Score: inf
ROOT
ATOM      1  C   UNL A   1      34.722  29.333  27.528  1.00  0.00     0.188 C 
ENDROOT
BRANCH   1   2
ATOM      2  O   UNL A   1      33.557  29.727  26.826  1.00  0.00    -0.377 OA
BRANCH   2   3
ATOM      3  C   UNL A   1      33.029  28.794  25.908  1.00  0.00     0.188 C 
BRANCH   3   4
ATOM      4  C   UNL A   1      31.788  28.031  26.409  1.00  0.00     0.188 C 
BRANCH   4   5
ATOM      5  O   UNL A   1      31.867  26.679  26.834  1.00  0.00    -0.376 OA
BRANCH   5   6
ATOM      6  C   UNL A   1      31.237  25.630  26.123  1.00  0.00     0.202 C 
BRANCH   6   7
ATOM      7  C   UNL A   1      31.852  24.973  24.872  1.00  0.00     0.261 C 
BRANCH   7   8
ATOM      8  O   UNL A   1      32.964  24.076  24.996  1.00  0.00    -0.459 OA
BRANCH   8   9
ATOM      9  C   UNL A   1      32.628  22.766  25.138  1.00  0.00     0.364 C 
ATOM     10  O   UNL A   1      31.799  22.207  24.429  1.00  0.00    -0.245 OA
BRANCH   9  11
ATOM     11  C   UNL A   1      33.353  22.118  26.354  1.00  0.00     0.295 C 
ATOM     12  N   UNL A   1      33.879  20.768  25.998  1.00  0.00    -0.320 N 
ATOM     13  C   UNL A   1      35.010  20.877  25.045  1.00  0.00     0.263 C 
ATOM     14  H   UNL A   1      34.214  20.355  26.868  1.00  0.00     0.349 HD
ATOM     15  C   UNL A   1      36.144  21.813  25.492  1.00  0.00     0.062 C 
ATOM     16  C   UNL A   1      34.491  22.900  27.027  1.00  0.00     0.078 C 
ATOM     17  C   UNL A   1      35.682  23.122  26.114  1.00  0.00     0.013 C 
BRANCH  12  18
ATOM     18  C   UNL A   1      32.836  19.846  25.474  1.00  0.00     0.291 C 
BRANCH  18  19
ATOM     19  C   UNL A   1      33.279  18.928  24.351  1.00  0.00     0.032 C 
ATOM     20  C   UNL A   1      33.183  16.761  25.639  1.00  0.00     0.039 C 
ATOM     21  C   UNL A   1      33.495  17.596  24.424  1.00  0.00    -0.075 C 
ATOM     22  C   UNL A   1      34.195  16.882  23.293  1.00  0.00     0.039 C 
ENDBRANCH  18  19
ENDBRANCH  12  18
ENDBRANCH   9  11
ENDBRANCH   8   9
ENDBRANCH   7   8
ENDBRANCH   6   7
ENDBRANCH   5   6
ENDBRANCH   4   5
ENDBRANCH   3   4
ENDBRANCH   2   3
ENDBRANCH   1   2
BRANCH   1  23
ATOM     23  C   UNL A   1      35.796  30.406  27.781  1.00  0.00     0.188 C 
BRANCH  23  24
ATOM     24  O   UNL A   1      35.309  31.741  27.698  1.00  0.00    -0.376 OA
BRANCH  24  25
ATOM     25  C   UNL A   1      35.625  32.678  28.710  1.00  0.00     0.202 C 
BRANCH  25  26
ATOM     26  C   UNL A   1      34.891  32.556  30.054  1.00  0.00     0.261 C 
BRANCH  26  27
ATOM     27  O   UNL A   1      35.422  31.619  30.997  1.00  0.00    -0.460 OA
BRANCH  27  28
ATOM     28  C   UNL A   1      35.777  32.093  32.218  1.00  0.00     0.338 C 
ATOM     29  O   UNL A   1      35.055  32.616  33.029  1.00  0.00    -0.246 OA
BRANCH  28  30
ATOM     30  C   UNL A   1      37.165  31.635  32.474  1.00  0.00     0.060 A 
ATOM     31  C   UNL A   1      38.225  32.359  31.910  1.00  0.00     0.016 A 
ATOM     32  C   UNL A   1      37.418  30.539  33.303  1.00  0.00     0.016 A 
ATOM     33  C   UNL A   1      39.542  31.970  32.149  1.00  0.00     0.010 A 
ATOM     34  C   UNL A   1      38.736  30.125  33.508  1.00  0.00     0.010 A 
ATOM     35  C   UNL A   1      39.799  30.818  32.901  1.00  0.00    -0.014 A 
BRANCH  35  36
ATOM     36  C   UNL A   1      41.137  30.186  32.811  1.00  0.00     0.031 A 
ATOM     37  C   UNL A   1      41.390  29.273  31.641  1.00  0.00     0.074 A 
ATOM     38  C   UNL A   1      42.109  30.442  33.703  1.00  0.00     0.049 A 
ATOM     39  N   UNL A   1      42.444  28.560  31.351  1.00  0.00    -0.248 NA
ATOM     40  C   UNL A   1      40.291  29.149  30.667  1.00  0.00     0.031 C 
ATOM     41  C   UNL A   1      42.000  31.361  34.833  1.00  0.00     0.029 A 
ATOM     42  N   UNL A   1      43.384  29.943  33.795  1.00  0.00    -0.354 N 
ATOM     43  C   UNL A   1      42.139  27.906  30.162  1.00  0.00     0.074 A 
ATOM     44  C   UNL A   1      40.785  28.272  29.811  1.00  0.00     0.031 C 
ATOM     45  C   UNL A   1      43.162  31.354  35.512  1.00  0.00     0.029 A 
ATOM     46  C   UNL A   1      44.078  30.399  34.890  1.00  0.00     0.049 A 
ATOM     47  H   UNL A   1      43.765  29.318  33.137  1.00  0.00     0.167 HD
ATOM     48  C   UNL A   1      42.921  27.080  29.426  1.00  0.00     0.034 A 
ATOM     49  C   UNL A   1      45.302  30.060  35.346  1.00  0.00     0.034 A 
ATOM     50  C   UNL A   1      44.259  26.705  29.805  1.00  0.00     0.049 A 
ATOM     51  C   UNL A   1      46.113  29.043  34.572  1.00  0.00     0.074 A 
ATOM     52  C   UNL A   1      45.139  25.866  29.146  1.00  0.00     0.029 A 
ATOM     53  N   UNL A   1      44.906  27.135  30.958  1.00  0.00    -0.354 N 
ATOM     54  N   UNL A   1      45.813  28.420  33.454  1.00  0.00    -0.248 NA
ATOM     55  C   UNL A   1      47.429  28.689  35.120  1.00  0.00     0.031 C 
ATOM     56  C   UNL A   1      46.284  25.726  29.937  1.00  0.00     0.029 A 
ATOM     57  C   UNL A   1      46.159  26.551  31.045  1.00  0.00     0.049 A 
ATOM     58  H   UNL A   1      44.529  27.764  31.615  1.00  0.00     0.167 HD
ATOM     59  C   UNL A   1      46.920  27.631  33.149  1.00  0.00     0.074 A 
ATOM     60  C   UNL A   1      47.896  27.867  34.192  1.00  0.00     0.031 C 
ATOM     61  C   UNL A   1      47.119  26.793  32.097  1.00  0.00     0.034 A 
BRANCH  48  62
ATOM     62  C   UNL A   1      42.313  26.486  28.178  1.00  0.00     0.023 A 
ATOM     63  C   UNL A   1      41.842  25.162  28.140  1.00  0.00     0.031 A 
ATOM     64  C   UNL A   1      42.246  27.243  26.995  1.00  0.00     0.131 A 
ATOM     65  C   UNL A   1      41.395  24.614  26.928  1.00  0.00     0.055 A 
ATOM     66  C   UNL A   1      41.719  26.718  25.815  1.00  0.00     0.041 A 
ATOM     67  F   UNL A   1      42.710  28.503  26.961  1.00  0.00    -0.206 F 
ATOM     68  C   UNL A   1      41.304  25.391  25.772  1.00  0.00     0.022 A 
BRANCH  65  69
ATOM     69  S   UNL A   1      41.080  22.828  26.850  1.00  0.00     0.124 S 
ATOM     70  O   UNL A   1      42.056  22.400  25.851  1.00  0.00    -0.237 OA
ATOM     71  O   UNL A   1      41.338  22.402  28.220  1.00  0.00    -0.237 OA
ATOM     72  O   UNL A   1      39.685  22.746  26.422  1.00  0.00    -0.744 OA
ENDBRANCH  65  69
ENDBRANCH  48  62
BRANCH  49  73
ATOM     73  C   UNL A   1      45.831  30.641  36.615  1.00  0.00     0.023 A 
ATOM     74  C   UNL A   1      45.557  30.047  37.858  1.00  0.00     0.031 A 
ATOM     75  C   UNL A   1      46.559  31.845  36.610  1.00  0.00     0.131 A 
ATOM     76  C   UNL A   1      45.964  30.681  39.043  1.00  0.00     0.055 A 
ATOM     77  C   UNL A   1      47.014  32.440  37.788  1.00  0.00     0.041 A 
ATOM     78  F   UNL A   1      46.843  32.462  35.452  1.00  0.00    -0.206 F 
ATOM     79  C   UNL A   1      46.704  31.865  39.016  1.00  0.00     0.022 A 
BRANCH  76  80
ATOM     80  S   UNL A   1      45.426  29.984  40.630  1.00  0.00     0.124 S 
ATOM     81  O   UNL A   1      44.430  30.960  41.058  1.00  0.00    -0.237 OA
ATOM     82  O   UNL A   1      44.914  28.679  40.229  1.00  0.00    -0.237 OA
ATOM     83  O   UNL A   1      46.653  29.955  41.422  1.00  0.00    -0.744 OA
ENDBRANCH  76  80
ENDBRANCH  49  73
BRANCH  61  84
ATOM     84  C   UNL A   1      48.466  26.114  31.996  1.00  0.00     0.023 A 
ATOM     85  C   UNL A   1      48.763  24.940  32.709  1.00  0.00     0.031 A 
ATOM     86  C   UNL A   1      49.467  26.657  31.171  1.00  0.00     0.131 A 
ATOM     87  C   UNL A   1      50.048  24.381  32.629  1.00  0.00     0.055 A 
ATOM     88  C   UNL A   1      50.721  26.058  31.041  1.00  0.00     0.041 A 
ATOM     89  F   UNL A   1      49.241  27.778  30.468  1.00  0.00    -0.206 F 
ATOM     90  C   UNL A   1      51.021  24.920  31.784  1.00  0.00     0.022 A 
BRANCH  87  91
ATOM     91  S   UNL A   1      50.466  22.997  33.725  1.00  0.00     0.124 S 
ATOM     92  O   UNL A   1      51.256  22.142  32.845  1.00  0.00    -0.237 OA
ATOM     93  O   UNL A   1      51.202  23.658  34.797  1.00  0.00    -0.237 OA
ATOM     94  O   UNL A   1      49.163  22.457  34.108  1.00  0.00    -0.744 OA
ENDBRANCH  87  91
ENDBRANCH  61  84
ENDBRANCH  35  36
ENDBRANCH  28  30
ENDBRANCH  27  28
ENDBRANCH  26  27
ENDBRANCH  25  26
ENDBRANCH  24  25
ENDBRANCH  23  24
ENDBRANCH   1  23
TORSDOF 25
ENDMDL
MODEL 3
REMARK VINA RESULT:      -8.3      7.159     11.788
REMARK SMILES CC(C)=CC[N@H+]1CCCC[C@H]1C(=O)OCCOCCOCCOCCOC(=O)c1ccc(-c2c3nc(c(-c4cc(S(=O)(=O)[O-])ccc4F)c4ccc([nH]4)c(-c4cc(S(=O)(=O)[O-])ccc4F)c4nc(c(-c5cc(S(=O)(=O)[O-])ccc5F)c5ccc2[nH]5)C=C4)C=C3)cc1
REMARK SMILES IDX 21 1 20 2 19 3 18 4 17 5 16 6 15 7 14 8 12 9 13 10 11 11
REMARK SMILES IDX 6 12 7 13 8 15 10 16 9 17 5 18 4 19 1 20 2 21 3 22 22 23
REMARK SMILES IDX 23 24 24 25 25 26 26 27 27 28 28 29 29 30 30 31 91 32 31 33
REMARK SMILES IDX 90 34 32 35 33 36 34 37 84 38 35 39 89 40 83 41 85 42 36 43
REMARK SMILES IDX 88 44 82 45 81 46 37 48 69 49 49 50 68 51 50 52 53 53 67 54
REMARK SMILES IDX 86 55 51 56 52 57 66 59 87 60 54 61 38 62 39 63 47 64 40 65
REMARK SMILES IDX 46 66 48 67 45 68 41 69 42 70 43 71 44 72 70 73 71 74 79 75
REMARK SMILES IDX 72 76 78 77 80 78 77 79 73 80 74 81 75 82 76 83 55 84 56 85
REMARK SMILES IDX 64 86 57 87 63 88 65 89 62 90 58 91 59 92 60 93 61 94
REMARK H PARENT 6 14 85 47 53 58
REMARK Flexibility Score: inf
ROOT
ATOM      1  C   UNL A   1      40.251  29.128  27.944  1.00  0.00     0.188 C 
ENDROOT
BRANCH   1   2
ATOM      2  O   UNL A   1      39.855  29.427  29.270  1.00  0.00    -0.377 OA
BRANCH   2   3
ATOM      3  C   UNL A   1      40.147  30.727  29.736  1.00  0.00     0.188 C 
BRANCH   3   4
ATOM      4  C   UNL A   1      40.182  30.868  31.270  1.00  0.00     0.188 C 
BRANCH   4   5
ATOM      5  O   UNL A   1      39.095  30.452  32.081  1.00  0.00    -0.376 OA
BRANCH   5   6
ATOM      6  C   UNL A   1      37.771  30.896  31.849  1.00  0.00     0.202 C 
BRANCH   6   7
ATOM      7  C   UNL A   1      37.150  32.104  32.577  1.00  0.00     0.261 C 
BRANCH   7   8
ATOM      8  O   UNL A   1      35.820  32.026  33.107  1.00  0.00    -0.459 OA
BRANCH   8   9
ATOM      9  C   UNL A   1      34.932  32.894  32.555  1.00  0.00     0.364 C 
ATOM     10  O   UNL A   1      33.746  32.629  32.394  1.00  0.00    -0.245 OA
BRANCH   9  11
ATOM     11  C   UNL A   1      35.632  34.203  32.080  1.00  0.00     0.295 C 
ATOM     12  N   UNL A   1      35.377  34.441  30.630  1.00  0.00    -0.320 N 
ATOM     13  C   UNL A   1      33.958  34.803  30.396  1.00  0.00     0.263 C 
ATOM     14  H   UNL A   1      35.970  35.227  30.364  1.00  0.00     0.349 HD
ATOM     15  C   UNL A   1      33.439  35.971  31.249  1.00  0.00     0.062 C 
ATOM     16  C   UNL A   1      35.326  35.507  32.830  1.00  0.00     0.078 C 
ATOM     17  C   UNL A   1      33.876  35.938  32.706  1.00  0.00     0.013 C 
BRANCH  12  18
ATOM     18  C   UNL A   1      35.780  33.303  29.762  1.00  0.00     0.291 C 
BRANCH  18  19
ATOM     19  C   UNL A   1      34.642  32.538  29.116  1.00  0.00     0.032 C 
ATOM     20  C   UNL A   1      36.044  30.855  27.863  1.00  0.00     0.039 C 
ATOM     21  C   UNL A   1      34.741  31.513  28.239  1.00  0.00    -0.075 C 
ATOM     22  C   UNL A   1      33.521  31.047  27.482  1.00  0.00     0.039 C 
ENDBRANCH  18  19
ENDBRANCH  12  18
ENDBRANCH   9  11
ENDBRANCH   8   9
ENDBRANCH   7   8
ENDBRANCH   6   7
ENDBRANCH   5   6
ENDBRANCH   4   5
ENDBRANCH   3   4
ENDBRANCH   2   3
ENDBRANCH   1   2
BRANCH   1  23
ATOM     23  C   UNL A   1      41.075  27.847  27.720  1.00  0.00     0.188 C 
BRANCH  23  24
ATOM     24  O   UNL A   1      40.375  26.826  27.017  1.00  0.00    -0.376 OA
BRANCH  24  25
ATOM     25  C   UNL A   1      39.543  25.922  27.719  1.00  0.00     0.202 C 
BRANCH  25  26
ATOM     26  C   UNL A   1      39.957  24.442  27.750  1.00  0.00     0.261 C 
BRANCH  26  27
ATOM     27  O   UNL A   1      41.347  24.166  27.957  1.00  0.00    -0.460 OA
BRANCH  27  28
ATOM     28  C   UNL A   1      42.071  23.765  26.882  1.00  0.00     0.338 C 
ATOM     29  O   UNL A   1      41.754  22.941  26.061  1.00  0.00    -0.246 OA
BRANCH  28  30
ATOM     30  C   UNL A   1      43.221  24.696  26.764  1.00  0.00     0.060 A 
ATOM     31  C   UNL A   1      43.812  25.184  27.937  1.00  0.00     0.016 A 
ATOM     32  C   UNL A   1      43.742  25.037  25.513  1.00  0.00     0.016 A 
ATOM     33  C   UNL A   1      44.908  26.043  27.862  1.00  0.00     0.010 A 
ATOM     34  C   UNL A   1      44.814  25.929  25.438  1.00  0.00     0.010 A 
ATOM     35  C   UNL A   1      45.376  26.463  26.611  1.00  0.00    -0.014 A 
BRANCH  35  36
ATOM     36  C   UNL A   1      46.244  27.662  26.536  1.00  0.00     0.031 A 
ATOM     37  C   UNL A   1      47.724  27.432  26.380  1.00  0.00     0.074 A 
ATOM     38  C   UNL A   1      45.743  28.909  26.559  1.00  0.00     0.049 A 
ATOM     39  N   UNL A   1      48.703  28.294  26.339  1.00  0.00    -0.248 NA
ATOM     40  C   UNL A   1      48.151  26.028  26.258  1.00  0.00     0.031 C 
ATOM     41  C   UNL A   1      44.325  29.250  26.635  1.00  0.00     0.029 A 
ATOM     42  N   UNL A   1      46.381  30.123  26.522  1.00  0.00    -0.354 N 
ATOM     43  C   UNL A   1      49.861  27.540  26.184  1.00  0.00     0.074 A 
ATOM     44  C   UNL A   1      49.465  26.149  26.184  1.00  0.00     0.031 C 
ATOM     45  C   UNL A   1      44.201  30.589  26.648  1.00  0.00     0.029 A 
ATOM     46  C   UNL A   1      45.530  31.198  26.624  1.00  0.00     0.049 A 
ATOM     47  H   UNL A   1      47.357  30.215  26.430  1.00  0.00     0.167 HD
ATOM     48  C   UNL A   1      51.139  27.969  26.047  1.00  0.00     0.034 A 
ATOM     49  C   UNL A   1      45.803  32.516  26.715  1.00  0.00     0.034 A 
ATOM     50  C   UNL A   1      51.518  29.358  26.075  1.00  0.00     0.049 A 
ATOM     51  C   UNL A   1      47.247  32.967  26.680  1.00  0.00     0.074 A 
ATOM     52  C   UNL A   1      52.780  29.910  25.960  1.00  0.00     0.029 A 
ATOM     53  N   UNL A   1      50.634  30.418  26.248  1.00  0.00    -0.354 N 
ATOM     54  N   UNL A   1      48.338  32.246  26.544  1.00  0.00    -0.248 NA
ATOM     55  C   UNL A   1      47.495  34.409  26.805  1.00  0.00     0.031 C 
ATOM     56  C   UNL A   1      52.671  31.292  26.142  1.00  0.00     0.029 A 
ATOM     57  C   UNL A   1      51.329  31.616  26.277  1.00  0.00     0.049 A 
ATOM     58  H   UNL A   1      49.658  30.329  26.336  1.00  0.00     0.167 HD
ATOM     59  C   UNL A   1      49.395  33.154  26.529  1.00  0.00     0.074 A 
ATOM     60  C   UNL A   1      48.809  34.472  26.657  1.00  0.00     0.031 C 
ATOM     61  C   UNL A   1      50.729  32.923  26.412  1.00  0.00     0.034 A 
BRANCH  48  62
ATOM     62  C   UNL A   1      52.210  26.913  25.918  1.00  0.00     0.023 A 
ATOM     63  C   UNL A   1      53.062  26.588  26.988  1.00  0.00     0.031 A 
ATOM     64  C   UNL A   1      52.411  26.255  24.692  1.00  0.00     0.131 A 
ATOM     65  C   UNL A   1      54.121  25.687  26.790  1.00  0.00     0.055 A 
ATOM     66  C   UNL A   1      53.411  25.296  24.527  1.00  0.00     0.041 A 
ATOM     67  F   UNL A   1      51.649  26.546  23.626  1.00  0.00    -0.206 F 
ATOM     68  C   UNL A   1      54.283  25.018  25.575  1.00  0.00     0.022 A 
BRANCH  65  69
ATOM     69  S   UNL A   1      55.371  25.521  28.093  1.00  0.00     0.124 S 
ATOM     70  O   UNL A   1      56.356  26.520  27.686  1.00  0.00    -0.237 OA
ATOM     71  O   UNL A   1      54.612  25.826  29.300  1.00  0.00    -0.237 OA
ATOM     72  O   UNL A   1      55.814  24.134  27.968  1.00  0.00    -0.744 OA
ENDBRANCH  65  69
ENDBRANCH  48  62
BRANCH  49  73
ATOM     73  C   UNL A   1      44.704  33.511  26.893  1.00  0.00     0.023 A 
ATOM     74  C   UNL A   1      44.154  33.770  28.159  1.00  0.00     0.031 A 
ATOM     75  C   UNL A   1      44.137  34.167  25.785  1.00  0.00     0.131 A 
ATOM     76  C   UNL A   1      43.042  34.619  28.280  1.00  0.00     0.055 A 
ATOM     77  C   UNL A   1      43.070  35.057  25.918  1.00  0.00     0.041 A 
ATOM     78  F   UNL A   1      44.616  33.952  24.550  1.00  0.00    -0.206 F 
ATOM     79  C   UNL A   1      42.506  35.276  27.171  1.00  0.00     0.022 A 
BRANCH  76  80
ATOM     80  S   UNL A   1      42.241  34.777  29.901  1.00  0.00     0.124 S 
ATOM     81  O   UNL A   1      43.018  35.850  30.511  1.00  0.00    -0.237 OA
ATOM     82  O   UNL A   1      40.870  35.108  29.530  1.00  0.00    -0.237 OA
ATOM     83  O   UNL A   1      42.422  33.456  30.498  1.00  0.00    -0.744 OA
ENDBRANCH  76  80
ENDBRANCH  49  73
BRANCH  61  84
ATOM     84  C   UNL A   1      51.640  34.128  26.360  1.00  0.00     0.023 A 
ATOM     85  C   UNL A   1      52.149  34.727  27.525  1.00  0.00     0.031 A 
ATOM     86  C   UNL A   1      52.001  34.684  25.120  1.00  0.00     0.131 A 
ATOM     87  C   UNL A   1      52.942  35.881  27.427  1.00  0.00     0.055 A 
ATOM     88  C   UNL A   1      52.847  35.790  25.026  1.00  0.00     0.041 A 
ATOM     89  F   UNL A   1      51.544  34.156  23.973  1.00  0.00    -0.206 F 
ATOM     90  C   UNL A   1      53.311  36.404  26.185  1.00  0.00     0.022 A 
BRANCH  87  91
ATOM     91  S   UNL A   1      53.402  36.754  28.950  1.00  0.00     0.124 S 
ATOM     92  O   UNL A   1      52.527  36.126  29.934  1.00  0.00    -0.237 OA
ATOM     93  O   UNL A   1      54.823  36.443  29.071  1.00  0.00    -0.237 OA
ATOM     94  O   UNL A   1      53.096  38.151  28.650  1.00  0.00    -0.744 OA
ENDBRANCH  87  91
ENDBRANCH  61  84
ENDBRANCH  35  36
ENDBRANCH  28  30
ENDBRANCH  27  28
ENDBRANCH  26  27
ENDBRANCH  25  26
ENDBRANCH  24  25
ENDBRANCH  23  24
ENDBRANCH   1  23
TORSDOF 25
ENDMDL
