MODEL 1
REMARK VINA RESULT:      -9.5      0.000      0.000
REMARK SMILES O=C(OCCOCCOCCOCCOC(=O)[C@H]1C[C@](O)(c2ccccc2Cl)[C@@H](c2ccccc2Cl)O1)c1ccc(-c2c3nc(c(-c4cc(S(=O)(=O)[O-])ccc4F)c4ccc([nH]4)c(-c4cc(S(=O)(=O)[O-])ccc4F)c4nc(c(-c5cc(S(=O)(=O)[O-])ccc5F)c5ccc2[nH]5)C=C4)C=C3)cc1
REMARK SMILES IDX 8 1 7 2 6 3 5 4 4 5 3 6 2 7 1 8 38 9 39 10 100 11 40 12
REMARK SMILES IDX 99 13 41 14 42 15 43 16 93 17 44 18 98 19 92 20 94 21 45 22
REMARK SMILES IDX 97 23 91 24 90 25 46 27 78 28 58 29 77 30 59 31 62 32 76 33
REMARK SMILES IDX 95 34 60 35 61 36 75 38 96 39 63 40 47 41 48 42 56 43 49 44
REMARK SMILES IDX 55 45 57 46 54 47 50 48 51 49 52 50 53 51 79 52 80 53 88 54
REMARK SMILES IDX 81 55 87 56 89 57 86 58 82 59 83 60 84 61 85 62 64 63 65 64
REMARK SMILES IDX 73 65 66 66 72 67 74 68 71 69 67 70 68 71 69 72 70 73 9 74
REMARK SMILES IDX 10 75 11 76 12 77 13 78 14 79 15 80 16 81 17 82 18 83 19 84
REMARK SMILES IDX 37 85 20 86 29 87 22 88 23 89 27 90 24 91 26 92 28 93 25 94
REMARK SMILES IDX 21 95 30 97 31 98 35 99 32 100 34 101 36 102 33 103
REMARK H PARENT 94 26 62 37 21 96
REMARK Flexibility Score: inf
ROOT
ATOM      1  C   UNL A   1      31.686  28.281  27.061  1.00  0.00     0.188 C 
ENDROOT
BRANCH   1   2
ATOM      2  C   UNL A   1      31.444  28.866  25.672  1.00  0.00     0.188 C 
BRANCH   2   3
ATOM      3  O   UNL A   1      31.879  30.229  25.643  1.00  0.00    -0.376 OA
BRANCH   3   4
ATOM      4  C   UNL A   1      31.843  30.905  26.898  1.00  0.00     0.202 C 
BRANCH   4   5
ATOM      5  C   UNL A   1      33.089  31.747  27.173  1.00  0.00     0.261 C 
BRANCH   5   6
ATOM      6  O   UNL A   1      34.059  31.025  27.943  1.00  0.00    -0.460 OA
BRANCH   6   7
ATOM      7  C   UNL A   1      35.007  30.164  27.497  1.00  0.00     0.338 C 
ATOM      8  O   UNL A   1      34.858  29.702  26.363  1.00  0.00    -0.246 OA
BRANCH   7   9
ATOM      9  C   UNL A   1      36.230  29.739  28.264  1.00  0.00     0.060 A 
ATOM     10  C   UNL A   1      36.273  29.146  29.533  1.00  0.00     0.016 A 
ATOM     11  C   UNL A   1      37.456  29.944  27.606  1.00  0.00     0.016 A 
ATOM     12  C   UNL A   1      37.484  28.855  30.168  1.00  0.00     0.010 A 
ATOM     13  C   UNL A   1      38.672  29.645  28.224  1.00  0.00     0.010 A 
ATOM     14  C   UNL A   1      38.685  29.146  29.531  1.00  0.00    -0.014 A 
BRANCH  14  15
ATOM     15  C   UNL A   1      39.941  29.189  30.304  1.00  0.00     0.031 A 
ATOM     16  C   UNL A   1      41.016  28.224  29.902  1.00  0.00     0.074 A 
ATOM     17  C   UNL A   1      40.118  30.056  31.315  1.00  0.00     0.049 A 
ATOM     18  N   UNL A   1      42.095  27.859  30.535  1.00  0.00    -0.248 NA
ATOM     19  C   UNL A   1      40.821  27.563  28.602  1.00  0.00     0.031 C 
ATOM     20  C   UNL A   1      39.180  31.108  31.697  1.00  0.00     0.029 A 
ATOM     21  N   UNL A   1      41.145  30.168  32.214  1.00  0.00    -0.354 N 
ATOM     22  C   UNL A   1      42.683  26.885  29.735  1.00  0.00     0.074 A 
ATOM     23  C   UNL A   1      41.835  26.717  28.576  1.00  0.00     0.031 C 
ATOM     24  C   UNL A   1      39.663  31.745  32.777  1.00  0.00     0.029 A 
ATOM     25  C   UNL A   1      40.901  31.095  33.201  1.00  0.00     0.049 A 
ATOM     26  H   UNL A   1      41.973  29.639  32.161  1.00  0.00     0.167 HD
ATOM     27  C   UNL A   1      43.819  26.182  29.968  1.00  0.00     0.034 A 
ATOM     28  C   UNL A   1      41.571  31.332  34.346  1.00  0.00     0.034 A 
ATOM     29  C   UNL A   1      44.612  26.371  31.156  1.00  0.00     0.049 A 
ATOM     30  C   UNL A   1      42.789  30.489  34.641  1.00  0.00     0.074 A 
ATOM     31  C   UNL A   1      45.744  25.695  31.566  1.00  0.00     0.029 A 
ATOM     32  N   UNL A   1      44.333  27.316  32.140  1.00  0.00    -0.354 N 
ATOM     33  N   UNL A   1      43.306  29.509  33.931  1.00  0.00    -0.248 NA
ATOM     34  C   UNL A   1      43.507  30.768  35.890  1.00  0.00     0.031 C 
ATOM     35  C   UNL A   1      46.115  26.191  32.823  1.00  0.00     0.029 A 
ATOM     36  C   UNL A   1      45.259  27.230  33.163  1.00  0.00     0.049 A 
ATOM     37  H   UNL A   1      43.583  27.955  32.111  1.00  0.00     0.167 HD
ATOM     38  C   UNL A   1      44.421  29.068  34.637  1.00  0.00     0.074 A 
ATOM     39  C   UNL A   1      44.503  29.893  35.828  1.00  0.00     0.031 C 
ATOM     40  C   UNL A   1      45.302  28.080  34.333  1.00  0.00     0.034 A 
BRANCH  27  41
ATOM     41  C   UNL A   1      44.160  25.098  28.972  1.00  0.00     0.023 A 
ATOM     42  C   UNL A   1      44.992  25.344  27.864  1.00  0.00     0.031 A 
ATOM     43  C   UNL A   1      43.525  23.846  29.048  1.00  0.00     0.131 A 
ATOM     44  C   UNL A   1      45.062  24.407  26.819  1.00  0.00     0.055 A 
ATOM     45  C   UNL A   1      43.680  22.878  28.054  1.00  0.00     0.041 A 
ATOM     46  F   UNL A   1      42.698  23.559  30.065  1.00  0.00    -0.206 F 
ATOM     47  C   UNL A   1      44.431  23.166  26.917  1.00  0.00     0.022 A 
BRANCH  44  48
ATOM     48  S   UNL A   1      45.799  24.928  25.243  1.00  0.00     0.124 S 
ATOM     49  O   UNL A   1      45.182  26.239  25.046  1.00  0.00    -0.237 OA
ATOM     50  O   UNL A   1      47.225  24.935  25.548  1.00  0.00    -0.237 OA
ATOM     51  O   UNL A   1      45.364  23.898  24.303  1.00  0.00    -0.744 OA
ENDBRANCH  44  48
ENDBRANCH  27  41
BRANCH  28  52
ATOM     52  C   UNL A   1      41.056  32.338  35.320  1.00  0.00     0.023 A 
ATOM     53  C   UNL A   1      39.900  32.103  36.079  1.00  0.00     0.031 A 
ATOM     54  C   UNL A   1      41.735  33.556  35.516  1.00  0.00     0.131 A 
ATOM     55  C   UNL A   1      39.451  33.075  36.991  1.00  0.00     0.055 A 
ATOM     56  C   UNL A   1      41.310  34.500  36.452  1.00  0.00     0.041 A 
ATOM     57  F   UNL A   1      42.846  33.834  34.815  1.00  0.00    -0.206 F 
ATOM     58  C   UNL A   1      40.158  34.264  37.194  1.00  0.00     0.022 A 
BRANCH  55  59
ATOM     59  S   UNL A   1      37.903  32.785  37.891  1.00  0.00     0.124 S 
ATOM     60  O   UNL A   1      37.993  33.767  38.966  1.00  0.00    -0.237 OA
ATOM     61  O   UNL A   1      36.901  33.049  36.863  1.00  0.00    -0.237 OA
ATOM     62  O   UNL A   1      38.008  31.389  38.310  1.00  0.00    -0.744 OA
ENDBRANCH  55  59
ENDBRANCH  28  52
BRANCH  40  63
ATOM     63  C   UNL A   1      46.462  27.884  35.271  1.00  0.00     0.023 A 
ATOM     64  C   UNL A   1      46.365  27.071  36.412  1.00  0.00     0.031 A 
ATOM     65  C   UNL A   1      47.701  28.484  34.980  1.00  0.00     0.131 A 
ATOM     66  C   UNL A   1      47.485  26.902  37.239  1.00  0.00     0.055 A 
ATOM     67  C   UNL A   1      48.822  28.272  35.779  1.00  0.00     0.041 A 
ATOM     68  F   UNL A   1      47.841  29.265  33.897  1.00  0.00    -0.206 F 
ATOM     69  C   UNL A   1      48.717  27.482  36.919  1.00  0.00     0.022 A 
BRANCH  66  70
ATOM     70  S   UNL A   1      47.307  25.940  38.766  1.00  0.00     0.124 S 
ATOM     71  O   UNL A   1      46.275  24.976  38.397  1.00  0.00    -0.237 OA
ATOM     72  O   UNL A   1      48.648  25.397  38.954  1.00  0.00    -0.237 OA
ATOM     73  O   UNL A   1      46.899  26.937  39.754  1.00  0.00    -0.744 OA
ENDBRANCH  66  70
ENDBRANCH  40  63
ENDBRANCH  14  15
ENDBRANCH   7   9
ENDBRANCH   6   7
ENDBRANCH   5   6
ENDBRANCH   4   5
ENDBRANCH   3   4
ENDBRANCH   2   3
ENDBRANCH   1   2
BRANCH   1  74
ATOM     74  O   UNL A   1      31.079  27.001  27.228  1.00  0.00    -0.377 OA
BRANCH  74  75
ATOM     75  C   UNL A   1      30.823  26.282  26.020  1.00  0.00     0.188 C 
BRANCH  75  76
ATOM     76  C   UNL A   1      30.632  24.759  26.157  1.00  0.00     0.188 C 
BRANCH  76  77
ATOM     77  O   UNL A   1      30.711  24.088  24.899  1.00  0.00    -0.376 OA
BRANCH  77  78
ATOM     78  C   UNL A   1      30.494  24.930  23.768  1.00  0.00     0.202 C 
BRANCH  78  79
ATOM     79  C   UNL A   1      31.623  24.812  22.743  1.00  0.00     0.261 C 
BRANCH  79  80
ATOM     80  O   UNL A   1      32.834  24.274  23.305  1.00  0.00    -0.461 OA
BRANCH  80  81
ATOM     81  C   UNL A   1      33.808  25.139  23.697  1.00  0.00     0.335 C 
ATOM     82  O   UNL A   1      33.625  26.321  23.948  1.00  0.00    -0.249 OA
BRANCH  81  83
ATOM     83  C   UNL A   1      35.139  24.373  23.829  1.00  0.00     0.232 C 
ATOM     84  C   UNL A   1      35.731  24.393  25.221  1.00  0.00     0.087 C 
ATOM     85  O   UNL A   1      34.970  23.020  23.424  1.00  0.00    -0.355 OA
ATOM     86  C   UNL A   1      36.098  22.942  25.576  1.00  0.00     0.124 C 
ATOM     87  C   UNL A   1      35.528  22.108  24.388  1.00  0.00     0.187 C 
BRANCH  86  88
ATOM     88  C   UNL A   1      37.576  22.890  26.012  1.00  0.00     0.005 A 
ATOM     89  C   UNL A   1      38.072  24.088  26.606  1.00  0.00     0.008 A 
ATOM     90  C   UNL A   1      38.510  21.846  25.882  1.00  0.00     0.047 A 
ATOM     91  C   UNL A   1      39.375  24.220  27.089  1.00  0.00     0.001 A 
ATOM     92  C   UNL A   1      39.811  21.968  26.413  1.00  0.00     0.021 A 
ATOM     93  Cl  UNL A   1      38.270  20.381  25.007  1.00  0.00    -0.084 Cl
ATOM     94  C   UNL A   1      40.242  23.145  27.016  1.00  0.00     0.002 A 
ENDBRANCH  86  88
BRANCH  86  95
ATOM     95  O   UNL A   1      35.349  22.643  26.779  1.00  0.00    -0.382 OA
ATOM     96  H   UNL A   1      34.971  23.462  27.136  1.00  0.00     0.212 HD
ENDBRANCH  86  95
BRANCH  87  97
ATOM     97  C   UNL A   1      34.460  21.056  24.681  1.00  0.00     0.003 A 
ATOM     98  C   UNL A   1      33.114  21.448  24.823  1.00  0.00     0.008 A 
ATOM     99  C   UNL A   1      34.749  19.681  24.782  1.00  0.00     0.046 A 
ATOM    100  C   UNL A   1      32.096  20.508  25.009  1.00  0.00     0.000 A 
ATOM    101  C   UNL A   1      33.726  18.741  24.969  1.00  0.00     0.021 A 
ATOM    102  Cl  UNL A   1      36.357  19.056  24.684  1.00  0.00    -0.084 Cl
ATOM    103  C   UNL A   1      32.401  19.153  25.073  1.00  0.00     0.002 A 
ENDBRANCH  87  97
ENDBRANCH  81  83
ENDBRANCH  80  81
ENDBRANCH  79  80
ENDBRANCH  78  79
ENDBRANCH  77  78
ENDBRANCH  76  77
ENDBRANCH  75  76
ENDBRANCH  74  75
ENDBRANCH   1  74
TORSDOF 26
ENDMDL
MODEL 2
REMARK VINA RESULT:      -9.1      2.130      2.364
REMARK SMILES O=C(OCCOCCOCCOCCOC(=O)[C@H]1C[C@](O)(c2ccccc2Cl)[C@@H](c2ccccc2Cl)O1)c1ccc(-c2c3nc(c(-c4cc(S(=O)(=O)[O-])ccc4F)c4ccc([nH]4)c(-c4cc(S(=O)(=O)[O-])ccc4F)c4nc(c(-c5cc(S(=O)(=O)[O-])ccc5F)c5ccc2[nH]5)C=C4)C=C3)cc1
REMARK SMILES IDX 8 1 7 2 6 3 5 4 4 5 3 6 2 7 1 8 38 9 39 10 100 11 40 12
REMARK SMILES IDX 99 13 41 14 42 15 43 16 93 17 44 18 98 19 92 20 94 21 45 22
REMARK SMILES IDX 97 23 91 24 90 25 46 27 78 28 58 29 77 30 59 31 62 32 76 33
REMARK SMILES IDX 95 34 60 35 61 36 75 38 96 39 63 40 47 41 48 42 56 43 49 44
REMARK SMILES IDX 55 45 57 46 54 47 50 48 51 49 52 50 53 51 79 52 80 53 88 54
REMARK SMILES IDX 81 55 87 56 89 57 86 58 82 59 83 60 84 61 85 62 64 63 65 64
REMARK SMILES IDX 73 65 66 66 72 67 74 68 71 69 67 70 68 71 69 72 70 73 9 74
REMARK SMILES IDX 10 75 11 76 12 77 13 78 14 79 15 80 16 81 17 82 18 83 19 84
REMARK SMILES IDX 37 85 20 86 29 87 22 88 23 89 27 90 24 91 26 92 28 93 25 94
REMARK SMILES IDX 21 95 30 97 31 98 35 99 32 100 34 101 36 102 33 103
REMARK H PARENT 94 26 62 37 21 96
REMARK Flexibility Score: inf
ROOT
ATOM      1  C   UNL A   1      31.700  28.333  27.131  1.00  0.00     0.188 C 
ENDROOT
BRANCH   1   2
ATOM      2  C   UNL A   1      31.530  28.974  25.756  1.00  0.00     0.188 C 
BRANCH   2   3
ATOM      3  O   UNL A   1      32.049  30.307  25.781  1.00  0.00    -0.376 OA
BRANCH   3   4
ATOM      4  C   UNL A   1      32.050  30.935  27.061  1.00  0.00     0.202 C 
BRANCH   4   5
ATOM      5  C   UNL A   1      33.315  31.748  27.340  1.00  0.00     0.261 C 
BRANCH   5   6
ATOM      6  O   UNL A   1      34.286  30.987  28.070  1.00  0.00    -0.460 OA
BRANCH   6   7
ATOM      7  C   UNL A   1      35.161  30.069  27.590  1.00  0.00     0.338 C 
ATOM      8  O   UNL A   1      34.849  29.486  26.549  1.00  0.00    -0.246 OA
BRANCH   7   9
ATOM      9  C   UNL A   1      36.483  29.715  28.215  1.00  0.00     0.060 A 
ATOM     10  C   UNL A   1      36.724  29.354  29.547  1.00  0.00     0.016 A 
ATOM     11  C   UNL A   1      37.586  29.728  27.341  1.00  0.00     0.016 A 
ATOM     12  C   UNL A   1      38.016  29.109  30.020  1.00  0.00     0.010 A 
ATOM     13  C   UNL A   1      38.879  29.471  27.799  1.00  0.00     0.010 A 
ATOM     14  C   UNL A   1      39.100  29.211  29.156  1.00  0.00    -0.014 A 
BRANCH  14  15
ATOM     15  C   UNL A   1      40.470  29.316  29.694  1.00  0.00     0.031 A 
ATOM     16  C   UNL A   1      41.411  28.196  29.370  1.00  0.00     0.074 A 
ATOM     17  C   UNL A   1      40.858  30.367  30.434  1.00  0.00     0.049 A 
ATOM     18  N   UNL A   1      42.564  27.888  29.896  1.00  0.00    -0.248 NA
ATOM     19  C   UNL A   1      40.966  27.281  28.306  1.00  0.00     0.031 C 
ATOM     20  C   UNL A   1      40.051  31.556  30.699  1.00  0.00     0.029 A 
ATOM     21  N   UNL A   1      42.027  30.588  31.113  1.00  0.00    -0.354 N 
ATOM     22  C   UNL A   1      42.957  26.713  29.267  1.00  0.00     0.074 A 
ATOM     23  C   UNL A   1      41.918  26.365  28.324  1.00  0.00     0.031 C 
ATOM     24  C   UNL A   1      40.742  32.374  31.512  1.00  0.00     0.029 A 
ATOM     25  C   UNL A   1      42.000  31.729  31.880  1.00  0.00     0.049 A 
ATOM     26  H   UNL A   1      42.807  29.990  31.059  1.00  0.00     0.167 HD
ATOM     27  C   UNL A   1      44.080  25.984  29.480  1.00  0.00     0.034 A 
ATOM     28  C   UNL A   1      42.866  32.156  32.821  1.00  0.00     0.034 A 
ATOM     29  C   UNL A   1      45.072  26.363  30.455  1.00  0.00     0.049 A 
ATOM     30  C   UNL A   1      44.073  31.297  33.115  1.00  0.00     0.074 A 
ATOM     31  C   UNL A   1      46.223  25.699  30.832  1.00  0.00     0.029 A 
ATOM     32  N   UNL A   1      45.011  27.524  31.220  1.00  0.00    -0.354 N 
ATOM     33  N   UNL A   1      44.413  30.143  32.583  1.00  0.00    -0.248 NA
ATOM     34  C   UNL A   1      45.006  31.784  34.137  1.00  0.00     0.031 C 
ATOM     35  C   UNL A   1      46.825  26.429  31.865  1.00  0.00     0.029 A 
ATOM     36  C   UNL A   1      46.092  27.588  32.080  1.00  0.00     0.049 A 
ATOM     37  H   UNL A   1      44.300  28.203  31.158  1.00  0.00     0.167 HD
ATOM     38  C   UNL A   1      45.609  29.775  33.193  1.00  0.00     0.074 A 
ATOM     39  C   UNL A   1      45.933  30.834  34.130  1.00  0.00     0.031 C 
ATOM     40  C   UNL A   1      46.375  28.670  32.997  1.00  0.00     0.034 A 
BRANCH  27  41
ATOM     41  C   UNL A   1      44.194  24.679  28.726  1.00  0.00     0.023 A 
ATOM     42  C   UNL A   1      44.728  24.618  27.426  1.00  0.00     0.031 A 
ATOM     43  C   UNL A   1      43.622  23.508  29.254  1.00  0.00     0.131 A 
ATOM     44  C   UNL A   1      44.564  23.455  26.655  1.00  0.00     0.055 A 
ATOM     45  C   UNL A   1      43.553  22.323  28.517  1.00  0.00     0.041 A 
ATOM     46  F   UNL A   1      43.071  23.507  30.477  1.00  0.00    -0.206 F 
ATOM     47  C   UNL A   1      44.001  22.300  27.199  1.00  0.00     0.022 A 
BRANCH  44  48
ATOM     48  S   UNL A   1      44.888  23.552  24.870  1.00  0.00     0.124 S 
ATOM     49  O   UNL A   1      44.168  22.380  24.374  1.00  0.00    -0.237 OA
ATOM     50  O   UNL A   1      44.318  24.846  24.515  1.00  0.00    -0.237 OA
ATOM     51  O   UNL A   1      46.343  23.462  24.779  1.00  0.00    -0.744 OA
ENDBRANCH  44  48
ENDBRANCH  27  41
BRANCH  28  52
ATOM     52  C   UNL A   1      42.574  33.395  33.599  1.00  0.00     0.023 A 
ATOM     53  C   UNL A   1      43.128  34.635  33.246  1.00  0.00     0.031 A 
ATOM     54  C   UNL A   1      41.712  33.354  34.712  1.00  0.00     0.131 A 
ATOM     55  C   UNL A   1      42.822  35.780  34.002  1.00  0.00     0.055 A 
ATOM     56  C   UNL A   1      41.378  34.500  35.435  1.00  0.00     0.041 A 
ATOM     57  F   UNL A   1      41.156  32.194  35.096  1.00  0.00    -0.206 F 
ATOM     58  C   UNL A   1      41.938  35.723  35.084  1.00  0.00     0.022 A 
BRANCH  55  59
ATOM     59  S   UNL A   1      43.626  37.351  33.579  1.00  0.00     0.124 S 
ATOM     60  O   UNL A   1      44.885  37.248  34.309  1.00  0.00    -0.237 OA
ATOM     61  O   UNL A   1      43.718  37.262  32.125  1.00  0.00    -0.237 OA
ATOM     62  O   UNL A   1      42.694  38.358  34.080  1.00  0.00    -0.744 OA
ENDBRANCH  55  59
ENDBRANCH  28  52
BRANCH  40  63
ATOM     63  C   UNL A   1      47.667  28.589  33.765  1.00  0.00     0.023 A 
ATOM     64  C   UNL A   1      47.753  27.937  35.006  1.00  0.00     0.031 A 
ATOM     65  C   UNL A   1      48.841  29.129  33.210  1.00  0.00     0.131 A 
ATOM     66  C   UNL A   1      48.987  27.866  35.667  1.00  0.00     0.055 A 
ATOM     67  C   UNL A   1      50.073  29.014  33.851  1.00  0.00     0.041 A 
ATOM     68  F   UNL A   1      48.807  29.757  32.024  1.00  0.00    -0.206 F 
ATOM     69  C   UNL A   1      50.150  28.385  35.089  1.00  0.00     0.022 A 
BRANCH  66  70
ATOM     70  S   UNL A   1      49.053  27.119  37.319  1.00  0.00     0.124 S 
ATOM     71  O   UNL A   1      47.712  26.557  37.449  1.00  0.00    -0.237 OA
ATOM     72  O   UNL A   1      50.139  26.153  37.184  1.00  0.00    -0.237 OA
ATOM     73  O   UNL A   1      49.339  28.252  38.197  1.00  0.00    -0.744 OA
ENDBRANCH  66  70
ENDBRANCH  40  63
ENDBRANCH  14  15
ENDBRANCH   7   9
ENDBRANCH   6   7
ENDBRANCH   5   6
ENDBRANCH   4   5
ENDBRANCH   3   4
ENDBRANCH   2   3
ENDBRANCH   1   2
BRANCH   1  74
ATOM     74  O   UNL A   1      31.067  27.058  27.222  1.00  0.00    -0.377 OA
BRANCH  74  75
ATOM     75  C   UNL A   1      30.888  26.373  25.980  1.00  0.00     0.188 C 
BRANCH  75  76
ATOM     76  C   UNL A   1      30.679  24.849  26.063  1.00  0.00     0.188 C 
BRANCH  76  77
ATOM     77  O   UNL A   1      30.812  24.215  24.790  1.00  0.00    -0.376 OA
BRANCH  77  78
ATOM     78  C   UNL A   1      30.682  25.096  23.677  1.00  0.00     0.202 C 
BRANCH  78  79
ATOM     79  C   UNL A   1      31.781  24.872  22.638  1.00  0.00     0.261 C 
BRANCH  79  80
ATOM     80  O   UNL A   1      32.968  24.279  23.200  1.00  0.00    -0.461 OA
BRANCH  80  81
ATOM     81  C   UNL A   1      33.954  25.101  23.650  1.00  0.00     0.335 C 
ATOM     82  O   UNL A   1      33.796  26.278  23.940  1.00  0.00    -0.249 OA
BRANCH  81  83
ATOM     83  C   UNL A   1      35.259  24.294  23.788  1.00  0.00     0.232 C 
ATOM     84  C   UNL A   1      35.853  24.309  25.179  1.00  0.00     0.087 C 
ATOM     85  O   UNL A   1      35.045  22.943  23.396  1.00  0.00    -0.355 OA
ATOM     86  C   UNL A   1      36.173  22.850  25.548  1.00  0.00     0.124 C 
ATOM     87  C   UNL A   1      35.574  22.023  24.370  1.00  0.00     0.187 C 
BRANCH  86  88
ATOM     88  C   UNL A   1      37.649  22.754  25.983  1.00  0.00     0.005 A 
ATOM     89  C   UNL A   1      38.168  23.921  26.617  1.00  0.00     0.008 A 
ATOM     90  C   UNL A   1      38.563  21.697  25.819  1.00  0.00     0.047 A 
ATOM     91  C   UNL A   1      39.473  24.012  27.105  1.00  0.00     0.001 A 
ATOM     92  C   UNL A   1      39.865  21.776  26.354  1.00  0.00     0.021 A 
ATOM     93  Cl  UNL A   1      38.295  20.267  24.894  1.00  0.00    -0.084 Cl
ATOM     94  C   UNL A   1      40.319  22.922  26.996  1.00  0.00     0.002 A 
ENDBRANCH  86  88
BRANCH  86  95
ATOM     95  O   UNL A   1      35.417  22.588  26.755  1.00  0.00    -0.382 OA
ATOM     96  H   UNL A   1      35.841  23.033  27.505  1.00  0.00     0.212 HD
ENDBRANCH  86  95
BRANCH  87  97
ATOM     97  C   UNL A   1      34.474  21.009  24.674  1.00  0.00     0.003 A 
ATOM     98  C   UNL A   1      33.141  21.446  24.815  1.00  0.00     0.008 A 
ATOM     99  C   UNL A   1      34.717  19.627  24.787  1.00  0.00     0.046 A 
ATOM    100  C   UNL A   1      32.093  20.542  25.011  1.00  0.00     0.000 A 
ATOM    101  C   UNL A   1      33.665  18.723  24.985  1.00  0.00     0.021 A 
ATOM    102  Cl  UNL A   1      36.304  18.948  24.692  1.00  0.00    -0.084 Cl
ATOM    103  C   UNL A   1      32.354  19.179  25.087  1.00  0.00     0.002 A 
ENDBRANCH  87  97
ENDBRANCH  81  83
ENDBRANCH  80  81
ENDBRANCH  79  80
ENDBRANCH  78  79
ENDBRANCH  77  78
ENDBRANCH  76  77
ENDBRANCH  75  76
ENDBRANCH  74  75
ENDBRANCH   1  74
TORSDOF 26
ENDMDL
MODEL 3
REMARK VINA RESULT:      -8.9      5.461      8.974
REMARK SMILES O=C(OCCOCCOCCOCCOC(=O)[C@H]1C[C@](O)(c2ccccc2Cl)[C@@H](c2ccccc2Cl)O1)c1ccc(-c2c3nc(c(-c4cc(S(=O)(=O)[O-])ccc4F)c4ccc([nH]4)c(-c4cc(S(=O)(=O)[O-])ccc4F)c4nc(c(-c5cc(S(=O)(=O)[O-])ccc5F)c5ccc2[nH]5)C=C4)C=C3)cc1
REMARK SMILES IDX 8 1 7 2 6 3 5 4 4 5 3 6 2 7 1 8 38 9 39 10 100 11 40 12
REMARK SMILES IDX 99 13 41 14 42 15 43 16 93 17 44 18 98 19 92 20 94 21 45 22
REMARK SMILES IDX 97 23 91 24 90 25 46 27 78 28 58 29 77 30 59 31 62 32 76 33
REMARK SMILES IDX 95 34 60 35 61 36 75 38 96 39 63 40 47 41 48 42 56 43 49 44
REMARK SMILES IDX 55 45 57 46 54 47 50 48 51 49 52 50 53 51 79 52 80 53 88 54
REMARK SMILES IDX 81 55 87 56 89 57 86 58 82 59 83 60 84 61 85 62 64 63 65 64
REMARK SMILES IDX 73 65 66 66 72 67 74 68 71 69 67 70 68 71 69 72 70 73 9 74
REMARK SMILES IDX 10 75 11 76 12 77 13 78 14 79 15 80 16 81 17 82 18 83 19 84
REMARK SMILES IDX 37 85 20 86 29 87 22 88 23 89 27 90 24 91 26 92 28 93 25 94
REMARK SMILES IDX 21 95 30 97 31 98 35 99 32 100 34 101 36 102 33 103
REMARK H PARENT 94 26 62 37 21 96
REMARK Flexibility Score: inf
ROOT
ATOM      1  C   UNL A   1      38.610  29.714  27.612  1.00  0.00     0.188 C 
ENDROOT
BRANCH   1   2
ATOM      2  C   UNL A   1      39.821  28.817  27.852  1.00  0.00     0.188 C 
BRANCH   2   3
ATOM      3  O   UNL A   1      39.458  27.450  27.629  1.00  0.00    -0.376 OA
BRANCH   3   4
ATOM      4  C   UNL A   1      39.674  26.577  28.734  1.00  0.00     0.202 C 
BRANCH   4   5
ATOM      5  C   UNL A   1      39.933  27.313  30.050  1.00  0.00     0.261 C 
BRANCH   5   6
ATOM      6  O   UNL A   1      38.759  27.368  30.869  1.00  0.00    -0.460 OA
BRANCH   6   7
ATOM      7  C   UNL A   1      38.660  27.762  32.163  1.00  0.00     0.338 C 
ATOM      8  O   UNL A   1      38.233  26.934  32.972  1.00  0.00    -0.246 OA
BRANCH   7   9
ATOM      9  C   UNL A   1      39.043  29.117  32.693  1.00  0.00     0.060 A 
ATOM     10  C   UNL A   1      38.215  30.239  32.835  1.00  0.00     0.016 A 
ATOM     11  C   UNL A   1      40.380  29.245  33.112  1.00  0.00     0.016 A 
ATOM     12  C   UNL A   1      38.710  31.466  33.284  1.00  0.00     0.010 A 
ATOM     13  C   UNL A   1      40.883  30.462  33.576  1.00  0.00     0.010 A 
ATOM     14  C   UNL A   1      40.056  31.590  33.612  1.00  0.00    -0.014 A 
BRANCH  14  15
ATOM     15  C   UNL A   1      40.668  32.927  33.733  1.00  0.00     0.031 A 
ATOM     16  C   UNL A   1      41.173  33.556  32.469  1.00  0.00     0.074 A 
ATOM     17  C   UNL A   1      40.764  33.555  34.916  1.00  0.00     0.049 A 
ATOM     18  N   UNL A   1      41.965  34.577  32.298  1.00  0.00    -0.248 NA
ATOM     19  C   UNL A   1      40.727  32.916  31.221  1.00  0.00     0.031 C 
ATOM     20  C   UNL A   1      40.196  33.076  36.173  1.00  0.00     0.029 A 
ATOM     21  N   UNL A   1      41.395  34.724  35.249  1.00  0.00    -0.354 N 
ATOM     22  C   UNL A   1      42.158  34.669  30.924  1.00  0.00     0.074 A 
ATOM     23  C   UNL A   1      41.402  33.599  30.313  1.00  0.00     0.031 C 
ATOM     24  C   UNL A   1      40.530  33.933  37.153  1.00  0.00     0.029 A 
ATOM     25  C   UNL A   1      41.394  34.974  36.601  1.00  0.00     0.049 A 
ATOM     26  H   UNL A   1      41.808  35.325  34.587  1.00  0.00     0.167 HD
ATOM     27  C   UNL A   1      42.920  35.561  30.243  1.00  0.00     0.034 A 
ATOM     28  C   UNL A   1      42.077  35.898  37.308  1.00  0.00     0.034 A 
ATOM     29  C   UNL A   1      43.676  36.593  30.906  1.00  0.00     0.049 A 
ATOM     30  C   UNL A   1      42.989  36.835  36.553  1.00  0.00     0.074 A 
ATOM     31  C   UNL A   1      44.542  37.524  30.366  1.00  0.00     0.029 A 
ATOM     32  N   UNL A   1      43.658  36.815  32.281  1.00  0.00    -0.354 N 
ATOM     33  N   UNL A   1      43.242  36.878  35.263  1.00  0.00    -0.248 NA
ATOM     34  C   UNL A   1      43.717  37.836  37.341  1.00  0.00     0.031 C 
ATOM     35  C   UNL A   1      45.089  38.269  31.418  1.00  0.00     0.029 A 
ATOM     36  C   UNL A   1      44.509  37.854  32.609  1.00  0.00     0.049 A 
ATOM     37  H   UNL A   1      43.117  36.305  32.926  1.00  0.00     0.167 HD
ATOM     38  C   UNL A   1      44.143  37.924  35.082  1.00  0.00     0.074 A 
ATOM     39  C   UNL A   1      44.385  38.487  36.397  1.00  0.00     0.031 C 
ATOM     40  C   UNL A   1      44.715  38.384  33.939  1.00  0.00     0.034 A 
BRANCH  27  41
ATOM     41  C   UNL A   1      43.035  35.353  28.751  1.00  0.00     0.023 A 
ATOM     42  C   UNL A   1      43.906  34.393  28.201  1.00  0.00     0.031 A 
ATOM     43  C   UNL A   1      42.381  36.226  27.864  1.00  0.00     0.131 A 
ATOM     44  C   UNL A   1      44.196  34.416  26.827  1.00  0.00     0.055 A 
ATOM     45  C   UNL A   1      42.597  36.176  26.485  1.00  0.00     0.041 A 
ATOM     46  F   UNL A   1      41.559  37.181  28.326  1.00  0.00    -0.206 F 
ATOM     47  C   UNL A   1      43.530  35.285  25.961  1.00  0.00     0.022 A 
BRANCH  44  48
ATOM     48  S   UNL A   1      45.616  33.453  26.230  1.00  0.00     0.124 S 
ATOM     49  O   UNL A   1      46.204  34.368  25.253  1.00  0.00    -0.237 OA
ATOM     50  O   UNL A   1      46.388  33.240  27.448  1.00  0.00    -0.237 OA
ATOM     51  O   UNL A   1      45.004  32.256  25.658  1.00  0.00    -0.744 OA
ENDBRANCH  44  48
ENDBRANCH  27  41
BRANCH  28  52
ATOM     52  C   UNL A   1      41.988  35.916  38.797  1.00  0.00     0.023 A 
ATOM     53  C   UNL A   1      40.860  36.420  39.461  1.00  0.00     0.031 A 
ATOM     54  C   UNL A   1      43.040  35.407  39.583  1.00  0.00     0.131 A 
ATOM     55  C   UNL A   1      40.813  36.413  40.867  1.00  0.00     0.055 A 
ATOM     56  C   UNL A   1      42.971  35.363  40.976  1.00  0.00     0.041 A 
ATOM     57  F   UNL A   1      44.144  34.913  38.999  1.00  0.00    -0.206 F 
ATOM     58  C   UNL A   1      41.854  35.873  41.627  1.00  0.00     0.022 A 
BRANCH  55  59
ATOM     59  S   UNL A   1      39.382  37.157  41.700  1.00  0.00     0.124 S 
ATOM     60  O   UNL A   1      39.356  38.492  41.113  1.00  0.00    -0.237 OA
ATOM     61  O   UNL A   1      38.301  36.260  41.304  1.00  0.00    -0.237 OA
ATOM     62  O   UNL A   1      39.745  37.103  43.114  1.00  0.00    -0.744 OA
ENDBRANCH  55  59
ENDBRANCH  28  52
BRANCH  40  63
ATOM     63  C   UNL A   1      45.605  39.592  34.058  1.00  0.00     0.023 A 
ATOM     64  C   UNL A   1      45.083  40.888  34.198  1.00  0.00     0.031 A 
ATOM     65  C   UNL A   1      47.002  39.426  34.085  1.00  0.00     0.131 A 
ATOM     66  C   UNL A   1      45.957  41.976  34.332  1.00  0.00     0.055 A 
ATOM     67  C   UNL A   1      47.863  40.506  34.266  1.00  0.00     0.041 A 
ATOM     68  F   UNL A   1      47.545  38.205  33.959  1.00  0.00    -0.206 F 
ATOM     69  C   UNL A   1      47.343  41.791  34.385  1.00  0.00     0.022 A 
BRANCH  66  70
ATOM     70  S   UNL A   1      45.265  43.651  34.398  1.00  0.00     0.124 S 
ATOM     71  O   UNL A   1      43.846  43.383  34.612  1.00  0.00    -0.237 OA
ATOM     72  O   UNL A   1      45.979  44.242  35.525  1.00  0.00    -0.237 OA
ATOM     73  O   UNL A   1      45.600  44.213  33.091  1.00  0.00    -0.744 OA
ENDBRANCH  66  70
ENDBRANCH  40  63
ENDBRANCH  14  15
ENDBRANCH   7   9
ENDBRANCH   6   7
ENDBRANCH   5   6
ENDBRANCH   4   5
ENDBRANCH   3   4
ENDBRANCH   2   3
ENDBRANCH   1   2
BRANCH   1  74
ATOM     74  O   UNL A   1      37.514  29.392  28.466  1.00  0.00    -0.377 OA
BRANCH  74  75
ATOM     75  C   UNL A   1      36.275  30.024  28.138  1.00  0.00     0.188 C 
BRANCH  75  76
ATOM     76  C   UNL A   1      35.764  31.085  29.132  1.00  0.00     0.188 C 
BRANCH  76  77
ATOM     77  O   UNL A   1      34.488  31.607  28.757  1.00  0.00    -0.376 OA
BRANCH  77  78
ATOM     78  C   UNL A   1      34.105  31.317  27.415  1.00  0.00     0.202 C 
BRANCH  78  79
ATOM     79  C   UNL A   1      32.902  30.376  27.354  1.00  0.00     0.261 C 
BRANCH  79  80
ATOM     80  O   UNL A   1      33.260  29.036  26.965  1.00  0.00    -0.461 OA
BRANCH  80  81
ATOM     81  C   UNL A   1      32.367  28.034  27.190  1.00  0.00     0.335 C 
ATOM     82  O   UNL A   1      31.507  28.054  28.060  1.00  0.00    -0.249 OA
BRANCH  81  83
ATOM     83  C   UNL A   1      32.580  26.924  26.143  1.00  0.00     0.232 C 
ATOM     84  C   UNL A   1      31.759  25.677  26.386  1.00  0.00     0.087 C 
ATOM     85  O   UNL A   1      32.290  27.416  24.840  1.00  0.00    -0.355 OA
ATOM     86  C   UNL A   1      31.078  25.319  25.055  1.00  0.00     0.124 C 
ATOM     87  C   UNL A   1      31.425  26.518  24.119  1.00  0.00     0.187 C 
BRANCH  86  88
ATOM     88  C   UNL A   1      31.399  23.853  24.703  1.00  0.00     0.005 A 
ATOM     89  C   UNL A   1      31.936  23.650  23.398  1.00  0.00     0.008 A 
ATOM     90  C   UNL A   1      31.212  22.688  25.470  1.00  0.00     0.047 A 
ATOM     91  C   UNL A   1      32.315  22.397  22.912  1.00  0.00     0.001 A 
ATOM     92  C   UNL A   1      31.639  21.432  24.994  1.00  0.00     0.021 A 
ATOM     93  Cl  UNL A   1      30.379  22.595  26.976  1.00  0.00    -0.084 Cl
ATOM     94  C   UNL A   1      32.190  21.284  23.725  1.00  0.00     0.002 A 
ENDBRANCH  86  88
BRANCH  86  95
ATOM     95  O   UNL A   1      29.658  25.326  25.340  1.00  0.00    -0.382 OA
ATOM     96  H   UNL A   1      29.192  25.823  24.649  1.00  0.00     0.212 HD
ENDBRANCH  86  95
BRANCH  87  97
ATOM     97  C   UNL A   1      30.282  27.356  23.550  1.00  0.00     0.003 A 
ATOM     98  C   UNL A   1      28.947  26.988  23.814  1.00  0.00     0.008 A 
ATOM     99  C   UNL A   1      30.494  28.522  22.788  1.00  0.00     0.046 A 
ATOM    100  C   UNL A   1      27.875  27.773  23.382  1.00  0.00     0.000 A 
ATOM    101  C   UNL A   1      29.417  29.306  22.356  1.00  0.00     0.021 A 
ATOM    102  Cl  UNL A   1      32.071  29.068  22.338  1.00  0.00    -0.084 Cl
ATOM    103  C   UNL A   1      28.109  28.938  22.660  1.00  0.00     0.002 A 
ENDBRANCH  87  97
ENDBRANCH  81  83
ENDBRANCH  80  81
ENDBRANCH  79  80
ENDBRANCH  78  79
ENDBRANCH  77  78
ENDBRANCH  76  77
ENDBRANCH  75  76
ENDBRANCH  74  75
ENDBRANCH   1  74
TORSDOF 26
ENDMDL
