MODEL 1
REMARK VINA RESULT:      -7.3      0.000      0.000
REMARK SMILES O=C(/C=C/C(=O)OCCOCCOCCOCCOC(=O)c1ccc(-c2c3nc(c(-c4cc(S(=O)(=O)[O-])ccc4F)c4ccc([nH]4)c(-c4cc(S(=O)(=O)[O-])ccc4F)c4nc(c(-c5cc(S(=O)(=O)[O-])ccc5F)c5ccc2[nH]5)C=C4)C=C3)cc1)NCc1ccc(-c2cccs2)s1
REMARK SMILES IDX 12 1 11 2 10 3 9 4 8 5 7 6 5 7 6 8 4 9 3 10 2 11 1 12 85 13
REMARK SMILES IDX 86 15 87 16 88 17 96 18 89 19 90 20 91 21 92 22 95 23 93 24
REMARK SMILES IDX 94 25 13 26 14 27 15 28 16 29 17 30 18 31 19 32 20 33 21 34
REMARK SMILES IDX 22 35 23 36 84 37 24 38 83 39 25 40 26 41 27 42 77 43 28 44
REMARK SMILES IDX 82 45 76 46 78 47 29 48 81 49 75 50 74 51 30 53 62 54 42 55
REMARK SMILES IDX 61 56 43 57 46 58 60 59 79 60 44 61 45 62 59 64 80 65 47 66
REMARK SMILES IDX 31 67 32 68 40 69 33 70 39 71 41 72 38 73 34 74 35 75 36 76
REMARK SMILES IDX 37 77 63 78 64 79 72 80 65 81 71 82 73 83 70 84 66 85 67 86
REMARK SMILES IDX 68 87 69 88 48 89 49 90 57 91 50 92 56 93 58 94 55 95 51 96
REMARK SMILES IDX 52 97 53 98 54 99
REMARK H PARENT 85 14 78 52 46 63
REMARK Flexibility Score: inf
ROOT
ATOM      1  C   UNL A   1      46.374  26.414  24.730  1.00  0.00     0.188 C 
ENDROOT
BRANCH   1   2
ATOM      2  C   UNL A   1      46.458  27.338  25.957  1.00  0.00     0.188 C 
BRANCH   2   3
ATOM      3  O   UNL A   1      45.389  28.243  26.141  1.00  0.00    -0.376 OA
BRANCH   3   4
ATOM      4  C   UNL A   1      45.369  29.222  27.166  1.00  0.00     0.202 C 
BRANCH   4   5
ATOM      5  C   UNL A   1      44.338  30.352  27.358  1.00  0.00     0.261 C 
BRANCH   5   6
ATOM      6  O   UNL A   1      44.808  31.636  27.755  1.00  0.00    -0.460 OA
BRANCH   6   7
ATOM      7  C   UNL A   1      45.338  32.421  26.802  1.00  0.00     0.331 C 
ATOM      8  O   UNL A   1      46.383  32.237  26.199  1.00  0.00    -0.247 OA
BRANCH   7   9
ATOM      9  C   UNL A   1      44.384  33.485  26.423  1.00  0.00     0.099 C 
ATOM     10  C   UNL A   1      44.273  34.655  27.070  1.00  0.00     0.078 C 
BRANCH  10  11
ATOM     11  C   UNL A   1      43.302  35.705  26.684  1.00  0.00     0.244 C 
ATOM     12  O   UNL A   1      42.659  35.598  25.649  1.00  0.00    -0.270 OA
ATOM     13  N   UNL A   1      43.212  36.770  27.542  1.00  0.00    -0.348 N 
ATOM     14  H   UNL A   1      43.915  36.907  28.216  1.00  0.00     0.164 HD
BRANCH  13  15
ATOM     15  C   UNL A   1      42.105  37.696  27.476  1.00  0.00     0.163 C 
BRANCH  15  16
ATOM     16  C   UNL A   1      42.416  38.949  28.259  1.00  0.00     0.024 A 
ATOM     17  C   UNL A   1      41.515  39.864  28.772  1.00  0.00     0.018 A 
ATOM     18  S   UNL A   1      44.022  39.388  28.674  1.00  0.00    -0.138 S 
ATOM     19  C   UNL A   1      42.151  40.908  29.515  1.00  0.00     0.022 A 
ATOM     20  C   UNL A   1      43.524  40.773  29.536  1.00  0.00     0.045 A 
BRANCH  20  21
ATOM     21  C   UNL A   1      44.498  41.604  30.190  1.00  0.00     0.044 A 
ATOM     22  C   UNL A   1      45.839  41.328  30.381  1.00  0.00     0.021 A 
ATOM     23  S   UNL A   1      44.061  43.098  30.906  1.00  0.00    -0.143 S 
ATOM     24  C   UNL A   1      46.497  42.329  31.152  1.00  0.00     0.012 A 
ATOM     25  C   UNL A   1      45.638  43.339  31.522  1.00  0.00     0.065 A 
ENDBRANCH  20  21
ENDBRANCH  15  16
ENDBRANCH  13  15
ENDBRANCH  10  11
ENDBRANCH   7   9
ENDBRANCH   6   7
ENDBRANCH   5   6
ENDBRANCH   4   5
ENDBRANCH   3   4
ENDBRANCH   2   3
ENDBRANCH   1   2
BRANCH   1  26
ATOM     26  O   UNL A   1      45.637  25.229  24.953  1.00  0.00    -0.377 OA
BRANCH  26  27
ATOM     27  C   UNL A   1      46.351  24.019  25.207  1.00  0.00     0.188 C 
BRANCH  27  28
ATOM     28  C   UNL A   1      46.352  22.844  24.201  1.00  0.00     0.188 C 
BRANCH  28  29
ATOM     29  O   UNL A   1      45.291  21.914  24.372  1.00  0.00    -0.376 OA
BRANCH  29  30
ATOM     30  C   UNL A   1      45.551  20.731  25.108  1.00  0.00     0.202 C 
BRANCH  30  31
ATOM     31  C   UNL A   1      44.390  19.733  25.227  1.00  0.00     0.261 C 
BRANCH  31  32
ATOM     32  O   UNL A   1      43.078  20.270  25.006  1.00  0.00    -0.460 OA
BRANCH  32  33
ATOM     33  C   UNL A   1      42.215  20.229  26.045  1.00  0.00     0.338 C 
ATOM     34  O   UNL A   1      41.650  19.239  26.485  1.00  0.00    -0.246 OA
BRANCH  33  35
ATOM     35  C   UNL A   1      42.216  21.560  26.683  1.00  0.00     0.060 A 
ATOM     36  C   UNL A   1      42.333  22.702  25.881  1.00  0.00     0.016 A 
ATOM     37  C   UNL A   1      42.093  21.679  28.071  1.00  0.00     0.016 A 
ATOM     38  C   UNL A   1      42.363  23.968  26.468  1.00  0.00     0.010 A 
ATOM     39  C   UNL A   1      42.140  22.946  28.658  1.00  0.00     0.010 A 
ATOM     40  C   UNL A   1      42.310  24.094  27.864  1.00  0.00    -0.014 A 
BRANCH  40  41
ATOM     41  C   UNL A   1      42.635  25.394  28.504  1.00  0.00     0.031 A 
ATOM     42  C   UNL A   1      44.076  25.683  28.833  1.00  0.00     0.074 A 
ATOM     43  C   UNL A   1      41.685  26.306  28.775  1.00  0.00     0.049 A 
ATOM     44  N   UNL A   1      44.602  26.704  29.458  1.00  0.00    -0.248 NA
ATOM     45  C   UNL A   1      45.054  24.670  28.402  1.00  0.00     0.031 C 
ATOM     46  C   UNL A   1      40.265  26.166  28.456  1.00  0.00     0.029 A 
ATOM     47  N   UNL A   1      41.771  27.530  29.392  1.00  0.00    -0.354 N 
ATOM     48  C   UNL A   1      45.969  26.456  29.502  1.00  0.00     0.074 A 
ATOM     49  C   UNL A   1      46.185  25.168  28.878  1.00  0.00     0.031 C 
ATOM     50  C   UNL A   1      39.612  27.259  28.889  1.00  0.00     0.029 A 
ATOM     51  C   UNL A   1      40.557  28.155  29.558  1.00  0.00     0.049 A 
ATOM     52  H   UNL A   1      42.623  27.925  29.688  1.00  0.00     0.167 HD
ATOM     53  C   UNL A   1      46.956  27.234  30.010  1.00  0.00     0.034 A 
ATOM     54  C   UNL A   1      40.242  29.299  30.201  1.00  0.00     0.034 A 
ATOM     55  C   UNL A   1      46.723  28.508  30.644  1.00  0.00     0.049 A 
ATOM     56  C   UNL A   1      41.346  30.101  30.854  1.00  0.00     0.074 A 
ATOM     57  C   UNL A   1      47.649  29.383  31.185  1.00  0.00     0.029 A 
ATOM     58  N   UNL A   1      45.474  29.084  30.839  1.00  0.00    -0.354 N 
ATOM     59  N   UNL A   1      42.638  29.860  30.886  1.00  0.00    -0.248 NA
ATOM     60  C   UNL A   1      40.950  31.332  31.551  1.00  0.00     0.031 C 
ATOM     61  C   UNL A   1      46.956  30.442  31.781  1.00  0.00     0.029 A 
ATOM     62  C   UNL A   1      45.603  30.282  31.527  1.00  0.00     0.049 A 
ATOM     63  H   UNL A   1      44.621  28.698  30.534  1.00  0.00     0.167 HD
ATOM     64  C   UNL A   1      43.208  30.931  31.573  1.00  0.00     0.074 A 
ATOM     65  C   UNL A   1      42.123  31.821  31.925  1.00  0.00     0.031 C 
ATOM     66  C   UNL A   1      44.512  31.162  31.878  1.00  0.00     0.034 A 
BRANCH  53  67
ATOM     67  C   UNL A   1      48.367  26.696  29.951  1.00  0.00     0.023 A 
ATOM     68  C   UNL A   1      49.180  26.864  28.817  1.00  0.00     0.031 A 
ATOM     69  C   UNL A   1      48.894  25.973  31.037  1.00  0.00     0.131 A 
ATOM     70  C   UNL A   1      50.444  26.258  28.765  1.00  0.00     0.055 A 
ATOM     71  C   UNL A   1      50.187  25.448  31.013  1.00  0.00     0.041 A 
ATOM     72  F   UNL A   1      48.156  25.754  32.136  1.00  0.00    -0.206 F 
ATOM     73  C   UNL A   1      50.965  25.575  29.867  1.00  0.00     0.022 A 
BRANCH  70  74
ATOM     74  S   UNL A   1      51.334  26.244  27.185  1.00  0.00     0.124 S 
ATOM     75  O   UNL A   1      52.615  26.835  27.562  1.00  0.00    -0.237 OA
ATOM     76  O   UNL A   1      51.357  24.825  26.849  1.00  0.00    -0.237 OA
ATOM     77  O   UNL A   1      50.504  27.078  26.316  1.00  0.00    -0.744 OA
ENDBRANCH  70  74
ENDBRANCH  53  67
BRANCH  54  78
ATOM     78  C   UNL A   1      38.820  29.744  30.310  1.00  0.00     0.023 A 
ATOM     79  C   UNL A   1      38.312  30.764  29.492  1.00  0.00     0.031 A 
ATOM     80  C   UNL A   1      37.967  29.200  31.288  1.00  0.00     0.131 A 
ATOM     81  C   UNL A   1      37.008  31.244  29.697  1.00  0.00     0.055 A 
ATOM     82  C   UNL A   1      36.650  29.638  31.448  1.00  0.00     0.041 A 
ATOM     83  F   UNL A   1      38.403  28.229  32.106  1.00  0.00    -0.206 F 
ATOM     84  C   UNL A   1      36.169  30.677  30.659  1.00  0.00     0.022 A 
BRANCH  81  85
ATOM     85  S   UNL A   1      36.457  32.696  28.758  1.00  0.00     0.124 S 
ATOM     86  O   UNL A   1      35.788  32.075  27.621  1.00  0.00    -0.237 OA
ATOM     87  O   UNL A   1      35.594  33.370  29.722  1.00  0.00    -0.237 OA
ATOM     88  O   UNL A   1      37.703  33.392  28.445  1.00  0.00    -0.744 OA
ENDBRANCH  81  85
ENDBRANCH  54  78
BRANCH  66  89
ATOM     89  C   UNL A   1      44.845  32.460  32.576  1.00  0.00     0.023 A 
ATOM     90  C   UNL A   1      44.754  32.602  33.973  1.00  0.00     0.031 A 
ATOM     91  C   UNL A   1      45.261  33.576  31.827  1.00  0.00     0.131 A 
ATOM     92  C   UNL A   1      45.018  33.847  34.567  1.00  0.00     0.055 A 
ATOM     93  C   UNL A   1      45.590  34.790  32.431  1.00  0.00     0.041 A 
ATOM     94  F   UNL A   1      45.362  33.502  30.489  1.00  0.00    -0.206 F 
ATOM     95  C   UNL A   1      45.457  34.934  33.808  1.00  0.00     0.022 A 
BRANCH  92  96
ATOM     96  S   UNL A   1      44.682  34.057  36.337  1.00  0.00     0.124 S 
ATOM     97  O   UNL A   1      45.186  32.805  36.892  1.00  0.00    -0.237 OA
ATOM     98  O   UNL A   1      45.453  35.253  36.662  1.00  0.00    -0.237 OA
ATOM     99  O   UNL A   1      43.231  34.220  36.395  1.00  0.00    -0.744 OA
ENDBRANCH  92  96
ENDBRANCH  66  89
ENDBRANCH  40  41
ENDBRANCH  33  35
ENDBRANCH  32  33
ENDBRANCH  31  32
ENDBRANCH  30  31
ENDBRANCH  29  30
ENDBRANCH  28  29
ENDBRANCH  27  28
ENDBRANCH  26  27
ENDBRANCH   1  26
TORSDOF 27
ENDMDL
MODEL 2
REMARK VINA RESULT:      -6.9      1.933      2.471
REMARK SMILES O=C(/C=C/C(=O)OCCOCCOCCOCCOC(=O)c1ccc(-c2c3nc(c(-c4cc(S(=O)(=O)[O-])ccc4F)c4ccc([nH]4)c(-c4cc(S(=O)(=O)[O-])ccc4F)c4nc(c(-c5cc(S(=O)(=O)[O-])ccc5F)c5ccc2[nH]5)C=C4)C=C3)cc1)NCc1ccc(-c2cccs2)s1
REMARK SMILES IDX 12 1 11 2 10 3 9 4 8 5 7 6 5 7 6 8 4 9 3 10 2 11 1 12 85 13
REMARK SMILES IDX 86 15 87 16 88 17 96 18 89 19 90 20 91 21 92 22 95 23 93 24
REMARK SMILES IDX 94 25 13 26 14 27 15 28 16 29 17 30 18 31 19 32 20 33 21 34
REMARK SMILES IDX 22 35 23 36 84 37 24 38 83 39 25 40 26 41 27 42 77 43 28 44
REMARK SMILES IDX 82 45 76 46 78 47 29 48 81 49 75 50 74 51 30 53 62 54 42 55
REMARK SMILES IDX 61 56 43 57 46 58 60 59 79 60 44 61 45 62 59 64 80 65 47 66
REMARK SMILES IDX 31 67 32 68 40 69 33 70 39 71 41 72 38 73 34 74 35 75 36 76
REMARK SMILES IDX 37 77 63 78 64 79 72 80 65 81 71 82 73 83 70 84 66 85 67 86
REMARK SMILES IDX 68 87 69 88 48 89 49 90 57 91 50 92 56 93 58 94 55 95 51 96
REMARK SMILES IDX 52 97 53 98 54 99
REMARK H PARENT 85 14 78 52 46 63
REMARK Flexibility Score: inf
ROOT
ATOM      1  C   UNL A   1      46.609  26.343  24.796  1.00  0.00     0.188 C 
ENDROOT
BRANCH   1   2
ATOM      2  C   UNL A   1      46.674  27.300  25.999  1.00  0.00     0.188 C 
BRANCH   2   3
ATOM      3  O   UNL A   1      45.694  28.316  26.050  1.00  0.00    -0.376 OA
BRANCH   3   4
ATOM      4  C   UNL A   1      45.751  29.403  26.960  1.00  0.00     0.202 C 
BRANCH   4   5
ATOM      5  C   UNL A   1      44.834  30.642  26.992  1.00  0.00     0.261 C 
BRANCH   5   6
ATOM      6  O   UNL A   1      45.425  31.914  27.235  1.00  0.00    -0.460 OA
BRANCH   6   7
ATOM      7  C   UNL A   1      45.157  32.898  26.358  1.00  0.00     0.331 C 
ATOM      8  O   UNL A   1      44.117  33.065  25.742  1.00  0.00    -0.247 OA
BRANCH   7   9
ATOM      9  C   UNL A   1      46.245  33.898  26.359  1.00  0.00     0.099 C 
ATOM     10  C   UNL A   1      46.788  34.412  27.473  1.00  0.00     0.078 C 
BRANCH  10  11
ATOM     11  C   UNL A   1      47.870  35.423  27.454  1.00  0.00     0.244 C 
ATOM     12  O   UNL A   1      48.983  35.143  27.880  1.00  0.00    -0.270 OA
ATOM     13  N   UNL A   1      47.521  36.652  26.959  1.00  0.00    -0.348 N 
ATOM     14  H   UNL A   1      46.569  36.878  26.859  1.00  0.00     0.164 HD
BRANCH  13  15
ATOM     15  C   UNL A   1      48.522  37.623  26.581  1.00  0.00     0.163 C 
BRANCH  15  16
ATOM     16  C   UNL A   1      47.912  38.999  26.479  1.00  0.00     0.024 A 
ATOM     17  C   UNL A   1      48.250  40.124  27.211  1.00  0.00     0.018 A 
ATOM     18  S   UNL A   1      46.685  39.370  25.339  1.00  0.00    -0.138 S 
ATOM     19  C   UNL A   1      47.509  41.282  26.815  1.00  0.00     0.022 A 
ATOM     20  C   UNL A   1      46.612  41.009  25.804  1.00  0.00     0.045 A 
BRANCH  20  21
ATOM     21  C   UNL A   1      45.714  41.910  25.133  1.00  0.00     0.044 A 
ATOM     22  C   UNL A   1      44.468  42.324  25.567  1.00  0.00     0.021 A 
ATOM     23  S   UNL A   1      46.087  42.563  23.594  1.00  0.00    -0.143 S 
ATOM     24  C   UNL A   1      43.805  43.148  24.613  1.00  0.00     0.012 A 
ATOM     25  C   UNL A   1      44.567  43.339  23.482  1.00  0.00     0.065 A 
ENDBRANCH  20  21
ENDBRANCH  15  16
ENDBRANCH  13  15
ENDBRANCH  10  11
ENDBRANCH   7   9
ENDBRANCH   6   7
ENDBRANCH   5   6
ENDBRANCH   4   5
ENDBRANCH   3   4
ENDBRANCH   2   3
ENDBRANCH   1   2
BRANCH   1  26
ATOM     26  O   UNL A   1      45.748  25.239  24.986  1.00  0.00    -0.377 OA
BRANCH  26  27
ATOM     27  C   UNL A   1      46.327  23.955  25.225  1.00  0.00     0.188 C 
BRANCH  27  28
ATOM     28  C   UNL A   1      46.375  22.865  24.129  1.00  0.00     0.188 C 
BRANCH  28  29
ATOM     29  O   UNL A   1      45.326  21.907  24.196  1.00  0.00    -0.376 OA
BRANCH  29  30
ATOM     30  C   UNL A   1      45.590  20.672  24.839  1.00  0.00     0.202 C 
BRANCH  30  31
ATOM     31  C   UNL A   1      44.411  19.694  24.943  1.00  0.00     0.261 C 
BRANCH  31  32
ATOM     32  O   UNL A   1      43.104  20.285  24.944  1.00  0.00    -0.460 OA
BRANCH  32  33
ATOM     33  C   UNL A   1      42.391  20.196  26.088  1.00  0.00     0.338 C 
ATOM     34  O   UNL A   1      41.977  19.173  26.611  1.00  0.00    -0.246 OA
BRANCH  33  35
ATOM     35  C   UNL A   1      42.359  21.538  26.703  1.00  0.00     0.060 A 
ATOM     36  C   UNL A   1      42.421  22.669  25.879  1.00  0.00     0.016 A 
ATOM     37  C   UNL A   1      42.257  21.677  28.090  1.00  0.00     0.016 A 
ATOM     38  C   UNL A   1      42.419  23.945  26.444  1.00  0.00     0.010 A 
ATOM     39  C   UNL A   1      42.272  22.956  28.654  1.00  0.00     0.010 A 
ATOM     40  C   UNL A   1      42.388  24.095  27.837  1.00  0.00    -0.014 A 
BRANCH  40  41
ATOM     41  C   UNL A   1      42.680  25.416  28.448  1.00  0.00     0.031 A 
ATOM     42  C   UNL A   1      44.112  25.743  28.781  1.00  0.00     0.074 A 
ATOM     43  C   UNL A   1      41.708  26.314  28.691  1.00  0.00     0.049 A 
ATOM     44  N   UNL A   1      44.611  26.789  29.385  1.00  0.00    -0.248 NA
ATOM     45  C   UNL A   1      45.114  24.742  28.382  1.00  0.00     0.031 C 
ATOM     46  C   UNL A   1      40.295  26.135  28.365  1.00  0.00     0.029 A 
ATOM     47  N   UNL A   1      41.764  27.554  29.279  1.00  0.00    -0.354 N 
ATOM     48  C   UNL A   1      45.983  26.572  29.446  1.00  0.00     0.074 A 
ATOM     49  C   UNL A   1      46.231  25.274  28.854  1.00  0.00     0.031 C 
ATOM     50  C   UNL A   1      39.615  27.225  28.767  1.00  0.00     0.029 A 
ATOM     51  C   UNL A   1      40.536  28.156  29.420  1.00  0.00     0.049 A 
ATOM     52  H   UNL A   1      42.605  27.973  29.572  1.00  0.00     0.167 HD
ATOM     53  C   UNL A   1      46.949  27.383  29.942  1.00  0.00     0.034 A 
ATOM     54  C   UNL A   1      40.191  29.308  30.034  1.00  0.00     0.034 A 
ATOM     55  C   UNL A   1      46.684  28.666  30.544  1.00  0.00     0.049 A 
ATOM     56  C   UNL A   1      41.273  30.149  30.675  1.00  0.00     0.074 A 
ATOM     57  C   UNL A   1      47.587  29.574  31.070  1.00  0.00     0.029 A 
ATOM     58  N   UNL A   1      45.421  29.220  30.716  1.00  0.00    -0.354 N 
ATOM     59  N   UNL A   1      42.570  29.936  30.723  1.00  0.00    -0.248 NA
ATOM     60  C   UNL A   1      40.846  31.387  31.340  1.00  0.00     0.031 C 
ATOM     61  C   UNL A   1      46.867  30.631  31.636  1.00  0.00     0.029 A 
ATOM     62  C   UNL A   1      45.520  30.436  31.375  1.00  0.00     0.049 A 
ATOM     63  H   UNL A   1      44.580  28.809  30.414  1.00  0.00     0.167 HD
ATOM     64  C   UNL A   1      43.112  31.036  31.388  1.00  0.00     0.074 A 
ATOM     65  C   UNL A   1      42.005  31.911  31.711  1.00  0.00     0.031 C 
ATOM     66  C   UNL A   1      44.408  31.301  31.697  1.00  0.00     0.034 A 
BRANCH  53  67
ATOM     67  C   UNL A   1      48.371  26.873  29.907  1.00  0.00     0.023 A 
ATOM     68  C   UNL A   1      49.246  27.185  28.852  1.00  0.00     0.031 A 
ATOM     69  C   UNL A   1      48.848  26.035  30.931  1.00  0.00     0.131 A 
ATOM     70  C   UNL A   1      50.523  26.606  28.806  1.00  0.00     0.055 A 
ATOM     71  C   UNL A   1      50.150  25.533  30.925  1.00  0.00     0.041 A 
ATOM     72  F   UNL A   1      48.051  25.678  31.950  1.00  0.00    -0.206 F 
ATOM     73  C   UNL A   1      50.991  25.805  29.850  1.00  0.00     0.022 A 
BRANCH  70  74
ATOM     74  S   UNL A   1      51.504  26.790  27.292  1.00  0.00     0.124 S 
ATOM     75  O   UNL A   1      52.220  25.517  27.248  1.00  0.00    -0.237 OA
ATOM     76  O   UNL A   1      50.480  26.984  26.273  1.00  0.00    -0.237 OA
ATOM     77  O   UNL A   1      52.343  27.956  27.566  1.00  0.00    -0.744 OA
ENDBRANCH  70  74
ENDBRANCH  53  67
BRANCH  54  78
ATOM     78  C   UNL A   1      38.760  29.725  30.121  1.00  0.00     0.023 A 
ATOM     79  C   UNL A   1      38.273  30.816  29.385  1.00  0.00     0.031 A 
ATOM     80  C   UNL A   1      37.872  29.079  31.003  1.00  0.00     0.131 A 
ATOM     81  C   UNL A   1      36.954  31.259  29.577  1.00  0.00     0.055 A 
ATOM     82  C   UNL A   1      36.544  29.485  31.145  1.00  0.00     0.041 A 
ATOM     83  F   UNL A   1      38.287  28.036  31.740  1.00  0.00    -0.206 F 
ATOM     84  C   UNL A   1      36.082  30.591  30.440  1.00  0.00     0.022 A 
BRANCH  81  85
ATOM     85  S   UNL A   1      36.424  32.791  28.761  1.00  0.00     0.124 S 
ATOM     86  O   UNL A   1      35.523  33.359  29.757  1.00  0.00    -0.237 OA
ATOM     87  O   UNL A   1      37.691  33.487  28.570  1.00  0.00    -0.237 OA
ATOM     88  O   UNL A   1      35.782  32.319  27.536  1.00  0.00    -0.744 OA
ENDBRANCH  81  85
ENDBRANCH  54  78
BRANCH  66  89
ATOM     89  C   UNL A   1      44.707  32.622  32.367  1.00  0.00     0.023 A 
ATOM     90  C   UNL A   1      44.717  32.766  33.766  1.00  0.00     0.031 A 
ATOM     91  C   UNL A   1      44.989  33.759  31.586  1.00  0.00     0.131 A 
ATOM     92  C   UNL A   1      44.944  34.029  34.337  1.00  0.00     0.055 A 
ATOM     93  C   UNL A   1      45.284  34.995  32.162  1.00  0.00     0.041 A 
ATOM     94  F   UNL A   1      44.990  33.685  30.245  1.00  0.00    -0.206 F 
ATOM     95  C   UNL A   1      45.249  35.138  33.546  1.00  0.00     0.022 A 
BRANCH  92  96
ATOM     96  S   UNL A   1      44.734  34.226  36.128  1.00  0.00     0.124 S 
ATOM     97  O   UNL A   1      45.508  35.435  36.392  1.00  0.00    -0.237 OA
ATOM     98  O   UNL A   1      43.286  34.355  36.261  1.00  0.00    -0.237 OA
ATOM     99  O   UNL A   1      45.300  32.996  36.678  1.00  0.00    -0.744 OA
ENDBRANCH  92  96
ENDBRANCH  66  89
ENDBRANCH  40  41
ENDBRANCH  33  35
ENDBRANCH  32  33
ENDBRANCH  31  32
ENDBRANCH  30  31
ENDBRANCH  29  30
ENDBRANCH  28  29
ENDBRANCH  27  28
ENDBRANCH  26  27
ENDBRANCH   1  26
TORSDOF 27
ENDMDL
MODEL 3
REMARK VINA RESULT:      -6.8      2.662      3.011
REMARK SMILES O=C(/C=C/C(=O)OCCOCCOCCOCCOC(=O)c1ccc(-c2c3nc(c(-c4cc(S(=O)(=O)[O-])ccc4F)c4ccc([nH]4)c(-c4cc(S(=O)(=O)[O-])ccc4F)c4nc(c(-c5cc(S(=O)(=O)[O-])ccc5F)c5ccc2[nH]5)C=C4)C=C3)cc1)NCc1ccc(-c2cccs2)s1
REMARK SMILES IDX 12 1 11 2 10 3 9 4 8 5 7 6 5 7 6 8 4 9 3 10 2 11 1 12 85 13
REMARK SMILES IDX 86 15 87 16 88 17 96 18 89 19 90 20 91 21 92 22 95 23 93 24
REMARK SMILES IDX 94 25 13 26 14 27 15 28 16 29 17 30 18 31 19 32 20 33 21 34
REMARK SMILES IDX 22 35 23 36 84 37 24 38 83 39 25 40 26 41 27 42 77 43 28 44
REMARK SMILES IDX 82 45 76 46 78 47 29 48 81 49 75 50 74 51 30 53 62 54 42 55
REMARK SMILES IDX 61 56 43 57 46 58 60 59 79 60 44 61 45 62 59 64 80 65 47 66
REMARK SMILES IDX 31 67 32 68 40 69 33 70 39 71 41 72 38 73 34 74 35 75 36 76
REMARK SMILES IDX 37 77 63 78 64 79 72 80 65 81 71 82 73 83 70 84 66 85 67 86
REMARK SMILES IDX 68 87 69 88 48 89 49 90 57 91 50 92 56 93 58 94 55 95 51 96
REMARK SMILES IDX 52 97 53 98 54 99
REMARK H PARENT 85 14 78 52 46 63
REMARK Flexibility Score: inf
ROOT
ATOM      1  C   UNL A   1      46.405  26.935  24.871  1.00  0.00     0.188 C 
ENDROOT
BRANCH   1   2
ATOM      2  C   UNL A   1      46.813  27.773  26.095  1.00  0.00     0.188 C 
BRANCH   2   3
ATOM      3  O   UNL A   1      47.110  29.133  25.859  1.00  0.00    -0.376 OA
BRANCH   3   4
ATOM      4  C   UNL A   1      46.256  30.194  26.253  1.00  0.00     0.202 C 
BRANCH   4   5
ATOM      5  C   UNL A   1      46.626  31.682  26.409  1.00  0.00     0.261 C 
BRANCH   5   6
ATOM      6  O   UNL A   1      45.705  32.661  25.941  1.00  0.00    -0.460 OA
BRANCH   6   7
ATOM      7  C   UNL A   1      44.527  32.757  26.583  1.00  0.00     0.331 C 
ATOM      8  O   UNL A   1      44.065  31.962  27.386  1.00  0.00    -0.247 OA
BRANCH   7   9
ATOM      9  C   UNL A   1      43.911  34.077  26.333  1.00  0.00     0.099 C 
ATOM     10  C   UNL A   1      44.174  35.175  27.058  1.00  0.00     0.078 C 
BRANCH  10  11
ATOM     11  C   UNL A   1      43.537  36.487  26.800  1.00  0.00     0.244 C 
ATOM     12  O   UNL A   1      42.359  36.547  26.474  1.00  0.00    -0.270 OA
ATOM     13  N   UNL A   1      44.357  37.577  26.930  1.00  0.00    -0.348 N 
ATOM     14  H   UNL A   1      45.332  37.446  26.957  1.00  0.00     0.164 HD
BRANCH  13  15
ATOM     15  C   UNL A   1      43.820  38.915  27.026  1.00  0.00     0.163 C 
BRANCH  15  16
ATOM     16  C   UNL A   1      44.677  39.886  26.251  1.00  0.00     0.024 A 
ATOM     17  C   UNL A   1      45.938  39.661  25.729  1.00  0.00     0.018 A 
ATOM     18  S   UNL A   1      44.136  41.465  25.857  1.00  0.00    -0.138 S 
ATOM     19  C   UNL A   1      46.440  40.782  24.997  1.00  0.00     0.022 A 
ATOM     20  C   UNL A   1      45.557  41.842  24.993  1.00  0.00     0.045 A 
BRANCH  20  21
ATOM     21  C   UNL A   1      45.694  43.122  24.352  1.00  0.00     0.044 A 
ATOM     22  C   UNL A   1      44.813  44.186  24.414  1.00  0.00     0.021 A 
ATOM     23  S   UNL A   1      47.021  43.470  23.326  1.00  0.00    -0.143 S 
ATOM     24  C   UNL A   1      45.212  45.273  23.584  1.00  0.00     0.012 A 
ATOM     25  C   UNL A   1      46.386  45.005  22.917  1.00  0.00     0.065 A 
ENDBRANCH  20  21
ENDBRANCH  15  16
ENDBRANCH  13  15
ENDBRANCH  10  11
ENDBRANCH   7   9
ENDBRANCH   6   7
ENDBRANCH   5   6
ENDBRANCH   4   5
ENDBRANCH   3   4
ENDBRANCH   2   3
ENDBRANCH   1   2
BRANCH   1  26
ATOM     26  O   UNL A   1      45.737  25.732  25.194  1.00  0.00    -0.377 OA
BRANCH  26  27
ATOM     27  C   UNL A   1      46.492  24.521  25.232  1.00  0.00     0.188 C 
BRANCH  27  28
ATOM     28  C   UNL A   1      46.568  23.569  24.016  1.00  0.00     0.188 C 
BRANCH  28  29
ATOM     29  O   UNL A   1      45.685  22.456  24.075  1.00  0.00    -0.376 OA
BRANCH  29  30
ATOM     30  C   UNL A   1      45.756  21.606  25.207  1.00  0.00     0.202 C 
BRANCH  30  31
ATOM     31  C   UNL A   1      44.648  20.550  25.336  1.00  0.00     0.261 C 
BRANCH  31  32
ATOM     32  O   UNL A   1      43.330  20.977  24.965  1.00  0.00    -0.460 OA
BRANCH  32  33
ATOM     33  C   UNL A   1      42.369  20.894  25.911  1.00  0.00     0.338 C 
ATOM     34  O   UNL A   1      41.706  19.908  26.191  1.00  0.00    -0.246 OA
BRANCH  33  35
ATOM     35  C   UNL A   1      42.388  22.153  26.682  1.00  0.00     0.060 A 
ATOM     36  C   UNL A   1      42.439  23.373  25.996  1.00  0.00     0.016 A 
ATOM     37  C   UNL A   1      42.344  22.127  28.078  1.00  0.00     0.016 A 
ATOM     38  C   UNL A   1      42.485  24.572  26.708  1.00  0.00     0.010 A 
ATOM     39  C   UNL A   1      42.407  23.328  28.790  1.00  0.00     0.010 A 
ATOM     40  C   UNL A   1      42.512  24.555  28.110  1.00  0.00    -0.014 A 
BRANCH  40  41
ATOM     41  C   UNL A   1      42.855  25.789  28.861  1.00  0.00     0.031 A 
ATOM     42  C   UNL A   1      44.302  26.040  29.192  1.00  0.00     0.074 A 
ATOM     43  C   UNL A   1      41.914  26.676  29.231  1.00  0.00     0.049 A 
ATOM     44  N   UNL A   1      44.843  26.997  29.899  1.00  0.00    -0.248 NA
ATOM     45  C   UNL A   1      45.267  25.068  28.653  1.00  0.00     0.031 C 
ATOM     46  C   UNL A   1      40.488  26.571  28.924  1.00  0.00     0.029 A 
ATOM     47  N   UNL A   1      42.017  27.837  29.957  1.00  0.00    -0.354 N 
ATOM     48  C   UNL A   1      46.210  26.741  29.898  1.00  0.00     0.074 A 
ATOM     49  C   UNL A   1      46.408  25.515  29.154  1.00  0.00     0.031 C 
ATOM     50  C   UNL A   1      39.848  27.623  29.466  1.00  0.00     0.029 A 
ATOM     51  C   UNL A   1      40.809  28.449  30.198  1.00  0.00     0.049 A 
ATOM     52  H   UNL A   1      42.875  28.200  30.273  1.00  0.00     0.167 HD
ATOM     53  C   UNL A   1      47.209  27.465  30.459  1.00  0.00     0.034 A 
ATOM     54  C   UNL A   1      40.510  29.530  30.949  1.00  0.00     0.034 A 
ATOM     55  C   UNL A   1      46.993  28.676  31.211  1.00  0.00     0.049 A 
ATOM     56  C   UNL A   1      41.629  30.265  31.655  1.00  0.00     0.074 A 
ATOM     57  C   UNL A   1      47.933  29.494  31.815  1.00  0.00     0.029 A 
ATOM     58  N   UNL A   1      45.751  29.237  31.479  1.00  0.00    -0.354 N 
ATOM     59  N   UNL A   1      42.920  30.016  31.644  1.00  0.00    -0.248 NA
ATOM     60  C   UNL A   1      41.251  31.428  32.468  1.00  0.00     0.031 C 
ATOM     61  C   UNL A   1      47.255  30.496  32.517  1.00  0.00     0.029 A 
ATOM     62  C   UNL A   1      45.897  30.366  32.271  1.00  0.00     0.049 A 
ATOM     63  H   UNL A   1      44.891  28.884  31.154  1.00  0.00     0.167 HD
ATOM     64  C   UNL A   1      43.508  31.018  32.417  1.00  0.00     0.074 A 
ATOM     65  C   UNL A   1      42.433  31.876  32.867  1.00  0.00     0.031 C 
ATOM     66  C   UNL A   1      44.817  31.214  32.720  1.00  0.00     0.034 A 
BRANCH  53  67
ATOM     67  C   UNL A   1      48.616  26.928  30.328  1.00  0.00     0.023 A 
ATOM     68  C   UNL A   1      49.156  26.023  31.257  1.00  0.00     0.031 A 
ATOM     69  C   UNL A   1      49.440  27.357  29.271  1.00  0.00     0.131 A 
ATOM     70  C   UNL A   1      50.499  25.632  31.155  1.00  0.00     0.055 A 
ATOM     71  C   UNL A   1      50.749  26.896  29.126  1.00  0.00     0.041 A 
ATOM     72  F   UNL A   1      48.991  28.243  28.369  1.00  0.00    -0.206 F 
ATOM     73  C   UNL A   1      51.292  26.041  30.079  1.00  0.00     0.022 A 
BRANCH  70  74
ATOM     74  S   UNL A   1      51.240  24.710  32.529  1.00  0.00     0.124 S 
ATOM     75  O   UNL A   1      50.811  25.499  33.681  1.00  0.00    -0.237 OA
ATOM     76  O   UNL A   1      50.629  23.393  32.392  1.00  0.00    -0.237 OA
ATOM     77  O   UNL A   1      52.674  24.766  32.247  1.00  0.00    -0.744 OA
ENDBRANCH  70  74
ENDBRANCH  53  67
BRANCH  54  78
ATOM     78  C   UNL A   1      39.093  29.969  31.122  1.00  0.00     0.023 A 
ATOM     79  C   UNL A   1      38.563  31.030  30.372  1.00  0.00     0.031 A 
ATOM     80  C   UNL A   1      38.268  29.376  32.096  1.00  0.00     0.131 A 
ATOM     81  C   UNL A   1      37.266  31.499  30.640  1.00  0.00     0.055 A 
ATOM     82  C   UNL A   1      36.957  29.805  32.316  1.00  0.00     0.041 A 
ATOM     83  F   UNL A   1      38.726  28.364  32.850  1.00  0.00    -0.206 F 
ATOM     84  C   UNL A   1      36.455  30.883  31.595  1.00  0.00     0.022 A 
BRANCH  81  85
ATOM     85  S   UNL A   1      36.691  32.997  29.792  1.00  0.00     0.124 S 
ATOM     86  O   UNL A   1      37.623  33.999  30.298  1.00  0.00    -0.237 OA
ATOM     87  O   UNL A   1      36.843  32.629  28.389  1.00  0.00    -0.237 OA
ATOM     88  O   UNL A   1      35.312  33.140  30.252  1.00  0.00    -0.744 OA
ENDBRANCH  81  85
ENDBRANCH  54  78
BRANCH  66  89
ATOM     89  C   UNL A   1      45.168  32.441  33.529  1.00  0.00     0.023 A 
ATOM     90  C   UNL A   1      45.478  33.673  32.924  1.00  0.00     0.031 A 
ATOM     91  C   UNL A   1      45.193  32.374  34.935  1.00  0.00     0.131 A 
ATOM     92  C   UNL A   1      45.854  34.767  33.720  1.00  0.00     0.055 A 
ATOM     93  C   UNL A   1      45.498  33.484  35.722  1.00  0.00     0.041 A 
ATOM     94  F   UNL A   1      44.910  31.224  35.569  1.00  0.00    -0.206 F 
ATOM     95  C   UNL A   1      45.845  34.687  35.114  1.00  0.00     0.022 A 
BRANCH  92  96
ATOM     96  S   UNL A   1      46.456  36.271  32.904  1.00  0.00     0.124 S 
ATOM     97  O   UNL A   1      47.202  35.726  31.775  1.00  0.00    -0.237 OA
ATOM     98  O   UNL A   1      45.216  36.966  32.573  1.00  0.00    -0.237 OA
ATOM     99  O   UNL A   1      47.272  36.916  33.931  1.00  0.00    -0.744 OA
ENDBRANCH  92  96
ENDBRANCH  66  89
ENDBRANCH  40  41
ENDBRANCH  33  35
ENDBRANCH  32  33
ENDBRANCH  31  32
ENDBRANCH  30  31
ENDBRANCH  29  30
ENDBRANCH  28  29
ENDBRANCH  27  28
ENDBRANCH  26  27
ENDBRANCH   1  26
TORSDOF 27
ENDMDL
