MODEL 1
REMARK VINA RESULT:      -9.3      0.000      0.000
REMARK SMILES CCOc1ccc(C#N)cc1NC(=O)[C@@H]1[C@@H](C(=O)OCCOCCOCCOCCOC(=O)c2ccc(-c3c4nc(c(-c5cc(S(=O)(=O)[O-])ccc5F)c5ccc([nH]5)c(-c5cc(S(=O)(=O)[O-])ccc5F)c5nc(c(-c6cc(S(=O)(=O)[O-])ccc6F)c6ccc3[nH]6)C=C5)C=C4)cc2)[C@H]2C=C[C@@H]1C2
REMARK SMILES IDX 24 1 23 2 22 3 21 4 20 5 19 6 17 7 18 8 16 9 15 10 100 11
REMARK SMILES IDX 97 12 99 13 101 14 98 15 13 16 12 17 14 19 11 20 4 21 5 22
REMARK SMILES IDX 6 23 10 24 7 25 3 26 2 27 1 28 8 29 9 30 25 31 26 32 27 33
REMARK SMILES IDX 28 34 29 35 30 36 31 37 32 38 33 39 34 40 35 41 96 42 36 43
REMARK SMILES IDX 95 44 37 45 38 46 39 47 89 48 40 49 94 50 88 51 90 52 41 53
REMARK SMILES IDX 93 54 87 55 86 56 42 58 74 59 54 60 73 61 55 62 58 63 72 64
REMARK SMILES IDX 91 65 56 66 57 67 71 69 92 70 59 71 43 72 44 73 52 74 45 75
REMARK SMILES IDX 51 76 53 77 50 78 46 79 47 80 48 81 49 82 75 83 76 84 84 85
REMARK SMILES IDX 77 86 83 87 85 88 82 89 78 90 79 91 80 92 81 93 60 94 61 95
REMARK SMILES IDX 69 96 62 97 68 98 70 99 67 100 63 101 64 102 65 103 66 104
REMARK H PARENT 12 18 90 57 58 68
REMARK Flexibility Score: inf
ROOT
ATOM      1  C   UNL A   1      33.740  31.539  27.661  1.00  0.00     0.188 C 
ENDROOT
BRANCH   1   2
ATOM      2  C   UNL A   1      32.779  30.476  27.151  1.00  0.00     0.188 C 
BRANCH   2   3
ATOM      3  O   UNL A   1      33.240  29.534  26.205  1.00  0.00    -0.376 OA
BRANCH   3   4
ATOM      4  C   UNL A   1      33.527  28.201  26.621  1.00  0.00     0.202 C 
BRANCH   4   5
ATOM      5  C   UNL A   1      33.774  27.065  25.605  1.00  0.00     0.261 C 
BRANCH   5   6
ATOM      6  O   UNL A   1      33.904  25.732  26.137  1.00  0.00    -0.463 OA
BRANCH   6   7
ATOM      7  C   UNL A   1      34.175  24.729  25.264  1.00  0.00     0.310 C 
ATOM      8  O   UNL A   1      35.114  24.730  24.484  1.00  0.00    -0.252 OA
BRANCH   7   9
ATOM      9  C   UNL A   1      33.239  23.547  25.539  1.00  0.00     0.119 C 
ATOM     10  C   UNL A   1      32.398  23.706  26.859  1.00  0.00     0.100 C 
ATOM     11  C   UNL A   1      32.896  22.435  27.619  1.00  0.00     0.025 C 
ATOM     12  C   UNL A   1      34.048  22.243  25.717  1.00  0.00     0.027 C 
ATOM     13  C   UNL A   1      34.374  22.634  27.939  1.00  0.00    -0.027 C 
ATOM     14  C   UNL A   1      33.053  21.395  26.497  1.00  0.00     0.017 C 
ATOM     15  C   UNL A   1      35.063  22.479  26.799  1.00  0.00    -0.027 C 
BRANCH  10  16
ATOM     16  C   UNL A   1      30.856  23.685  26.660  1.00  0.00     0.229 C 
ATOM     17  N   UNL A   1      30.131  24.390  25.732  1.00  0.00    -0.323 N 
ATOM     18  H   UNL A   1      29.165  24.223  25.834  1.00  0.00     0.170 HD
ATOM     19  O   UNL A   1      30.169  22.957  27.394  1.00  0.00    -0.274 OA
BRANCH  17  20
ATOM     20  C   UNL A   1      30.384  25.289  24.668  1.00  0.00     0.085 A 
ATOM     21  C   UNL A   1      30.787  24.776  23.398  1.00  0.00     0.142 A 
ATOM     22  C   UNL A   1      31.138  25.664  22.374  1.00  0.00     0.050 A 
ATOM     23  C   UNL A   1      31.142  27.041  22.589  1.00  0.00     0.023 A 
ATOM     24  C   UNL A   1      30.278  26.669  24.811  1.00  0.00     0.049 A 
ATOM     25  C   UNL A   1      30.683  27.547  23.799  1.00  0.00     0.054 A 
BRANCH  21  26
ATOM     26  O   UNL A   1      30.632  23.436  23.130  1.00  0.00    -0.492 OA
BRANCH  26  27
ATOM     27  C   UNL A   1      31.783  22.576  23.028  1.00  0.00     0.226 C 
ATOM     28  C   UNL A   1      32.903  22.937  22.049  1.00  0.00     0.049 C 
ENDBRANCH  26  27
ENDBRANCH  21  26
BRANCH  25  29
ATOM     29  C   UNL A   1      30.594  28.962  23.996  1.00  0.00     0.099 C 
ATOM     30  N   UNL A   1      30.500  30.108  24.177  1.00  0.00    -0.192 NA
ENDBRANCH  25  29
ENDBRANCH  17  20
ENDBRANCH  10  16
ENDBRANCH   7   9
ENDBRANCH   6   7
ENDBRANCH   5   6
ENDBRANCH   4   5
ENDBRANCH   3   4
ENDBRANCH   2   3
ENDBRANCH   1   2
BRANCH   1  31
ATOM     31  O   UNL A   1      33.283  32.879  27.535  1.00  0.00    -0.377 OA
BRANCH  31  32
ATOM     32  C   UNL A   1      33.970  33.827  28.348  1.00  0.00     0.188 C 
BRANCH  32  33
ATOM     33  C   UNL A   1      33.104  34.662  29.317  1.00  0.00     0.188 C 
BRANCH  33  34
ATOM     34  O   UNL A   1      33.636  35.939  29.639  1.00  0.00    -0.376 OA
BRANCH  34  35
ATOM     35  C   UNL A   1      33.263  36.489  30.893  1.00  0.00     0.202 C 
BRANCH  35  36
ATOM     36  C   UNL A   1      33.079  35.552  32.101  1.00  0.00     0.261 C 
BRANCH  36  37
ATOM     37  O   UNL A   1      34.280  34.991  32.625  1.00  0.00    -0.460 OA
BRANCH  37  38
ATOM     38  C   UNL A   1      34.259  33.673  32.913  1.00  0.00     0.338 C 
ATOM     39  O   UNL A   1      33.295  33.007  33.241  1.00  0.00    -0.246 OA
BRANCH  38  40
ATOM     40  C   UNL A   1      35.561  33.149  32.462  1.00  0.00     0.060 A 
ATOM     41  C   UNL A   1      36.184  32.161  33.236  1.00  0.00     0.016 A 
ATOM     42  C   UNL A   1      36.082  33.532  31.222  1.00  0.00     0.016 A 
ATOM     43  C   UNL A   1      37.338  31.547  32.769  1.00  0.00     0.010 A 
ATOM     44  C   UNL A   1      37.263  32.951  30.775  1.00  0.00     0.010 A 
ATOM     45  C   UNL A   1      37.904  31.984  31.565  1.00  0.00    -0.014 A 
BRANCH  45  46
ATOM     46  C   UNL A   1      39.316  31.661  31.296  1.00  0.00     0.031 A 
ATOM     47  C   UNL A   1      40.337  32.614  31.848  1.00  0.00     0.074 A 
ATOM     48  C   UNL A   1      39.666  30.557  30.619  1.00  0.00     0.049 A 
ATOM     49  N   UNL A   1      41.635  32.607  31.722  1.00  0.00    -0.248 NA
ATOM     50  C   UNL A   1      39.813  33.737  32.646  1.00  0.00     0.031 C 
ATOM     51  C   UNL A   1      38.738  29.554  30.096  1.00  0.00     0.029 A 
ATOM     52  N   UNL A   1      40.903  30.102  30.250  1.00  0.00    -0.354 N 
ATOM     53  C   UNL A   1      42.080  33.723  32.423  1.00  0.00     0.074 A 
ATOM     54  C   UNL A   1      40.915  34.407  32.930  1.00  0.00     0.031 C 
ATOM     55  C   UNL A   1      39.445  28.601  29.462  1.00  0.00     0.029 A 
ATOM     56  C   UNL A   1      40.864  28.951  29.499  1.00  0.00     0.049 A 
ATOM     57  H   UNL A   1      41.740  30.554  30.499  1.00  0.00     0.167 HD
ATOM     58  C   UNL A   1      43.354  34.129  32.627  1.00  0.00     0.034 A 
ATOM     59  C   UNL A   1      41.866  28.285  28.894  1.00  0.00     0.034 A 
ATOM     60  C   UNL A   1      44.491  33.436  32.081  1.00  0.00     0.049 A 
ATOM     61  C   UNL A   1      43.274  28.815  29.053  1.00  0.00     0.074 A 
ATOM     62  C   UNL A   1      45.832  33.747  32.208  1.00  0.00     0.029 A 
ATOM     63  N   UNL A   1      44.416  32.299  31.286  1.00  0.00    -0.354 N 
ATOM     64  N   UNL A   1      43.694  29.866  29.723  1.00  0.00    -0.248 NA
ATOM     65  C   UNL A   1      44.343  28.065  28.383  1.00  0.00     0.031 C 
ATOM     66  C   UNL A   1      46.559  32.848  31.424  1.00  0.00     0.029 A 
ATOM     67  C   UNL A   1      45.684  31.916  30.885  1.00  0.00     0.049 A 
ATOM     68  H   UNL A   1      43.583  31.835  31.042  1.00  0.00     0.167 HD
ATOM     69  C   UNL A   1      45.080  29.879  29.585  1.00  0.00     0.074 A 
ATOM     70  C   UNL A   1      45.422  28.723  28.781  1.00  0.00     0.031 C 
ATOM     71  C   UNL A   1      45.992  30.758  30.077  1.00  0.00     0.034 A 
BRANCH  58  72
ATOM     72  C   UNL A   1      43.556  35.400  33.412  1.00  0.00     0.023 A 
ATOM     73  C   UNL A   1      43.708  35.394  34.810  1.00  0.00     0.031 A 
ATOM     74  C   UNL A   1      43.547  36.644  32.757  1.00  0.00     0.131 A 
ATOM     75  C   UNL A   1      43.772  36.606  35.514  1.00  0.00     0.055 A 
ATOM     76  C   UNL A   1      43.700  37.844  33.454  1.00  0.00     0.041 A 
ATOM     77  F   UNL A   1      43.368  36.716  31.429  1.00  0.00    -0.206 F 
ATOM     78  C   UNL A   1      43.800  37.831  34.842  1.00  0.00     0.022 A 
BRANCH  75  79
ATOM     79  S   UNL A   1      43.666  36.567  37.324  1.00  0.00     0.124 S 
ATOM     80  O   UNL A   1      44.989  36.064  37.686  1.00  0.00    -0.237 OA
ATOM     81  O   UNL A   1      43.401  37.962  37.655  1.00  0.00    -0.237 OA
ATOM     82  O   UNL A   1      42.564  35.643  37.583  1.00  0.00    -0.744 OA
ENDBRANCH  75  79
ENDBRANCH  58  72
BRANCH  59  83
ATOM     83  C   UNL A   1      41.589  27.080  28.060  1.00  0.00     0.023 A 
ATOM     84  C   UNL A   1      41.948  25.796  28.498  1.00  0.00     0.031 A 
ATOM     85  C   UNL A   1      41.014  27.201  26.782  1.00  0.00     0.131 A 
ATOM     86  C   UNL A   1      41.782  24.693  27.646  1.00  0.00     0.055 A 
ATOM     87  C   UNL A   1      40.794  26.092  25.962  1.00  0.00     0.041 A 
ATOM     88  F   UNL A   1      40.655  28.405  26.308  1.00  0.00    -0.206 F 
ATOM     89  C   UNL A   1      41.193  24.830  26.388  1.00  0.00     0.022 A 
BRANCH  86  90
ATOM     90  S   UNL A   1      42.447  23.088  28.167  1.00  0.00     0.124 S 
ATOM     91  O   UNL A   1      43.712  23.044  27.443  1.00  0.00    -0.237 OA
ATOM     92  O   UNL A   1      42.539  23.254  29.614  1.00  0.00    -0.237 OA
ATOM     93  O   UNL A   1      41.434  22.137  27.713  1.00  0.00    -0.744 OA
ENDBRANCH  86  90
ENDBRANCH  59  83
BRANCH  71  94
ATOM     94  C   UNL A   1      47.447  30.464  29.803  1.00  0.00     0.023 A 
ATOM     95  C   UNL A   1      48.137  31.060  28.735  1.00  0.00     0.031 A 
ATOM     96  C   UNL A   1      48.151  29.568  30.629  1.00  0.00     0.131 A 
ATOM     97  C   UNL A   1      49.469  30.703  28.481  1.00  0.00     0.055 A 
ATOM     98  C   UNL A   1      49.498  29.276  30.417  1.00  0.00     0.041 A 
ATOM     99  F   UNL A   1      47.541  28.966  31.663  1.00  0.00    -0.206 F 
ATOM    100  C   UNL A   1      50.160  29.833  29.328  1.00  0.00     0.022 A 
BRANCH  97 101
ATOM    101  S   UNL A   1      50.253  31.304  26.960  1.00  0.00     0.124 S 
ATOM    102  O   UNL A   1      49.218  32.176  26.412  1.00  0.00    -0.237 OA
ATOM    103  O   UNL A   1      51.446  31.974  27.467  1.00  0.00    -0.237 OA
ATOM    104  O   UNL A   1      50.503  30.083  26.198  1.00  0.00    -0.744 OA
ENDBRANCH  97 101
ENDBRANCH  71  94
ENDBRANCH  45  46
ENDBRANCH  38  40
ENDBRANCH  37  38
ENDBRANCH  36  37
ENDBRANCH  35  36
ENDBRANCH  34  35
ENDBRANCH  33  34
ENDBRANCH  32  33
ENDBRANCH  31  32
ENDBRANCH   1  31
TORSDOF 28
ENDMDL
MODEL 2
REMARK VINA RESULT:      -8.8      1.927      2.609
REMARK SMILES CCOc1ccc(C#N)cc1NC(=O)[C@@H]1[C@@H](C(=O)OCCOCCOCCOCCOC(=O)c2ccc(-c3c4nc(c(-c5cc(S(=O)(=O)[O-])ccc5F)c5ccc([nH]5)c(-c5cc(S(=O)(=O)[O-])ccc5F)c5nc(c(-c6cc(S(=O)(=O)[O-])ccc6F)c6ccc3[nH]6)C=C5)C=C4)cc2)[C@H]2C=C[C@@H]1C2
REMARK SMILES IDX 24 1 23 2 22 3 21 4 20 5 19 6 17 7 18 8 16 9 15 10 100 11
REMARK SMILES IDX 97 12 99 13 101 14 98 15 13 16 12 17 14 19 11 20 4 21 5 22
REMARK SMILES IDX 6 23 10 24 7 25 3 26 2 27 1 28 8 29 9 30 25 31 26 32 27 33
REMARK SMILES IDX 28 34 29 35 30 36 31 37 32 38 33 39 34 40 35 41 96 42 36 43
REMARK SMILES IDX 95 44 37 45 38 46 39 47 89 48 40 49 94 50 88 51 90 52 41 53
REMARK SMILES IDX 93 54 87 55 86 56 42 58 74 59 54 60 73 61 55 62 58 63 72 64
REMARK SMILES IDX 91 65 56 66 57 67 71 69 92 70 59 71 43 72 44 73 52 74 45 75
REMARK SMILES IDX 51 76 53 77 50 78 46 79 47 80 48 81 49 82 75 83 76 84 84 85
REMARK SMILES IDX 77 86 83 87 85 88 82 89 78 90 79 91 80 92 81 93 60 94 61 95
REMARK SMILES IDX 69 96 62 97 68 98 70 99 67 100 63 101 64 102 65 103 66 104
REMARK H PARENT 12 18 90 57 58 68
REMARK Flexibility Score: inf
ROOT
ATOM      1  C   UNL A   1      33.690  31.578  27.667  1.00  0.00     0.188 C 
ENDROOT
BRANCH   1   2
ATOM      2  C   UNL A   1      32.902  30.517  26.915  1.00  0.00     0.188 C 
BRANCH   2   3
ATOM      3  O   UNL A   1      33.600  29.586  26.114  1.00  0.00    -0.376 OA
BRANCH   3   4
ATOM      4  C   UNL A   1      33.844  28.273  26.612  1.00  0.00     0.202 C 
BRANCH   4   5
ATOM      5  C   UNL A   1      33.857  27.038  25.686  1.00  0.00     0.261 C 
BRANCH   5   6
ATOM      6  O   UNL A   1      34.114  25.762  26.303  1.00  0.00    -0.463 OA
BRANCH   6   7
ATOM      7  C   UNL A   1      34.362  24.705  25.488  1.00  0.00     0.310 C 
ATOM      8  O   UNL A   1      35.446  24.468  24.979  1.00  0.00    -0.252 OA
BRANCH   7   9
ATOM      9  C   UNL A   1      33.137  23.785  25.460  1.00  0.00     0.119 C 
ATOM     10  C   UNL A   1      32.125  24.050  26.633  1.00  0.00     0.100 C 
ATOM     11  C   UNL A   1      32.153  22.639  27.304  1.00  0.00     0.025 C 
ATOM     12  C   UNL A   1      33.565  22.307  25.606  1.00  0.00     0.027 C 
ATOM     13  C   UNL A   1      33.548  22.428  27.883  1.00  0.00    -0.027 C 
ATOM     14  C   UNL A   1      32.267  21.684  26.104  1.00  0.00     0.017 C 
ATOM     15  C   UNL A   1      34.383  22.191  26.860  1.00  0.00    -0.027 C 
BRANCH  10  16
ATOM     16  C   UNL A   1      30.688  24.440  26.184  1.00  0.00     0.229 C 
ATOM     17  N   UNL A   1      30.324  25.050  25.009  1.00  0.00    -0.323 N 
ATOM     18  H   UNL A   1      29.354  25.215  24.980  1.00  0.00     0.170 HD
ATOM     19  O   UNL A   1      29.735  24.181  26.936  1.00  0.00    -0.274 OA
BRANCH  17  20
ATOM     20  C   UNL A   1      30.956  25.507  23.827  1.00  0.00     0.085 A 
ATOM     21  C   UNL A   1      30.861  26.886  23.471  1.00  0.00     0.142 A 
ATOM     22  C   UNL A   1      31.395  27.324  22.253  1.00  0.00     0.050 A 
ATOM     23  C   UNL A   1      31.978  26.425  21.362  1.00  0.00     0.023 A 
ATOM     24  C   UNL A   1      31.656  24.659  22.974  1.00  0.00     0.049 A 
ATOM     25  C   UNL A   1      32.138  25.096  21.735  1.00  0.00     0.054 A 
BRANCH  21  26
ATOM     26  O   UNL A   1      30.434  27.798  24.407  1.00  0.00    -0.492 OA
BRANCH  26  27
ATOM     27  C   UNL A   1      30.605  29.210  24.179  1.00  0.00     0.226 C 
ATOM     28  C   UNL A   1      29.482  30.000  23.503  1.00  0.00     0.049 C 
ENDBRANCH  26  27
ENDBRANCH  21  26
BRANCH  25  29
ATOM     29  C   UNL A   1      32.821  24.185  20.867  1.00  0.00     0.099 C 
ATOM     30  N   UNL A   1      33.366  23.422  20.178  1.00  0.00    -0.192 NA
ENDBRANCH  25  29
ENDBRANCH  17  20
ENDBRANCH  10  16
ENDBRANCH   7   9
ENDBRANCH   6   7
ENDBRANCH   5   6
ENDBRANCH   4   5
ENDBRANCH   3   4
ENDBRANCH   2   3
ENDBRANCH   1   2
BRANCH   1  31
ATOM     31  O   UNL A   1      33.139  32.887  27.620  1.00  0.00    -0.377 OA
BRANCH  31  32
ATOM     32  C   UNL A   1      33.851  33.866  28.375  1.00  0.00     0.188 C 
BRANCH  32  33
ATOM     33  C   UNL A   1      33.016  34.726  29.350  1.00  0.00     0.188 C 
BRANCH  33  34
ATOM     34  O   UNL A   1      33.583  35.991  29.659  1.00  0.00    -0.376 OA
BRANCH  34  35
ATOM     35  C   UNL A   1      33.228  36.563  30.909  1.00  0.00     0.202 C 
BRANCH  35  36
ATOM     36  C   UNL A   1      32.938  35.637  32.104  1.00  0.00     0.261 C 
BRANCH  36  37
ATOM     37  O   UNL A   1      34.087  35.093  32.747  1.00  0.00    -0.460 OA
BRANCH  37  38
ATOM     38  C   UNL A   1      34.090  33.760  32.959  1.00  0.00     0.338 C 
ATOM     39  O   UNL A   1      33.135  33.055  33.225  1.00  0.00    -0.246 OA
BRANCH  38  40
ATOM     40  C   UNL A   1      35.415  33.292  32.513  1.00  0.00     0.060 A 
ATOM     41  C   UNL A   1      36.054  32.294  33.261  1.00  0.00     0.016 A 
ATOM     42  C   UNL A   1      35.946  33.736  31.298  1.00  0.00     0.016 A 
ATOM     43  C   UNL A   1      37.234  31.733  32.792  1.00  0.00     0.010 A 
ATOM     44  C   UNL A   1      37.150  33.208  30.851  1.00  0.00     0.010 A 
ATOM     45  C   UNL A   1      37.807  32.230  31.616  1.00  0.00    -0.014 A 
BRANCH  45  46
ATOM     46  C   UNL A   1      39.232  31.959  31.361  1.00  0.00     0.031 A 
ATOM     47  C   UNL A   1      40.215  32.917  31.972  1.00  0.00     0.074 A 
ATOM     48  C   UNL A   1      39.626  30.896  30.644  1.00  0.00     0.049 A 
ATOM     49  N   UNL A   1      41.514  32.952  31.871  1.00  0.00    -0.248 NA
ATOM     50  C   UNL A   1      39.644  33.989  32.807  1.00  0.00     0.031 C 
ATOM     51  C   UNL A   1      38.738  29.891  30.062  1.00  0.00     0.029 A 
ATOM     52  N   UNL A   1      40.882  30.492  30.280  1.00  0.00    -0.354 N 
ATOM     53  C   UNL A   1      41.914  34.049  32.627  1.00  0.00     0.074 A 
ATOM     54  C   UNL A   1      40.721  34.677  33.140  1.00  0.00     0.031 C 
ATOM     55  C   UNL A   1      39.483  28.986  29.402  1.00  0.00     0.029 A 
ATOM     56  C   UNL A   1      40.890  29.374  29.481  1.00  0.00     0.049 A 
ATOM     57  H   UNL A   1      41.702  30.957  30.565  1.00  0.00     0.167 HD
ATOM     58  C   UNL A   1      43.172  34.481  32.873  1.00  0.00     0.034 A 
ATOM     59  C   UNL A   1      41.923  28.763  28.867  1.00  0.00     0.034 A 
ATOM     60  C   UNL A   1      44.338  33.845  32.319  1.00  0.00     0.049 A 
ATOM     61  C   UNL A   1      43.311  29.326  29.075  1.00  0.00     0.074 A 
ATOM     62  C   UNL A   1      45.667  34.188  32.486  1.00  0.00     0.029 A 
ATOM     63  N   UNL A   1      44.311  32.742  31.476  1.00  0.00    -0.354 N 
ATOM     64  N   UNL A   1      43.689  30.359  29.797  1.00  0.00    -0.248 NA
ATOM     65  C   UNL A   1      44.413  28.636  28.395  1.00  0.00     0.031 C 
ATOM     66  C   UNL A   1      46.434  33.344  31.678  1.00  0.00     0.029 A 
ATOM     67  C   UNL A   1      45.597  32.412  31.084  1.00  0.00     0.049 A 
ATOM     68  H   UNL A   1      43.496  32.265  31.196  1.00  0.00     0.167 HD
ATOM     69  C   UNL A   1      45.076  30.417  29.687  1.00  0.00     0.074 A 
ATOM     70  C   UNL A   1      45.466  29.306  28.841  1.00  0.00     0.031 C 
ATOM     71  C   UNL A   1      45.953  31.299  30.233  1.00  0.00     0.034 A 
BRANCH  58  72
ATOM     72  C   UNL A   1      43.323  35.723  33.714  1.00  0.00     0.023 A 
ATOM     73  C   UNL A   1      43.272  37.011  33.152  1.00  0.00     0.031 A 
ATOM     74  C   UNL A   1      43.572  35.616  35.093  1.00  0.00     0.131 A 
ATOM     75  C   UNL A   1      43.537  38.135  33.950  1.00  0.00     0.055 A 
ATOM     76  C   UNL A   1      43.749  36.743  35.899  1.00  0.00     0.041 A 
ATOM     77  F   UNL A   1      43.670  34.413  35.679  1.00  0.00    -0.206 F 
ATOM     78  C   UNL A   1      43.746  38.011  35.326  1.00  0.00     0.022 A 
BRANCH  75  79
ATOM     79  S   UNL A   1      43.757  39.743  33.140  1.00  0.00     0.124 S 
ATOM     80  O   UNL A   1      45.021  40.193  33.717  1.00  0.00    -0.237 OA
ATOM     81  O   UNL A   1      43.792  39.383  31.727  1.00  0.00    -0.237 OA
ATOM     82  O   UNL A   1      42.582  40.503  33.562  1.00  0.00    -0.744 OA
ENDBRANCH  75  79
ENDBRANCH  58  72
BRANCH  59  83
ATOM     83  C   UNL A   1      41.696  27.588  27.978  1.00  0.00     0.023 A 
ATOM     84  C   UNL A   1      41.911  26.279  28.436  1.00  0.00     0.031 A 
ATOM     85  C   UNL A   1      41.316  27.760  26.634  1.00  0.00     0.131 A 
ATOM     86  C   UNL A   1      41.803  25.199  27.546  1.00  0.00     0.055 A 
ATOM     87  C   UNL A   1      41.149  26.677  25.768  1.00  0.00     0.041 A 
ATOM     88  F   UNL A   1      41.100  28.989  26.140  1.00  0.00    -0.206 F 
ATOM     89  C   UNL A   1      41.408  25.387  26.220  1.00  0.00     0.022 A 
BRANCH  86  90
ATOM     90  S   UNL A   1      42.291  23.549  28.122  1.00  0.00     0.124 S 
ATOM     91  O   UNL A   1      41.006  22.864  28.179  1.00  0.00    -0.237 OA
ATOM     92  O   UNL A   1      43.204  23.120  27.067  1.00  0.00    -0.237 OA
ATOM     93  O   UNL A   1      42.917  23.813  29.417  1.00  0.00    -0.744 OA
ENDBRANCH  86  90
ENDBRANCH  59  83
BRANCH  71  94
ATOM     94  C   UNL A   1      47.420  31.058  29.975  1.00  0.00     0.023 A 
ATOM     95  C   UNL A   1      48.193  30.229  30.805  1.00  0.00     0.031 A 
ATOM     96  C   UNL A   1      48.053  31.671  28.878  1.00  0.00     0.131 A 
ATOM     97  C   UNL A   1      49.568  30.090  30.565  1.00  0.00     0.055 A 
ATOM     98  C   UNL A   1      49.404  31.467  28.599  1.00  0.00     0.041 A 
ATOM     99  F   UNL A   1      47.364  32.475  28.053  1.00  0.00    -0.206 F 
ATOM    100  C   UNL A   1      50.173  30.684  29.455  1.00  0.00     0.022 A 
BRANCH  97 101
ATOM    101  S   UNL A   1      50.577  29.212  31.789  1.00  0.00     0.124 S 
ATOM    102  O   UNL A   1      51.175  28.152  30.983  1.00  0.00    -0.237 OA
ATOM    103  O   UNL A   1      51.490  30.255  32.247  1.00  0.00    -0.237 OA
ATOM    104  O   UNL A   1      49.601  28.763  32.779  1.00  0.00    -0.744 OA
ENDBRANCH  97 101
ENDBRANCH  71  94
ENDBRANCH  45  46
ENDBRANCH  38  40
ENDBRANCH  37  38
ENDBRANCH  36  37
ENDBRANCH  35  36
ENDBRANCH  34  35
ENDBRANCH  33  34
ENDBRANCH  32  33
ENDBRANCH  31  32
ENDBRANCH   1  31
TORSDOF 28
ENDMDL
MODEL 3
REMARK VINA RESULT:      -8.7      1.554      2.152
REMARK SMILES CCOc1ccc(C#N)cc1NC(=O)[C@@H]1[C@@H](C(=O)OCCOCCOCCOCCOC(=O)c2ccc(-c3c4nc(c(-c5cc(S(=O)(=O)[O-])ccc5F)c5ccc([nH]5)c(-c5cc(S(=O)(=O)[O-])ccc5F)c5nc(c(-c6cc(S(=O)(=O)[O-])ccc6F)c6ccc3[nH]6)C=C5)C=C4)cc2)[C@H]2C=C[C@@H]1C2
REMARK SMILES IDX 24 1 23 2 22 3 21 4 20 5 19 6 17 7 18 8 16 9 15 10 100 11
REMARK SMILES IDX 97 12 99 13 101 14 98 15 13 16 12 17 14 19 11 20 4 21 5 22
REMARK SMILES IDX 6 23 10 24 7 25 3 26 2 27 1 28 8 29 9 30 25 31 26 32 27 33
REMARK SMILES IDX 28 34 29 35 30 36 31 37 32 38 33 39 34 40 35 41 96 42 36 43
REMARK SMILES IDX 95 44 37 45 38 46 39 47 89 48 40 49 94 50 88 51 90 52 41 53
REMARK SMILES IDX 93 54 87 55 86 56 42 58 74 59 54 60 73 61 55 62 58 63 72 64
REMARK SMILES IDX 91 65 56 66 57 67 71 69 92 70 59 71 43 72 44 73 52 74 45 75
REMARK SMILES IDX 51 76 53 77 50 78 46 79 47 80 48 81 49 82 75 83 76 84 84 85
REMARK SMILES IDX 77 86 83 87 85 88 82 89 78 90 79 91 80 92 81 93 60 94 61 95
REMARK SMILES IDX 69 96 62 97 68 98 70 99 67 100 63 101 64 102 65 103 66 104
REMARK H PARENT 12 18 90 57 58 68
REMARK Flexibility Score: inf
ROOT
ATOM      1  C   UNL A   1      33.843  30.223  27.290  1.00  0.00     0.188 C 
ENDROOT
BRANCH   1   2
ATOM      2  C   UNL A   1      33.592  29.349  26.071  1.00  0.00     0.188 C 
BRANCH   2   3
ATOM      3  O   UNL A   1      34.380  28.191  25.887  1.00  0.00    -0.376 OA
BRANCH   3   4
ATOM      4  C   UNL A   1      33.751  26.912  25.840  1.00  0.00     0.202 C 
BRANCH   4   5
ATOM      5  C   UNL A   1      34.216  25.809  24.866  1.00  0.00     0.261 C 
BRANCH   5   6
ATOM      6  O   UNL A   1      34.517  24.520  25.436  1.00  0.00    -0.463 OA
BRANCH   6   7
ATOM      7  C   UNL A   1      35.340  23.698  24.736  1.00  0.00     0.310 C 
ATOM      8  O   UNL A   1      36.556  23.804  24.708  1.00  0.00    -0.252 OA
BRANCH   7   9
ATOM      9  C   UNL A   1      34.526  22.539  24.152  1.00  0.00     0.119 C 
ATOM     10  C   UNL A   1      33.006  22.573  24.552  1.00  0.00     0.100 C 
ATOM     11  C   UNL A   1      32.915  21.195  25.283  1.00  0.00     0.025 C 
ATOM     12  C   UNL A   1      35.061  21.185  24.669  1.00  0.00     0.027 C 
ATOM     13  C   UNL A   1      33.768  21.280  26.544  1.00  0.00    -0.027 C 
ATOM     14  C   UNL A   1      33.844  20.296  24.450  1.00  0.00     0.017 C 
ATOM     15  C   UNL A   1      35.055  21.234  26.170  1.00  0.00    -0.027 C 
BRANCH  10  16
ATOM     16  C   UNL A   1      32.015  22.653  23.356  1.00  0.00     0.229 C 
ATOM     17  N   UNL A   1      31.171  23.689  23.048  1.00  0.00    -0.323 N 
ATOM     18  H   UNL A   1      30.624  23.479  22.256  1.00  0.00     0.170 HD
ATOM     19  O   UNL A   1      31.957  21.699  22.564  1.00  0.00    -0.274 OA
BRANCH  17  20
ATOM     20  C   UNL A   1      30.866  24.978  23.551  1.00  0.00     0.085 A 
ATOM     21  C   UNL A   1      30.635  25.147  24.949  1.00  0.00     0.142 A 
ATOM     22  C   UNL A   1      30.234  26.396  25.438  1.00  0.00     0.050 A 
ATOM     23  C   UNL A   1      30.013  27.466  24.572  1.00  0.00     0.023 A 
ATOM     24  C   UNL A   1      30.760  26.097  22.731  1.00  0.00     0.049 A 
ATOM     25  C   UNL A   1      30.305  27.327  23.221  1.00  0.00     0.054 A 
BRANCH  21  26
ATOM     26  O   UNL A   1      31.003  24.149  25.821  1.00  0.00    -0.492 OA
BRANCH  26  27
ATOM     27  C   UNL A   1      30.105  23.725  26.864  1.00  0.00     0.226 C 
ATOM     28  C   UNL A   1      29.543  22.302  26.837  1.00  0.00     0.049 C 
ENDBRANCH  26  27
ENDBRANCH  21  26
BRANCH  25  29
ATOM     29  C   UNL A   1      30.173  28.448  22.340  1.00  0.00     0.099 C 
ATOM     30  N   UNL A   1      30.065  29.340  21.601  1.00  0.00    -0.192 NA
ENDBRANCH  25  29
ENDBRANCH  17  20
ENDBRANCH  10  16
ENDBRANCH   7   9
ENDBRANCH   6   7
ENDBRANCH   5   6
ENDBRANCH   4   5
ENDBRANCH   3   4
ENDBRANCH   2   3
ENDBRANCH   1   2
BRANCH   1  31
ATOM     31  O   UNL A   1      33.418  31.574  27.163  1.00  0.00    -0.377 OA
BRANCH  31  32
ATOM     32  C   UNL A   1      34.106  32.500  28.002  1.00  0.00     0.188 C 
BRANCH  32  33
ATOM     33  C   UNL A   1      33.252  33.618  28.640  1.00  0.00     0.188 C 
BRANCH  33  34
ATOM     34  O   UNL A   1      33.746  34.934  28.433  1.00  0.00    -0.376 OA
BRANCH  34  35
ATOM     35  C   UNL A   1      33.338  35.924  29.365  1.00  0.00     0.202 C 
BRANCH  35  36
ATOM     36  C   UNL A   1      33.011  35.506  30.810  1.00  0.00     0.261 C 
BRANCH  36  37
ATOM     37  O   UNL A   1      34.137  35.346  31.668  1.00  0.00    -0.460 OA
BRANCH  37  38
ATOM     38  C   UNL A   1      34.242  34.167  32.318  1.00  0.00     0.338 C 
ATOM     39  O   UNL A   1      33.351  33.551  32.872  1.00  0.00    -0.246 OA
BRANCH  38  40
ATOM     40  C   UNL A   1      35.571  33.638  31.964  1.00  0.00     0.060 A 
ATOM     41  C   UNL A   1      36.156  32.689  32.814  1.00  0.00     0.016 A 
ATOM     42  C   UNL A   1      36.160  33.975  30.742  1.00  0.00     0.016 A 
ATOM     43  C   UNL A   1      37.340  32.068  32.439  1.00  0.00     0.010 A 
ATOM     44  C   UNL A   1      37.369  33.388  30.388  1.00  0.00     0.010 A 
ATOM     45  C   UNL A   1      37.971  32.460  31.253  1.00  0.00    -0.014 A 
BRANCH  45  46
ATOM     46  C   UNL A   1      39.398  32.141  31.079  1.00  0.00     0.031 A 
ATOM     47  C   UNL A   1      40.376  33.044  31.775  1.00  0.00     0.074 A 
ATOM     48  C   UNL A   1      39.797  31.081  30.358  1.00  0.00     0.049 A 
ATOM     49  N   UNL A   1      41.679  33.031  31.755  1.00  0.00    -0.248 NA
ATOM     50  C   UNL A   1      39.794  34.116  32.603  1.00  0.00     0.031 C 
ATOM     51  C   UNL A   1      38.910  30.126  29.695  1.00  0.00     0.029 A 
ATOM     52  N   UNL A   1      41.057  30.638  30.062  1.00  0.00    -0.354 N 
ATOM     53  C   UNL A   1      42.071  34.091  32.564  1.00  0.00     0.074 A 
ATOM     54  C   UNL A   1      40.872  34.753  33.020  1.00  0.00     0.031 C 
ATOM     55  C   UNL A   1      39.661  29.210  29.057  1.00  0.00     0.029 A 
ATOM     56  C   UNL A   1      41.074  29.541  29.234  1.00  0.00     0.049 A 
ATOM     57  H   UNL A   1      41.874  31.063  30.409  1.00  0.00     0.167 HD
ATOM     58  C   UNL A   1      43.327  34.469  32.900  1.00  0.00     0.034 A 
ATOM     59  C   UNL A   1      42.119  28.906  28.669  1.00  0.00     0.034 A 
ATOM     60  C   UNL A   1      44.501  33.802  32.402  1.00  0.00     0.049 A 
ATOM     61  C   UNL A   1      43.512  29.409  28.977  1.00  0.00     0.074 A 
ATOM     62  C   UNL A   1      45.828  34.089  32.659  1.00  0.00     0.029 A 
ATOM     63  N   UNL A   1      44.486  32.722  31.528  1.00  0.00    -0.354 N 
ATOM     64  N   UNL A   1      43.881  30.408  29.749  1.00  0.00    -0.248 NA
ATOM     65  C   UNL A   1      44.628  28.694  28.347  1.00  0.00     0.031 C 
ATOM     66  C   UNL A   1      46.613  33.236  31.877  1.00  0.00     0.029 A 
ATOM     67  C   UNL A   1      45.780  32.352  31.207  1.00  0.00     0.049 A 
ATOM     68  H   UNL A   1      43.673  32.284  31.185  1.00  0.00     0.167 HD
ATOM     69  C   UNL A   1      45.274  30.414  29.726  1.00  0.00     0.074 A 
ATOM     70  C   UNL A   1      45.675  29.311  28.876  1.00  0.00     0.031 C 
ATOM     71  C   UNL A   1      46.147  31.248  30.350  1.00  0.00     0.034 A 
BRANCH  58  72
ATOM     72  C   UNL A   1      43.471  35.682  33.783  1.00  0.00     0.023 A 
ATOM     73  C   UNL A   1      43.494  36.986  33.254  1.00  0.00     0.031 A 
ATOM     74  C   UNL A   1      43.639  35.531  35.170  1.00  0.00     0.131 A 
ATOM     75  C   UNL A   1      43.750  38.078  34.097  1.00  0.00     0.055 A 
ATOM     76  C   UNL A   1      43.806  36.630  36.015  1.00  0.00     0.041 A 
ATOM     77  F   UNL A   1      43.664  34.310  35.726  1.00  0.00    -0.206 F 
ATOM     78  C   UNL A   1      43.877  37.911  35.479  1.00  0.00     0.022 A 
BRANCH  75  79
ATOM     79  S   UNL A   1      44.068  39.698  33.346  1.00  0.00     0.124 S 
ATOM     80  O   UNL A   1      44.925  40.326  34.349  1.00  0.00    -0.237 OA
ATOM     81  O   UNL A   1      44.714  39.342  32.088  1.00  0.00    -0.237 OA
ATOM     82  O   UNL A   1      42.736  40.286  33.219  1.00  0.00    -0.744 OA
ENDBRANCH  75  79
ENDBRANCH  58  72
BRANCH  59  83
ATOM     83  C   UNL A   1      41.905  27.763  27.735  1.00  0.00     0.023 A 
ATOM     84  C   UNL A   1      41.939  26.437  28.192  1.00  0.00     0.031 A 
ATOM     85  C   UNL A   1      41.722  27.979  26.357  1.00  0.00     0.131 A 
ATOM     86  C   UNL A   1      41.850  25.378  27.275  1.00  0.00     0.055 A 
ATOM     87  C   UNL A   1      41.572  26.922  25.456  1.00  0.00     0.041 A 
ATOM     88  F   UNL A   1      41.685  29.227  25.862  1.00  0.00    -0.206 F 
ATOM     89  C   UNL A   1      41.651  25.611  25.913  1.00  0.00     0.022 A 
BRANCH  86  90
ATOM     90  S   UNL A   1      42.107  23.686  27.878  1.00  0.00     0.124 S 
ATOM     91  O   UNL A   1      40.766  23.125  27.762  1.00  0.00    -0.237 OA
ATOM     92  O   UNL A   1      43.100  23.178  26.937  1.00  0.00    -0.237 OA
ATOM     93  O   UNL A   1      42.588  23.881  29.244  1.00  0.00    -0.744 OA
ENDBRANCH  86  90
ENDBRANCH  59  83
BRANCH  71  94
ATOM     94  C   UNL A   1      47.618  30.957  30.176  1.00  0.00     0.023 A 
ATOM     95  C   UNL A   1      48.380  31.560  29.163  1.00  0.00     0.031 A 
ATOM     96  C   UNL A   1      48.264  30.057  31.044  1.00  0.00     0.131 A 
ATOM     97  C   UNL A   1      49.727  31.205  28.999  1.00  0.00     0.055 A 
ATOM     98  C   UNL A   1      49.623  29.767  30.925  1.00  0.00     0.041 A 
ATOM     99  F   UNL A   1      47.584  29.449  32.030  1.00  0.00    -0.206 F 
ATOM    100  C   UNL A   1      50.358  30.331  29.887  1.00  0.00     0.022 A 
BRANCH  97 101
ATOM    101  S   UNL A   1      50.614  31.816  27.541  1.00  0.00     0.124 S 
ATOM    102  O   UNL A   1      52.004  31.554  27.901  1.00  0.00    -0.237 OA
ATOM    103  O   UNL A   1      50.066  30.988  26.472  1.00  0.00    -0.237 OA
ATOM    104  O   UNL A   1      50.245  33.229  27.482  1.00  0.00    -0.744 OA
ENDBRANCH  97 101
ENDBRANCH  71  94
ENDBRANCH  45  46
ENDBRANCH  38  40
ENDBRANCH  37  38
ENDBRANCH  36  37
ENDBRANCH  35  36
ENDBRANCH  34  35
ENDBRANCH  33  34
ENDBRANCH  32  33
ENDBRANCH  31  32
ENDBRANCH   1  31
TORSDOF 28
ENDMDL
