MODEL 1
REMARK VINA RESULT:      -9.9      0.000      0.000
REMARK SMILES C[C@H](C(=O)OCCOCCOCCOCCOC(=O)c1ccc(-c2c3nc(c(-c4cc(S(=O)(=O)[O-])ccc4F)c4ccc([nH]4)c(-c4cc(S(=O)(=O)[O-])ccc4F)c4nc(c(-c5cc(S(=O)(=O)[O-])ccc5F)c5ccc2[nH]5)C=C4)C=C3)cc1)c1ccc(C[C@@H]2CCC[C@H]2O)cc1
REMARK SMILES IDX 10 1 9 2 8 3 7 4 6 5 5 6 3 7 4 8 2 9 1 10 83 11 84 12 95 13
REMARK SMILES IDX 85 14 94 15 86 16 87 17 88 18 89 19 92 20 90 21 91 22 93 23
REMARK SMILES IDX 11 25 12 26 13 27 14 28 15 29 16 30 17 31 18 32 19 33 20 34
REMARK SMILES IDX 21 35 82 36 22 37 81 38 23 39 24 40 25 41 75 42 26 43 80 44
REMARK SMILES IDX 74 45 76 46 27 47 79 48 73 49 72 50 28 52 60 53 40 54 59 55
REMARK SMILES IDX 41 56 44 57 58 58 77 59 42 60 43 61 57 63 78 64 45 65 29 66
REMARK SMILES IDX 30 67 38 68 31 69 37 70 39 71 36 72 32 73 33 74 34 75 35 76
REMARK SMILES IDX 61 77 62 78 70 79 63 80 69 81 71 82 68 83 64 84 65 85 66 86
REMARK SMILES IDX 67 87 46 88 47 89 55 90 48 91 54 92 56 93 53 94 49 95 50 96
REMARK SMILES IDX 51 97 52 98
REMARK H PARENT 93 24 76 51 44 62
REMARK Flexibility Score: inf
ROOT
ATOM      1  C   UNL A   1      34.949  23.114  26.137  1.00  0.00     0.188 C 
ENDROOT
BRANCH   1   2
ATOM      2  C   UNL A   1      33.545  23.085  26.767  1.00  0.00     0.188 C 
BRANCH   2   3
ATOM      3  O   UNL A   1      32.384  23.462  26.032  1.00  0.00    -0.376 OA
BRANCH   3   4
ATOM      4  C   UNL A   1      31.819  22.545  25.108  1.00  0.00     0.202 C 
BRANCH   4   5
ATOM      5  C   UNL A   1      32.270  22.667  23.637  1.00  0.00     0.261 C 
BRANCH   5   6
ATOM      6  O   UNL A   1      32.233  23.997  23.062  1.00  0.00    -0.463 OA
BRANCH   6   7
ATOM      7  C   UNL A   1      33.028  24.240  21.994  1.00  0.00     0.313 C 
ATOM      8  O   UNL A   1      33.702  23.366  21.449  1.00  0.00    -0.252 OA
BRANCH   7   9
ATOM      9  C   UNL A   1      33.040  25.684  21.455  1.00  0.00     0.126 C 
ATOM     10  C   UNL A   1      32.303  25.665  20.096  1.00  0.00     0.025 C 
BRANCH   9  11
ATOM     11  C   UNL A   1      32.636  26.873  22.340  1.00  0.00    -0.034 A 
ATOM     12  C   UNL A   1      33.562  27.821  22.816  1.00  0.00     0.005 A 
ATOM     13  C   UNL A   1      31.305  27.032  22.758  1.00  0.00     0.005 A 
ATOM     14  C   UNL A   1      33.177  28.880  23.644  1.00  0.00     0.004 A 
ATOM     15  C   UNL A   1      30.940  28.049  23.664  1.00  0.00     0.004 A 
ATOM     16  C   UNL A   1      31.883  28.964  24.149  1.00  0.00    -0.048 A 
BRANCH  16  17
ATOM     17  C   UNL A   1      31.507  30.020  25.166  1.00  0.00     0.041 C 
BRANCH  17  18
ATOM     18  C   UNL A   1      31.751  29.734  26.674  1.00  0.00     0.022 C 
ATOM     19  C   UNL A   1      33.061  30.297  27.248  1.00  0.00     0.007 C 
ATOM     20  C   UNL A   1      31.801  28.251  27.057  1.00  0.00     0.117 C 
ATOM     21  C   UNL A   1      34.042  29.128  27.360  1.00  0.00     0.003 C 
ATOM     22  C   UNL A   1      33.273  27.863  26.979  1.00  0.00     0.032 C 
BRANCH  20  23
ATOM     23  O   UNL A   1      31.359  28.085  28.408  1.00  0.00    -0.393 OA
ATOM     24  H   UNL A   1      32.056  27.654  28.927  1.00  0.00     0.210 HD
ENDBRANCH  20  23
ENDBRANCH  17  18
ENDBRANCH  16  17
ENDBRANCH   9  11
ENDBRANCH   7   9
ENDBRANCH   6   7
ENDBRANCH   5   6
ENDBRANCH   4   5
ENDBRANCH   3   4
ENDBRANCH   2   3
ENDBRANCH   1   2
BRANCH   1  25
ATOM     25  O   UNL A   1      35.510  21.861  25.808  1.00  0.00    -0.377 OA
BRANCH  25  26
ATOM     26  C   UNL A   1      36.687  21.915  25.033  1.00  0.00     0.188 C 
BRANCH  26  27
ATOM     27  C   UNL A   1      37.818  22.693  25.716  1.00  0.00     0.188 C 
BRANCH  27  28
ATOM     28  O   UNL A   1      38.919  21.855  26.058  1.00  0.00    -0.376 OA
BRANCH  28  29
ATOM     29  C   UNL A   1      38.974  20.548  25.509  1.00  0.00     0.202 C 
BRANCH  29  30
ATOM     30  C   UNL A   1      39.983  19.542  26.093  1.00  0.00     0.261 C 
BRANCH  30  31
ATOM     31  O   UNL A   1      41.242  19.394  25.420  1.00  0.00    -0.460 OA
BRANCH  31  32
ATOM     32  C   UNL A   1      42.371  19.654  26.113  1.00  0.00     0.338 C 
ATOM     33  O   UNL A   1      43.319  18.901  26.258  1.00  0.00    -0.246 OA
BRANCH  32  34
ATOM     34  C   UNL A   1      42.362  21.094  26.466  1.00  0.00     0.060 A 
ATOM     35  C   UNL A   1      42.364  22.041  25.432  1.00  0.00     0.016 A 
ATOM     36  C   UNL A   1      42.314  21.512  27.798  1.00  0.00     0.016 A 
ATOM     37  C   UNL A   1      42.342  23.405  25.727  1.00  0.00     0.010 A 
ATOM     38  C   UNL A   1      42.327  22.880  28.094  1.00  0.00     0.010 A 
ATOM     39  C   UNL A   1      42.373  23.833  27.060  1.00  0.00    -0.014 A 
BRANCH  39  40
ATOM     40  C   UNL A   1      42.692  25.252  27.359  1.00  0.00     0.031 A 
ATOM     41  C   UNL A   1      44.042  25.771  26.939  1.00  0.00     0.074 A 
ATOM     42  C   UNL A   1      41.800  26.074  27.940  1.00  0.00     0.049 A 
ATOM     43  N   UNL A   1      44.575  26.951  27.117  1.00  0.00    -0.248 NA
ATOM     44  C   UNL A   1      44.906  24.821  26.221  1.00  0.00     0.031 C 
ATOM     45  C   UNL A   1      40.439  25.707  28.327  1.00  0.00     0.029 A 
ATOM     46  N   UNL A   1      41.910  27.394  28.306  1.00  0.00    -0.354 N 
ATOM     47  C   UNL A   1      45.840  26.884  26.540  1.00  0.00     0.074 A 
ATOM     48  C   UNL A   1      46.005  25.537  26.040  1.00  0.00     0.031 C 
ATOM     49  C   UNL A   1      39.842  26.777  28.882  1.00  0.00     0.029 A 
ATOM     50  C   UNL A   1      40.788  27.891  28.931  1.00  0.00     0.049 A 
ATOM     51  H   UNL A   1      42.715  27.934  28.135  1.00  0.00     0.167 HD
ATOM     52  C   UNL A   1      46.774  27.859  26.432  1.00  0.00     0.034 A 
ATOM     53  C   UNL A   1      40.568  29.095  29.499  1.00  0.00     0.034 A 
ATOM     54  C   UNL A   1      46.598  29.194  26.948  1.00  0.00     0.049 A 
ATOM     55  C   UNL A   1      41.668  30.133  29.465  1.00  0.00     0.074 A 
ATOM     56  C   UNL A   1      47.475  30.263  26.887  1.00  0.00     0.029 A 
ATOM     57  N   UNL A   1      45.477  29.639  27.636  1.00  0.00    -0.354 N 
ATOM     58  N   UNL A   1      42.861  30.060  28.916  1.00  0.00    -0.248 NA
ATOM     59  C   UNL A   1      41.392  31.417  30.123  1.00  0.00     0.031 C 
ATOM     60  C   UNL A   1      46.924  31.323  27.612  1.00  0.00     0.029 A 
ATOM     61  C   UNL A   1      45.659  30.953  28.041  1.00  0.00     0.049 A 
ATOM     62  H   UNL A   1      44.671  29.102  27.810  1.00  0.00     0.167 HD
ATOM     63  C   UNL A   1      43.455  31.303  29.130  1.00  0.00     0.074 A 
ATOM     64  C   UNL A   1      42.488  32.107  29.846  1.00  0.00     0.031 C 
ATOM     65  C   UNL A   1      44.687  31.743  28.761  1.00  0.00     0.034 A 
BRANCH  52  66
ATOM     66  C   UNL A   1      48.092  27.492  25.793  1.00  0.00     0.023 A 
ATOM     67  C   UNL A   1      48.347  27.714  24.429  1.00  0.00     0.031 A 
ATOM     68  C   UNL A   1      49.100  26.878  26.559  1.00  0.00     0.131 A 
ATOM     69  C   UNL A   1      49.548  27.264  23.859  1.00  0.00     0.055 A 
ATOM     70  C   UNL A   1      50.327  26.511  26.005  1.00  0.00     0.041 A 
ATOM     71  F   UNL A   1      48.903  26.614  27.860  1.00  0.00    -0.206 F 
ATOM     72  C   UNL A   1      50.552  26.690  24.643  1.00  0.00     0.022 A 
BRANCH  69  73
ATOM     73  S   UNL A   1      49.719  27.298  22.053  1.00  0.00     0.124 S 
ATOM     74  O   UNL A   1      48.921  26.140  21.659  1.00  0.00    -0.237 OA
ATOM     75  O   UNL A   1      49.165  28.603  21.709  1.00  0.00    -0.237 OA
ATOM     76  O   UNL A   1      51.157  27.155  21.842  1.00  0.00    -0.744 OA
ENDBRANCH  69  73
ENDBRANCH  52  66
BRANCH  53  77
ATOM     77  C   UNL A   1      39.278  29.387  30.195  1.00  0.00     0.023 A 
ATOM     78  C   UNL A   1      38.360  30.310  29.668  1.00  0.00     0.031 A 
ATOM     79  C   UNL A   1      38.980  28.803  31.440  1.00  0.00     0.131 A 
ATOM     80  C   UNL A   1      37.217  30.661  30.406  1.00  0.00     0.055 A 
ATOM     81  C   UNL A   1      37.811  29.109  32.139  1.00  0.00     0.041 A 
ATOM     82  F   UNL A   1      39.826  27.923  31.997  1.00  0.00    -0.206 F 
ATOM     83  C   UNL A   1      36.929  30.056  31.630  1.00  0.00     0.022 A 
BRANCH  80  84
ATOM     84  S   UNL A   1      36.166  32.007  29.792  1.00  0.00     0.124 S 
ATOM     85  O   UNL A   1      36.333  31.877  28.347  1.00  0.00    -0.237 OA
ATOM     86  O   UNL A   1      34.859  31.635  30.322  1.00  0.00    -0.237 OA
ATOM     87  O   UNL A   1      36.761  33.202  30.385  1.00  0.00    -0.744 OA
ENDBRANCH  80  84
ENDBRANCH  53  77
BRANCH  65  88
ATOM     88  C   UNL A   1      45.034  33.180  29.076  1.00  0.00     0.023 A 
ATOM     89  C   UNL A   1      44.647  34.243  28.241  1.00  0.00     0.031 A 
ATOM     90  C   UNL A   1      45.767  33.489  30.238  1.00  0.00     0.131 A 
ATOM     91  C   UNL A   1      45.045  35.554  28.547  1.00  0.00     0.055 A 
ATOM     92  C   UNL A   1      46.098  34.802  30.574  1.00  0.00     0.041 A 
ATOM     93  F   UNL A   1      46.167  32.516  31.072  1.00  0.00    -0.206 F 
ATOM     94  C   UNL A   1      45.749  35.843  29.719  1.00  0.00     0.022 A 
BRANCH  91  95
ATOM     95  S   UNL A   1      44.719  36.868  27.340  1.00  0.00     0.124 S 
ATOM     96  O   UNL A   1      43.619  36.302  26.566  1.00  0.00    -0.237 OA
ATOM     97  O   UNL A   1      44.380  38.001  28.196  1.00  0.00    -0.237 OA
ATOM     98  O   UNL A   1      45.985  36.993  26.619  1.00  0.00    -0.744 OA
ENDBRANCH  91  95
ENDBRANCH  65  88
ENDBRANCH  39  40
ENDBRANCH  32  34
ENDBRANCH  31  32
ENDBRANCH  30  31
ENDBRANCH  29  30
ENDBRANCH  28  29
ENDBRANCH  27  28
ENDBRANCH  26  27
ENDBRANCH  25  26
ENDBRANCH   1  25
TORSDOF 27
ENDMDL
MODEL 2
REMARK VINA RESULT:      -9.8      1.851      2.852
REMARK SMILES C[C@H](C(=O)OCCOCCOCCOCCOC(=O)c1ccc(-c2c3nc(c(-c4cc(S(=O)(=O)[O-])ccc4F)c4ccc([nH]4)c(-c4cc(S(=O)(=O)[O-])ccc4F)c4nc(c(-c5cc(S(=O)(=O)[O-])ccc5F)c5ccc2[nH]5)C=C4)C=C3)cc1)c1ccc(C[C@@H]2CCC[C@H]2O)cc1
REMARK SMILES IDX 10 1 9 2 8 3 7 4 6 5 5 6 3 7 4 8 2 9 1 10 83 11 84 12 95 13
REMARK SMILES IDX 85 14 94 15 86 16 87 17 88 18 89 19 92 20 90 21 91 22 93 23
REMARK SMILES IDX 11 25 12 26 13 27 14 28 15 29 16 30 17 31 18 32 19 33 20 34
REMARK SMILES IDX 21 35 82 36 22 37 81 38 23 39 24 40 25 41 75 42 26 43 80 44
REMARK SMILES IDX 74 45 76 46 27 47 79 48 73 49 72 50 28 52 60 53 40 54 59 55
REMARK SMILES IDX 41 56 44 57 58 58 77 59 42 60 43 61 57 63 78 64 45 65 29 66
REMARK SMILES IDX 30 67 38 68 31 69 37 70 39 71 36 72 32 73 33 74 34 75 35 76
REMARK SMILES IDX 61 77 62 78 70 79 63 80 69 81 71 82 68 83 64 84 65 85 66 86
REMARK SMILES IDX 67 87 46 88 47 89 55 90 48 91 54 92 56 93 53 94 49 95 50 96
REMARK SMILES IDX 51 97 52 98
REMARK H PARENT 93 24 76 51 44 62
REMARK Flexibility Score: inf
ROOT
ATOM      1  C   UNL A   1      34.336  23.799  23.877  1.00  0.00     0.188 C 
ENDROOT
BRANCH   1   2
ATOM      2  C   UNL A   1      33.473  22.525  23.874  1.00  0.00     0.188 C 
BRANCH   2   3
ATOM      3  O   UNL A   1      32.182  22.491  24.476  1.00  0.00    -0.376 OA
BRANCH   3   4
ATOM      4  C   UNL A   1      32.073  22.321  25.881  1.00  0.00     0.202 C 
BRANCH   4   5
ATOM      5  C   UNL A   1      31.327  23.422  26.662  1.00  0.00     0.261 C 
BRANCH   5   6
ATOM      6  O   UNL A   1      31.815  24.776  26.490  1.00  0.00    -0.463 OA
BRANCH   6   7
ATOM      7  C   UNL A   1      30.923  25.719  26.105  1.00  0.00     0.313 C 
ATOM      8  O   UNL A   1      29.728  25.668  26.395  1.00  0.00    -0.252 OA
BRANCH   7   9
ATOM      9  C   UNL A   1      31.478  26.905  25.292  1.00  0.00     0.126 C 
ATOM     10  C   UNL A   1      30.338  27.393  24.369  1.00  0.00     0.025 C 
BRANCH   9  11
ATOM     11  C   UNL A   1      32.236  28.056  25.971  1.00  0.00    -0.034 A 
ATOM     12  C   UNL A   1      31.834  29.401  25.868  1.00  0.00     0.005 A 
ATOM     13  C   UNL A   1      33.414  27.809  26.694  1.00  0.00     0.005 A 
ATOM     14  C   UNL A   1      32.554  30.438  26.470  1.00  0.00     0.004 A 
ATOM     15  C   UNL A   1      34.183  28.865  27.223  1.00  0.00     0.004 A 
ATOM     16  C   UNL A   1      33.781  30.199  27.083  1.00  0.00    -0.048 A 
BRANCH  16  17
ATOM     17  C   UNL A   1      34.632  31.339  27.599  1.00  0.00     0.041 C 
BRANCH  17  18
ATOM     18  C   UNL A   1      34.012  32.348  28.606  1.00  0.00     0.022 C 
ATOM     19  C   UNL A   1      33.394  33.608  27.979  1.00  0.00     0.007 C 
ATOM     20  C   UNL A   1      34.984  32.907  29.650  1.00  0.00     0.117 C 
ATOM     21  C   UNL A   1      34.393  34.749  28.188  1.00  0.00     0.003 C 
ATOM     22  C   UNL A   1      35.530  34.196  29.046  1.00  0.00     0.032 C 
BRANCH  20  23
ATOM     23  O   UNL A   1      34.271  33.234  30.847  1.00  0.00    -0.393 OA
ATOM     24  H   UNL A   1      33.480  33.749  30.623  1.00  0.00     0.210 HD
ENDBRANCH  20  23
ENDBRANCH  17  18
ENDBRANCH  16  17
ENDBRANCH   9  11
ENDBRANCH   7   9
ENDBRANCH   6   7
ENDBRANCH   5   6
ENDBRANCH   4   5
ENDBRANCH   3   4
ENDBRANCH   2   3
ENDBRANCH   1   2
BRANCH   1  25
ATOM     25  O   UNL A   1      35.511  23.753  24.658  1.00  0.00    -0.377 OA
BRANCH  25  26
ATOM     26  C   UNL A   1      36.572  23.008  24.102  1.00  0.00     0.188 C 
BRANCH  26  27
ATOM     27  C   UNL A   1      37.263  22.096  25.122  1.00  0.00     0.188 C 
BRANCH  27  28
ATOM     28  O   UNL A   1      36.846  20.738  25.000  1.00  0.00    -0.376 OA
BRANCH  28  29
ATOM     29  C   UNL A   1      37.830  19.718  25.056  1.00  0.00     0.202 C 
BRANCH  29  30
ATOM     30  C   UNL A   1      39.315  20.125  25.115  1.00  0.00     0.261 C 
BRANCH  30  31
ATOM     31  O   UNL A   1      40.037  19.835  26.320  1.00  0.00    -0.460 OA
BRANCH  31  32
ATOM     32  C   UNL A   1      41.374  19.662  26.238  1.00  0.00     0.338 C 
ATOM     33  O   UNL A   1      41.951  18.656  25.863  1.00  0.00    -0.246 OA
BRANCH  32  34
ATOM     34  C   UNL A   1      42.013  20.982  26.457  1.00  0.00     0.060 A 
ATOM     35  C   UNL A   1      42.266  21.399  27.771  1.00  0.00     0.016 A 
ATOM     36  C   UNL A   1      42.394  21.789  25.381  1.00  0.00     0.016 A 
ATOM     37  C   UNL A   1      42.879  22.629  28.014  1.00  0.00     0.010 A 
ATOM     38  C   UNL A   1      42.975  23.038  25.627  1.00  0.00     0.010 A 
ATOM     39  C   UNL A   1      43.192  23.477  26.945  1.00  0.00    -0.014 A 
BRANCH  39  40
ATOM     40  C   UNL A   1      43.518  24.900  27.220  1.00  0.00     0.031 A 
ATOM     41  C   UNL A   1      44.937  25.350  26.995  1.00  0.00     0.074 A 
ATOM     42  C   UNL A   1      42.580  25.782  27.608  1.00  0.00     0.049 A 
ATOM     43  N   UNL A   1      45.484  26.520  27.196  1.00  0.00    -0.248 NA
ATOM     44  C   UNL A   1      45.864  24.333  26.473  1.00  0.00     0.031 C 
ATOM     45  C   UNL A   1      41.161  25.482  27.791  1.00  0.00     0.029 A 
ATOM     46  N   UNL A   1      42.685  27.116  27.919  1.00  0.00    -0.354 N 
ATOM     47  C   UNL A   1      46.819  26.380  26.832  1.00  0.00     0.074 A 
ATOM     48  C   UNL A   1      47.006  25.002  26.434  1.00  0.00     0.031 C 
ATOM     49  C   UNL A   1      40.528  26.601  28.189  1.00  0.00     0.029 A 
ATOM     50  C   UNL A   1      41.500  27.684  28.332  1.00  0.00     0.049 A 
ATOM     51  H   UNL A   1      43.528  27.620  27.853  1.00  0.00     0.167 HD
ATOM     52  C   UNL A   1      47.799  27.317  26.826  1.00  0.00     0.034 A 
ATOM     53  C   UNL A   1      41.243  28.924  28.796  1.00  0.00     0.034 A 
ATOM     54  C   UNL A   1      47.598  28.683  27.239  1.00  0.00     0.049 A 
ATOM     55  C   UNL A   1      42.376  29.923  28.886  1.00  0.00     0.074 A 
ATOM     56  C   UNL A   1      48.517  29.718  27.265  1.00  0.00     0.029 A 
ATOM     57  N   UNL A   1      46.402  29.203  27.716  1.00  0.00    -0.354 N 
ATOM     58  N   UNL A   1      43.637  29.780  28.539  1.00  0.00    -0.248 NA
ATOM     59  C   UNL A   1      42.053  31.250  29.425  1.00  0.00     0.031 C 
ATOM     60  C   UNL A   1      47.902  30.834  27.838  1.00  0.00     0.029 A 
ATOM     61  C   UNL A   1      46.572  30.531  28.078  1.00  0.00     0.049 A 
ATOM     62  H   UNL A   1      45.558  28.703  27.786  1.00  0.00     0.167 HD
ATOM     63  C   UNL A   1      44.240  31.014  28.782  1.00  0.00     0.074 A 
ATOM     64  C   UNL A   1      43.206  31.887  29.292  1.00  0.00     0.031 C 
ATOM     65  C   UNL A   1      45.532  31.392  28.592  1.00  0.00     0.034 A 
BRANCH  52  66
ATOM     66  C   UNL A   1      49.185  26.870  26.425  1.00  0.00     0.023 A 
ATOM     67  C   UNL A   1      49.786  27.290  25.225  1.00  0.00     0.031 A 
ATOM     68  C   UNL A   1      49.904  25.983  27.246  1.00  0.00     0.131 A 
ATOM     69  C   UNL A   1      51.033  26.770  24.848  1.00  0.00     0.055 A 
ATOM     70  C   UNL A   1      51.182  25.537  26.906  1.00  0.00     0.041 A 
ATOM     71  F   UNL A   1      49.370  25.525  28.389  1.00  0.00    -0.206 F 
ATOM     72  C   UNL A   1      51.748  25.918  25.694  1.00  0.00     0.022 A 
BRANCH  69  73
ATOM     73  S   UNL A   1      51.639  27.099  23.170  1.00  0.00     0.124 S 
ATOM     74  O   UNL A   1      50.487  26.712  22.359  1.00  0.00    -0.237 OA
ATOM     75  O   UNL A   1      51.938  28.525  23.217  1.00  0.00    -0.237 OA
ATOM     76  O   UNL A   1      52.800  26.221  23.047  1.00  0.00    -0.744 OA
ENDBRANCH  69  73
ENDBRANCH  52  66
BRANCH  53  77
ATOM     77  C   UNL A   1      39.872  29.298  29.261  1.00  0.00     0.023 A 
ATOM     78  C   UNL A   1      39.541  29.300  30.626  1.00  0.00     0.031 A 
ATOM     79  C   UNL A   1      38.850  29.583  28.337  1.00  0.00     0.131 A 
ATOM     80  C   UNL A   1      38.214  29.529  31.025  1.00  0.00     0.055 A 
ATOM     81  C   UNL A   1      37.546  29.873  28.744  1.00  0.00     0.041 A 
ATOM     82  F   UNL A   1      39.105  29.585  27.019  1.00  0.00    -0.206 F 
ATOM     83  C   UNL A   1      37.218  29.831  30.095  1.00  0.00     0.022 A 
BRANCH  80  84
ATOM     84  S   UNL A   1      37.785  29.317  32.775  1.00  0.00     0.124 S 
ATOM     85  O   UNL A   1      36.535  30.067  32.866  1.00  0.00    -0.237 OA
ATOM     86  O   UNL A   1      37.672  27.867  32.886  1.00  0.00    -0.237 OA
ATOM     87  O   UNL A   1      38.921  29.908  33.479  1.00  0.00    -0.744 OA
ENDBRANCH  80  84
ENDBRANCH  53  77
BRANCH  65  88
ATOM     88  C   UNL A   1      45.884  32.832  28.886  1.00  0.00     0.023 A 
ATOM     89  C   UNL A   1      45.779  33.840  27.912  1.00  0.00     0.031 A 
ATOM     90  C   UNL A   1      46.332  33.200  30.169  1.00  0.00     0.131 A 
ATOM     91  C   UNL A   1      46.174  35.152  28.217  1.00  0.00     0.055 A 
ATOM     92  C   UNL A   1      46.655  34.519  30.487  1.00  0.00     0.041 A 
ATOM     93  F   UNL A   1      46.455  32.280  31.139  1.00  0.00    -0.206 F 
ATOM     94  C   UNL A   1      46.591  35.502  29.504  1.00  0.00     0.022 A 
BRANCH  91  95
ATOM     95  S   UNL A   1      46.236  36.378  26.881  1.00  0.00     0.124 S 
ATOM     96  O   UNL A   1      47.064  37.425  27.470  1.00  0.00    -0.237 OA
ATOM     97  O   UNL A   1      46.843  35.622  25.792  1.00  0.00    -0.237 OA
ATOM     98  O   UNL A   1      44.833  36.737  26.680  1.00  0.00    -0.744 OA
ENDBRANCH  91  95
ENDBRANCH  65  88
ENDBRANCH  39  40
ENDBRANCH  32  34
ENDBRANCH  31  32
ENDBRANCH  30  31
ENDBRANCH  29  30
ENDBRANCH  28  29
ENDBRANCH  27  28
ENDBRANCH  26  27
ENDBRANCH  25  26
ENDBRANCH   1  25
TORSDOF 27
ENDMDL
MODEL 3
REMARK VINA RESULT:      -9.4      2.393      7.996
REMARK SMILES C[C@H](C(=O)OCCOCCOCCOCCOC(=O)c1ccc(-c2c3nc(c(-c4cc(S(=O)(=O)[O-])ccc4F)c4ccc([nH]4)c(-c4cc(S(=O)(=O)[O-])ccc4F)c4nc(c(-c5cc(S(=O)(=O)[O-])ccc5F)c5ccc2[nH]5)C=C4)C=C3)cc1)c1ccc(C[C@@H]2CCC[C@H]2O)cc1
REMARK SMILES IDX 10 1 9 2 8 3 7 4 6 5 5 6 3 7 4 8 2 9 1 10 83 11 84 12 95 13
REMARK SMILES IDX 85 14 94 15 86 16 87 17 88 18 89 19 92 20 90 21 91 22 93 23
REMARK SMILES IDX 11 25 12 26 13 27 14 28 15 29 16 30 17 31 18 32 19 33 20 34
REMARK SMILES IDX 21 35 82 36 22 37 81 38 23 39 24 40 25 41 75 42 26 43 80 44
REMARK SMILES IDX 74 45 76 46 27 47 79 48 73 49 72 50 28 52 60 53 40 54 59 55
REMARK SMILES IDX 41 56 44 57 58 58 77 59 42 60 43 61 57 63 78 64 45 65 29 66
REMARK SMILES IDX 30 67 38 68 31 69 37 70 39 71 36 72 32 73 33 74 34 75 35 76
REMARK SMILES IDX 61 77 62 78 70 79 63 80 69 81 71 82 68 83 64 84 65 85 66 86
REMARK SMILES IDX 67 87 46 88 47 89 55 90 48 91 54 92 56 93 53 94 49 95 50 96
REMARK SMILES IDX 51 97 52 98
REMARK H PARENT 93 24 76 51 44 62
REMARK Flexibility Score: inf
ROOT
ATOM      1  C   UNL A   1      34.040  24.131  23.928  1.00  0.00     0.188 C 
ENDROOT
BRANCH   1   2
ATOM      2  C   UNL A   1      33.272  22.799  23.866  1.00  0.00     0.188 C 
BRANCH   2   3
ATOM      3  O   UNL A   1      31.926  22.686  24.321  1.00  0.00    -0.376 OA
BRANCH   3   4
ATOM      4  C   UNL A   1      31.668  22.598  25.713  1.00  0.00     0.202 C 
BRANCH   4   5
ATOM      5  C   UNL A   1      31.061  23.845  26.392  1.00  0.00     0.261 C 
BRANCH   5   6
ATOM      6  O   UNL A   1      31.867  25.049  26.361  1.00  0.00    -0.463 OA
BRANCH   6   7
ATOM      7  C   UNL A   1      31.395  26.100  25.650  1.00  0.00     0.313 C 
ATOM      8  O   UNL A   1      30.193  26.318  25.495  1.00  0.00    -0.252 OA
BRANCH   7   9
ATOM      9  C   UNL A   1      32.445  27.055  25.047  1.00  0.00     0.126 C 
ATOM     10  C   UNL A   1      31.924  27.478  23.655  1.00  0.00     0.025 C 
BRANCH   9  11
ATOM     11  C   UNL A   1      33.017  28.229  25.857  1.00  0.00    -0.034 A 
ATOM     12  C   UNL A   1      34.381  28.335  26.188  1.00  0.00     0.005 A 
ATOM     13  C   UNL A   1      32.173  29.236  26.350  1.00  0.00     0.005 A 
ATOM     14  C   UNL A   1      34.878  29.397  26.950  1.00  0.00     0.004 A 
ATOM     15  C   UNL A   1      32.664  30.255  27.192  1.00  0.00     0.004 A 
ATOM     16  C   UNL A   1      34.020  30.325  27.534  1.00  0.00    -0.048 A 
BRANCH  16  17
ATOM     17  C   UNL A   1      34.541  31.383  28.483  1.00  0.00     0.041 C 
BRANCH  17  18
ATOM     18  C   UNL A   1      35.210  32.658  27.897  1.00  0.00     0.022 C 
ATOM     19  C   UNL A   1      36.607  32.981  28.449  1.00  0.00     0.007 C 
ATOM     20  C   UNL A   1      34.430  33.960  28.112  1.00  0.00     0.117 C 
ATOM     21  C   UNL A   1      36.439  34.117  29.462  1.00  0.00     0.003 C 
ATOM     22  C   UNL A   1      34.973  34.548  29.409  1.00  0.00     0.032 C 
BRANCH  20  23
ATOM     23  O   UNL A   1      34.713  34.873  27.046  1.00  0.00    -0.393 OA
ATOM     24  H   UNL A   1      34.989  34.377  26.259  1.00  0.00     0.210 HD
ENDBRANCH  20  23
ENDBRANCH  17  18
ENDBRANCH  16  17
ENDBRANCH   9  11
ENDBRANCH   7   9
ENDBRANCH   6   7
ENDBRANCH   5   6
ENDBRANCH   4   5
ENDBRANCH   3   4
ENDBRANCH   2   3
ENDBRANCH   1   2
BRANCH   1  25
ATOM     25  O   UNL A   1      35.168  24.160  24.777  1.00  0.00    -0.377 OA
BRANCH  25  26
ATOM     26  C   UNL A   1      36.313  23.507  24.274  1.00  0.00     0.188 C 
BRANCH  26  27
ATOM     27  C   UNL A   1      36.997  22.613  25.314  1.00  0.00     0.188 C 
BRANCH  27  28
ATOM     28  O   UNL A   1      36.525  21.269  25.263  1.00  0.00    -0.376 OA
BRANCH  28  29
ATOM     29  C   UNL A   1      37.471  20.214  25.321  1.00  0.00     0.202 C 
BRANCH  29  30
ATOM     30  C   UNL A   1      38.970  20.560  25.244  1.00  0.00     0.261 C 
BRANCH  30  31
ATOM     31  O   UNL A   1      39.758  20.369  26.429  1.00  0.00    -0.460 OA
BRANCH  31  32
ATOM     32  C   UNL A   1      41.045  19.987  26.285  1.00  0.00     0.338 C 
ATOM     33  O   UNL A   1      41.437  18.897  25.903  1.00  0.00    -0.246 OA
BRANCH  32  34
ATOM     34  C   UNL A   1      41.894  21.192  26.445  1.00  0.00     0.060 A 
ATOM     35  C   UNL A   1      42.364  21.520  27.724  1.00  0.00     0.016 A 
ATOM     36  C   UNL A   1      42.255  21.974  25.345  1.00  0.00     0.016 A 
ATOM     37  C   UNL A   1      43.176  22.639  27.910  1.00  0.00     0.010 A 
ATOM     38  C   UNL A   1      43.040  23.116  25.538  1.00  0.00     0.010 A 
ATOM     39  C   UNL A   1      43.479  23.472  26.826  1.00  0.00    -0.014 A 
BRANCH  39  40
ATOM     40  C   UNL A   1      44.042  24.822  27.083  1.00  0.00     0.031 A 
ATOM     41  C   UNL A   1      43.118  25.874  27.636  1.00  0.00     0.074 A 
ATOM     42  C   UNL A   1      45.343  25.100  26.880  1.00  0.00     0.049 A 
ATOM     43  N   UNL A   1      43.352  27.131  27.909  1.00  0.00    -0.248 NA
ATOM     44  C   UNL A   1      41.740  25.442  27.918  1.00  0.00     0.031 C 
ATOM     45  C   UNL A   1      46.348  24.147  26.415  1.00  0.00     0.029 A 
ATOM     46  N   UNL A   1      46.040  26.272  27.042  1.00  0.00    -0.354 N 
ATOM     47  C   UNL A   1      42.149  27.642  28.387  1.00  0.00     0.074 A 
ATOM     48  C   UNL A   1      41.182  26.569  28.332  1.00  0.00     0.031 C 
ATOM     49  C   UNL A   1      47.534  24.776  26.323  1.00  0.00     0.029 A 
ATOM     50  C   UNL A   1      47.365  26.183  26.680  1.00  0.00     0.049 A 
ATOM     51  H   UNL A   1      45.630  27.099  27.386  1.00  0.00     0.167 HD
ATOM     52  C   UNL A   1      41.880  28.893  28.836  1.00  0.00     0.034 A 
ATOM     53  C   UNL A   1      48.318  27.137  26.619  1.00  0.00     0.034 A 
ATOM     54  C   UNL A   1      42.853  29.955  28.871  1.00  0.00     0.049 A 
ATOM     55  C   UNL A   1      47.965  28.553  27.020  1.00  0.00     0.074 A 
ATOM     56  C   UNL A   1      42.691  31.256  29.315  1.00  0.00     0.029 A 
ATOM     57  N   UNL A   1      44.166  29.846  28.432  1.00  0.00    -0.354 N 
ATOM     58  N   UNL A   1      46.824  29.027  27.471  1.00  0.00    -0.248 NA
ATOM     59  C   UNL A   1      49.027  29.561  26.907  1.00  0.00     0.031 C 
ATOM     60  C   UNL A   1      43.875  31.955  29.061  1.00  0.00     0.029 A 
ATOM     61  C   UNL A   1      44.811  31.068  28.554  1.00  0.00     0.049 A 
ATOM     62  H   UNL A   1      44.579  29.022  28.086  1.00  0.00     0.167 HD
ATOM     63  C   UNL A   1      47.050  30.378  27.733  1.00  0.00     0.074 A 
ATOM     64  C   UNL A   1      48.434  30.638  27.400  1.00  0.00     0.031 C 
ATOM     65  C   UNL A   1      46.193  31.317  28.212  1.00  0.00     0.034 A 
BRANCH  52  66
ATOM     66  C   UNL A   1      40.459  29.189  29.255  1.00  0.00     0.023 A 
ATOM     67  C   UNL A   1      40.053  29.138  30.600  1.00  0.00     0.031 A 
ATOM     68  C   UNL A   1      39.488  29.498  28.286  1.00  0.00     0.131 A 
ATOM     69  C   UNL A   1      38.701  29.322  30.930  1.00  0.00     0.055 A 
ATOM     70  C   UNL A   1      38.163  29.765  28.630  1.00  0.00     0.041 A 
ATOM     71  F   UNL A   1      39.811  29.532  26.983  1.00  0.00    -0.206 F 
ATOM     72  C   UNL A   1      37.758  29.664  29.957  1.00  0.00     0.022 A 
BRANCH  69  73
ATOM     73  S   UNL A   1      38.164  28.959  32.624  1.00  0.00     0.124 S 
ATOM     74  O   UNL A   1      38.568  27.562  32.768  1.00  0.00    -0.237 OA
ATOM     75  O   UNL A   1      38.920  29.928  33.409  1.00  0.00    -0.237 OA
ATOM     76  O   UNL A   1      36.720  29.180  32.581  1.00  0.00    -0.744 OA
ENDBRANCH  69  73
ENDBRANCH  52  66
BRANCH  53  77
ATOM     77  C   UNL A   1      49.689  26.816  26.118  1.00  0.00     0.023 A 
ATOM     78  C   UNL A   1      50.096  27.181  24.824  1.00  0.00     0.031 A 
ATOM     79  C   UNL A   1      50.588  26.070  26.902  1.00  0.00     0.131 A 
ATOM     80  C   UNL A   1      51.341  26.755  24.335  1.00  0.00     0.055 A 
ATOM     81  C   UNL A   1      51.851  25.704  26.433  1.00  0.00     0.041 A 
ATOM     82  F   UNL A   1      50.249  25.685  28.143  1.00  0.00    -0.206 F 
ATOM     83  C   UNL A   1      52.228  26.032  25.135  1.00  0.00     0.022 A 
BRANCH  80  84
ATOM     84  S   UNL A   1      51.742  27.065  22.592  1.00  0.00     0.124 S 
ATOM     85  O   UNL A   1      50.471  26.769  21.939  1.00  0.00    -0.237 OA
ATOM     86  O   UNL A   1      52.139  28.468  22.619  1.00  0.00    -0.237 OA
ATOM     87  O   UNL A   1      52.821  26.119  22.317  1.00  0.00    -0.744 OA
ENDBRANCH  80  84
ENDBRANCH  53  77
BRANCH  65  88
ATOM     88  C   UNL A   1      46.747  32.701  28.460  1.00  0.00     0.023 A 
ATOM     89  C   UNL A   1      47.225  33.100  29.720  1.00  0.00     0.031 A 
ATOM     90  C   UNL A   1      46.796  33.638  27.411  1.00  0.00     0.131 A 
ATOM     91  C   UNL A   1      47.675  34.415  29.914  1.00  0.00     0.055 A 
ATOM     92  C   UNL A   1      47.311  34.922  27.591  1.00  0.00     0.041 A 
ATOM     93  F   UNL A   1      46.351  33.316  26.185  1.00  0.00    -0.206 F 
ATOM     94  C   UNL A   1      47.741  35.322  28.853  1.00  0.00     0.022 A 
BRANCH  91  95
ATOM     95  S   UNL A   1      48.077  34.961  31.597  1.00  0.00     0.124 S 
ATOM     96  O   UNL A   1      46.824  35.575  32.023  1.00  0.00    -0.237 OA
ATOM     97  O   UNL A   1      48.429  33.707  32.255  1.00  0.00    -0.237 OA
ATOM     98  O   UNL A   1      49.188  35.891  31.399  1.00  0.00    -0.744 OA
ENDBRANCH  91  95
ENDBRANCH  65  88
ENDBRANCH  39  40
ENDBRANCH  32  34
ENDBRANCH  31  32
ENDBRANCH  30  31
ENDBRANCH  29  30
ENDBRANCH  28  29
ENDBRANCH  27  28
ENDBRANCH  26  27
ENDBRANCH  25  26
ENDBRANCH   1  25
TORSDOF 27
ENDMDL
