MODEL 1
REMARK VINA RESULT:      -7.6      0.000      0.000
REMARK SMILES Cc1ccc(S(=O)(=O)n2cc(C(=O)C(=O)N[C@@H](Cc3cnc[nH]3)C(=O)OCCOCCOCCOCCOC(=O)c3ccc(-c4c5nc(c(-c6cc(S(=O)(=O)[O-])ccc6F)c6ccc([nH]6)c(-c6cc(S(=O)(=O)[O-])ccc6F)c6nc(c(-c7cc(S(=O)(=O)[O-])ccc7F)c7ccc4[nH]7)C=C6)C=C5)cc3)c3ccccc32)cc1
REMARK SMILES IDX 31 1 30 2 29 3 28 4 27 5 26 6 24 7 25 8 17 9 16 10 14 11
REMARK SMILES IDX 15 12 12 14 13 15 11 16 9 17 10 18 109 19 104 20 108 21
REMARK SMILES IDX 105 22 107 23 106 24 6 25 7 26 8 27 5 28 1 29 2 30 3 31
REMARK SMILES IDX 111 32 4 33 110 34 18 35 19 36 20 37 23 38 21 39 22 40 32 42
REMARK SMILES IDX 33 43 34 44 35 45 36 46 37 47 38 48 39 49 40 50 41 51 42 52
REMARK SMILES IDX 103 53 43 54 102 55 44 56 45 57 46 58 96 59 47 60 101 61
REMARK SMILES IDX 95 62 97 63 48 64 100 65 94 66 93 67 49 69 81 70 61 71 80 72
REMARK SMILES IDX 62 73 65 74 79 75 98 76 63 77 64 78 78 80 99 81 66 82 50 83
REMARK SMILES IDX 51 84 59 85 52 86 58 87 60 88 57 89 53 90 54 91 55 92 56 93
REMARK SMILES IDX 82 94 83 95 91 96 84 97 90 98 92 99 89 100 85 101 86 102
REMARK SMILES IDX 87 103 88 104 67 105 68 106 76 107 69 108 75 109 77 110
REMARK SMILES IDX 74 111 70 112 71 113 72 114 73 115
REMARK H PARENT 16 13 23 41 97 68 65 79
REMARK Flexibility Score: inf
ROOT
ATOM      1  C   UNL A   1      38.191  32.014  35.634  1.00  0.00     0.188 C 
ENDROOT
BRANCH   1   2
ATOM      2  C   UNL A   1      38.132  30.503  35.318  1.00  0.00     0.188 C 
BRANCH   2   3
ATOM      3  O   UNL A   1      39.300  29.852  34.815  1.00  0.00    -0.376 OA
BRANCH   3   4
ATOM      4  C   UNL A   1      40.518  30.145  35.504  1.00  0.00     0.202 C 
BRANCH   4   5
ATOM      5  C   UNL A   1      41.564  29.039  35.429  1.00  0.00     0.261 C 
BRANCH   5   6
ATOM      6  O   UNL A   1      41.499  28.236  36.625  1.00  0.00    -0.462 OA
BRANCH   6   7
ATOM      7  C   UNL A   1      42.156  27.054  36.550  1.00  0.00     0.329 C 
ATOM      8  O   UNL A   1      41.629  25.956  36.692  1.00  0.00    -0.250 OA
BRANCH   7   9
ATOM      9  C   UNL A   1      43.672  27.223  36.386  1.00  0.00     0.198 C 
BRANCH   9  10
ATOM     10  N   UNL A   1      44.179  28.100  35.313  1.00  0.00    -0.335 N 
ATOM     11  C   UNL A   1      45.486  28.228  34.867  1.00  0.00     0.293 C 
ATOM     12  O   UNL A   1      45.831  29.199  34.205  1.00  0.00    -0.265 OA
ATOM     13  H   UNL A   1      43.509  28.659  34.859  1.00  0.00     0.164 HD
BRANCH  11  14
ATOM     14  C   UNL A   1      46.509  27.107  35.160  1.00  0.00     0.252 C 
ATOM     15  O   UNL A   1      47.550  27.426  35.730  1.00  0.00    -0.283 OA
BRANCH  14  16
ATOM     16  C   UNL A   1      46.299  25.688  34.817  1.00  0.00     0.054 A 
ATOM     17  N   UNL A   1      46.085  23.463  34.871  1.00  0.00    -0.240 N 
ATOM     18  C   UNL A   1      46.611  24.547  35.539  1.00  0.00     0.117 A 
ATOM     19  C   UNL A   1      45.411  23.859  33.736  1.00  0.00     0.065 A 
ATOM     20  C   UNL A   1      45.656  25.230  33.610  1.00  0.00     0.012 A 
ATOM     21  C   UNL A   1      44.622  23.163  32.798  1.00  0.00     0.028 A 
ATOM     22  C   UNL A   1      45.199  25.891  32.447  1.00  0.00     0.011 A 
ATOM     23  C   UNL A   1      44.159  23.855  31.676  1.00  0.00     0.002 A 
ATOM     24  C   UNL A   1      44.466  25.195  31.486  1.00  0.00     0.001 A 
BRANCH  17  25
ATOM     25  S   UNL A   1      46.083  21.879  35.500  1.00  0.00     0.268 S 
ATOM     26  O   UNL A   1      45.181  21.140  34.607  1.00  0.00    -0.201 OA
ATOM     27  O   UNL A   1      45.841  21.983  36.905  1.00  0.00    -0.201 OA
BRANCH  25  28
ATOM     28  C   UNL A   1      47.696  21.158  35.293  1.00  0.00     0.088 A 
ATOM     29  C   UNL A   1      51.569  19.501  34.396  1.00  0.00     0.044 C 
ATOM     30  C   UNL A   1      50.219  20.068  34.724  1.00  0.00    -0.051 A 
ATOM     31  C   UNL A   1      49.128  19.792  33.891  1.00  0.00     0.005 A 
ATOM     32  C   UNL A   1      50.024  20.861  35.864  1.00  0.00     0.005 A 
ATOM     33  C   UNL A   1      47.875  20.339  34.170  1.00  0.00     0.022 A 
ATOM     34  C   UNL A   1      48.762  21.395  36.160  1.00  0.00     0.022 A 
ENDBRANCH  25  28
ENDBRANCH  17  25
ENDBRANCH  14  16
ENDBRANCH  11  14
ENDBRANCH   9  10
BRANCH   9  35
ATOM     35  C   UNL A   1      44.279  27.500  37.776  1.00  0.00     0.092 C 
BRANCH  35  36
ATOM     36  C   UNL A   1      44.830  26.340  38.533  1.00  0.00     0.037 A 
ATOM     37  C   UNL A   1      46.006  26.182  39.237  1.00  0.00     0.134 A 
ATOM     38  N   UNL A   1      44.251  25.096  38.553  1.00  0.00    -0.348 N 
ATOM     39  N   UNL A   1      46.186  24.878  39.610  1.00  0.00    -0.245 NA
ATOM     40  C   UNL A   1      45.123  24.245  39.171  1.00  0.00     0.196 A 
ATOM     41  H   UNL A   1      43.368  24.859  38.189  1.00  0.00     0.167 HD
ENDBRANCH  35  36
ENDBRANCH   9  35
ENDBRANCH   7   9
ENDBRANCH   6   7
ENDBRANCH   5   6
ENDBRANCH   4   5
ENDBRANCH   3   4
ENDBRANCH   2   3
ENDBRANCH   1   2
BRANCH   1  42
ATOM     42  O   UNL A   1      36.935  32.647  35.706  1.00  0.00    -0.377 OA
BRANCH  42  43
ATOM     43  C   UNL A   1      36.854  33.957  35.162  1.00  0.00     0.188 C 
BRANCH  43  44
ATOM     44  C   UNL A   1      36.475  34.060  33.685  1.00  0.00     0.188 C 
BRANCH  44  45
ATOM     45  O   UNL A   1      35.460  33.113  33.367  1.00  0.00    -0.376 OA
BRANCH  45  46
ATOM     46  C   UNL A   1      35.644  32.350  32.171  1.00  0.00     0.202 C 
BRANCH  46  47
ATOM     47  C   UNL A   1      36.274  30.942  32.243  1.00  0.00     0.261 C 
BRANCH  47  48
ATOM     48  O   UNL A   1      37.595  30.984  31.662  1.00  0.00    -0.460 OA
BRANCH  48  49
ATOM     49  C   UNL A   1      37.669  30.999  30.304  1.00  0.00     0.338 C 
ATOM     50  O   UNL A   1      37.000  30.337  29.535  1.00  0.00    -0.246 OA
BRANCH  49  51
ATOM     51  C   UNL A   1      38.887  31.785  29.938  1.00  0.00     0.060 A 
ATOM     52  C   UNL A   1      40.139  31.256  30.260  1.00  0.00     0.016 A 
ATOM     53  C   UNL A   1      38.778  33.137  29.604  1.00  0.00     0.016 A 
ATOM     54  C   UNL A   1      41.220  32.121  30.486  1.00  0.00     0.010 A 
ATOM     55  C   UNL A   1      39.821  34.001  29.928  1.00  0.00     0.010 A 
ATOM     56  C   UNL A   1      41.020  33.511  30.470  1.00  0.00    -0.014 A 
BRANCH  56  57
ATOM     57  C   UNL A   1      41.825  34.427  31.324  1.00  0.00     0.031 A 
ATOM     58  C   UNL A   1      41.408  34.901  32.684  1.00  0.00     0.074 A 
ATOM     59  C   UNL A   1      43.125  34.638  30.979  1.00  0.00     0.049 A 
ATOM     60  N   UNL A   1      42.063  35.795  33.355  1.00  0.00    -0.248 NA
ATOM     61  C   UNL A   1      40.226  34.457  33.415  1.00  0.00     0.031 C 
ATOM     62  C   UNL A   1      44.202  35.085  31.861  1.00  0.00     0.029 A 
ATOM     63  N   UNL A   1      43.786  34.447  29.766  1.00  0.00    -0.354 N 
ATOM     64  C   UNL A   1      41.657  35.765  34.667  1.00  0.00     0.074 A 
ATOM     65  C   UNL A   1      40.416  35.032  34.613  1.00  0.00     0.031 C 
ATOM     66  C   UNL A   1      45.359  35.145  31.199  1.00  0.00     0.029 A 
ATOM     67  C   UNL A   1      45.039  35.083  29.805  1.00  0.00     0.049 A 
ATOM     68  H   UNL A   1      43.429  33.943  28.999  1.00  0.00     0.167 HD
ATOM     69  C   UNL A   1      42.476  36.270  35.643  1.00  0.00     0.034 A 
ATOM     70  C   UNL A   1      45.318  36.108  28.950  1.00  0.00     0.034 A 
ATOM     71  C   UNL A   1      43.638  37.029  35.102  1.00  0.00     0.049 A 
ATOM     72  C   UNL A   1      45.307  37.474  29.627  1.00  0.00     0.074 A 
ATOM     73  C   UNL A   1      44.980  37.157  35.436  1.00  0.00     0.029 A 
ATOM     74  N   UNL A   1      43.481  37.819  33.953  1.00  0.00    -0.354 N 
ATOM     75  N   UNL A   1      45.117  37.652  30.916  1.00  0.00    -0.248 NA
ATOM     76  C   UNL A   1      45.515  38.747  28.950  1.00  0.00     0.031 C 
ATOM     77  C   UNL A   1      45.601  38.032  34.496  1.00  0.00     0.029 A 
ATOM     78  C   UNL A   1      44.662  38.410  33.553  1.00  0.00     0.049 A 
ATOM     79  H   UNL A   1      42.623  37.940  33.486  1.00  0.00     0.167 HD
ATOM     80  C   UNL A   1      45.030  38.981  31.227  1.00  0.00     0.074 A 
ATOM     81  C   UNL A   1      45.359  39.625  29.963  1.00  0.00     0.031 C 
ATOM     82  C   UNL A   1      44.662  39.413  32.479  1.00  0.00     0.034 A 
BRANCH  69  83
ATOM     83  C   UNL A   1      42.312  36.000  37.153  1.00  0.00     0.023 A 
ATOM     84  C   UNL A   1      42.234  37.081  38.069  1.00  0.00     0.031 A 
ATOM     85  C   UNL A   1      42.327  34.725  37.769  1.00  0.00     0.131 A 
ATOM     86  C   UNL A   1      42.194  36.880  39.470  1.00  0.00     0.055 A 
ATOM     87  C   UNL A   1      42.194  34.525  39.154  1.00  0.00     0.041 A 
ATOM     88  F   UNL A   1      42.542  33.599  37.082  1.00  0.00    -0.206 F 
ATOM     89  C   UNL A   1      42.137  35.604  40.016  1.00  0.00     0.022 A 
BRANCH  86  90
ATOM     90  S   UNL A   1      42.284  38.308  40.594  1.00  0.00     0.124 S 
ATOM     91  O   UNL A   1      43.686  38.290  40.995  1.00  0.00    -0.237 OA
ATOM     92  O   UNL A   1      41.871  39.412  39.736  1.00  0.00    -0.237 OA
ATOM     93  O   UNL A   1      41.336  37.966  41.654  1.00  0.00    -0.744 OA
ENDBRANCH  86  90
ENDBRANCH  69  83
BRANCH  70  94
ATOM     94  C   UNL A   1      45.087  35.650  27.546  1.00  0.00     0.023 A 
ATOM     95  C   UNL A   1      45.688  34.393  27.275  1.00  0.00     0.031 A 
ATOM     96  C   UNL A   1      43.900  35.959  26.859  1.00  0.00     0.131 A 
ATOM     97  C   UNL A   1      44.970  33.402  26.590  1.00  0.00     0.055 A 
ATOM     98  C   UNL A   1      43.234  34.990  26.090  1.00  0.00     0.041 A 
ATOM     99  F   UNL A   1      43.267  37.122  27.081  1.00  0.00    -0.206 F 
ATOM    100  C   UNL A   1      43.732  33.687  26.011  1.00  0.00     0.022 A 
BRANCH  97 101
ATOM    101  S   UNL A   1      45.477  31.656  26.769  1.00  0.00     0.124 S 
ATOM    102  O   UNL A   1      44.226  31.020  27.168  1.00  0.00    -0.237 OA
ATOM    103  O   UNL A   1      45.970  31.315  25.440  1.00  0.00    -0.237 OA
ATOM    104  O   UNL A   1      46.511  31.725  27.802  1.00  0.00    -0.744 OA
ENDBRANCH  97 101
ENDBRANCH  70  94
BRANCH  82 105
ATOM    105  C   UNL A   1      44.275  40.836  32.867  1.00  0.00     0.023 A 
ATOM    106  C   UNL A   1      45.113  41.709  33.568  1.00  0.00     0.031 A 
ATOM    107  C   UNL A   1      43.034  41.401  32.460  1.00  0.00     0.131 A 
ATOM    108  C   UNL A   1      44.711  43.019  33.891  1.00  0.00     0.055 A 
ATOM    109  C   UNL A   1      42.655  42.719  32.734  1.00  0.00     0.041 A 
ATOM    110  F   UNL A   1      42.130  40.710  31.752  1.00  0.00    -0.206 F 
ATOM    111  C   UNL A   1      43.493  43.537  33.467  1.00  0.00     0.022 A 
BRANCH 108 112
ATOM    112  S   UNL A   1      45.821  44.017  34.915  1.00  0.00     0.124 S 
ATOM    113  O   UNL A   1      45.412  45.374  34.562  1.00  0.00    -0.237 OA
ATOM    114  O   UNL A   1      45.474  43.583  36.264  1.00  0.00    -0.237 OA
ATOM    115  O   UNL A   1      47.154  43.629  34.459  1.00  0.00    -0.744 OA
ENDBRANCH 108 112
ENDBRANCH  82 105
ENDBRANCH  56  57
ENDBRANCH  49  51
ENDBRANCH  48  49
ENDBRANCH  47  48
ENDBRANCH  46  47
ENDBRANCH  45  46
ENDBRANCH  44  45
ENDBRANCH  43  44
ENDBRANCH  42  43
ENDBRANCH   1  42
TORSDOF 30
ENDMDL
MODEL 2
REMARK VINA RESULT:      -7.5      1.821      2.315
REMARK SMILES Cc1ccc(S(=O)(=O)n2cc(C(=O)C(=O)N[C@@H](Cc3cnc[nH]3)C(=O)OCCOCCOCCOCCOC(=O)c3ccc(-c4c5nc(c(-c6cc(S(=O)(=O)[O-])ccc6F)c6ccc([nH]6)c(-c6cc(S(=O)(=O)[O-])ccc6F)c6nc(c(-c7cc(S(=O)(=O)[O-])ccc7F)c7ccc4[nH]7)C=C6)C=C5)cc3)c3ccccc32)cc1
REMARK SMILES IDX 31 1 30 2 29 3 28 4 27 5 26 6 24 7 25 8 17 9 16 10 14 11
REMARK SMILES IDX 15 12 12 14 13 15 11 16 9 17 10 18 109 19 104 20 108 21
REMARK SMILES IDX 105 22 107 23 106 24 6 25 7 26 8 27 5 28 1 29 2 30 3 31
REMARK SMILES IDX 111 32 4 33 110 34 18 35 19 36 20 37 23 38 21 39 22 40 32 42
REMARK SMILES IDX 33 43 34 44 35 45 36 46 37 47 38 48 39 49 40 50 41 51 42 52
REMARK SMILES IDX 103 53 43 54 102 55 44 56 45 57 46 58 96 59 47 60 101 61
REMARK SMILES IDX 95 62 97 63 48 64 100 65 94 66 93 67 49 69 81 70 61 71 80 72
REMARK SMILES IDX 62 73 65 74 79 75 98 76 63 77 64 78 78 80 99 81 66 82 50 83
REMARK SMILES IDX 51 84 59 85 52 86 58 87 60 88 57 89 53 90 54 91 55 92 56 93
REMARK SMILES IDX 82 94 83 95 91 96 84 97 90 98 92 99 89 100 85 101 86 102
REMARK SMILES IDX 87 103 88 104 67 105 68 106 76 107 69 108 75 109 77 110
REMARK SMILES IDX 74 111 70 112 71 113 72 114 73 115
REMARK H PARENT 16 13 23 41 97 68 65 79
REMARK Flexibility Score: inf
ROOT
ATOM      1  C   UNL A   1      38.548  31.780  35.864  1.00  0.00     0.188 C 
ENDROOT
BRANCH   1   2
ATOM      2  C   UNL A   1      38.543  30.332  35.323  1.00  0.00     0.188 C 
BRANCH   2   3
ATOM      3  O   UNL A   1      39.746  29.790  34.776  1.00  0.00    -0.376 OA
BRANCH   3   4
ATOM      4  C   UNL A   1      40.946  30.103  35.489  1.00  0.00     0.202 C 
BRANCH   4   5
ATOM      5  C   UNL A   1      41.959  28.965  35.545  1.00  0.00     0.261 C 
BRANCH   5   6
ATOM      6  O   UNL A   1      41.719  28.170  36.724  1.00  0.00    -0.462 OA
BRANCH   6   7
ATOM      7  C   UNL A   1      42.337  26.964  36.729  1.00  0.00     0.329 C 
ATOM      8  O   UNL A   1      41.767  25.892  36.904  1.00  0.00    -0.250 OA
BRANCH   7   9
ATOM      9  C   UNL A   1      43.862  27.074  36.611  1.00  0.00     0.198 C 
BRANCH   9  10
ATOM     10  N   UNL A   1      44.435  27.885  35.520  1.00  0.00    -0.335 N 
ATOM     11  C   UNL A   1      45.759  27.944  35.110  1.00  0.00     0.293 C 
ATOM     12  O   UNL A   1      46.162  28.873  34.421  1.00  0.00    -0.265 OA
ATOM     13  H   UNL A   1      43.802  28.452  35.024  1.00  0.00     0.164 HD
BRANCH  11  14
ATOM     14  C   UNL A   1      46.727  26.796  35.478  1.00  0.00     0.252 C 
ATOM     15  O   UNL A   1      47.762  27.097  36.067  1.00  0.00    -0.283 OA
BRANCH  14  16
ATOM     16  C   UNL A   1      46.470  25.373  35.184  1.00  0.00     0.054 A 
ATOM     17  N   UNL A   1      46.180  23.160  35.315  1.00  0.00    -0.240 N 
ATOM     18  C   UNL A   1      46.741  24.249  35.947  1.00  0.00     0.117 A 
ATOM     19  C   UNL A   1      45.524  23.539  34.163  1.00  0.00     0.065 A 
ATOM     20  C   UNL A   1      45.816  24.896  33.991  1.00  0.00     0.012 A 
ATOM     21  C   UNL A   1      44.715  22.837  33.248  1.00  0.00     0.028 A 
ATOM     22  C   UNL A   1      45.386  25.530  32.803  1.00  0.00     0.011 A 
ATOM     23  C   UNL A   1      44.279  23.504  32.099  1.00  0.00     0.002 A 
ATOM     24  C   UNL A   1      44.633  24.826  31.864  1.00  0.00     0.001 A 
BRANCH  17  25
ATOM     25  S   UNL A   1      46.123  21.600  36.000  1.00  0.00     0.268 S 
ATOM     26  O   UNL A   1      45.431  20.791  34.988  1.00  0.00    -0.201 OA
ATOM     27  O   UNL A   1      45.621  21.742  37.331  1.00  0.00    -0.201 OA
BRANCH  25  28
ATOM     28  C   UNL A   1      47.773  20.946  36.122  1.00  0.00     0.088 A 
ATOM     29  C   UNL A   1      51.609  19.054  36.626  1.00  0.00     0.044 C 
ATOM     30  C   UNL A   1      50.281  19.730  36.447  1.00  0.00    -0.051 A 
ATOM     31  C   UNL A   1      49.393  19.814  37.527  1.00  0.00     0.005 A 
ATOM     32  C   UNL A   1      49.915  20.296  35.218  1.00  0.00     0.005 A 
ATOM     33  C   UNL A   1      48.143  20.413  37.364  1.00  0.00     0.022 A 
ATOM     34  C   UNL A   1      48.670  20.918  35.055  1.00  0.00     0.022 A 
ENDBRANCH  25  28
ENDBRANCH  17  25
ENDBRANCH  14  16
ENDBRANCH  11  14
ENDBRANCH   9  10
BRANCH   9  35
ATOM     35  C   UNL A   1      44.432  27.390  38.008  1.00  0.00     0.092 C 
BRANCH  35  36
ATOM     36  C   UNL A   1      45.305  26.364  38.646  1.00  0.00     0.037 A 
ATOM     37  C   UNL A   1      45.047  25.076  39.067  1.00  0.00     0.134 A 
ATOM     38  N   UNL A   1      46.593  26.604  39.055  1.00  0.00    -0.348 N 
ATOM     39  N   UNL A   1      46.101  24.567  39.776  1.00  0.00    -0.245 NA
ATOM     40  C   UNL A   1      47.010  25.514  39.766  1.00  0.00     0.196 A 
ATOM     41  H   UNL A   1      47.121  27.414  38.870  1.00  0.00     0.167 HD
ENDBRANCH  35  36
ENDBRANCH   9  35
ENDBRANCH   7   9
ENDBRANCH   6   7
ENDBRANCH   5   6
ENDBRANCH   4   5
ENDBRANCH   3   4
ENDBRANCH   2   3
ENDBRANCH   1   2
BRANCH   1  42
ATOM     42  O   UNL A   1      37.278  32.382  35.939  1.00  0.00    -0.377 OA
BRANCH  42  43
ATOM     43  C   UNL A   1      37.219  33.774  35.666  1.00  0.00     0.188 C 
BRANCH  43  44
ATOM     44  C   UNL A   1      36.749  34.177  34.269  1.00  0.00     0.188 C 
BRANCH  44  45
ATOM     45  O   UNL A   1      35.541  33.500  33.939  1.00  0.00    -0.376 OA
BRANCH  45  46
ATOM     46  C   UNL A   1      35.361  33.136  32.567  1.00  0.00     0.202 C 
BRANCH  46  47
ATOM     47  C   UNL A   1      35.806  31.742  32.075  1.00  0.00     0.261 C 
BRANCH  47  48
ATOM     48  O   UNL A   1      37.001  31.881  31.276  1.00  0.00    -0.460 OA
BRANCH  48  49
ATOM     49  C   UNL A   1      36.939  32.737  30.221  1.00  0.00     0.338 C 
ATOM     50  O   UNL A   1      35.969  32.955  29.521  1.00  0.00    -0.246 OA
BRANCH  49  51
ATOM     51  C   UNL A   1      38.339  33.169  29.920  1.00  0.00     0.060 A 
ATOM     52  C   UNL A   1      39.384  32.300  30.240  1.00  0.00     0.016 A 
ATOM     53  C   UNL A   1      38.618  34.511  29.655  1.00  0.00     0.016 A 
ATOM     54  C   UNL A   1      40.653  32.820  30.532  1.00  0.00     0.010 A 
ATOM     55  C   UNL A   1      39.848  35.037  30.045  1.00  0.00     0.010 A 
ATOM     56  C   UNL A   1      40.846  34.210  30.585  1.00  0.00    -0.014 A 
BRANCH  56  57
ATOM     57  C   UNL A   1      41.843  34.828  31.500  1.00  0.00     0.031 A 
ATOM     58  C   UNL A   1      41.629  35.034  32.970  1.00  0.00     0.074 A 
ATOM     59  C   UNL A   1      43.119  34.974  31.046  1.00  0.00     0.049 A 
ATOM     60  N   UNL A   1      42.457  35.686  33.724  1.00  0.00    -0.248 NA
ATOM     61  C   UNL A   1      40.480  34.565  33.737  1.00  0.00     0.031 C 
ATOM     62  C   UNL A   1      44.327  35.102  31.859  1.00  0.00     0.029 A 
ATOM     63  N   UNL A   1      43.624  34.984  29.747  1.00  0.00    -0.354 N 
ATOM     64  C   UNL A   1      42.184  35.412  35.041  1.00  0.00     0.074 A 
ATOM     65  C   UNL A   1      40.860  34.841  34.994  1.00  0.00     0.031 C 
ATOM     66  C   UNL A   1      45.410  35.185  31.084  1.00  0.00     0.029 A 
ATOM     67  C   UNL A   1      44.946  35.463  29.758  1.00  0.00     0.049 A 
ATOM     68  H   UNL A   1      43.131  34.701  28.943  1.00  0.00     0.167 HD
ATOM     69  C   UNL A   1      43.156  35.602  35.990  1.00  0.00     0.034 A 
ATOM     70  C   UNL A   1      45.267  36.615  29.104  1.00  0.00     0.034 A 
ATOM     71  C   UNL A   1      44.345  36.337  35.475  1.00  0.00     0.049 A 
ATOM     72  C   UNL A   1      45.500  37.794  30.043  1.00  0.00     0.074 A 
ATOM     73  C   UNL A   1      45.718  36.248  35.658  1.00  0.00     0.029 A 
ATOM     74  N   UNL A   1      44.176  37.371  34.542  1.00  0.00    -0.354 N 
ATOM     75  N   UNL A   1      45.465  37.704  31.355  1.00  0.00    -0.248 NA
ATOM     76  C   UNL A   1      45.801  39.156  29.623  1.00  0.00     0.031 C 
ATOM     77  C   UNL A   1      46.350  37.238  34.848  1.00  0.00     0.029 A 
ATOM     78  C   UNL A   1      45.377  37.909  34.127  1.00  0.00     0.049 A 
ATOM     79  H   UNL A   1      43.298  37.680  34.221  1.00  0.00     0.167 HD
ATOM     80  C   UNL A   1      45.581  38.934  31.941  1.00  0.00     0.074 A 
ATOM     81  C   UNL A   1      45.861  39.802  30.805  1.00  0.00     0.031 C 
ATOM     82  C   UNL A   1      45.399  39.117  33.292  1.00  0.00     0.034 A 
BRANCH  69  83
ATOM     83  C   UNL A   1      43.110  35.027  37.421  1.00  0.00     0.023 A 
ATOM     84  C   UNL A   1      43.697  33.768  37.705  1.00  0.00     0.031 A 
ATOM     85  C   UNL A   1      42.428  35.604  38.520  1.00  0.00     0.131 A 
ATOM     86  C   UNL A   1      43.583  33.152  38.975  1.00  0.00     0.055 A 
ATOM     87  C   UNL A   1      42.395  35.035  39.805  1.00  0.00     0.041 A 
ATOM     88  F   UNL A   1      41.693  36.714  38.405  1.00  0.00    -0.206 F 
ATOM     89  C   UNL A   1      42.965  33.798  40.039  1.00  0.00     0.022 A 
BRANCH  86  90
ATOM     90  S   UNL A   1      44.196  31.457  39.220  1.00  0.00     0.124 S 
ATOM     91  O   UNL A   1      43.685  31.139  40.548  1.00  0.00    -0.237 OA
ATOM     92  O   UNL A   1      43.591  30.738  38.105  1.00  0.00    -0.237 OA
ATOM     93  O   UNL A   1      45.649  31.605  39.139  1.00  0.00    -0.744 OA
ENDBRANCH  86  90
ENDBRANCH  69  83
BRANCH  70  94
ATOM     94  C   UNL A   1      44.840  36.503  27.676  1.00  0.00     0.023 A 
ATOM     95  C   UNL A   1      45.325  35.324  27.052  1.00  0.00     0.031 A 
ATOM     96  C   UNL A   1      43.600  37.001  27.240  1.00  0.00     0.131 A 
ATOM     97  C   UNL A   1      44.469  34.542  26.262  1.00  0.00     0.055 A 
ATOM     98  C   UNL A   1      42.787  36.258  26.367  1.00  0.00     0.041 A 
ATOM     99  F   UNL A   1      43.071  38.100  27.800  1.00  0.00    -0.206 F 
ATOM    100  C   UNL A   1      43.191  34.993  25.931  1.00  0.00     0.022 A 
BRANCH  97 101
ATOM    101  S   UNL A   1      44.886  32.786  25.975  1.00  0.00     0.124 S 
ATOM    102  O   UNL A   1      46.344  32.818  25.992  1.00  0.00    -0.237 OA
ATOM    103  O   UNL A   1      44.249  32.106  27.097  1.00  0.00    -0.237 OA
ATOM    104  O   UNL A   1      44.272  32.519  24.674  1.00  0.00    -0.744 OA
ENDBRANCH  97 101
ENDBRANCH  70  94
BRANCH  82 105
ATOM    105  C   UNL A   1      45.238  40.453  34.009  1.00  0.00     0.023 A 
ATOM    106  C   UNL A   1      44.128  41.291  33.859  1.00  0.00     0.031 A 
ATOM    107  C   UNL A   1      46.198  40.901  34.960  1.00  0.00     0.131 A 
ATOM    108  C   UNL A   1      44.024  42.510  34.555  1.00  0.00     0.055 A 
ATOM    109  C   UNL A   1      46.070  42.086  35.692  1.00  0.00     0.041 A 
ATOM    110  F   UNL A   1      47.304  40.200  35.247  1.00  0.00    -0.206 F 
ATOM    111  C   UNL A   1      44.980  42.909  35.482  1.00  0.00     0.022 A 
BRANCH 108 112
ATOM    112  S   UNL A   1      42.610  43.578  34.185  1.00  0.00     0.124 S 
ATOM    113  O   UNL A   1      41.731  43.312  35.321  1.00  0.00    -0.237 OA
ATOM    114  O   UNL A   1      43.220  44.903  34.155  1.00  0.00    -0.237 OA
ATOM    115  O   UNL A   1      42.131  43.083  32.896  1.00  0.00    -0.744 OA
ENDBRANCH 108 112
ENDBRANCH  82 105
ENDBRANCH  56  57
ENDBRANCH  49  51
ENDBRANCH  48  49
ENDBRANCH  47  48
ENDBRANCH  46  47
ENDBRANCH  45  46
ENDBRANCH  44  45
ENDBRANCH  43  44
ENDBRANCH  42  43
ENDBRANCH   1  42
TORSDOF 30
ENDMDL
MODEL 3
REMARK VINA RESULT:      -7.2      4.274     10.092
REMARK SMILES Cc1ccc(S(=O)(=O)n2cc(C(=O)C(=O)N[C@@H](Cc3cnc[nH]3)C(=O)OCCOCCOCCOCCOC(=O)c3ccc(-c4c5nc(c(-c6cc(S(=O)(=O)[O-])ccc6F)c6ccc([nH]6)c(-c6cc(S(=O)(=O)[O-])ccc6F)c6nc(c(-c7cc(S(=O)(=O)[O-])ccc7F)c7ccc4[nH]7)C=C6)C=C5)cc3)c3ccccc32)cc1
REMARK SMILES IDX 31 1 30 2 29 3 28 4 27 5 26 6 24 7 25 8 17 9 16 10 14 11
REMARK SMILES IDX 15 12 12 14 13 15 11 16 9 17 10 18 109 19 104 20 108 21
REMARK SMILES IDX 105 22 107 23 106 24 6 25 7 26 8 27 5 28 1 29 2 30 3 31
REMARK SMILES IDX 111 32 4 33 110 34 18 35 19 36 20 37 23 38 21 39 22 40 32 42
REMARK SMILES IDX 33 43 34 44 35 45 36 46 37 47 38 48 39 49 40 50 41 51 42 52
REMARK SMILES IDX 103 53 43 54 102 55 44 56 45 57 46 58 96 59 47 60 101 61
REMARK SMILES IDX 95 62 97 63 48 64 100 65 94 66 93 67 49 69 81 70 61 71 80 72
REMARK SMILES IDX 62 73 65 74 79 75 98 76 63 77 64 78 78 80 99 81 66 82 50 83
REMARK SMILES IDX 51 84 59 85 52 86 58 87 60 88 57 89 53 90 54 91 55 92 56 93
REMARK SMILES IDX 82 94 83 95 91 96 84 97 90 98 92 99 89 100 85 101 86 102
REMARK SMILES IDX 87 103 88 104 67 105 68 106 76 107 69 108 75 109 77 110
REMARK SMILES IDX 74 111 70 112 71 113 72 114 73 115
REMARK H PARENT 16 13 23 41 97 68 65 79
REMARK Flexibility Score: inf
ROOT
ATOM      1  C   UNL A   1      39.417  26.947  28.165  1.00  0.00     0.188 C 
ENDROOT
BRANCH   1   2
ATOM      2  C   UNL A   1      38.705  28.120  28.876  1.00  0.00     0.188 C 
BRANCH   2   3
ATOM      3  O   UNL A   1      38.711  29.411  28.264  1.00  0.00    -0.376 OA
BRANCH   3   4
ATOM      4  C   UNL A   1      37.437  30.052  28.162  1.00  0.00     0.202 C 
BRANCH   4   5
ATOM      5  C   UNL A   1      36.383  29.514  29.123  1.00  0.00     0.261 C 
BRANCH   5   6
ATOM      6  O   UNL A   1      36.733  29.884  30.472  1.00  0.00    -0.462 OA
BRANCH   6   7
ATOM      7  C   UNL A   1      37.066  31.187  30.634  1.00  0.00     0.329 C 
ATOM      8  O   UNL A   1      38.210  31.625  30.566  1.00  0.00    -0.250 OA
BRANCH   7   9
ATOM      9  C   UNL A   1      35.873  32.063  31.037  1.00  0.00     0.198 C 
BRANCH   9  10
ATOM     10  N   UNL A   1      35.565  32.231  32.470  1.00  0.00    -0.335 N 
ATOM     11  C   UNL A   1      36.169  33.092  33.374  1.00  0.00     0.293 C 
ATOM     12  O   UNL A   1      36.053  32.919  34.581  1.00  0.00    -0.265 OA
ATOM     13  H   UNL A   1      34.844  31.664  32.827  1.00  0.00     0.164 HD
BRANCH  11  14
ATOM     14  C   UNL A   1      36.955  34.319  32.856  1.00  0.00     0.252 C 
ATOM     15  O   UNL A   1      36.314  35.338  32.611  1.00  0.00    -0.283 OA
BRANCH  14  16
ATOM     16  C   UNL A   1      38.417  34.342  32.665  1.00  0.00     0.054 A 
ATOM     17  N   UNL A   1      40.482  34.508  31.823  1.00  0.00    -0.240 N 
ATOM     18  C   UNL A   1      39.157  34.317  31.494  1.00  0.00     0.117 A 
ATOM     19  C   UNL A   1      40.636  34.683  33.181  1.00  0.00     0.065 A 
ATOM     20  C   UNL A   1      39.376  34.440  33.738  1.00  0.00     0.012 A 
ATOM     21  C   UNL A   1      41.744  35.016  33.985  1.00  0.00     0.028 A 
ATOM     22  C   UNL A   1      39.258  34.411  35.146  1.00  0.00     0.011 A 
ATOM     23  C   UNL A   1      41.584  35.009  35.374  1.00  0.00     0.002 A 
ATOM     24  C   UNL A   1      40.364  34.683  35.950  1.00  0.00     0.001 A 
BRANCH  17  25
ATOM     25  S   UNL A   1      41.718  34.723  30.669  1.00  0.00     0.268 S 
ATOM     26  O   UNL A   1      42.763  35.454  31.396  1.00  0.00    -0.201 OA
ATOM     27  O   UNL A   1      41.106  35.250  29.489  1.00  0.00    -0.201 OA
BRANCH  25  28
ATOM     28  C   UNL A   1      42.413  33.142  30.244  1.00  0.00     0.088 A 
ATOM     29  C   UNL A   1      43.726  29.204  29.096  1.00  0.00     0.044 C 
ATOM     30  C   UNL A   1      43.283  30.577  29.507  1.00  0.00    -0.051 A 
ATOM     31  C   UNL A   1      42.090  30.738  30.222  1.00  0.00     0.005 A 
ATOM     32  C   UNL A   1      44.053  31.709  29.202  1.00  0.00     0.005 A 
ATOM     33  C   UNL A   1      41.654  32.014  30.583  1.00  0.00     0.022 A 
ATOM     34  C   UNL A   1      43.631  32.990  29.581  1.00  0.00     0.022 A 
ENDBRANCH  25  28
ENDBRANCH  17  25
ENDBRANCH  14  16
ENDBRANCH  11  14
ENDBRANCH   9  10
BRANCH   9  35
ATOM     35  C   UNL A   1      35.955  33.383  30.243  1.00  0.00     0.092 C 
BRANCH  35  36
ATOM     36  C   UNL A   1      34.767  33.775  29.432  1.00  0.00     0.037 A 
ATOM     37  C   UNL A   1      33.783  34.718  29.645  1.00  0.00     0.134 A 
ATOM     38  N   UNL A   1      34.368  33.118  28.295  1.00  0.00    -0.348 N 
ATOM     39  N   UNL A   1      32.777  34.600  28.726  1.00  0.00    -0.245 NA
ATOM     40  C   UNL A   1      33.148  33.619  27.936  1.00  0.00     0.196 A 
ATOM     41  H   UNL A   1      34.869  32.415  27.823  1.00  0.00     0.167 HD
ENDBRANCH  35  36
ENDBRANCH   9  35
ENDBRANCH   7   9
ENDBRANCH   6   7
ENDBRANCH   5   6
ENDBRANCH   4   5
ENDBRANCH   3   4
ENDBRANCH   2   3
ENDBRANCH   1   2
BRANCH   1  42
ATOM     42  O   UNL A   1      40.737  26.715  28.595  1.00  0.00    -0.377 OA
BRANCH  42  43
ATOM     43  C   UNL A   1      41.231  25.392  28.442  1.00  0.00     0.188 C 
BRANCH  43  44
ATOM     44  C   UNL A   1      42.497  25.230  27.602  1.00  0.00     0.188 C 
BRANCH  44  45
ATOM     45  O   UNL A   1      42.886  23.861  27.552  1.00  0.00    -0.376 OA
BRANCH  45  46
ATOM     46  C   UNL A   1      44.056  23.497  28.291  1.00  0.00     0.202 C 
BRANCH  46  47
ATOM     47  C   UNL A   1      43.933  23.071  29.770  1.00  0.00     0.261 C 
BRANCH  47  48
ATOM     48  O   UNL A   1      43.849  24.252  30.597  1.00  0.00    -0.460 OA
BRANCH  48  49
ATOM     49  C   UNL A   1      44.409  24.179  31.833  1.00  0.00     0.338 C 
ATOM     50  O   UNL A   1      44.800  23.172  32.392  1.00  0.00    -0.246 OA
BRANCH  49  51
ATOM     51  C   UNL A   1      44.229  25.514  32.480  1.00  0.00     0.060 A 
ATOM     52  C   UNL A   1      43.402  26.449  31.852  1.00  0.00     0.016 A 
ATOM     53  C   UNL A   1      45.110  25.937  33.477  1.00  0.00     0.016 A 
ATOM     54  C   UNL A   1      43.632  27.818  32.045  1.00  0.00     0.010 A 
ATOM     55  C   UNL A   1      45.406  27.295  33.588  1.00  0.00     0.010 A 
ATOM     56  C   UNL A   1      44.740  28.244  32.797  1.00  0.00    -0.014 A 
BRANCH  56  57
ATOM     57  C   UNL A   1      45.443  29.521  32.500  1.00  0.00     0.031 A 
ATOM     58  C   UNL A   1      44.902  30.881  32.825  1.00  0.00     0.074 A 
ATOM     59  C   UNL A   1      46.761  29.457  32.162  1.00  0.00     0.049 A 
ATOM     60  N   UNL A   1      45.472  31.981  32.446  1.00  0.00    -0.248 NA
ATOM     61  C   UNL A   1      43.677  31.155  33.570  1.00  0.00     0.031 C 
ATOM     62  C   UNL A   1      47.748  30.529  32.281  1.00  0.00     0.029 A 
ATOM     63  N   UNL A   1      47.525  28.393  31.684  1.00  0.00    -0.354 N 
ATOM     64  C   UNL A   1      44.960  33.030  33.169  1.00  0.00     0.074 A 
ATOM     65  C   UNL A   1      43.750  32.485  33.733  1.00  0.00     0.031 C 
ATOM     66  C   UNL A   1      48.953  30.105  31.898  1.00  0.00     0.029 A 
ATOM     67  C   UNL A   1      48.751  28.875  31.193  1.00  0.00     0.049 A 
ATOM     68  H   UNL A   1      47.248  27.448  31.688  1.00  0.00     0.167 HD
ATOM     69  C   UNL A   1      45.681  34.191  33.285  1.00  0.00     0.034 A 
ATOM     70  C   UNL A   1      49.069  28.733  29.875  1.00  0.00     0.034 A 
ATOM     71  C   UNL A   1      46.860  34.245  32.377  1.00  0.00     0.049 A 
ATOM     72  C   UNL A   1      48.962  30.034  29.088  1.00  0.00     0.074 A 
ATOM     73  C   UNL A   1      48.165  34.708  32.476  1.00  0.00     0.029 A 
ATOM     74  N   UNL A   1      46.775  33.692  31.090  1.00  0.00    -0.354 N 
ATOM     75  N   UNL A   1      48.662  31.195  29.628  1.00  0.00    -0.248 NA
ATOM     76  C   UNL A   1      49.187  30.169  27.655  1.00  0.00     0.031 C 
ATOM     77  C   UNL A   1      48.836  34.444  31.245  1.00  0.00     0.029 A 
ATOM     78  C   UNL A   1      47.967  33.775  30.400  1.00  0.00     0.049 A 
ATOM     79  H   UNL A   1      45.956  33.291  30.720  1.00  0.00     0.167 HD
ATOM     80  C   UNL A   1      48.510  32.163  28.674  1.00  0.00     0.074 A 
ATOM     81  C   UNL A   1      48.923  31.477  27.457  1.00  0.00     0.031 C 
ATOM     82  C   UNL A   1      48.027  33.414  28.977  1.00  0.00     0.034 A 
BRANCH  69  83
ATOM     83  C   UNL A   1      45.400  35.298  34.322  1.00  0.00     0.023 A 
ATOM     84  C   UNL A   1      44.947  36.575  33.901  1.00  0.00     0.031 A 
ATOM     85  C   UNL A   1      45.649  35.208  35.713  1.00  0.00     0.131 A 
ATOM     86  C   UNL A   1      44.783  37.652  34.804  1.00  0.00     0.055 A 
ATOM     87  C   UNL A   1      45.398  36.250  36.621  1.00  0.00     0.041 A 
ATOM     88  F   UNL A   1      46.217  34.134  36.272  1.00  0.00    -0.206 F 
ATOM     89  C   UNL A   1      44.972  37.485  36.171  1.00  0.00     0.022 A 
BRANCH  86  90
ATOM     90  S   UNL A   1      44.380  39.311  34.174  1.00  0.00     0.124 S 
ATOM     91  O   UNL A   1      43.071  39.096  33.570  1.00  0.00    -0.237 OA
ATOM     92  O   UNL A   1      44.408  40.124  35.384  1.00  0.00    -0.237 OA
ATOM     93  O   UNL A   1      45.459  39.585  33.224  1.00  0.00    -0.744 OA
ENDBRANCH  86  90
ENDBRANCH  69  83
BRANCH  70  94
ATOM     94  C   UNL A   1      48.969  27.289  29.501  1.00  0.00     0.023 A 
ATOM     95  C   UNL A   1      47.939  27.040  28.557  1.00  0.00     0.031 A 
ATOM     96  C   UNL A   1      50.106  26.464  29.449  1.00  0.00     0.131 A 
ATOM     97  C   UNL A   1      48.183  26.214  27.449  1.00  0.00     0.055 A 
ATOM     98  C   UNL A   1      50.300  25.563  28.388  1.00  0.00     0.041 A 
ATOM     99  F   UNL A   1      51.127  26.656  30.299  1.00  0.00    -0.206 F 
ATOM    100  C   UNL A   1      49.370  25.487  27.348  1.00  0.00     0.022 A 
BRANCH  97 101
ATOM    101  S   UNL A   1      47.119  26.373  25.973  1.00  0.00     0.124 S 
ATOM    102  O   UNL A   1      47.745  25.432  25.050  1.00  0.00    -0.237 OA
ATOM    103  O   UNL A   1      45.801  25.995  26.472  1.00  0.00    -0.237 OA
ATOM    104  O   UNL A   1      47.255  27.788  25.628  1.00  0.00    -0.744 OA
ENDBRANCH  97 101
ENDBRANCH  70  94
BRANCH  82 105
ATOM    105  C   UNL A   1      47.567  34.472  27.979  1.00  0.00     0.023 A 
ATOM    106  C   UNL A   1      48.178  35.721  27.829  1.00  0.00     0.031 A 
ATOM    107  C   UNL A   1      46.509  34.212  27.063  1.00  0.00     0.131 A 
ATOM    108  C   UNL A   1      47.720  36.658  26.883  1.00  0.00     0.055 A 
ATOM    109  C   UNL A   1      46.088  35.121  26.087  1.00  0.00     0.041 A 
ATOM    110  F   UNL A   1      45.840  33.051  27.050  1.00  0.00    -0.206 F 
ATOM    111  C   UNL A   1      46.688  36.363  25.999  1.00  0.00     0.022 A 
BRANCH 108 112
ATOM    112  S   UNL A   1      48.499  38.292  26.864  1.00  0.00     0.124 S 
ATOM    113  O   UNL A   1      48.313  38.726  28.246  1.00  0.00    -0.237 OA
ATOM    114  O   UNL A   1      49.871  37.978  26.479  1.00  0.00    -0.237 OA
ATOM    115  O   UNL A   1      47.726  39.031  25.869  1.00  0.00    -0.744 OA
ENDBRANCH 108 112
ENDBRANCH  82 105
ENDBRANCH  56  57
ENDBRANCH  49  51
ENDBRANCH  48  49
ENDBRANCH  47  48
ENDBRANCH  46  47
ENDBRANCH  45  46
ENDBRANCH  44  45
ENDBRANCH  43  44
ENDBRANCH  42  43
ENDBRANCH   1  42
TORSDOF 30
ENDMDL
