MODEL 1
REMARK VINA RESULT:     -10.1      0.000      0.000
REMARK SMILES CC(C)C[C@H](NC(=O)[C@H](Cc1ccccc1)NC(=O)CNC(=O)C[NH3+])C(=O)OCCOCCOCCOCCOC(=O)c1ccc(-c2c3nc(c(-c4cc(S(=O)(=O)[O-])ccc4F)c4ccc([nH]4)c(-c4cc(S(=O)(=O)[O-])ccc4F)c4nc(c(-c5cc(S(=O)(=O)[O-])ccc5F)c5ccc2[nH]5)C=C4)C=C3)cc1
REMARK SMILES IDX 32 1 31 2 30 3 29 4 28 5 26 6 27 7 5 8 4 9 2 10 1 11 3 12
REMARK SMILES IDX 6 13 7 14 8 16 9 17 17 18 18 19 19 21 20 22 21 23 22 24
REMARK SMILES IDX 23 26 24 27 25 28 10 32 11 33 12 34 16 35 13 36 15 37 14 38
REMARK SMILES IDX 33 39 34 40 35 41 36 42 37 43 38 44 39 45 40 46 41 47 42 48
REMARK SMILES IDX 43 49 44 50 105 51 45 52 104 53 46 54 47 55 48 56 98 57
REMARK SMILES IDX 49 58 103 59 97 60 99 61 50 62 102 63 96 64 95 65 51 67
REMARK SMILES IDX 83 68 63 69 82 70 64 71 67 72 81 73 100 74 65 75 66 76 80 78
REMARK SMILES IDX 101 79 68 80 52 81 53 82 61 83 54 84 60 85 62 86 59 87 55 88
REMARK SMILES IDX 56 89 57 90 58 91 84 92 85 93 93 94 86 95 92 96 94 97 91 98
REMARK SMILES IDX 87 99 88 100 89 101 90 102 69 103 70 104 78 105 71 106
REMARK SMILES IDX 77 107 79 108 76 109 72 110 73 111 74 112 75 113
REMARK H PARENT 6 15 17 20 21 25 25 29 25 30 25 31 99 66 67 77
REMARK Flexibility Score: inf
ROOT
ATOM      1  C   UNL A   1      40.378  21.283  26.520  1.00  0.00     0.188 C 
ENDROOT
BRANCH   1   2
ATOM      2  O   UNL A   1      39.410  22.317  26.583  1.00  0.00    -0.376 OA
BRANCH   2   3
ATOM      3  C   UNL A   1      38.145  22.194  25.949  1.00  0.00     0.202 C 
BRANCH   3   4
ATOM      4  C   UNL A   1      37.408  23.399  25.370  1.00  0.00     0.261 C 
BRANCH   4   5
ATOM      5  O   UNL A   1      36.029  23.191  25.023  1.00  0.00    -0.462 OA
BRANCH   5   6
ATOM      6  C   UNL A   1      35.682  23.333  23.720  1.00  0.00     0.328 C 
ATOM      7  O   UNL A   1      36.380  23.000  22.766  1.00  0.00    -0.250 OA
BRANCH   6   8
ATOM      8  C   UNL A   1      34.411  24.179  23.541  1.00  0.00     0.192 C 
BRANCH   8   9
ATOM      9  C   UNL A   1      34.201  25.029  24.819  1.00  0.00     0.040 C 
BRANCH   9  10
ATOM     10  C   UNL A   1      33.403  26.350  24.678  1.00  0.00    -0.015 C 
ATOM     11  C   UNL A   1      33.641  27.334  25.839  1.00  0.00     0.007 C 
ATOM     12  C   UNL A   1      33.810  27.076  23.393  1.00  0.00     0.007 C 
ENDBRANCH   9  10
ENDBRANCH   8   9
BRANCH   8  13
ATOM     13  N   UNL A   1      33.186  23.530  23.052  1.00  0.00    -0.341 N 
ATOM     14  C   UNL A   1      32.627  22.302  23.357  1.00  0.00     0.243 C 
ATOM     15  H   UNL A   1      32.677  24.058  22.395  1.00  0.00     0.164 HD
ATOM     16  O   UNL A   1      31.495  22.083  22.911  1.00  0.00    -0.273 OA
BRANCH  14  17
ATOM     17  C   UNL A   1      33.293  21.254  24.327  1.00  0.00     0.175 C 
BRANCH  17  18
ATOM     18  N   UNL A   1      33.272  21.749  25.711  1.00  0.00    -0.342 N 
ATOM     19  C   UNL A   1      32.294  22.447  26.364  1.00  0.00     0.240 C 
ATOM     20  H   UNL A   1      34.076  21.548  26.243  1.00  0.00     0.164 HD
ATOM     21  O   UNL A   1      32.613  23.072  27.379  1.00  0.00    -0.273 OA
BRANCH  19  22
ATOM     22  C   UNL A   1      30.837  22.492  25.843  1.00  0.00     0.216 C 
BRANCH  22  23
ATOM     23  N   UNL A   1      29.900  23.367  26.544  1.00  0.00    -0.342 N 
ATOM     24  C   UNL A   1      29.564  24.681  26.372  1.00  0.00     0.275 C 
ATOM     25  H   UNL A   1      29.418  22.926  27.280  1.00  0.00     0.164 HD
ATOM     26  O   UNL A   1      28.800  25.196  27.196  1.00  0.00    -0.268 OA
BRANCH  24  27
ATOM     27  C   UNL A   1      30.134  25.521  25.228  1.00  0.00     0.360 C 
BRANCH  27  28
ATOM     28  N   UNL A   1      29.183  25.592  24.106  1.00  0.00    -0.350 N 
ATOM     29  H   UNL A   1      29.461  26.342  23.473  1.00  0.00     0.344 HD
ATOM     30  H   UNL A   1      28.247  25.779  24.465  1.00  0.00     0.344 HD
ATOM     31  H   UNL A   1      29.185  24.704  23.604  1.00  0.00     0.344 HD
ENDBRANCH  27  28
ENDBRANCH  24  27
ENDBRANCH  22  23
ENDBRANCH  19  22
ENDBRANCH  17  18
BRANCH  17  32
ATOM     32  C   UNL A   1      32.522  19.878  24.225  1.00  0.00     0.070 C 
BRANCH  32  33
ATOM     33  C   UNL A   1      33.175  18.553  24.628  1.00  0.00    -0.045 A 
ATOM     34  C   UNL A   1      34.467  18.196  24.255  1.00  0.00     0.004 A 
ATOM     35  C   UNL A   1      32.464  17.605  25.382  1.00  0.00     0.004 A 
ATOM     36  C   UNL A   1      35.058  16.978  24.607  1.00  0.00     0.000 A 
ATOM     37  C   UNL A   1      33.042  16.374  25.745  1.00  0.00     0.000 A 
ATOM     38  C   UNL A   1      34.342  16.061  25.359  1.00  0.00     0.000 A 
ENDBRANCH  32  33
ENDBRANCH  17  32
ENDBRANCH  14  17
ENDBRANCH   8  13
ENDBRANCH   6   8
ENDBRANCH   5   6
ENDBRANCH   4   5
ENDBRANCH   3   4
ENDBRANCH   2   3
ENDBRANCH   1   2
BRANCH   1  39
ATOM     39  C   UNL A   1      40.036  19.895  25.946  1.00  0.00     0.188 C 
BRANCH  39  40
ATOM     40  O   UNL A   1      41.126  19.013  25.755  1.00  0.00    -0.377 OA
BRANCH  40  41
ATOM     41  C   UNL A   1      42.371  19.323  26.372  1.00  0.00     0.188 C 
BRANCH  41  42
ATOM     42  C   UNL A   1      43.605  18.438  26.094  1.00  0.00     0.188 C 
BRANCH  42  43
ATOM     43  O   UNL A   1      44.415  18.885  25.020  1.00  0.00    -0.376 OA
BRANCH  43  44
ATOM     44  C   UNL A   1      44.398  20.262  24.676  1.00  0.00     0.202 C 
BRANCH  44  45
ATOM     45  C   UNL A   1      45.333  21.221  25.432  1.00  0.00     0.261 C 
BRANCH  45  46
ATOM     46  O   UNL A   1      44.738  22.393  26.014  1.00  0.00    -0.460 OA
BRANCH  46  47
ATOM     47  C   UNL A   1      44.415  23.421  25.207  1.00  0.00     0.338 C 
ATOM     48  O   UNL A   1      44.555  23.472  23.992  1.00  0.00    -0.246 OA
BRANCH  47  49
ATOM     49  C   UNL A   1      43.659  24.405  26.010  1.00  0.00     0.060 A 
ATOM     50  C   UNL A   1      43.974  25.766  25.901  1.00  0.00     0.016 A 
ATOM     51  C   UNL A   1      42.648  23.981  26.875  1.00  0.00     0.016 A 
ATOM     52  C   UNL A   1      43.312  26.704  26.695  1.00  0.00     0.010 A 
ATOM     53  C   UNL A   1      42.004  24.918  27.688  1.00  0.00     0.010 A 
ATOM     54  C   UNL A   1      42.364  26.277  27.632  1.00  0.00    -0.014 A 
BRANCH  54  55
ATOM     55  C   UNL A   1      41.932  27.199  28.712  1.00  0.00     0.031 A 
ATOM     56  C   UNL A   1      42.745  27.224  29.980  1.00  0.00     0.074 A 
ATOM     57  C   UNL A   1      40.867  28.008  28.571  1.00  0.00     0.049 A 
ATOM     58  N   UNL A   1      42.531  27.873  31.094  1.00  0.00    -0.248 NA
ATOM     59  C   UNL A   1      43.961  26.397  29.987  1.00  0.00     0.031 C 
ATOM     60  C   UNL A   1      40.042  28.117  27.369  1.00  0.00     0.029 A 
ATOM     61  N   UNL A   1      40.290  28.885  29.457  1.00  0.00    -0.354 N 
ATOM     62  C   UNL A   1      43.577  27.521  31.940  1.00  0.00     0.074 A 
ATOM     63  C   UNL A   1      44.404  26.578  31.221  1.00  0.00     0.031 C 
ATOM     64  C   UNL A   1      39.053  28.999  27.601  1.00  0.00     0.029 A 
ATOM     65  C   UNL A   1      39.147  29.480  28.978  1.00  0.00     0.049 A 
ATOM     66  H   UNL A   1      40.660  29.069  30.350  1.00  0.00     0.167 HD
ATOM     67  C   UNL A   1      43.826  27.949  33.203  1.00  0.00     0.034 A 
ATOM     68  C   UNL A   1      38.262  30.291  29.595  1.00  0.00     0.034 A 
ATOM     69  C   UNL A   1      42.983  28.883  33.909  1.00  0.00     0.049 A 
ATOM     70  C   UNL A   1      38.506  30.682  31.036  1.00  0.00     0.074 A 
ATOM     71  C   UNL A   1      43.147  29.396  35.182  1.00  0.00     0.029 A 
ATOM     72  N   UNL A   1      41.807  29.429  33.409  1.00  0.00    -0.354 N 
ATOM     73  N   UNL A   1      39.498  30.344  31.828  1.00  0.00    -0.248 NA
ATOM     74  C   UNL A   1      37.515  31.567  31.661  1.00  0.00     0.031 C 
ATOM     75  C   UNL A   1      42.030  30.181  35.484  1.00  0.00     0.029 A 
ATOM     76  C   UNL A   1      41.217  30.241  34.364  1.00  0.00     0.049 A 
ATOM     77  H   UNL A   1      41.447  29.264  32.507  1.00  0.00     0.167 HD
ATOM     78  C   UNL A   1      39.265  31.007  33.033  1.00  0.00     0.074 A 
ATOM     79  C   UNL A   1      38.048  31.770  32.856  1.00  0.00     0.031 C 
ATOM     80  C   UNL A   1      39.995  30.991  34.179  1.00  0.00     0.034 A 
BRANCH  67  81
ATOM     81  C   UNL A   1      45.018  27.359  33.916  1.00  0.00     0.023 A 
ATOM     82  C   UNL A   1      44.879  26.404  34.939  1.00  0.00     0.031 A 
ATOM     83  C   UNL A   1      46.318  27.779  33.581  1.00  0.00     0.131 A 
ATOM     84  C   UNL A   1      46.012  25.954  35.634  1.00  0.00     0.055 A 
ATOM     85  C   UNL A   1      47.448  27.264  34.220  1.00  0.00     0.041 A 
ATOM     86  F   UNL A   1      46.512  28.710  32.634  1.00  0.00    -0.206 F 
ATOM     87  C   UNL A   1      47.297  26.355  35.262  1.00  0.00     0.022 A 
BRANCH  84  88
ATOM     88  S   UNL A   1      45.773  24.948  37.124  1.00  0.00     0.124 S 
ATOM     89  O   UNL A   1      44.562  25.540  37.688  1.00  0.00    -0.237 OA
ATOM     90  O   UNL A   1      45.630  23.603  36.578  1.00  0.00    -0.237 OA
ATOM     91  O   UNL A   1      46.991  25.183  37.896  1.00  0.00    -0.744 OA
ENDBRANCH  84  88
ENDBRANCH  67  81
BRANCH  68  92
ATOM     92  C   UNL A   1      37.031  30.748  28.884  1.00  0.00     0.023 A 
ATOM     93  C   UNL A   1      36.646  32.099  28.882  1.00  0.00     0.031 A 
ATOM     94  C   UNL A   1      36.186  29.824  28.241  1.00  0.00     0.131 A 
ATOM     95  C   UNL A   1      35.430  32.481  28.292  1.00  0.00     0.055 A 
ATOM     96  C   UNL A   1      35.007  30.217  27.606  1.00  0.00     0.041 A 
ATOM     97  F   UNL A   1      36.500  28.520  28.218  1.00  0.00    -0.206 F 
ATOM     98  C   UNL A   1      34.616  31.551  27.640  1.00  0.00     0.022 A 
BRANCH  95  99
ATOM     99  S   UNL A   1      34.879  34.200  28.467  1.00  0.00     0.124 S 
ATOM    100  O   UNL A   1      35.971  34.783  29.239  1.00  0.00    -0.237 OA
ATOM    101  O   UNL A   1      34.775  34.627  27.077  1.00  0.00    -0.237 OA
ATOM    102  O   UNL A   1      33.607  34.078  29.177  1.00  0.00    -0.744 OA
ENDBRANCH  95  99
ENDBRANCH  68  92
BRANCH  80 103
ATOM    103  C   UNL A   1      39.525  31.871  35.315  1.00  0.00     0.023 A 
ATOM    104  C   UNL A   1      39.905  33.220  35.422  1.00  0.00     0.031 A 
ATOM    105  C   UNL A   1      38.680  31.344  36.311  1.00  0.00     0.131 A 
ATOM    106  C   UNL A   1      39.490  33.979  36.527  1.00  0.00     0.055 A 
ATOM    107  C   UNL A   1      38.212  32.123  37.369  1.00  0.00     0.041 A 
ATOM    108  F   UNL A   1      38.288  30.061  36.265  1.00  0.00    -0.206 F 
ATOM    109  C   UNL A   1      38.629  33.446  37.490  1.00  0.00     0.022 A 
BRANCH 106 110
ATOM    110  S   UNL A   1      40.177  35.643  36.748  1.00  0.00     0.124 S 
ATOM    111  O   UNL A   1      41.612  35.377  36.777  1.00  0.00    -0.237 OA
ATOM    112  O   UNL A   1      39.681  36.345  35.569  1.00  0.00    -0.237 OA
ATOM    113  O   UNL A   1      39.603  36.084  38.018  1.00  0.00    -0.744 OA
ENDBRANCH 106 110
ENDBRANCH  80 103
ENDBRANCH  54  55
ENDBRANCH  47  49
ENDBRANCH  46  47
ENDBRANCH  45  46
ENDBRANCH  44  45
ENDBRANCH  43  44
ENDBRANCH  42  43
ENDBRANCH  41  42
ENDBRANCH  40  41
ENDBRANCH  39  40
ENDBRANCH   1  39
TORSDOF 34
ENDMDL
MODEL 2
REMARK VINA RESULT:      -9.9      1.997      2.712
REMARK SMILES CC(C)C[C@H](NC(=O)[C@H](Cc1ccccc1)NC(=O)CNC(=O)C[NH3+])C(=O)OCCOCCOCCOCCOC(=O)c1ccc(-c2c3nc(c(-c4cc(S(=O)(=O)[O-])ccc4F)c4ccc([nH]4)c(-c4cc(S(=O)(=O)[O-])ccc4F)c4nc(c(-c5cc(S(=O)(=O)[O-])ccc5F)c5ccc2[nH]5)C=C4)C=C3)cc1
REMARK SMILES IDX 32 1 31 2 30 3 29 4 28 5 26 6 27 7 5 8 4 9 2 10 1 11 3 12
REMARK SMILES IDX 6 13 7 14 8 16 9 17 17 18 18 19 19 21 20 22 21 23 22 24
REMARK SMILES IDX 23 26 24 27 25 28 10 32 11 33 12 34 16 35 13 36 15 37 14 38
REMARK SMILES IDX 33 39 34 40 35 41 36 42 37 43 38 44 39 45 40 46 41 47 42 48
REMARK SMILES IDX 43 49 44 50 105 51 45 52 104 53 46 54 47 55 48 56 98 57
REMARK SMILES IDX 49 58 103 59 97 60 99 61 50 62 102 63 96 64 95 65 51 67
REMARK SMILES IDX 83 68 63 69 82 70 64 71 67 72 81 73 100 74 65 75 66 76 80 78
REMARK SMILES IDX 101 79 68 80 52 81 53 82 61 83 54 84 60 85 62 86 59 87 55 88
REMARK SMILES IDX 56 89 57 90 58 91 84 92 85 93 93 94 86 95 92 96 94 97 91 98
REMARK SMILES IDX 87 99 88 100 89 101 90 102 69 103 70 104 78 105 71 106
REMARK SMILES IDX 77 107 79 108 76 109 72 110 73 111 74 112 75 113
REMARK H PARENT 6 15 17 20 21 25 25 29 25 30 25 31 99 66 67 77
REMARK Flexibility Score: inf
ROOT
ATOM      1  C   UNL A   1      40.274  21.370  26.414  1.00  0.00     0.188 C 
ENDROOT
BRANCH   1   2
ATOM      2  O   UNL A   1      39.324  22.419  26.512  1.00  0.00    -0.376 OA
BRANCH   2   3
ATOM      3  C   UNL A   1      38.001  22.275  26.019  1.00  0.00     0.202 C 
BRANCH   3   4
ATOM      4  C   UNL A   1      37.269  23.417  25.317  1.00  0.00     0.261 C 
BRANCH   4   5
ATOM      5  O   UNL A   1      35.891  23.176  24.985  1.00  0.00    -0.462 OA
BRANCH   5   6
ATOM      6  C   UNL A   1      35.526  23.312  23.686  1.00  0.00     0.328 C 
ATOM      7  O   UNL A   1      36.183  22.919  22.726  1.00  0.00    -0.250 OA
BRANCH   6   8
ATOM      8  C   UNL A   1      34.304  24.229  23.515  1.00  0.00     0.192 C 
BRANCH   8   9
ATOM      9  C   UNL A   1      34.089  25.016  24.832  1.00  0.00     0.040 C 
BRANCH   9  10
ATOM     10  C   UNL A   1      34.151  26.563  24.760  1.00  0.00    -0.015 C 
ATOM     11  C   UNL A   1      33.229  27.162  23.680  1.00  0.00     0.007 C 
ATOM     12  C   UNL A   1      33.718  27.170  26.098  1.00  0.00     0.007 C 
ENDBRANCH   9  10
ENDBRANCH   8   9
BRANCH   8  13
ATOM     13  N   UNL A   1      33.067  23.669  22.950  1.00  0.00    -0.341 N 
ATOM     14  C   UNL A   1      32.496  22.417  23.085  1.00  0.00     0.243 C 
ATOM     15  H   UNL A   1      32.560  24.290  22.378  1.00  0.00     0.164 HD
ATOM     16  O   UNL A   1      31.358  22.276  22.622  1.00  0.00    -0.273 OA
BRANCH  14  17
ATOM     17  C   UNL A   1      33.155  21.236  23.891  1.00  0.00     0.175 C 
BRANCH  17  18
ATOM     18  N   UNL A   1      33.255  21.580  25.317  1.00  0.00    -0.342 N 
ATOM     19  C   UNL A   1      32.343  22.204  26.121  1.00  0.00     0.240 C 
ATOM     20  H   UNL A   1      34.100  21.324  25.754  1.00  0.00     0.164 HD
ATOM     21  O   UNL A   1      32.751  22.717  27.166  1.00  0.00    -0.273 OA
BRANCH  19  22
ATOM     22  C   UNL A   1      30.846  22.303  25.734  1.00  0.00     0.216 C 
BRANCH  22  23
ATOM     23  N   UNL A   1      30.056  23.353  26.371  1.00  0.00    -0.342 N 
ATOM     24  C   UNL A   1      29.823  24.659  26.040  1.00  0.00     0.275 C 
ATOM     25  H   UNL A   1      29.605  23.066  27.198  1.00  0.00     0.164 HD
ATOM     26  O   UNL A   1      29.184  25.353  26.837  1.00  0.00    -0.268 OA
BRANCH  24  27
ATOM     27  C   UNL A   1      30.360  25.276  24.747  1.00  0.00     0.360 C 
BRANCH  27  28
ATOM     28  N   UNL A   1      29.256  25.698  23.870  1.00  0.00    -0.350 N 
ATOM     29  H   UNL A   1      29.168  25.041  23.096  1.00  0.00     0.344 HD
ATOM     30  H   UNL A   1      29.451  26.631  23.504  1.00  0.00     0.344 HD
ATOM     31  H   UNL A   1      28.387  25.716  24.403  1.00  0.00     0.344 HD
ENDBRANCH  27  28
ENDBRANCH  24  27
ENDBRANCH  22  23
ENDBRANCH  19  22
ENDBRANCH  17  18
BRANCH  17  32
ATOM     32  C   UNL A   1      32.293  19.924  23.704  1.00  0.00     0.070 C 
BRANCH  32  33
ATOM     33  C   UNL A   1      32.816  18.546  24.119  1.00  0.00    -0.045 A 
ATOM     34  C   UNL A   1      32.608  18.001  25.383  1.00  0.00     0.004 A 
ATOM     35  C   UNL A   1      33.578  17.772  23.229  1.00  0.00     0.004 A 
ATOM     36  C   UNL A   1      33.102  16.751  25.769  1.00  0.00     0.000 A 
ATOM     37  C   UNL A   1      34.083  16.512  23.600  1.00  0.00     0.000 A 
ATOM     38  C   UNL A   1      33.842  15.999  24.872  1.00  0.00     0.000 A 
ENDBRANCH  32  33
ENDBRANCH  17  32
ENDBRANCH  14  17
ENDBRANCH   8  13
ENDBRANCH   6   8
ENDBRANCH   5   6
ENDBRANCH   4   5
ENDBRANCH   3   4
ENDBRANCH   2   3
ENDBRANCH   1   2
BRANCH   1  39
ATOM     39  C   UNL A   1      39.890  19.989  25.851  1.00  0.00     0.188 C 
BRANCH  39  40
ATOM     40  O   UNL A   1      40.923  19.022  25.811  1.00  0.00    -0.377 OA
BRANCH  40  41
ATOM     41  C   UNL A   1      42.160  19.318  26.450  1.00  0.00     0.188 C 
BRANCH  41  42
ATOM     42  C   UNL A   1      43.278  18.255  26.486  1.00  0.00     0.188 C 
BRANCH  42  43
ATOM     43  O   UNL A   1      43.963  18.086  25.257  1.00  0.00    -0.376 OA
BRANCH  43  44
ATOM     44  C   UNL A   1      44.122  19.207  24.401  1.00  0.00     0.202 C 
BRANCH  44  45
ATOM     45  C   UNL A   1      45.407  20.045  24.515  1.00  0.00     0.261 C 
BRANCH  45  46
ATOM     46  O   UNL A   1      45.283  21.361  25.081  1.00  0.00    -0.460 OA
BRANCH  46  47
ATOM     47  C   UNL A   1      44.560  22.283  24.418  1.00  0.00     0.338 C 
ATOM     48  O   UNL A   1      44.174  22.217  23.259  1.00  0.00    -0.246 OA
BRANCH  47  49
ATOM     49  C   UNL A   1      44.123  23.302  25.396  1.00  0.00     0.060 A 
ATOM     50  C   UNL A   1      44.397  24.653  25.147  1.00  0.00     0.016 A 
ATOM     51  C   UNL A   1      43.452  22.919  26.560  1.00  0.00     0.016 A 
ATOM     52  C   UNL A   1      44.045  25.623  26.086  1.00  0.00     0.010 A 
ATOM     53  C   UNL A   1      43.124  23.890  27.511  1.00  0.00     0.010 A 
ATOM     54  C   UNL A   1      43.458  25.239  27.297  1.00  0.00    -0.014 A 
BRANCH  54  55
ATOM     55  C   UNL A   1      43.418  26.197  28.430  1.00  0.00     0.031 A 
ATOM     56  C   UNL A   1      44.605  26.239  29.356  1.00  0.00     0.074 A 
ATOM     57  C   UNL A   1      42.375  27.023  28.624  1.00  0.00     0.049 A 
ATOM     58  N   UNL A   1      44.780  26.920  30.457  1.00  0.00    -0.248 NA
ATOM     59  C   UNL A   1      45.747  25.387  28.986  1.00  0.00     0.031 C 
ATOM     60  C   UNL A   1      41.200  27.118  27.761  1.00  0.00     0.029 A 
ATOM     61  N   UNL A   1      42.134  27.934  29.624  1.00  0.00    -0.354 N 
ATOM     62  C   UNL A   1      46.044  26.569  30.920  1.00  0.00     0.074 A 
ATOM     63  C   UNL A   1      46.576  25.592  29.997  1.00  0.00     0.031 C 
ATOM     64  C   UNL A   1      40.352  28.025  28.279  1.00  0.00     0.029 A 
ATOM     65  C   UNL A   1      40.903  28.540  29.533  1.00  0.00     0.049 A 
ATOM     66  H   UNL A   1      42.781  28.133  30.338  1.00  0.00     0.167 HD
ATOM     67  C   UNL A   1      46.701  27.024  32.015  1.00  0.00     0.034 A 
ATOM     68  C   UNL A   1      40.280  29.383  30.383  1.00  0.00     0.034 A 
ATOM     69  C   UNL A   1      46.150  27.992  32.931  1.00  0.00     0.049 A 
ATOM     70  C   UNL A   1      40.992  29.807  31.649  1.00  0.00     0.074 A 
ATOM     71  C   UNL A   1      46.732  28.534  34.062  1.00  0.00     0.029 A 
ATOM     72  N   UNL A   1      44.880  28.549  32.832  1.00  0.00    -0.354 N 
ATOM     73  N   UNL A   1      42.188  29.469  32.078  1.00  0.00    -0.248 NA
ATOM     74  C   UNL A   1      40.274  30.726  32.539  1.00  0.00     0.031 C 
ATOM     75  C   UNL A   1      45.786  29.349  34.693  1.00  0.00     0.029 A 
ATOM     76  C   UNL A   1      44.648  29.397  33.904  1.00  0.00     0.049 A 
ATOM     77  H   UNL A   1      44.240  28.368  32.106  1.00  0.00     0.167 HD
ATOM     78  C   UNL A   1      42.374  30.167  33.271  1.00  0.00     0.074 A 
ATOM     79  C   UNL A   1      41.176  30.950  33.483  1.00  0.00     0.031 C 
ATOM     80  C   UNL A   1      43.443  30.166  34.110  1.00  0.00     0.034 A 
BRANCH  67  81
ATOM     81  C   UNL A   1      48.056  26.429  32.312  1.00  0.00     0.023 A 
ATOM     82  C   UNL A   1      48.207  25.262  33.082  1.00  0.00     0.031 A 
ATOM     83  C   UNL A   1      49.221  27.056  31.833  1.00  0.00     0.131 A 
ATOM     84  C   UNL A   1      49.492  24.800  33.407  1.00  0.00     0.055 A 
ATOM     85  C   UNL A   1      50.494  26.543  32.088  1.00  0.00     0.041 A 
ATOM     86  F   UNL A   1      49.142  28.188  31.117  1.00  0.00    -0.206 F 
ATOM     87  C   UNL A   1      50.635  25.415  32.891  1.00  0.00     0.022 A 
BRANCH  84  88
ATOM     88  S   UNL A   1      49.652  23.470  34.629  1.00  0.00     0.124 S 
ATOM     89  O   UNL A   1      50.906  23.826  35.289  1.00  0.00    -0.237 OA
ATOM     90  O   UNL A   1      48.443  23.629  35.429  1.00  0.00    -0.237 OA
ATOM     91  O   UNL A   1      49.708  22.259  33.814  1.00  0.00    -0.744 OA
ENDBRANCH  84  88
ENDBRANCH  67  81
BRANCH  68  92
ATOM     92  C   UNL A   1      38.888  29.847  30.105  1.00  0.00     0.023 A 
ATOM     93  C   UNL A   1      38.631  31.137  29.613  1.00  0.00     0.031 A 
ATOM     94  C   UNL A   1      37.785  29.019  30.386  1.00  0.00     0.131 A 
ATOM     95  C   UNL A   1      37.306  31.577  29.461  1.00  0.00     0.055 A 
ATOM     96  C   UNL A   1      36.471  29.441  30.178  1.00  0.00     0.041 A 
ATOM     97  F   UNL A   1      37.971  27.779  30.864  1.00  0.00    -0.206 F 
ATOM     98  C   UNL A   1      36.225  30.733  29.724  1.00  0.00     0.022 A 
BRANCH  95  99
ATOM     99  S   UNL A   1      37.012  33.307  28.999  1.00  0.00     0.124 S 
ATOM    100  O   UNL A   1      36.421  33.843  30.220  1.00  0.00    -0.237 OA
ATOM    101  O   UNL A   1      38.358  33.768  28.680  1.00  0.00    -0.237 OA
ATOM    102  O   UNL A   1      36.103  33.203  27.858  1.00  0.00    -0.744 OA
ENDBRANCH  95  99
ENDBRANCH  68  92
BRANCH  80 103
ATOM    103  C   UNL A   1      43.385  31.084  35.310  1.00  0.00     0.023 A 
ATOM    104  C   UNL A   1      43.852  32.408  35.261  1.00  0.00     0.031 A 
ATOM    105  C   UNL A   1      42.851  30.619  36.527  1.00  0.00     0.131 A 
ATOM    106  C   UNL A   1      43.831  33.202  36.418  1.00  0.00     0.055 A 
ATOM    107  C   UNL A   1      42.767  31.436  37.656  1.00  0.00     0.041 A 
ATOM    108  F   UNL A   1      42.394  29.362  36.637  1.00  0.00    -0.206 F 
ATOM    109  C   UNL A   1      43.272  32.732  37.609  1.00  0.00     0.022 A 
BRANCH 106 110
ATOM    110  S   UNL A   1      44.642  34.824  36.378  1.00  0.00     0.124 S 
ATOM    111  O   UNL A   1      45.404  34.812  37.622  1.00  0.00    -0.237 OA
ATOM    112  O   UNL A   1      45.426  34.752  35.148  1.00  0.00    -0.237 OA
ATOM    113  O   UNL A   1      43.524  35.765  36.344  1.00  0.00    -0.744 OA
ENDBRANCH 106 110
ENDBRANCH  80 103
ENDBRANCH  54  55
ENDBRANCH  47  49
ENDBRANCH  46  47
ENDBRANCH  45  46
ENDBRANCH  44  45
ENDBRANCH  43  44
ENDBRANCH  42  43
ENDBRANCH  41  42
ENDBRANCH  40  41
ENDBRANCH  39  40
ENDBRANCH   1  39
TORSDOF 34
ENDMDL
MODEL 3
REMARK VINA RESULT:      -9.7      3.167      9.238
REMARK SMILES CC(C)C[C@H](NC(=O)[C@H](Cc1ccccc1)NC(=O)CNC(=O)C[NH3+])C(=O)OCCOCCOCCOCCOC(=O)c1ccc(-c2c3nc(c(-c4cc(S(=O)(=O)[O-])ccc4F)c4ccc([nH]4)c(-c4cc(S(=O)(=O)[O-])ccc4F)c4nc(c(-c5cc(S(=O)(=O)[O-])ccc5F)c5ccc2[nH]5)C=C4)C=C3)cc1
REMARK SMILES IDX 32 1 31 2 30 3 29 4 28 5 26 6 27 7 5 8 4 9 2 10 1 11 3 12
REMARK SMILES IDX 6 13 7 14 8 16 9 17 17 18 18 19 19 21 20 22 21 23 22 24
REMARK SMILES IDX 23 26 24 27 25 28 10 32 11 33 12 34 16 35 13 36 15 37 14 38
REMARK SMILES IDX 33 39 34 40 35 41 36 42 37 43 38 44 39 45 40 46 41 47 42 48
REMARK SMILES IDX 43 49 44 50 105 51 45 52 104 53 46 54 47 55 48 56 98 57
REMARK SMILES IDX 49 58 103 59 97 60 99 61 50 62 102 63 96 64 95 65 51 67
REMARK SMILES IDX 83 68 63 69 82 70 64 71 67 72 81 73 100 74 65 75 66 76 80 78
REMARK SMILES IDX 101 79 68 80 52 81 53 82 61 83 54 84 60 85 62 86 59 87 55 88
REMARK SMILES IDX 56 89 57 90 58 91 84 92 85 93 93 94 86 95 92 96 94 97 91 98
REMARK SMILES IDX 87 99 88 100 89 101 90 102 69 103 70 104 78 105 71 106
REMARK SMILES IDX 77 107 79 108 76 109 72 110 73 111 74 112 75 113
REMARK H PARENT 6 15 17 20 21 25 25 29 25 30 25 31 99 66 67 77
REMARK Flexibility Score: inf
ROOT
ATOM      1  C   UNL A   1      34.330  29.764  26.917  1.00  0.00     0.188 C 
ENDROOT
BRANCH   1   2
ATOM      2  O   UNL A   1      33.512  28.964  26.080  1.00  0.00    -0.376 OA
BRANCH   2   3
ATOM      3  C   UNL A   1      33.223  29.338  24.741  1.00  0.00     0.202 C 
BRANCH   3   4
ATOM      4  C   UNL A   1      33.815  28.596  23.545  1.00  0.00     0.261 C 
BRANCH   4   5
ATOM      5  O   UNL A   1      32.873  28.089  22.585  1.00  0.00    -0.462 OA
BRANCH   5   6
ATOM      6  C   UNL A   1      32.967  26.780  22.245  1.00  0.00     0.328 C 
ATOM      7  O   UNL A   1      33.891  26.284  21.606  1.00  0.00    -0.250 OA
BRANCH   6   8
ATOM      8  C   UNL A   1      31.671  26.006  22.536  1.00  0.00     0.192 C 
BRANCH   8   9
ATOM      9  C   UNL A   1      31.166  26.401  23.946  1.00  0.00     0.040 C 
BRANCH   9  10
ATOM     10  C   UNL A   1      29.849  27.212  24.035  1.00  0.00    -0.015 C 
ATOM     11  C   UNL A   1      29.601  28.109  22.806  1.00  0.00     0.007 C 
ATOM     12  C   UNL A   1      28.652  26.263  24.139  1.00  0.00     0.007 C 
ENDBRANCH   9  10
ENDBRANCH   8   9
BRANCH   8  13
ATOM     13  N   UNL A   1      31.632  24.559  22.276  1.00  0.00    -0.341 N 
ATOM     14  C   UNL A   1      32.330  23.516  22.856  1.00  0.00     0.243 C 
ATOM     15  H   UNL A   1      31.005  24.286  21.568  1.00  0.00     0.164 HD
ATOM     16  O   UNL A   1      31.974  22.372  22.547  1.00  0.00    -0.273 OA
BRANCH  14  17
ATOM     17  C   UNL A   1      33.438  23.709  23.959  1.00  0.00     0.175 C 
BRANCH  17  18
ATOM     18  N   UNL A   1      32.855  23.571  25.302  1.00  0.00    -0.342 N 
ATOM     19  C   UNL A   1      32.058  22.579  25.800  1.00  0.00     0.240 C 
ATOM     20  H   UNL A   1      33.072  24.297  25.932  1.00  0.00     0.164 HD
ATOM     21  O   UNL A   1      31.390  22.827  26.807  1.00  0.00    -0.273 OA
BRANCH  19  22
ATOM     22  C   UNL A   1      31.956  21.193  25.116  1.00  0.00     0.216 C 
BRANCH  22  23
ATOM     23  N   UNL A   1      33.204  20.477  24.862  1.00  0.00    -0.342 N 
ATOM     24  C   UNL A   1      33.494  19.146  24.747  1.00  0.00     0.275 C 
ATOM     25  H   UNL A   1      33.985  21.065  24.752  1.00  0.00     0.164 HD
ATOM     26  O   UNL A   1      34.679  18.820  24.630  1.00  0.00    -0.268 OA
BRANCH  24  27
ATOM     27  C   UNL A   1      32.406  18.071  24.797  1.00  0.00     0.360 C 
BRANCH  27  28
ATOM     28  N   UNL A   1      32.510  17.165  23.642  1.00  0.00    -0.350 N 
ATOM     29  H   UNL A   1      31.581  16.999  23.256  1.00  0.00     0.344 HD
ATOM     30  H   UNL A   1      32.918  16.279  23.941  1.00  0.00     0.344 HD
ATOM     31  H   UNL A   1      33.103  17.590  22.930  1.00  0.00     0.344 HD
ENDBRANCH  27  28
ENDBRANCH  24  27
ENDBRANCH  22  23
ENDBRANCH  19  22
ENDBRANCH  17  18
BRANCH  17  32
ATOM     32  C   UNL A   1      34.585  22.642  23.748  1.00  0.00     0.070 C 
BRANCH  32  33
ATOM     33  C   UNL A   1      35.891  22.690  24.544  1.00  0.00    -0.045 A 
ATOM     34  C   UNL A   1      36.281  23.789  25.303  1.00  0.00     0.004 A 
ATOM     35  C   UNL A   1      36.790  21.611  24.512  1.00  0.00     0.004 A 
ATOM     36  C   UNL A   1      37.483  23.841  26.016  1.00  0.00     0.000 A 
ATOM     37  C   UNL A   1      38.004  21.645  25.223  1.00  0.00     0.000 A 
ATOM     38  C   UNL A   1      38.350  22.762  25.978  1.00  0.00     0.000 A 
ENDBRANCH  32  33
ENDBRANCH  17  32
ENDBRANCH  14  17
ENDBRANCH   8  13
ENDBRANCH   6   8
ENDBRANCH   5   6
ENDBRANCH   4   5
ENDBRANCH   3   4
ENDBRANCH   2   3
ENDBRANCH   1   2
BRANCH   1  39
ATOM     39  C   UNL A   1      33.772  31.006  27.637  1.00  0.00     0.188 C 
BRANCH  39  40
ATOM     40  O   UNL A   1      34.679  31.707  28.466  1.00  0.00    -0.377 OA
BRANCH  40  41
ATOM     41  C   UNL A   1      35.115  33.000  28.061  1.00  0.00     0.188 C 
BRANCH  41  42
ATOM     42  C   UNL A   1      34.095  34.152  27.943  1.00  0.00     0.188 C 
BRANCH  42  43
ATOM     43  O   UNL A   1      34.634  35.439  28.197  1.00  0.00    -0.376 OA
BRANCH  43  44
ATOM     44  C   UNL A   1      33.789  36.442  28.738  1.00  0.00     0.202 C 
BRANCH  44  45
ATOM     45  C   UNL A   1      32.556  36.007  29.550  1.00  0.00     0.261 C 
BRANCH  45  46
ATOM     46  O   UNL A   1      32.761  35.019  30.575  1.00  0.00    -0.460 OA
BRANCH  46  47
ATOM     47  C   UNL A   1      33.544  35.333  31.624  1.00  0.00     0.338 C 
ATOM     48  O   UNL A   1      33.285  36.122  32.523  1.00  0.00    -0.246 OA
BRANCH  47  49
ATOM     49  C   UNL A   1      34.691  34.400  31.627  1.00  0.00     0.060 A 
ATOM     50  C   UNL A   1      34.494  33.072  32.028  1.00  0.00     0.016 A 
ATOM     51  C   UNL A   1      35.959  34.841  31.242  1.00  0.00     0.016 A 
ATOM     52  C   UNL A   1      35.575  32.192  32.094  1.00  0.00     0.010 A 
ATOM     53  C   UNL A   1      37.046  33.966  31.333  1.00  0.00     0.010 A 
ATOM     54  C   UNL A   1      36.864  32.652  31.800  1.00  0.00    -0.014 A 
BRANCH  54  55
ATOM     55  C   UNL A   1      38.042  31.847  32.214  1.00  0.00     0.031 A 
ATOM     56  C   UNL A   1      38.697  32.185  33.527  1.00  0.00     0.074 A 
ATOM     57  C   UNL A   1      38.507  30.834  31.462  1.00  0.00     0.049 A 
ATOM     58  N   UNL A   1      39.779  31.693  34.069  1.00  0.00    -0.248 NA
ATOM     59  C   UNL A   1      38.038  33.225  34.332  1.00  0.00     0.031 C 
ATOM     60  C   UNL A   1      37.919  30.375  30.205  1.00  0.00     0.029 A 
ATOM     61  N   UNL A   1      39.593  30.014  31.646  1.00  0.00    -0.354 N 
ATOM     62  C   UNL A   1      39.940  32.374  35.271  1.00  0.00     0.074 A 
ATOM     63  C   UNL A   1      38.862  33.333  35.361  1.00  0.00     0.031 C 
ATOM     64  C   UNL A   1      38.665  29.364  29.721  1.00  0.00     0.029 A 
ATOM     65  C   UNL A   1      39.805  29.137  30.609  1.00  0.00     0.049 A 
ATOM     66  H   UNL A   1      40.166  30.051  32.445  1.00  0.00     0.167 HD
ATOM     67  C   UNL A   1      40.900  32.210  36.215  1.00  0.00     0.034 A 
ATOM     68  C   UNL A   1      40.821  28.278  30.385  1.00  0.00     0.034 A 
ATOM     69  C   UNL A   1      41.975  31.255  36.103  1.00  0.00     0.049 A 
ATOM     70  C   UNL A   1      41.934  28.177  31.406  1.00  0.00     0.074 A 
ATOM     71  C   UNL A   1      42.991  30.994  37.004  1.00  0.00     0.029 A 
ATOM     72  N   UNL A   1      42.183  30.416  35.015  1.00  0.00    -0.354 N 
ATOM     73  N   UNL A   1      42.077  28.825  32.540  1.00  0.00    -0.248 NA
ATOM     74  C   UNL A   1      43.015  27.227  31.118  1.00  0.00     0.031 C 
ATOM     75  C   UNL A   1      43.860  30.064  36.425  1.00  0.00     0.029 A 
ATOM     76  C   UNL A   1      43.333  29.667  35.206  1.00  0.00     0.049 A 
ATOM     77  H   UNL A   1      41.598  30.361  34.225  1.00  0.00     0.167 HD
ATOM     78  C   UNL A   1      43.249  28.331  33.115  1.00  0.00     0.074 A 
ATOM     79  C   UNL A   1      43.761  27.325  32.209  1.00  0.00     0.031 C 
ATOM     80  C   UNL A   1      43.841  28.672  34.288  1.00  0.00     0.034 A 
BRANCH  67  81
ATOM     81  C   UNL A   1      40.863  33.129  37.412  1.00  0.00     0.023 A 
ATOM     82  C   UNL A   1      40.093  32.840  38.552  1.00  0.00     0.031 A 
ATOM     83  C   UNL A   1      41.595  34.330  37.401  1.00  0.00     0.131 A 
ATOM     84  C   UNL A   1      40.020  33.770  39.601  1.00  0.00     0.055 A 
ATOM     85  C   UNL A   1      41.584  35.212  38.484  1.00  0.00     0.041 A 
ATOM     86  F   UNL A   1      42.326  34.675  36.329  1.00  0.00    -0.206 F 
ATOM     87  C   UNL A   1      40.782  34.939  39.587  1.00  0.00     0.022 A 
BRANCH  84  88
ATOM     88  S   UNL A   1      38.802  33.497  40.918  1.00  0.00     0.124 S 
ATOM     89  O   UNL A   1      39.609  32.815  41.928  1.00  0.00    -0.237 OA
ATOM     90  O   UNL A   1      38.384  34.855  41.247  1.00  0.00    -0.237 OA
ATOM     91  O   UNL A   1      37.784  32.667  40.278  1.00  0.00    -0.744 OA
ENDBRANCH  84  88
ENDBRANCH  67  81
BRANCH  68  92
ATOM     92  C   UNL A   1      40.876  27.480  29.124  1.00  0.00     0.023 A 
ATOM     93  C   UNL A   1      41.769  27.806  28.090  1.00  0.00     0.031 A 
ATOM     94  C   UNL A   1      39.988  26.409  28.912  1.00  0.00     0.131 A 
ATOM     95  C   UNL A   1      41.724  27.100  26.877  1.00  0.00     0.055 A 
ATOM     96  C   UNL A   1      39.987  25.673  27.726  1.00  0.00     0.041 A 
ATOM     97  F   UNL A   1      39.108  26.058  29.862  1.00  0.00    -0.206 F 
ATOM     98  C   UNL A   1      40.850  26.026  26.694  1.00  0.00     0.022 A 
BRANCH  95  99
ATOM     99  S   UNL A   1      42.764  27.665  25.502  1.00  0.00     0.124 S 
ATOM    100  O   UNL A   1      42.706  26.522  24.598  1.00  0.00    -0.237 OA
ATOM    101  O   UNL A   1      42.060  28.866  25.065  1.00  0.00    -0.237 OA
ATOM    102  O   UNL A   1      44.062  27.899  26.132  1.00  0.00    -0.744 OA
ENDBRANCH  95  99
ENDBRANCH  68  92
BRANCH  80 103
ATOM    103  C   UNL A   1      45.085  27.911  34.687  1.00  0.00     0.023 A 
ATOM    104  C   UNL A   1      46.374  28.356  34.348  1.00  0.00     0.031 A 
ATOM    105  C   UNL A   1      44.974  26.714  35.420  1.00  0.00     0.131 A 
ATOM    106  C   UNL A   1      47.494  27.584  34.689  1.00  0.00     0.055 A 
ATOM    107  C   UNL A   1      46.095  25.987  35.820  1.00  0.00     0.041 A 
ATOM    108  F   UNL A   1      43.769  26.236  35.769  1.00  0.00    -0.206 F 
ATOM    109  C   UNL A   1      47.365  26.413  35.442  1.00  0.00     0.022 A 
BRANCH 106 110
ATOM    110  S   UNL A   1      49.119  28.071  34.046  1.00  0.00     0.124 S 
ATOM    111  O   UNL A   1      50.009  27.651  35.124  1.00  0.00    -0.237 OA
ATOM    112  O   UNL A   1      49.208  27.303  32.809  1.00  0.00    -0.237 OA
ATOM    113  O   UNL A   1      48.998  29.517  33.870  1.00  0.00    -0.744 OA
ENDBRANCH 106 110
ENDBRANCH  80 103
ENDBRANCH  54  55
ENDBRANCH  47  49
ENDBRANCH  46  47
ENDBRANCH  45  46
ENDBRANCH  44  45
ENDBRANCH  43  44
ENDBRANCH  42  43
ENDBRANCH  41  42
ENDBRANCH  40  41
ENDBRANCH  39  40
ENDBRANCH   1  39
TORSDOF 34
ENDMDL
