MODEL 1
REMARK VINA RESULT:      -8.8      0.000      0.000
REMARK SMILES O=C(OCCOCCOCCOCCOC(=O)[C@@H]1C=C[C@H](NS(=O)(=O)c2ccc(Cl)cc2)C1)c1ccc(-c2c3nc(c(-c4cc(S(=O)(=O)[O-])ccc4F)c4ccc([nH]4)c(-c4cc(S(=O)(=O)[O-])ccc4F)c4nc(c(-c5cc(S(=O)(=O)[O-])ccc5F)c5ccc2[nH]5)C=C4)C=C3)cc1
REMARK SMILES IDX 9 1 8 2 7 3 6 4 5 5 4 6 3 7 2 8 1 9 34 10 35 11 96 12 36 13
REMARK SMILES IDX 95 14 37 15 38 16 39 17 89 18 40 19 94 20 88 21 90 22 41 23
REMARK SMILES IDX 93 24 87 25 86 26 42 28 74 29 54 30 73 31 55 32 58 33 72 34
REMARK SMILES IDX 91 35 56 36 57 37 71 39 92 40 59 41 43 42 44 43 52 44 45 45
REMARK SMILES IDX 51 46 53 47 50 48 46 49 47 50 48 51 49 52 75 53 76 54 84 55
REMARK SMILES IDX 77 56 83 57 85 58 82 59 78 60 79 61 80 62 81 63 60 64 61 65
REMARK SMILES IDX 69 66 62 67 68 68 70 69 67 70 63 71 64 72 65 73 66 74 10 75
REMARK SMILES IDX 11 76 12 77 13 78 14 79 15 80 16 81 17 82 18 83 19 84 33 85
REMARK SMILES IDX 20 86 21 87 22 88 23 90 24 91 25 92 26 93 27 94 32 95 28 96
REMARK SMILES IDX 31 97 29 98 30 99
REMARK H PARENT 90 27 58 38 22 89
REMARK Flexibility Score: inf
ROOT
ATOM      1  O   UNL A   1      38.285  22.149  25.916  1.00  0.00    -0.377 OA
ENDROOT
BRANCH   1   2
ATOM      2  C   UNL A   1      39.484  21.405  26.081  1.00  0.00     0.188 C 
BRANCH   2   3
ATOM      3  C   UNL A   1      40.328  21.814  27.285  1.00  0.00     0.188 C 
BRANCH   3   4
ATOM      4  O   UNL A   1      41.509  21.040  27.340  1.00  0.00    -0.376 OA
BRANCH   4   5
ATOM      5  C   UNL A   1      42.132  20.487  26.195  1.00  0.00     0.202 C 
BRANCH   5   6
ATOM      6  C   UNL A   1      43.343  21.186  25.608  1.00  0.00     0.261 C 
BRANCH   6   7
ATOM      7  O   UNL A   1      43.125  22.490  25.049  1.00  0.00    -0.460 OA
BRANCH   7   8
ATOM      8  C   UNL A   1      43.797  23.653  25.193  1.00  0.00     0.338 C 
ATOM      9  O   UNL A   1      44.476  24.052  24.248  1.00  0.00    -0.246 OA
BRANCH   8  10
ATOM     10  C   UNL A   1      43.774  24.486  26.422  1.00  0.00     0.060 A 
ATOM     11  C   UNL A   1      44.788  25.339  26.845  1.00  0.00     0.016 A 
ATOM     12  C   UNL A   1      42.570  24.518  27.129  1.00  0.00     0.016 A 
ATOM     13  C   UNL A   1      44.724  26.059  28.012  1.00  0.00     0.010 A 
ATOM     14  C   UNL A   1      42.441  25.322  28.259  1.00  0.00     0.010 A 
ATOM     15  C   UNL A   1      43.544  26.054  28.720  1.00  0.00    -0.014 A 
BRANCH  15  16
ATOM     16  C   UNL A   1      43.571  26.651  30.051  1.00  0.00     0.031 A 
ATOM     17  C   UNL A   1      43.056  28.042  30.151  1.00  0.00     0.074 A 
ATOM     18  C   UNL A   1      43.929  25.918  31.115  1.00  0.00     0.049 A 
ATOM     19  N   UNL A   1      43.216  28.916  31.096  1.00  0.00    -0.248 NA
ATOM     20  C   UNL A   1      42.271  28.521  28.998  1.00  0.00     0.031 C 
ATOM     21  C   UNL A   1      44.226  24.481  31.098  1.00  0.00     0.029 A 
ATOM     22  N   UNL A   1      44.107  26.282  32.418  1.00  0.00    -0.354 N 
ATOM     23  C   UNL A   1      42.627  30.079  30.617  1.00  0.00     0.074 A 
ATOM     24  C   UNL A   1      42.107  29.795  29.300  1.00  0.00     0.031 C 
ATOM     25  C   UNL A   1      44.576  24.094  32.334  1.00  0.00     0.029 A 
ATOM     26  C   UNL A   1      44.645  25.275  33.182  1.00  0.00     0.049 A 
ATOM     27  H   UNL A   1      43.875  27.171  32.771  1.00  0.00     0.167 HD
ATOM     28  C   UNL A   1      42.576  31.277  31.242  1.00  0.00     0.034 A 
ATOM     29  C   UNL A   1      45.225  25.347  34.392  1.00  0.00     0.034 A 
ATOM     30  C   UNL A   1      43.142  31.456  32.554  1.00  0.00     0.049 A 
ATOM     31  C   UNL A   1      45.282  26.709  35.030  1.00  0.00     0.074 A 
ATOM     32  C   UNL A   1      43.241  32.602  33.313  1.00  0.00     0.029 A 
ATOM     33  N   UNL A   1      43.725  30.427  33.296  1.00  0.00    -0.354 N 
ATOM     34  N   UNL A   1      44.844  27.857  34.553  1.00  0.00    -0.248 NA
ATOM     35  C   UNL A   1      45.912  26.802  36.346  1.00  0.00     0.031 C 
ATOM     36  C   UNL A   1      43.961  32.283  34.470  1.00  0.00     0.029 A 
ATOM     37  C   UNL A   1      44.218  30.916  34.489  1.00  0.00     0.049 A 
ATOM     38  H   UNL A   1      43.778  29.486  33.010  1.00  0.00     0.167 HD
ATOM     39  C   UNL A   1      45.116  28.808  35.527  1.00  0.00     0.074 A 
ATOM     40  C   UNL A   1      45.763  28.093  36.616  1.00  0.00     0.031 C 
ATOM     41  C   UNL A   1      44.849  30.140  35.538  1.00  0.00     0.034 A 
BRANCH  28  42
ATOM     42  C   UNL A   1      42.041  32.437  30.439  1.00  0.00     0.023 A 
ATOM     43  C   UNL A   1      42.878  33.257  29.658  1.00  0.00     0.031 A 
ATOM     44  C   UNL A   1      40.701  32.833  30.596  1.00  0.00     0.131 A 
ATOM     45  C   UNL A   1      42.401  34.489  29.181  1.00  0.00     0.055 A 
ATOM     46  C   UNL A   1      40.205  34.005  30.022  1.00  0.00     0.041 A 
ATOM     47  F   UNL A   1      39.861  32.119  31.361  1.00  0.00    -0.206 F 
ATOM     48  C   UNL A   1      41.062  34.856  29.333  1.00  0.00     0.022 A 
BRANCH  45  49
ATOM     49  S   UNL A   1      43.607  35.705  28.574  1.00  0.00     0.124 S 
ATOM     50  O   UNL A   1      44.866  34.978  28.736  1.00  0.00    -0.237 OA
ATOM     51  O   UNL A   1      43.171  35.926  27.201  1.00  0.00    -0.237 OA
ATOM     52  O   UNL A   1      43.434  36.842  29.476  1.00  0.00    -0.744 OA
ENDBRANCH  45  49
ENDBRANCH  28  42
BRANCH  29  53
ATOM     53  C   UNL A   1      45.873  24.142  34.982  1.00  0.00     0.023 A 
ATOM     54  C   UNL A   1      47.212  23.826  34.714  1.00  0.00     0.031 A 
ATOM     55  C   UNL A   1      45.161  23.296  35.858  1.00  0.00     0.131 A 
ATOM     56  C   UNL A   1      47.792  22.687  35.299  1.00  0.00     0.055 A 
ATOM     57  C   UNL A   1      45.758  22.198  36.480  1.00  0.00     0.041 A 
ATOM     58  F   UNL A   1      43.876  23.549  36.153  1.00  0.00    -0.206 F 
ATOM     59  C   UNL A   1      47.080  21.883  36.194  1.00  0.00     0.022 A 
BRANCH  56  60
ATOM     60  S   UNL A   1      49.482  22.231  34.827  1.00  0.00     0.124 S 
ATOM     61  O   UNL A   1      49.298  20.863  34.352  1.00  0.00    -0.237 OA
ATOM     62  O   UNL A   1      49.793  23.228  33.807  1.00  0.00    -0.237 OA
ATOM     63  O   UNL A   1      50.233  22.362  36.074  1.00  0.00    -0.744 OA
ENDBRANCH  56  60
ENDBRANCH  29  53
BRANCH  41  64
ATOM     64  C   UNL A   1      45.183  30.886  36.799  1.00  0.00     0.023 A 
ATOM     65  C   UNL A   1      44.274  30.999  37.860  1.00  0.00     0.031 A 
ATOM     66  C   UNL A   1      46.473  31.426  36.954  1.00  0.00     0.131 A 
ATOM     67  C   UNL A   1      44.663  31.662  39.031  1.00  0.00     0.055 A 
ATOM     68  C   UNL A   1      46.874  32.024  38.146  1.00  0.00     0.041 A 
ATOM     69  F   UNL A   1      47.373  31.343  35.961  1.00  0.00    -0.206 F 
ATOM     70  C   UNL A   1      45.964  32.149  39.190  1.00  0.00     0.022 A 
BRANCH  67  71
ATOM     71  S   UNL A   1      43.425  31.938  40.325  1.00  0.00     0.124 S 
ATOM     72  O   UNL A   1      43.734  30.870  41.270  1.00  0.00    -0.237 OA
ATOM     73  O   UNL A   1      43.732  33.293  40.770  1.00  0.00    -0.237 OA
ATOM     74  O   UNL A   1      42.155  31.792  39.617  1.00  0.00    -0.744 OA
ENDBRANCH  67  71
ENDBRANCH  41  64
ENDBRANCH  15  16
ENDBRANCH   8  10
ENDBRANCH   7   8
ENDBRANCH   6   7
ENDBRANCH   5   6
ENDBRANCH   4   5
ENDBRANCH   3   4
ENDBRANCH   2   3
ENDBRANCH   1   2
BRANCH   1  75
ATOM     75  C   UNL A   1      37.357  21.594  24.984  1.00  0.00     0.188 C 
BRANCH  75  76
ATOM     76  C   UNL A   1      35.958  21.149  25.455  1.00  0.00     0.188 C 
BRANCH  76  77
ATOM     77  O   UNL A   1      35.434  20.074  24.718  1.00  0.00    -0.376 OA
BRANCH  77  78
ATOM     78  C   UNL A   1      34.093  19.696  24.937  1.00  0.00     0.202 C 
BRANCH  78  79
ATOM     79  C   UNL A   1      32.846  20.556  24.596  1.00  0.00     0.261 C 
BRANCH  79  80
ATOM     80  O   UNL A   1      32.881  21.523  23.522  1.00  0.00    -0.463 OA
BRANCH  80  81
ATOM     81  C   UNL A   1      33.003  22.837  23.840  1.00  0.00     0.312 C 
ATOM     82  O   UNL A   1      33.712  23.618  23.210  1.00  0.00    -0.252 OA
BRANCH  81  83
ATOM     83  C   UNL A   1      32.248  23.284  25.129  1.00  0.00     0.123 C 
ATOM     84  C   UNL A   1      30.895  23.946  25.168  1.00  0.00    -0.015 C 
ATOM     85  C   UNL A   1      33.122  24.318  25.885  1.00  0.00     0.043 C 
ATOM     86  C   UNL A   1      30.879  25.086  25.873  1.00  0.00    -0.011 C 
ATOM     87  C   UNL A   1      32.203  25.410  26.448  1.00  0.00     0.093 C 
BRANCH  87  88
ATOM     88  N   UNL A   1      32.700  26.764  26.210  1.00  0.00    -0.204 NA
ATOM     89  H   UNL A   1      32.837  26.815  25.200  1.00  0.00     0.142 HD
BRANCH  88  90
ATOM     90  S   UNL A   1      31.975  28.210  26.608  1.00  0.00     0.241 S 
ATOM     91  O   UNL A   1      31.349  28.670  25.394  1.00  0.00    -0.207 OA
ATOM     92  O   UNL A   1      31.201  28.023  27.814  1.00  0.00    -0.207 OA
BRANCH  90  93
ATOM     93  C   UNL A   1      33.295  29.352  26.971  1.00  0.00     0.082 A 
ATOM     94  C   UNL A   1      34.607  28.882  27.110  1.00  0.00     0.023 A 
ATOM     95  C   UNL A   1      32.993  30.674  27.316  1.00  0.00     0.023 A 
ATOM     96  C   UNL A   1      35.618  29.731  27.565  1.00  0.00     0.022 A 
ATOM     97  C   UNL A   1      34.009  31.526  27.766  1.00  0.00     0.022 A 
ATOM     98  C   UNL A   1      35.316  31.052  27.889  1.00  0.00     0.041 A 
ATOM     99  Cl  UNL A   1      36.560  32.093  28.461  1.00  0.00    -0.084 Cl
ENDBRANCH  90  93
ENDBRANCH  88  90
ENDBRANCH  87  88
ENDBRANCH  81  83
ENDBRANCH  80  81
ENDBRANCH  79  80
ENDBRANCH  78  79
ENDBRANCH  77  78
ENDBRANCH  76  77
ENDBRANCH  75  76
ENDBRANCH   1  75
TORSDOF 26
ENDMDL
MODEL 2
REMARK VINA RESULT:      -8.6      5.245      6.966
REMARK SMILES O=C(OCCOCCOCCOCCOC(=O)[C@@H]1C=C[C@H](NS(=O)(=O)c2ccc(Cl)cc2)C1)c1ccc(-c2c3nc(c(-c4cc(S(=O)(=O)[O-])ccc4F)c4ccc([nH]4)c(-c4cc(S(=O)(=O)[O-])ccc4F)c4nc(c(-c5cc(S(=O)(=O)[O-])ccc5F)c5ccc2[nH]5)C=C4)C=C3)cc1
REMARK SMILES IDX 9 1 8 2 7 3 6 4 5 5 4 6 3 7 2 8 1 9 34 10 35 11 96 12 36 13
REMARK SMILES IDX 95 14 37 15 38 16 39 17 89 18 40 19 94 20 88 21 90 22 41 23
REMARK SMILES IDX 93 24 87 25 86 26 42 28 74 29 54 30 73 31 55 32 58 33 72 34
REMARK SMILES IDX 91 35 56 36 57 37 71 39 92 40 59 41 43 42 44 43 52 44 45 45
REMARK SMILES IDX 51 46 53 47 50 48 46 49 47 50 48 51 49 52 75 53 76 54 84 55
REMARK SMILES IDX 77 56 83 57 85 58 82 59 78 60 79 61 80 62 81 63 60 64 61 65
REMARK SMILES IDX 69 66 62 67 68 68 70 69 67 70 63 71 64 72 65 73 66 74 10 75
REMARK SMILES IDX 11 76 12 77 13 78 14 79 15 80 16 81 17 82 18 83 19 84 33 85
REMARK SMILES IDX 20 86 21 87 22 88 23 90 24 91 25 92 26 93 27 94 32 95 28 96
REMARK SMILES IDX 31 97 29 98 30 99
REMARK H PARENT 90 27 58 38 22 89
REMARK Flexibility Score: inf
ROOT
ATOM      1  O   UNL A   1      36.979  23.786  25.908  1.00  0.00    -0.377 OA
ENDROOT
BRANCH   1   2
ATOM      2  C   UNL A   1      38.212  23.125  26.161  1.00  0.00     0.188 C 
BRANCH   2   3
ATOM      3  C   UNL A   1      39.252  23.972  26.889  1.00  0.00     0.188 C 
BRANCH   3   4
ATOM      4  O   UNL A   1      40.489  23.290  26.942  1.00  0.00    -0.376 OA
BRANCH   4   5
ATOM      5  C   UNL A   1      40.730  22.062  26.278  1.00  0.00     0.202 C 
BRANCH   5   6
ATOM      6  C   UNL A   1      42.156  21.559  26.161  1.00  0.00     0.261 C 
BRANCH   6   7
ATOM      7  O   UNL A   1      43.153  22.528  25.806  1.00  0.00    -0.460 OA
BRANCH   7   8
ATOM      8  C   UNL A   1      44.090  23.163  26.542  1.00  0.00     0.338 C 
ATOM      9  O   UNL A   1      45.140  22.569  26.783  1.00  0.00    -0.246 OA
BRANCH   8  10
ATOM     10  C   UNL A   1      43.937  24.536  27.087  1.00  0.00     0.060 A 
ATOM     11  C   UNL A   1      43.416  25.630  26.402  1.00  0.00     0.016 A 
ATOM     12  C   UNL A   1      44.207  24.698  28.448  1.00  0.00     0.016 A 
ATOM     13  C   UNL A   1      43.332  26.886  26.950  1.00  0.00     0.010 A 
ATOM     14  C   UNL A   1      44.030  25.939  29.055  1.00  0.00     0.010 A 
ATOM     15  C   UNL A   1      43.636  27.041  28.282  1.00  0.00    -0.014 A 
BRANCH  15  16
ATOM     16  C   UNL A   1      43.741  28.408  28.780  1.00  0.00     0.031 A 
ATOM     17  C   UNL A   1      42.490  29.002  29.321  1.00  0.00     0.074 A 
ATOM     18  C   UNL A   1      44.935  29.016  28.844  1.00  0.00     0.049 A 
ATOM     19  N   UNL A   1      42.198  30.244  29.553  1.00  0.00    -0.248 NA
ATOM     20  C   UNL A   1      41.401  28.051  29.612  1.00  0.00     0.031 C 
ATOM     21  C   UNL A   1      46.227  28.392  28.536  1.00  0.00     0.029 A 
ATOM     22  N   UNL A   1      45.255  30.297  29.187  1.00  0.00    -0.354 N 
ATOM     23  C   UNL A   1      40.863  30.237  29.934  1.00  0.00     0.074 A 
ATOM     24  C   UNL A   1      40.406  28.868  29.903  1.00  0.00     0.031 C 
ATOM     25  C   UNL A   1      47.197  29.305  28.679  1.00  0.00     0.029 A 
ATOM     26  C   UNL A   1      46.578  30.591  28.965  1.00  0.00     0.049 A 
ATOM     27  H   UNL A   1      44.607  30.941  29.554  1.00  0.00     0.167 HD
ATOM     28  C   UNL A   1      40.104  31.313  30.245  1.00  0.00     0.034 A 
ATOM     29  C   UNL A   1      47.180  31.791  28.895  1.00  0.00     0.034 A 
ATOM     30  C   UNL A   1      40.658  32.642  30.229  1.00  0.00     0.049 A 
ATOM     31  C   UNL A   1      46.303  32.996  29.114  1.00  0.00     0.074 A 
ATOM     32  C   UNL A   1      40.033  33.850  30.451  1.00  0.00     0.029 A 
ATOM     33  N   UNL A   1      41.998  32.924  29.956  1.00  0.00    -0.354 N 
ATOM     34  N   UNL A   1      45.008  33.035  29.357  1.00  0.00    -0.248 NA
ATOM     35  C   UNL A   1      46.944  34.308  29.039  1.00  0.00     0.031 C 
ATOM     36  C   UNL A   1      40.973  34.862  30.225  1.00  0.00     0.029 A 
ATOM     37  C   UNL A   1      42.214  34.287  29.969  1.00  0.00     0.049 A 
ATOM     38  H   UNL A   1      42.691  32.246  29.779  1.00  0.00     0.167 HD
ATOM     39  C   UNL A   1      44.683  34.377  29.499  1.00  0.00     0.074 A 
ATOM     40  C   UNL A   1      45.923  35.113  29.305  1.00  0.00     0.031 C 
ATOM     41  C   UNL A   1      43.485  34.955  29.774  1.00  0.00     0.034 A 
BRANCH  28  42
ATOM     42  C   UNL A   1      38.630  31.065  30.453  1.00  0.00     0.023 A 
ATOM     43  C   UNL A   1      37.678  31.329  29.450  1.00  0.00     0.031 A 
ATOM     44  C   UNL A   1      38.156  30.723  31.731  1.00  0.00     0.131 A 
ATOM     45  C   UNL A   1      36.313  31.377  29.779  1.00  0.00     0.055 A 
ATOM     46  C   UNL A   1      36.791  30.663  32.021  1.00  0.00     0.041 A 
ATOM     47  F   UNL A   1      39.010  30.499  32.742  1.00  0.00    -0.206 F 
ATOM     48  C   UNL A   1      35.861  31.018  31.050  1.00  0.00     0.022 A 
BRANCH  45  49
ATOM     49  S   UNL A   1      35.167  32.145  28.596  1.00  0.00     0.124 S 
ATOM     50  O   UNL A   1      36.092  32.797  27.670  1.00  0.00    -0.237 OA
ATOM     51  O   UNL A   1      34.440  30.997  28.068  1.00  0.00    -0.237 OA
ATOM     52  O   UNL A   1      34.380  33.058  29.422  1.00  0.00    -0.744 OA
ENDBRANCH  45  49
ENDBRANCH  28  42
BRANCH  29  53
ATOM     53  C   UNL A   1      48.613  31.886  28.501  1.00  0.00     0.023 A 
ATOM     54  C   UNL A   1      49.643  31.623  29.415  1.00  0.00     0.031 A 
ATOM     55  C   UNL A   1      48.977  32.216  27.179  1.00  0.00     0.131 A 
ATOM     56  C   UNL A   1      50.983  31.710  29.002  1.00  0.00     0.055 A 
ATOM     57  C   UNL A   1      50.308  32.247  26.760  1.00  0.00     0.041 A 
ATOM     58  F   UNL A   1      48.035  32.478  26.259  1.00  0.00    -0.206 F 
ATOM     59  C   UNL A   1      51.322  32.001  27.677  1.00  0.00     0.022 A 
BRANCH  56  60
ATOM     60  S   UNL A   1      52.291  31.496  30.240  1.00  0.00     0.124 S 
ATOM     61  O   UNL A   1      52.812  32.854  30.357  1.00  0.00    -0.237 OA
ATOM     62  O   UNL A   1      51.544  30.994  31.388  1.00  0.00    -0.237 OA
ATOM     63  O   UNL A   1      53.196  30.533  29.617  1.00  0.00    -0.744 OA
ENDBRANCH  56  60
ENDBRANCH  29  53
BRANCH  41  64
ATOM     64  C   UNL A   1      43.482  36.445  29.964  1.00  0.00     0.023 A 
ATOM     65  C   UNL A   1      43.864  37.042  31.174  1.00  0.00     0.031 A 
ATOM     66  C   UNL A   1      43.157  37.274  28.875  1.00  0.00     0.131 A 
ATOM     67  C   UNL A   1      43.891  38.440  31.272  1.00  0.00     0.055 A 
ATOM     68  C   UNL A   1      43.251  38.661  28.961  1.00  0.00     0.041 A 
ATOM     69  F   UNL A   1      42.781  36.744  27.700  1.00  0.00    -0.206 F 
ATOM     70  C   UNL A   1      43.615  39.250  30.167  1.00  0.00     0.022 A 
BRANCH  67  71
ATOM     71  S   UNL A   1      44.232  39.190  32.886  1.00  0.00     0.124 S 
ATOM     72  O   UNL A   1      44.759  40.496  32.507  1.00  0.00    -0.237 OA
ATOM     73  O   UNL A   1      42.917  39.191  33.517  1.00  0.00    -0.237 OA
ATOM     74  O   UNL A   1      45.205  38.278  33.486  1.00  0.00    -0.744 OA
ENDBRANCH  67  71
ENDBRANCH  41  64
ENDBRANCH  15  16
ENDBRANCH   8  10
ENDBRANCH   7   8
ENDBRANCH   6   7
ENDBRANCH   5   6
ENDBRANCH   4   5
ENDBRANCH   3   4
ENDBRANCH   2   3
ENDBRANCH   1   2
BRANCH   1  75
ATOM     75  C   UNL A   1      35.944  22.949  25.395  1.00  0.00     0.188 C 
BRANCH  75  76
ATOM     76  C   UNL A   1      35.677  21.569  26.030  1.00  0.00     0.188 C 
BRANCH  76  77
ATOM     77  O   UNL A   1      36.247  20.503  25.314  1.00  0.00    -0.376 OA
BRANCH  77  78
ATOM     78  C   UNL A   1      35.394  19.505  24.796  1.00  0.00     0.202 C 
BRANCH  78  79
ATOM     79  C   UNL A   1      33.904  19.302  25.186  1.00  0.00     0.261 C 
BRANCH  79  80
ATOM     80  O   UNL A   1      32.897  19.066  24.175  1.00  0.00    -0.463 OA
BRANCH  80  81
ATOM     81  C   UNL A   1      32.357  20.135  23.538  1.00  0.00     0.312 C 
ATOM     82  O   UNL A   1      31.919  20.084  22.391  1.00  0.00    -0.252 OA
BRANCH  81  83
ATOM     83  C   UNL A   1      32.410  21.479  24.328  1.00  0.00     0.123 C 
ATOM     84  C   UNL A   1      31.229  22.175  24.953  1.00  0.00    -0.015 C 
ATOM     85  C   UNL A   1      32.965  22.585  23.394  1.00  0.00     0.043 C 
ATOM     86  C   UNL A   1      31.113  23.459  24.588  1.00  0.00    -0.011 C 
ATOM     87  C   UNL A   1      32.184  23.879  23.660  1.00  0.00     0.093 C 
BRANCH  87  88
ATOM     88  N   UNL A   1      31.757  24.557  22.438  1.00  0.00    -0.204 NA
ATOM     89  H   UNL A   1      30.758  24.722  22.570  1.00  0.00     0.142 HD
BRANCH  88  90
ATOM     90  S   UNL A   1      32.336  25.981  21.796  1.00  0.00     0.241 S 
ATOM     91  O   UNL A   1      33.743  25.758  21.580  1.00  0.00    -0.207 OA
ATOM     92  O   UNL A   1      31.476  26.380  20.706  1.00  0.00    -0.207 OA
BRANCH  90  93
ATOM     93  C   UNL A   1      32.200  27.206  23.084  1.00  0.00     0.082 A 
ATOM     94  C   UNL A   1      30.974  27.413  23.725  1.00  0.00     0.023 A 
ATOM     95  C   UNL A   1      33.258  28.095  23.310  1.00  0.00     0.023 A 
ATOM     96  C   UNL A   1      30.807  28.483  24.608  1.00  0.00     0.022 A 
ATOM     97  C   UNL A   1      33.092  29.162  24.200  1.00  0.00     0.022 A 
ATOM     98  C   UNL A   1      31.869  29.353  24.845  1.00  0.00     0.041 A 
ATOM     99  Cl  UNL A   1      31.659  30.677  25.922  1.00  0.00    -0.084 Cl
ENDBRANCH  90  93
ENDBRANCH  88  90
ENDBRANCH  87  88
ENDBRANCH  81  83
ENDBRANCH  80  81
ENDBRANCH  79  80
ENDBRANCH  78  79
ENDBRANCH  77  78
ENDBRANCH  76  77
ENDBRANCH  75  76
ENDBRANCH   1  75
TORSDOF 26
ENDMDL
MODEL 3
REMARK VINA RESULT:      -8.4      5.306      7.844
REMARK SMILES O=C(OCCOCCOCCOCCOC(=O)[C@@H]1C=C[C@H](NS(=O)(=O)c2ccc(Cl)cc2)C1)c1ccc(-c2c3nc(c(-c4cc(S(=O)(=O)[O-])ccc4F)c4ccc([nH]4)c(-c4cc(S(=O)(=O)[O-])ccc4F)c4nc(c(-c5cc(S(=O)(=O)[O-])ccc5F)c5ccc2[nH]5)C=C4)C=C3)cc1
REMARK SMILES IDX 9 1 8 2 7 3 6 4 5 5 4 6 3 7 2 8 1 9 34 10 35 11 96 12 36 13
REMARK SMILES IDX 95 14 37 15 38 16 39 17 89 18 40 19 94 20 88 21 90 22 41 23
REMARK SMILES IDX 93 24 87 25 86 26 42 28 74 29 54 30 73 31 55 32 58 33 72 34
REMARK SMILES IDX 91 35 56 36 57 37 71 39 92 40 59 41 43 42 44 43 52 44 45 45
REMARK SMILES IDX 51 46 53 47 50 48 46 49 47 50 48 51 49 52 75 53 76 54 84 55
REMARK SMILES IDX 77 56 83 57 85 58 82 59 78 60 79 61 80 62 81 63 60 64 61 65
REMARK SMILES IDX 69 66 62 67 68 68 70 69 67 70 63 71 64 72 65 73 66 74 10 75
REMARK SMILES IDX 11 76 12 77 13 78 14 79 15 80 16 81 17 82 18 83 19 84 33 85
REMARK SMILES IDX 20 86 21 87 22 88 23 90 24 91 25 92 26 93 27 94 32 95 28 96
REMARK SMILES IDX 31 97 29 98 30 99
REMARK H PARENT 90 27 58 38 22 89
REMARK Flexibility Score: inf
ROOT
ATOM      1  O   UNL A   1      37.105  23.851  25.862  1.00  0.00    -0.377 OA
ENDROOT
BRANCH   1   2
ATOM      2  C   UNL A   1      38.312  23.158  26.150  1.00  0.00     0.188 C 
BRANCH   2   3
ATOM      3  C   UNL A   1      39.343  23.970  26.929  1.00  0.00     0.188 C 
BRANCH   3   4
ATOM      4  O   UNL A   1      40.536  23.228  27.082  1.00  0.00    -0.376 OA
BRANCH   4   5
ATOM      5  C   UNL A   1      40.889  22.140  26.247  1.00  0.00     0.202 C 
BRANCH   5   6
ATOM      6  C   UNL A   1      42.346  21.944  25.874  1.00  0.00     0.261 C 
BRANCH   6   7
ATOM      7  O   UNL A   1      43.092  23.128  25.554  1.00  0.00    -0.460 OA
BRANCH   7   8
ATOM      8  C   UNL A   1      43.974  23.855  26.274  1.00  0.00     0.338 C 
ATOM      9  O   UNL A   1      45.070  23.356  26.525  1.00  0.00    -0.246 OA
BRANCH   8  10
ATOM     10  C   UNL A   1      43.708  25.222  26.789  1.00  0.00     0.060 A 
ATOM     11  C   UNL A   1      42.982  26.211  26.133  1.00  0.00     0.016 A 
ATOM     12  C   UNL A   1      44.100  25.478  28.105  1.00  0.00     0.016 A 
ATOM     13  C   UNL A   1      42.798  27.471  26.646  1.00  0.00     0.010 A 
ATOM     14  C   UNL A   1      43.833  26.714  28.689  1.00  0.00     0.010 A 
ATOM     15  C   UNL A   1      43.222  27.722  27.930  1.00  0.00    -0.014 A 
BRANCH  15  16
ATOM     16  C   UNL A   1      43.205  29.113  28.370  1.00  0.00     0.031 A 
ATOM     17  C   UNL A   1      44.425  29.907  28.065  1.00  0.00     0.074 A 
ATOM     18  C   UNL A   1      42.094  29.643  28.903  1.00  0.00     0.049 A 
ATOM     19  N   UNL A   1      44.822  31.036  28.565  1.00  0.00    -0.248 NA
ATOM     20  C   UNL A   1      45.342  29.320  27.071  1.00  0.00     0.031 C 
ATOM     21  C   UNL A   1      40.797  28.965  29.015  1.00  0.00     0.029 A 
ATOM     22  N   UNL A   1      41.879  30.872  29.453  1.00  0.00    -0.354 N 
ATOM     23  C   UNL A   1      46.078  31.255  28.013  1.00  0.00     0.074 A 
ATOM     24  C   UNL A   1      46.372  30.142  27.141  1.00  0.00     0.031 C 
ATOM     25  C   UNL A   1      39.929  29.784  29.625  1.00  0.00     0.029 A 
ATOM     26  C   UNL A   1      40.645  30.979  30.047  1.00  0.00     0.049 A 
ATOM     27  H   UNL A   1      42.537  31.604  29.425  1.00  0.00     0.167 HD
ATOM     28  C   UNL A   1      46.903  32.296  28.266  1.00  0.00     0.034 A 
ATOM     29  C   UNL A   1      40.204  31.896  30.925  1.00  0.00     0.034 A 
ATOM     30  C   UNL A   1      46.516  33.348  29.169  1.00  0.00     0.049 A 
ATOM     31  C   UNL A   1      41.173  32.984  31.305  1.00  0.00     0.074 A 
ATOM     32  C   UNL A   1      47.238  34.443  29.595  1.00  0.00     0.029 A 
ATOM     33  N   UNL A   1      45.272  33.415  29.799  1.00  0.00    -0.354 N 
ATOM     34  N   UNL A   1      42.414  33.156  30.896  1.00  0.00    -0.248 NA
ATOM     35  C   UNL A   1      40.707  33.988  32.260  1.00  0.00     0.031 C 
ATOM     36  C   UNL A   1      46.465  35.117  30.546  1.00  0.00     0.029 A 
ATOM     37  C   UNL A   1      45.216  34.510  30.637  1.00  0.00     0.049 A 
ATOM     38  H   UNL A   1      44.538  32.771  29.666  1.00  0.00     0.167 HD
ATOM     39  C   UNL A   1      42.869  34.309  31.519  1.00  0.00     0.074 A 
ATOM     40  C   UNL A   1      41.765  34.785  32.338  1.00  0.00     0.031 C 
ATOM     41  C   UNL A   1      44.074  34.931  31.423  1.00  0.00     0.034 A 
BRANCH  28  42
ATOM     42  C   UNL A   1      48.292  32.217  27.681  1.00  0.00     0.023 A 
ATOM     43  C   UNL A   1      49.323  31.482  28.298  1.00  0.00     0.031 A 
ATOM     44  C   UNL A   1      48.633  33.028  26.585  1.00  0.00     0.131 A 
ATOM     45  C   UNL A   1      50.655  31.680  27.899  1.00  0.00     0.055 A 
ATOM     46  C   UNL A   1      49.946  33.132  26.123  1.00  0.00     0.041 A 
ATOM     47  F   UNL A   1      47.706  33.786  25.979  1.00  0.00    -0.206 F 
ATOM     48  C   UNL A   1      50.972  32.477  26.798  1.00  0.00     0.022 A 
BRANCH  45  49
ATOM     49  S   UNL A   1      51.980  31.074  28.986  1.00  0.00     0.124 S 
ATOM     50  O   UNL A   1      53.079  30.892  28.038  1.00  0.00    -0.237 OA
ATOM     51  O   UNL A   1      52.134  32.166  29.939  1.00  0.00    -0.237 OA
ATOM     52  O   UNL A   1      51.433  29.836  29.537  1.00  0.00    -0.744 OA
ENDBRANCH  45  49
ENDBRANCH  28  42
BRANCH  29  53
ATOM     53  C   UNL A   1      38.864  31.740  31.557  1.00  0.00     0.023 A 
ATOM     54  C   UNL A   1      37.703  32.231  30.944  1.00  0.00     0.031 A 
ATOM     55  C   UNL A   1      38.720  31.062  32.786  1.00  0.00     0.131 A 
ATOM     56  C   UNL A   1      36.455  32.054  31.565  1.00  0.00     0.055 A 
ATOM     57  C   UNL A   1      37.473  30.840  33.371  1.00  0.00     0.041 A 
ATOM     58  F   UNL A   1      39.796  30.569  33.420  1.00  0.00    -0.206 F 
ATOM     59  C   UNL A   1      36.330  31.346  32.764  1.00  0.00     0.022 A 
BRANCH  56  60
ATOM     60  S   UNL A   1      34.992  32.818  30.814  1.00  0.00     0.124 S 
ATOM     61  O   UNL A   1      34.001  32.664  31.874  1.00  0.00    -0.237 OA
ATOM     62  O   UNL A   1      35.456  34.179  30.561  1.00  0.00    -0.237 OA
ATOM     63  O   UNL A   1      34.759  32.008  29.620  1.00  0.00    -0.744 OA
ENDBRANCH  56  60
ENDBRANCH  29  53
BRANCH  41  64
ATOM     64  C   UNL A   1      44.222  36.234  32.157  1.00  0.00     0.023 A 
ATOM     65  C   UNL A   1      44.044  37.471  31.521  1.00  0.00     0.031 A 
ATOM     66  C   UNL A   1      44.475  36.216  33.541  1.00  0.00     0.131 A 
ATOM     67  C   UNL A   1      44.144  38.649  32.271  1.00  0.00     0.055 A 
ATOM     68  C   UNL A   1      44.506  37.388  34.291  1.00  0.00     0.041 A 
ATOM     69  F   UNL A   1      44.656  35.053  34.187  1.00  0.00    -0.206 F 
ATOM     70  C   UNL A   1      44.345  38.614  33.654  1.00  0.00     0.022 A 
BRANCH  67  71
ATOM     71  S   UNL A   1      44.069  40.239  31.404  1.00  0.00     0.124 S 
ATOM     72  O   UNL A   1      45.315  40.227  30.645  1.00  0.00    -0.237 OA
ATOM     73  O   UNL A   1      42.844  40.114  30.623  1.00  0.00    -0.237 OA
ATOM     74  O   UNL A   1      44.013  41.216  32.490  1.00  0.00    -0.744 OA
ENDBRANCH  67  71
ENDBRANCH  41  64
ENDBRANCH  15  16
ENDBRANCH   8  10
ENDBRANCH   7   8
ENDBRANCH   6   7
ENDBRANCH   5   6
ENDBRANCH   4   5
ENDBRANCH   3   4
ENDBRANCH   2   3
ENDBRANCH   1   2
BRANCH   1  75
ATOM     75  C   UNL A   1      36.049  23.033  25.360  1.00  0.00     0.188 C 
BRANCH  75  76
ATOM     76  C   UNL A   1      35.731  21.681  26.030  1.00  0.00     0.188 C 
BRANCH  76  77
ATOM     77  O   UNL A   1      36.291  20.579  25.361  1.00  0.00    -0.376 OA
BRANCH  77  78
ATOM     78  C   UNL A   1      35.424  19.599  24.833  1.00  0.00     0.202 C 
BRANCH  78  79
ATOM     79  C   UNL A   1      33.929  19.420  25.211  1.00  0.00     0.261 C 
BRANCH  79  80
ATOM     80  O   UNL A   1      32.931  19.163  24.197  1.00  0.00    -0.463 OA
BRANCH  80  81
ATOM     81  C   UNL A   1      32.395  20.219  23.535  1.00  0.00     0.312 C 
ATOM     82  O   UNL A   1      32.000  20.154  22.373  1.00  0.00    -0.252 OA
BRANCH  81  83
ATOM     83  C   UNL A   1      32.394  21.567  24.319  1.00  0.00     0.123 C 
ATOM     84  C   UNL A   1      31.186  22.216  24.945  1.00  0.00    -0.015 C 
ATOM     85  C   UNL A   1      32.899  22.691  23.379  1.00  0.00     0.043 C 
ATOM     86  C   UNL A   1      31.016  23.493  24.574  1.00  0.00    -0.011 C 
ATOM     87  C   UNL A   1      32.067  23.953  23.641  1.00  0.00     0.093 C 
BRANCH  87  88
ATOM     88  N   UNL A   1      31.608  24.608  22.418  1.00  0.00    -0.204 NA
ATOM     89  H   UNL A   1      30.657  24.911  22.629  1.00  0.00     0.142 HD
BRANCH  88  90
ATOM     90  S   UNL A   1      32.295  25.901  21.625  1.00  0.00     0.241 S 
ATOM     91  O   UNL A   1      33.706  25.613  21.576  1.00  0.00    -0.207 OA
ATOM     92  O   UNL A   1      31.549  26.149  20.412  1.00  0.00    -0.207 OA
BRANCH  90  93
ATOM     93  C   UNL A   1      32.094  27.313  22.695  1.00  0.00     0.082 A 
ATOM     94  C   UNL A   1      33.187  28.144  22.967  1.00  0.00     0.023 A 
ATOM     95  C   UNL A   1      30.907  27.471  23.418  1.00  0.00     0.023 A 
ATOM     96  C   UNL A   1      33.091  29.146  23.937  1.00  0.00     0.022 A 
ATOM     97  C   UNL A   1      30.809  28.480  24.384  1.00  0.00     0.022 A 
ATOM     98  C   UNL A   1      31.900  29.312  24.640  1.00  0.00     0.041 A 
ATOM     99  Cl  UNL A   1      31.787  30.537  25.842  1.00  0.00    -0.084 Cl
ENDBRANCH  90  93
ENDBRANCH  88  90
ENDBRANCH  87  88
ENDBRANCH  81  83
ENDBRANCH  80  81
ENDBRANCH  79  80
ENDBRANCH  78  79
ENDBRANCH  77  78
ENDBRANCH  76  77
ENDBRANCH  75  76
ENDBRANCH   1  75
TORSDOF 26
ENDMDL
