MODEL 1
REMARK VINA RESULT:      -6.4      0.000      0.000
REMARK SMILES CCc1ccccc1NC(=O)CCCC(=O)OCCOCCOCCOCCOC(=O)c1ccc(-c2c3nc(c(-c4cc(S(=O)(=O)[O-])ccc4F)c4ccc([nH]4)c(-c4cc(S(=O)(=O)[O-])ccc4F)c4nc(c(-c5cc(S(=O)(=O)[O-])ccc5F)c5ccc2[nH]5)C=C4)C=C3)cc1
REMARK SMILES IDX 22 1 21 2 20 3 19 4 18 5 17 6 15 7 16 8 14 9 13 10 12 11
REMARK SMILES IDX 10 12 9 13 11 15 8 16 3 17 4 18 5 19 7 20 6 21 2 22 1 23
REMARK SMILES IDX 23 24 24 25 25 26 26 27 27 28 28 29 29 30 30 31 31 32 32 33
REMARK SMILES IDX 33 34 94 35 34 36 93 37 35 38 36 39 37 40 87 41 38 42 92 43
REMARK SMILES IDX 86 44 88 45 39 46 91 47 85 48 84 49 40 51 72 52 52 53 71 54
REMARK SMILES IDX 53 55 56 56 70 57 89 58 54 59 55 60 69 62 90 63 57 64 41 65
REMARK SMILES IDX 42 66 50 67 43 68 49 69 51 70 48 71 44 72 45 73 46 74 47 75
REMARK SMILES IDX 73 76 74 77 82 78 75 79 81 80 83 81 80 82 76 83 77 84 78 85
REMARK SMILES IDX 79 86 58 87 59 88 67 89 60 90 66 91 68 92 65 93 61 94 62 95
REMARK SMILES IDX 63 96 64 97
REMARK H PARENT 9 14 88 50 56 61
REMARK Flexibility Score: inf
ROOT
ATOM      1  C   UNL A   1      52.236  30.336  21.895  1.00  0.00     0.188 C 
ENDROOT
BRANCH   1   2
ATOM      2  C   UNL A   1      51.632  28.929  21.747  1.00  0.00     0.188 C 
BRANCH   2   3
ATOM      3  O   UNL A   1      50.309  28.777  22.232  1.00  0.00    -0.376 OA
BRANCH   3   4
ATOM      4  C   UNL A   1      50.084  27.718  23.143  1.00  0.00     0.202 C 
BRANCH   4   5
ATOM      5  C   UNL A   1      48.775  26.967  22.986  1.00  0.00     0.261 C 
BRANCH   5   6
ATOM      6  O   UNL A   1      47.552  27.716  22.885  1.00  0.00    -0.463 OA
BRANCH   6   7
ATOM      7  C   UNL A   1      46.807  28.142  23.924  1.00  0.00     0.305 C 
ATOM      8  O   UNL A   1      46.557  29.310  24.187  1.00  0.00    -0.252 OA
BRANCH   7   9
ATOM      9  C   UNL A   1      46.305  26.974  24.755  1.00  0.00     0.123 C 
BRANCH   9  10
ATOM     10  C   UNL A   1      45.270  27.288  25.841  1.00  0.00     0.022 C 
BRANCH  10  11
ATOM     11  C   UNL A   1      43.786  27.190  25.458  1.00  0.00     0.101 C 
BRANCH  11  12
ATOM     12  C   UNL A   1      42.941  26.342  26.384  1.00  0.00     0.224 C 
ATOM     13  N   UNL A   1      43.076  25.000  26.566  1.00  0.00    -0.326 N 
ATOM     14  H   UNL A   1      42.469  24.657  27.262  1.00  0.00     0.169 HD
ATOM     15  O   UNL A   1      42.114  26.910  27.113  1.00  0.00    -0.275 OA
BRANCH  13  16
ATOM     16  C   UNL A   1      43.870  23.979  26.005  1.00  0.00     0.044 A 
ATOM     17  C   UNL A   1      44.938  23.429  26.741  1.00  0.00    -0.025 A 
ATOM     18  C   UNL A   1      45.921  22.658  26.077  1.00  0.00     0.006 A 
ATOM     19  C   UNL A   1      45.778  22.304  24.750  1.00  0.00     0.000 A 
ATOM     20  C   UNL A   1      43.647  23.457  24.741  1.00  0.00     0.026 A 
ATOM     21  C   UNL A   1      44.593  22.620  24.121  1.00  0.00     0.002 A 
BRANCH  17  22
ATOM     22  C   UNL A   1      45.038  23.505  28.244  1.00  0.00     0.034 C 
ATOM     23  C   UNL A   1      43.831  22.948  28.973  1.00  0.00     0.009 C 
ENDBRANCH  17  22
ENDBRANCH  13  16
ENDBRANCH  11  12
ENDBRANCH  10  11
ENDBRANCH   9  10
ENDBRANCH   7   9
ENDBRANCH   6   7
ENDBRANCH   5   6
ENDBRANCH   4   5
ENDBRANCH   3   4
ENDBRANCH   2   3
ENDBRANCH   1   2
BRANCH   1  24
ATOM     24  O   UNL A   1      51.629  31.246  22.800  1.00  0.00    -0.377 OA
BRANCH  24  25
ATOM     25  C   UNL A   1      52.297  31.672  23.985  1.00  0.00     0.188 C 
BRANCH  25  26
ATOM     26  C   UNL A   1      51.943  31.096  25.362  1.00  0.00     0.188 C 
BRANCH  26  27
ATOM     27  O   UNL A   1      52.089  29.694  25.450  1.00  0.00    -0.376 OA
BRANCH  27  28
ATOM     28  C   UNL A   1      53.399  29.163  25.355  1.00  0.00     0.202 C 
BRANCH  28  29
ATOM     29  C   UNL A   1      53.589  27.640  25.253  1.00  0.00     0.261 C 
BRANCH  29  30
ATOM     30  O   UNL A   1      53.549  26.850  26.458  1.00  0.00    -0.460 OA
BRANCH  30  31
ATOM     31  C   UNL A   1      52.663  25.840  26.584  1.00  0.00     0.338 C 
ATOM     32  O   UNL A   1      52.895  24.649  26.463  1.00  0.00    -0.246 OA
BRANCH  31  33
ATOM     33  C   UNL A   1      51.400  26.418  27.119  1.00  0.00     0.060 A 
ATOM     34  C   UNL A   1      51.437  27.247  28.251  1.00  0.00     0.016 A 
ATOM     35  C   UNL A   1      50.183  26.175  26.476  1.00  0.00     0.016 A 
ATOM     36  C   UNL A   1      50.259  27.807  28.758  1.00  0.00     0.010 A 
ATOM     37  C   UNL A   1      49.001  26.709  27.005  1.00  0.00     0.010 A 
ATOM     38  C   UNL A   1      49.027  27.504  28.165  1.00  0.00    -0.014 A 
BRANCH  38  39
ATOM     39  C   UNL A   1      47.759  27.825  28.871  1.00  0.00     0.031 A 
ATOM     40  C   UNL A   1      47.049  29.101  28.497  1.00  0.00     0.074 A 
ATOM     41  C   UNL A   1      47.236  27.013  29.809  1.00  0.00     0.049 A 
ATOM     42  N   UNL A   1      45.997  29.659  29.033  1.00  0.00    -0.248 NA
ATOM     43  C   UNL A   1      47.613  29.845  27.358  1.00  0.00     0.031 C 
ATOM     44  C   UNL A   1      47.784  25.719  30.208  1.00  0.00     0.029 A 
ATOM     45  N   UNL A   1      46.126  27.167  30.607  1.00  0.00    -0.354 N 
ATOM     46  C   UNL A   1      45.773  30.822  28.301  1.00  0.00     0.074 A 
ATOM     47  C   UNL A   1      46.817  30.903  27.304  1.00  0.00     0.031 C 
ATOM     48  C   UNL A   1      47.021  25.206  31.190  1.00  0.00     0.029 A 
ATOM     49  C   UNL A   1      45.960  26.155  31.526  1.00  0.00     0.049 A 
ATOM     50  H   UNL A   1      45.508  27.929  30.528  1.00  0.00     0.167 HD
ATOM     51  C   UNL A   1      44.784  31.737  28.447  1.00  0.00     0.034 A 
ATOM     52  C   UNL A   1      45.080  26.034  32.543  1.00  0.00     0.034 A 
ATOM     53  C   UNL A   1      43.760  31.655  29.458  1.00  0.00     0.049 A 
ATOM     54  C   UNL A   1      44.063  27.133  32.767  1.00  0.00     0.074 A 
ATOM     55  C   UNL A   1      42.713  32.529  29.696  1.00  0.00     0.029 A 
ATOM     56  N   UNL A   1      43.662  30.649  30.410  1.00  0.00    -0.354 N 
ATOM     57  N   UNL A   1      43.863  28.231  32.073  1.00  0.00    -0.248 NA
ATOM     58  C   UNL A   1      43.155  26.978  33.913  1.00  0.00     0.031 C 
ATOM     59  C   UNL A   1      42.033  32.095  30.839  1.00  0.00     0.029 A 
ATOM     60  C   UNL A   1      42.598  30.903  31.262  1.00  0.00     0.049 A 
ATOM     61  H   UNL A   1      44.261  29.870  30.472  1.00  0.00     0.167 HD
ATOM     62  C   UNL A   1      42.788  28.877  32.681  1.00  0.00     0.074 A 
ATOM     63  C   UNL A   1      42.368  28.036  33.782  1.00  0.00     0.031 C 
ATOM     64  C   UNL A   1      42.198  30.058  32.362  1.00  0.00     0.034 A 
BRANCH  51  65
ATOM     65  C   UNL A   1      44.799  32.933  27.527  1.00  0.00     0.023 A 
ATOM     66  C   UNL A   1      45.426  34.139  27.889  1.00  0.00     0.031 A 
ATOM     67  C   UNL A   1      44.171  32.868  26.270  1.00  0.00     0.131 A 
ATOM     68  C   UNL A   1      45.363  35.244  27.028  1.00  0.00     0.055 A 
ATOM     69  C   UNL A   1      44.179  33.948  25.387  1.00  0.00     0.041 A 
ATOM     70  F   UNL A   1      43.534  31.752  25.882  1.00  0.00    -0.206 F 
ATOM     71  C   UNL A   1      44.768  35.149  25.768  1.00  0.00     0.022 A 
BRANCH  68  72
ATOM     72  S   UNL A   1      45.964  36.847  27.629  1.00  0.00     0.124 S 
ATOM     73  O   UNL A   1      44.873  37.736  27.237  1.00  0.00    -0.237 OA
ATOM     74  O   UNL A   1      46.114  36.612  29.060  1.00  0.00    -0.237 OA
ATOM     75  O   UNL A   1      47.212  37.042  26.895  1.00  0.00    -0.744 OA
ENDBRANCH  68  72
ENDBRANCH  51  65
BRANCH  52  76
ATOM     76  C   UNL A   1      45.146  24.872  33.484  1.00  0.00     0.023 A 
ATOM     77  C   UNL A   1      45.940  24.916  34.642  1.00  0.00     0.031 A 
ATOM     78  C   UNL A   1      44.489  23.663  33.187  1.00  0.00     0.131 A 
ATOM     79  C   UNL A   1      46.107  23.761  35.424  1.00  0.00     0.055 A 
ATOM     80  C   UNL A   1      44.604  22.537  34.005  1.00  0.00     0.041 A 
ATOM     81  F   UNL A   1      43.728  23.555  32.087  1.00  0.00    -0.206 F 
ATOM     82  C   UNL A   1      45.432  22.576  35.122  1.00  0.00     0.022 A 
BRANCH  79  83
ATOM     83  S   UNL A   1      47.318  23.793  36.775  1.00  0.00     0.124 S 
ATOM     84  O   UNL A   1      46.477  23.511  37.933  1.00  0.00    -0.237 OA
ATOM     85  O   UNL A   1      48.241  22.735  36.379  1.00  0.00    -0.237 OA
ATOM     86  O   UNL A   1      47.862  25.148  36.712  1.00  0.00    -0.744 OA
ENDBRANCH  79  83
ENDBRANCH  52  76
BRANCH  64  87
ATOM     87  C   UNL A   1      41.010  30.485  33.191  1.00  0.00     0.023 A 
ATOM     88  C   UNL A   1      41.153  31.319  34.314  1.00  0.00     0.031 A 
ATOM     89  C   UNL A   1      39.715  30.051  32.853  1.00  0.00     0.131 A 
ATOM     90  C   UNL A   1      40.031  31.643  35.092  1.00  0.00     0.055 A 
ATOM     91  C   UNL A   1      38.593  30.434  33.589  1.00  0.00     0.041 A 
ATOM     92  F   UNL A   1      39.517  29.252  31.792  1.00  0.00    -0.206 F 
ATOM     93  C   UNL A   1      38.749  31.223  34.725  1.00  0.00     0.022 A 
BRANCH  90  94
ATOM     94  S   UNL A   1      40.280  32.543  36.646  1.00  0.00     0.124 S 
ATOM     95  O   UNL A   1      39.984  33.916  36.252  1.00  0.00    -0.237 OA
ATOM     96  O   UNL A   1      39.310  31.910  37.534  1.00  0.00    -0.237 OA
ATOM     97  O   UNL A   1      41.681  32.280  36.974  1.00  0.00    -0.744 OA
ENDBRANCH  90  94
ENDBRANCH  64  87
ENDBRANCH  38  39
ENDBRANCH  31  33
ENDBRANCH  30  31
ENDBRANCH  29  30
ENDBRANCH  28  29
ENDBRANCH  27  28
ENDBRANCH  26  27
ENDBRANCH  25  26
ENDBRANCH  24  25
ENDBRANCH   1  24
TORSDOF 28
ENDMDL
MODEL 2
REMARK VINA RESULT:      -6.2      2.097      7.780
REMARK SMILES CCc1ccccc1NC(=O)CCCC(=O)OCCOCCOCCOCCOC(=O)c1ccc(-c2c3nc(c(-c4cc(S(=O)(=O)[O-])ccc4F)c4ccc([nH]4)c(-c4cc(S(=O)(=O)[O-])ccc4F)c4nc(c(-c5cc(S(=O)(=O)[O-])ccc5F)c5ccc2[nH]5)C=C4)C=C3)cc1
REMARK SMILES IDX 22 1 21 2 20 3 19 4 18 5 17 6 15 7 16 8 14 9 13 10 12 11
REMARK SMILES IDX 10 12 9 13 11 15 8 16 3 17 4 18 5 19 7 20 6 21 2 22 1 23
REMARK SMILES IDX 23 24 24 25 25 26 26 27 27 28 28 29 29 30 30 31 31 32 32 33
REMARK SMILES IDX 33 34 94 35 34 36 93 37 35 38 36 39 37 40 87 41 38 42 92 43
REMARK SMILES IDX 86 44 88 45 39 46 91 47 85 48 84 49 40 51 72 52 52 53 71 54
REMARK SMILES IDX 53 55 56 56 70 57 89 58 54 59 55 60 69 62 90 63 57 64 41 65
REMARK SMILES IDX 42 66 50 67 43 68 49 69 51 70 48 71 44 72 45 73 46 74 47 75
REMARK SMILES IDX 73 76 74 77 82 78 75 79 81 80 83 81 80 82 76 83 77 84 78 85
REMARK SMILES IDX 79 86 58 87 59 88 67 89 60 90 66 91 68 92 65 93 61 94 62 95
REMARK SMILES IDX 63 96 64 97
REMARK H PARENT 9 14 88 50 56 61
REMARK Flexibility Score: inf
ROOT
ATOM      1  C   UNL A   1      52.969  31.827  22.445  1.00  0.00     0.188 C 
ENDROOT
BRANCH   1   2
ATOM      2  C   UNL A   1      53.319  30.458  21.836  1.00  0.00     0.188 C 
BRANCH   2   3
ATOM      3  O   UNL A   1      52.270  29.504  21.835  1.00  0.00    -0.376 OA
BRANCH   3   4
ATOM      4  C   UNL A   1      52.038  28.816  20.621  1.00  0.00     0.202 C 
BRANCH   4   5
ATOM      5  C   UNL A   1      50.637  28.266  20.421  1.00  0.00     0.261 C 
BRANCH   5   6
ATOM      6  O   UNL A   1      50.310  26.982  20.979  1.00  0.00    -0.463 OA
BRANCH   6   7
ATOM      7  C   UNL A   1      49.134  26.653  21.549  1.00  0.00     0.305 C 
ATOM      8  O   UNL A   1      48.510  25.621  21.347  1.00  0.00    -0.252 OA
BRANCH   7   9
ATOM      9  C   UNL A   1      48.656  27.745  22.492  1.00  0.00     0.123 C 
BRANCH   9  10
ATOM     10  C   UNL A   1      48.323  27.325  23.928  1.00  0.00     0.022 C 
BRANCH  10  11
ATOM     11  C   UNL A   1      46.840  27.245  24.319  1.00  0.00     0.101 C 
BRANCH  11  12
ATOM     12  C   UNL A   1      46.340  28.394  25.166  1.00  0.00     0.224 C 
ATOM     13  N   UNL A   1      45.650  28.272  26.334  1.00  0.00    -0.326 N 
ATOM     14  H   UNL A   1      45.477  29.145  26.756  1.00  0.00     0.169 HD
ATOM     15  O   UNL A   1      46.651  29.549  24.837  1.00  0.00    -0.275 OA
BRANCH  13  16
ATOM     16  C   UNL A   1      45.121  27.204  27.087  1.00  0.00     0.044 A 
ATOM     17  C   UNL A   1      43.941  27.385  27.837  1.00  0.00    -0.025 A 
ATOM     18  C   UNL A   1      43.595  26.442  28.833  1.00  0.00     0.006 A 
ATOM     19  C   UNL A   1      44.306  25.268  28.986  1.00  0.00     0.000 A 
ATOM     20  C   UNL A   1      45.698  25.946  27.123  1.00  0.00     0.026 A 
ATOM     21  C   UNL A   1      45.289  24.982  28.063  1.00  0.00     0.002 A 
BRANCH  17  22
ATOM     22  C   UNL A   1      42.936  28.474  27.555  1.00  0.00     0.034 C 
ATOM     23  C   UNL A   1      41.505  27.983  27.452  1.00  0.00     0.009 C 
ENDBRANCH  17  22
ENDBRANCH  13  16
ENDBRANCH  11  12
ENDBRANCH  10  11
ENDBRANCH   9  10
ENDBRANCH   7   9
ENDBRANCH   6   7
ENDBRANCH   5   6
ENDBRANCH   4   5
ENDBRANCH   3   4
ENDBRANCH   2   3
ENDBRANCH   1   2
BRANCH   1  24
ATOM     24  O   UNL A   1      51.864  31.916  23.330  1.00  0.00    -0.377 OA
BRANCH  24  25
ATOM     25  C   UNL A   1      52.010  32.426  24.653  1.00  0.00     0.188 C 
BRANCH  25  26
ATOM     26  C   UNL A   1      52.012  31.502  25.878  1.00  0.00     0.188 C 
BRANCH  26  27
ATOM     27  O   UNL A   1      52.372  30.168  25.587  1.00  0.00    -0.376 OA
BRANCH  27  28
ATOM     28  C   UNL A   1      53.682  29.752  25.929  1.00  0.00     0.202 C 
BRANCH  28  29
ATOM     29  C   UNL A   1      54.042  28.258  25.855  1.00  0.00     0.261 C 
BRANCH  29  30
ATOM     30  O   UNL A   1      53.559  27.372  26.885  1.00  0.00    -0.460 OA
BRANCH  30  31
ATOM     31  C   UNL A   1      52.615  26.450  26.606  1.00  0.00     0.338 C 
ATOM     32  O   UNL A   1      52.769  25.420  25.971  1.00  0.00    -0.246 OA
BRANCH  31  33
ATOM     33  C   UNL A   1      51.404  26.796  27.399  1.00  0.00     0.060 A 
ATOM     34  C   UNL A   1      50.148  26.315  27.000  1.00  0.00     0.016 A 
ATOM     35  C   UNL A   1      51.516  27.562  28.562  1.00  0.00     0.016 A 
ATOM     36  C   UNL A   1      49.002  26.623  27.743  1.00  0.00     0.010 A 
ATOM     37  C   UNL A   1      50.364  27.898  29.286  1.00  0.00     0.010 A 
ATOM     38  C   UNL A   1      49.098  27.455  28.865  1.00  0.00    -0.014 A 
BRANCH  38  39
ATOM     39  C   UNL A   1      47.872  28.043  29.466  1.00  0.00     0.031 A 
ATOM     40  C   UNL A   1      47.171  27.258  30.546  1.00  0.00     0.074 A 
ATOM     41  C   UNL A   1      47.390  29.241  29.084  1.00  0.00     0.049 A 
ATOM     42  N   UNL A   1      46.036  27.494  31.147  1.00  0.00    -0.248 NA
ATOM     43  C   UNL A   1      47.854  26.036  31.003  1.00  0.00     0.031 C 
ATOM     44  C   UNL A   1      48.013  30.129  28.105  1.00  0.00     0.029 A 
ATOM     45  N   UNL A   1      46.251  29.911  29.468  1.00  0.00    -0.354 N 
ATOM     46  C   UNL A   1      45.864  26.450  32.052  1.00  0.00     0.074 A 
ATOM     47  C   UNL A   1      46.997  25.565  31.897  1.00  0.00     0.031 C 
ATOM     48  C   UNL A   1      47.239  31.219  27.950  1.00  0.00     0.029 A 
ATOM     49  C   UNL A   1      46.040  31.084  28.778  1.00  0.00     0.049 A 
ATOM     50  H   UNL A   1      45.644  29.583  30.169  1.00  0.00     0.167 HD
ATOM     51  C   UNL A   1      44.854  26.252  32.933  1.00  0.00     0.034 A 
ATOM     52  C   UNL A   1      44.984  31.925  28.787  1.00  0.00     0.034 A 
ATOM     53  C   UNL A   1      43.720  27.131  33.063  1.00  0.00     0.049 A 
ATOM     54  C   UNL A   1      43.807  31.613  29.688  1.00  0.00     0.074 A 
ATOM     55  C   UNL A   1      42.640  27.022  33.921  1.00  0.00     0.029 A 
ATOM     56  N   UNL A   1      43.511  28.275  32.305  1.00  0.00    -0.354 N 
ATOM     57  N   UNL A   1      43.652  30.621  30.536  1.00  0.00    -0.248 NA
ATOM     58  C   UNL A   1      42.661  32.533  29.631  1.00  0.00     0.031 C 
ATOM     59  C   UNL A   1      41.741  28.052  33.626  1.00  0.00     0.029 A 
ATOM     60  C   UNL A   1      42.299  28.856  32.646  1.00  0.00     0.049 A 
ATOM     61  H   UNL A   1      44.131  28.622  31.623  1.00  0.00     0.167 HD
ATOM     62  C   UNL A   1      42.408  30.819  31.132  1.00  0.00     0.074 A 
ATOM     63  C   UNL A   1      41.865  32.035  30.565  1.00  0.00     0.031 C 
ATOM     64  C   UNL A   1      41.768  30.067  32.064  1.00  0.00     0.034 A 
BRANCH  51  65
ATOM     65  C   UNL A   1      44.905  25.005  33.781  1.00  0.00     0.023 A 
ATOM     66  C   UNL A   1      45.452  25.010  35.076  1.00  0.00     0.031 A 
ATOM     67  C   UNL A   1      44.403  23.788  33.283  1.00  0.00     0.131 A 
ATOM     68  C   UNL A   1      45.535  23.815  35.805  1.00  0.00     0.055 A 
ATOM     69  C   UNL A   1      44.419  22.619  34.044  1.00  0.00     0.041 A 
ATOM     70  F   UNL A   1      43.893  23.717  32.043  1.00  0.00    -0.206 F 
ATOM     71  C   UNL A   1      44.997  22.625  35.309  1.00  0.00     0.022 A 
BRANCH  68  72
ATOM     72  S   UNL A   1      46.466  23.810  37.362  1.00  0.00     0.124 S 
ATOM     73  O   UNL A   1      47.601  22.955  37.024  1.00  0.00    -0.237 OA
ATOM     74  O   UNL A   1      46.765  25.223  37.555  1.00  0.00    -0.237 OA
ATOM     75  O   UNL A   1      45.526  23.234  38.321  1.00  0.00    -0.744 OA
ENDBRANCH  68  72
ENDBRANCH  51  65
BRANCH  52  76
ATOM     76  C   UNL A   1      44.934  33.109  27.873  1.00  0.00     0.023 A 
ATOM     77  C   UNL A   1      45.390  34.371  28.290  1.00  0.00     0.031 A 
ATOM     78  C   UNL A   1      44.338  33.016  26.602  1.00  0.00     0.131 A 
ATOM     79  C   UNL A   1      45.188  35.495  27.472  1.00  0.00     0.055 A 
ATOM     80  C   UNL A   1      44.201  34.125  25.764  1.00  0.00     0.041 A 
ATOM     81  F   UNL A   1      43.870  31.840  26.155  1.00  0.00    -0.206 F 
ATOM     82  C   UNL A   1      44.612  35.378  26.206  1.00  0.00     0.022 A 
BRANCH  79  83
ATOM     83  S   UNL A   1      45.581  37.137  28.140  1.00  0.00     0.124 S 
ATOM     84  O   UNL A   1      46.840  37.436  27.468  1.00  0.00    -0.237 OA
ATOM     85  O   UNL A   1      44.424  37.920  27.716  1.00  0.00    -0.237 OA
ATOM     86  O   UNL A   1      45.680  36.904  29.580  1.00  0.00    -0.744 OA
ENDBRANCH  79  83
ENDBRANCH  52  76
BRANCH  64  87
ATOM     87  C   UNL A   1      40.429  30.563  32.556  1.00  0.00     0.023 A 
ATOM     88  C   UNL A   1      39.243  30.330  31.836  1.00  0.00     0.031 A 
ATOM     89  C   UNL A   1      40.337  31.282  33.762  1.00  0.00     0.131 A 
ATOM     90  C   UNL A   1      38.029  30.861  32.298  1.00  0.00     0.055 A 
ATOM     91  C   UNL A   1      39.117  31.747  34.252  1.00  0.00     0.041 A 
ATOM     92  F   UNL A   1      41.437  31.536  34.491  1.00  0.00    -0.206 F 
ATOM     93  C   UNL A   1      37.955  31.550  33.512  1.00  0.00     0.022 A 
BRANCH  90  94
ATOM     94  S   UNL A   1      36.561  30.722  31.243  1.00  0.00     0.124 S 
ATOM     95  O   UNL A   1      37.027  31.319  29.996  1.00  0.00    -0.237 OA
ATOM     96  O   UNL A   1      36.332  29.281  31.214  1.00  0.00    -0.237 OA
ATOM     97  O   UNL A   1      35.548  31.495  31.960  1.00  0.00    -0.744 OA
ENDBRANCH  90  94
ENDBRANCH  64  87
ENDBRANCH  38  39
ENDBRANCH  31  33
ENDBRANCH  30  31
ENDBRANCH  29  30
ENDBRANCH  28  29
ENDBRANCH  27  28
ENDBRANCH  26  27
ENDBRANCH  25  26
ENDBRANCH  24  25
ENDBRANCH   1  24
TORSDOF 28
ENDMDL
MODEL 3
REMARK VINA RESULT:      -5.4      7.911     12.740
REMARK SMILES CCc1ccccc1NC(=O)CCCC(=O)OCCOCCOCCOCCOC(=O)c1ccc(-c2c3nc(c(-c4cc(S(=O)(=O)[O-])ccc4F)c4ccc([nH]4)c(-c4cc(S(=O)(=O)[O-])ccc4F)c4nc(c(-c5cc(S(=O)(=O)[O-])ccc5F)c5ccc2[nH]5)C=C4)C=C3)cc1
REMARK SMILES IDX 22 1 21 2 20 3 19 4 18 5 17 6 15 7 16 8 14 9 13 10 12 11
REMARK SMILES IDX 10 12 9 13 11 15 8 16 3 17 4 18 5 19 7 20 6 21 2 22 1 23
REMARK SMILES IDX 23 24 24 25 25 26 26 27 27 28 28 29 29 30 30 31 31 32 32 33
REMARK SMILES IDX 33 34 94 35 34 36 93 37 35 38 36 39 37 40 87 41 38 42 92 43
REMARK SMILES IDX 86 44 88 45 39 46 91 47 85 48 84 49 40 51 72 52 52 53 71 54
REMARK SMILES IDX 53 55 56 56 70 57 89 58 54 59 55 60 69 62 90 63 57 64 41 65
REMARK SMILES IDX 42 66 50 67 43 68 49 69 51 70 48 71 44 72 45 73 46 74 47 75
REMARK SMILES IDX 73 76 74 77 82 78 75 79 81 80 83 81 80 82 76 83 77 84 78 85
REMARK SMILES IDX 79 86 58 87 59 88 67 89 60 90 66 91 68 92 65 93 61 94 62 95
REMARK SMILES IDX 63 96 64 97
REMARK H PARENT 9 14 88 50 56 61
REMARK Flexibility Score: inf
ROOT
ATOM      1  C   UNL A   1      46.840  38.529  28.804  1.00  0.00     0.188 C 
ENDROOT
BRANCH   1   2
ATOM      2  C   UNL A   1      45.961  39.726  28.401  1.00  0.00     0.188 C 
BRANCH   2   3
ATOM      3  O   UNL A   1      46.263  40.310  27.146  1.00  0.00    -0.376 OA
BRANCH   3   4
ATOM      4  C   UNL A   1      46.686  41.660  27.158  1.00  0.00     0.202 C 
BRANCH   4   5
ATOM      5  C   UNL A   1      45.594  42.706  27.026  1.00  0.00     0.261 C 
BRANCH   5   6
ATOM      6  O   UNL A   1      45.291  43.232  25.723  1.00  0.00    -0.463 OA
BRANCH   6   7
ATOM      7  C   UNL A   1      45.822  44.348  25.186  1.00  0.00     0.305 C 
ATOM      8  O   UNL A   1      45.996  45.407  25.775  1.00  0.00    -0.252 OA
BRANCH   7   9
ATOM      9  C   UNL A   1      46.184  44.137  23.726  1.00  0.00     0.123 C 
BRANCH   9  10
ATOM     10  C   UNL A   1      45.248  43.247  22.900  1.00  0.00     0.022 C 
BRANCH  10  11
ATOM     11  C   UNL A   1      44.267  43.942  21.944  1.00  0.00     0.101 C 
BRANCH  11  12
ATOM     12  C   UNL A   1      43.670  43.047  20.880  1.00  0.00     0.224 C 
ATOM     13  N   UNL A   1      43.467  43.394  19.579  1.00  0.00    -0.326 N 
ATOM     14  H   UNL A   1      43.128  42.642  19.042  1.00  0.00     0.169 HD
ATOM     15  O   UNL A   1      43.421  41.867  21.173  1.00  0.00    -0.275 OA
BRANCH  13  16
ATOM     16  C   UNL A   1      43.623  44.566  18.811  1.00  0.00     0.044 A 
ATOM     17  C   UNL A   1      42.493  45.215  18.276  1.00  0.00    -0.025 A 
ATOM     18  C   UNL A   1      42.658  46.179  17.253  1.00  0.00     0.006 A 
ATOM     19  C   UNL A   1      43.914  46.609  16.871  1.00  0.00     0.000 A 
ATOM     20  C   UNL A   1      44.855  45.145  18.556  1.00  0.00     0.026 A 
ATOM     21  C   UNL A   1      44.998  46.164  17.597  1.00  0.00     0.002 A 
BRANCH  17  22
ATOM     22  C   UNL A   1      41.097  45.038  18.820  1.00  0.00     0.034 C 
ATOM     23  C   UNL A   1      40.274  43.997  18.087  1.00  0.00     0.009 C 
ENDBRANCH  17  22
ENDBRANCH  13  16
ENDBRANCH  11  12
ENDBRANCH  10  11
ENDBRANCH   9  10
ENDBRANCH   7   9
ENDBRANCH   6   7
ENDBRANCH   5   6
ENDBRANCH   4   5
ENDBRANCH   3   4
ENDBRANCH   2   3
ENDBRANCH   1   2
BRANCH   1  24
ATOM     24  O   UNL A   1      48.152  38.776  29.282  1.00  0.00    -0.377 OA
BRANCH  24  25
ATOM     25  C   UNL A   1      49.113  37.730  29.394  1.00  0.00     0.188 C 
BRANCH  25  26
ATOM     26  C   UNL A   1      50.027  37.345  28.224  1.00  0.00     0.188 C 
BRANCH  26  27
ATOM     27  O   UNL A   1      49.571  37.802  26.968  1.00  0.00    -0.376 OA
BRANCH  27  28
ATOM     28  C   UNL A   1      49.063  36.837  26.063  1.00  0.00     0.202 C 
BRANCH  28  29
ATOM     29  C   UNL A   1      47.541  36.646  25.941  1.00  0.00     0.261 C 
BRANCH  29  30
ATOM     30  O   UNL A   1      46.898  35.639  26.747  1.00  0.00    -0.460 OA
BRANCH  30  31
ATOM     31  C   UNL A   1      45.720  35.105  26.361  1.00  0.00     0.338 C 
ATOM     32  O   UNL A   1      45.446  34.669  25.256  1.00  0.00    -0.246 OA
BRANCH  31  33
ATOM     33  C   UNL A   1      44.886  34.934  27.582  1.00  0.00     0.060 A 
ATOM     34  C   UNL A   1      44.510  36.059  28.332  1.00  0.00     0.016 A 
ATOM     35  C   UNL A   1      44.441  33.666  27.962  1.00  0.00     0.016 A 
ATOM     36  C   UNL A   1      43.716  35.915  29.476  1.00  0.00     0.010 A 
ATOM     37  C   UNL A   1      43.675  33.520  29.126  1.00  0.00     0.010 A 
ATOM     38  C   UNL A   1      43.333  34.639  29.906  1.00  0.00    -0.014 A 
BRANCH  38  39
ATOM     39  C   UNL A   1      42.773  34.447  31.270  1.00  0.00     0.031 A 
ATOM     40  C   UNL A   1      41.291  34.197  31.393  1.00  0.00     0.074 A 
ATOM     41  C   UNL A   1      43.545  34.479  32.372  1.00  0.00     0.049 A 
ATOM     42  N   UNL A   1      40.546  34.107  32.462  1.00  0.00    -0.248 NA
ATOM     43  C   UNL A   1      40.556  34.027  30.128  1.00  0.00     0.031 C 
ATOM     44  C   UNL A   1      44.997  34.639  32.383  1.00  0.00     0.029 A 
ATOM     45  N   UNL A   1      43.207  34.391  33.703  1.00  0.00    -0.354 N 
ATOM     46  C   UNL A   1      39.253  33.874  32.001  1.00  0.00     0.074 A 
ATOM     47  C   UNL A   1      39.313  33.867  30.557  1.00  0.00     0.031 C 
ATOM     48  C   UNL A   1      45.425  34.658  33.659  1.00  0.00     0.029 A 
ATOM     49  C   UNL A   1      44.274  34.563  34.557  1.00  0.00     0.049 A 
ATOM     50  H   UNL A   1      42.290  34.220  34.016  1.00  0.00     0.167 HD
ATOM     51  C   UNL A   1      38.120  33.681  32.720  1.00  0.00     0.034 A 
ATOM     52  C   UNL A   1      44.307  34.672  35.903  1.00  0.00     0.034 A 
ATOM     53  C   UNL A   1      38.071  33.710  34.159  1.00  0.00     0.049 A 
ATOM     54  C   UNL A   1      43.009  34.581  36.678  1.00  0.00     0.074 A 
ATOM     55  C   UNL A   1      36.976  33.530  34.987  1.00  0.00     0.029 A 
ATOM     56  N   UNL A   1      39.159  33.950  34.988  1.00  0.00    -0.354 N 
ATOM     57  N   UNL A   1      41.792  34.366  36.232  1.00  0.00    -0.248 NA
ATOM     58  C   UNL A   1      43.089  34.750  38.136  1.00  0.00     0.031 C 
ATOM     59  C   UNL A   1      37.386  33.739  36.308  1.00  0.00     0.029 A 
ATOM     60  C   UNL A   1      38.753  33.963  36.313  1.00  0.00     0.049 A 
ATOM     61  H   UNL A   1      40.083  34.091  34.678  1.00  0.00     0.167 HD
ATOM     62  C   UNL A   1      40.971  34.343  37.359  1.00  0.00     0.074 A 
ATOM     63  C   UNL A   1      41.833  34.543  38.504  1.00  0.00     0.031 C 
ATOM     64  C   UNL A   1      39.627  34.173  37.445  1.00  0.00     0.034 A 
BRANCH  51  65
ATOM     65  C   UNL A   1      36.836  33.479  31.954  1.00  0.00     0.023 A 
ATOM     66  C   UNL A   1      35.812  34.444  31.955  1.00  0.00     0.031 A 
ATOM     67  C   UNL A   1      36.628  32.300  31.216  1.00  0.00     0.131 A 
ATOM     68  C   UNL A   1      34.610  34.188  31.280  1.00  0.00     0.055 A 
ATOM     69  C   UNL A   1      35.460  32.085  30.484  1.00  0.00     0.041 A 
ATOM     70  F   UNL A   1      37.559  31.332  31.200  1.00  0.00    -0.206 F 
ATOM     71  C   UNL A   1      34.438  33.028  30.522  1.00  0.00     0.022 A 
BRANCH  68  72
ATOM     72  S   UNL A   1      33.226  35.338  31.507  1.00  0.00     0.124 S 
ATOM     73  O   UNL A   1      32.501  35.179  30.248  1.00  0.00    -0.237 OA
ATOM     74  O   UNL A   1      32.567  34.809  32.695  1.00  0.00    -0.237 OA
ATOM     75  O   UNL A   1      33.881  36.633  31.681  1.00  0.00    -0.744 OA
ENDBRANCH  68  72
ENDBRANCH  51  65
BRANCH  52  76
ATOM     76  C   UNL A   1      45.589  34.952  36.622  1.00  0.00     0.023 A 
ATOM     77  C   UNL A   1      45.955  36.261  36.977  1.00  0.00     0.031 A 
ATOM     78  C   UNL A   1      46.514  33.922  36.877  1.00  0.00     0.131 A 
ATOM     79  C   UNL A   1      47.231  36.513  37.509  1.00  0.00     0.055 A 
ATOM     80  C   UNL A   1      47.755  34.169  37.469  1.00  0.00     0.041 A 
ATOM     81  F   UNL A   1      46.227  32.653  36.547  1.00  0.00    -0.206 F 
ATOM     82  C   UNL A   1      48.126  35.475  37.772  1.00  0.00     0.022 A 
BRANCH  79  83
ATOM     83  S   UNL A   1      47.751  38.237  37.739  1.00  0.00     0.124 S 
ATOM     84  O   UNL A   1      48.389  38.527  36.460  1.00  0.00    -0.237 OA
ATOM     85  O   UNL A   1      46.478  38.905  37.988  1.00  0.00    -0.237 OA
ATOM     86  O   UNL A   1      48.653  38.171  38.887  1.00  0.00    -0.744 OA
ENDBRANCH  79  83
ENDBRANCH  52  76
BRANCH  64  87
ATOM     87  C   UNL A   1      39.016  34.154  38.826  1.00  0.00     0.023 A 
ATOM     88  C   UNL A   1      38.609  32.957  39.440  1.00  0.00     0.031 A 
ATOM     89  C   UNL A   1      38.837  35.355  39.539  1.00  0.00     0.131 A 
ATOM     90  C   UNL A   1      37.991  32.991  40.699  1.00  0.00     0.055 A 
ATOM     91  C   UNL A   1      38.286  35.375  40.820  1.00  0.00     0.041 A 
ATOM     92  F   UNL A   1      39.205  36.529  39.002  1.00  0.00    -0.206 F 
ATOM     93  C   UNL A   1      37.846  34.190  41.402  1.00  0.00     0.022 A 
BRANCH  90  94
ATOM     94  S   UNL A   1      37.291  31.457  41.367  1.00  0.00     0.124 S 
ATOM     95  O   UNL A   1      37.610  30.496  40.316  1.00  0.00    -0.237 OA
ATOM     96  O   UNL A   1      38.022  31.299  42.620  1.00  0.00    -0.237 OA
ATOM     97  O   UNL A   1      35.869  31.765  41.515  1.00  0.00    -0.744 OA
ENDBRANCH  90  94
ENDBRANCH  64  87
ENDBRANCH  38  39
ENDBRANCH  31  33
ENDBRANCH  30  31
ENDBRANCH  29  30
ENDBRANCH  28  29
ENDBRANCH  27  28
ENDBRANCH  26  27
ENDBRANCH  25  26
ENDBRANCH  24  25
ENDBRANCH   1  24
TORSDOF 28
ENDMDL
