MODEL 1
REMARK VINA RESULT:      -7.9      0.000      0.000
REMARK SMILES COC(=O)C1=C(C)N(c2ccccc2)C(=S)N[C@@H]1c1ccc(C(=O)OCCOCCOCCOCCOC(=O)c2ccc(-c3c4nc(c(-c5cc(S(=O)(=O)[O-])ccc5F)c5ccc([nH]5)c(-c5cc(S(=O)(=O)[O-])ccc5F)c5nc(c(-c6cc(S(=O)(=O)[O-])ccc6F)c6ccc3[nH]6)C=C5)C=C4)cc2)cc1
REMARK SMILES IDX 31 1 30 2 29 3 28 4 27 5 26 6 25 7 23 8 24 9 22 10 19 11
REMARK SMILES IDX 20 12 104 13 21 14 103 15 18 16 5 17 6 18 7 19 8 20 17 21
REMARK SMILES IDX 15 22 16 24 3 25 4 26 2 27 1 28 9 29 10 30 14 31 11 32 13 33
REMARK SMILES IDX 12 34 32 35 33 36 34 37 35 38 36 39 37 40 38 41 39 42 40 43
REMARK SMILES IDX 41 44 102 45 42 46 101 47 43 48 44 49 45 50 95 51 46 52
REMARK SMILES IDX 100 53 94 54 96 55 47 56 99 57 93 58 92 59 48 61 80 62 60 63
REMARK SMILES IDX 79 64 61 65 64 66 78 67 97 68 62 69 63 70 77 72 98 73 65 74
REMARK SMILES IDX 49 75 50 76 58 77 51 78 57 79 59 80 56 81 52 82 53 83 54 84
REMARK SMILES IDX 55 85 81 86 82 87 90 88 83 89 89 90 91 91 88 92 84 93 85 94
REMARK SMILES IDX 86 95 87 96 66 97 67 98 75 99 68 100 74 101 76 102 73 103
REMARK SMILES IDX 69 104 70 105 71 106 72 107
REMARK H PARENT 17 23 96 60 64 71
REMARK Flexibility Score: inf
ROOT
ATOM      1  O   UNL A   1      47.782  38.588  28.373  1.00  0.00    -0.377 OA
ENDROOT
BRANCH   1   2
ATOM      2  C   UNL A   1      48.876  39.104  27.635  1.00  0.00     0.188 C 
BRANCH   2   3
ATOM      3  C   UNL A   1      49.404  40.498  28.031  1.00  0.00     0.188 C 
BRANCH   3   4
ATOM      4  O   UNL A   1      48.391  41.481  28.139  1.00  0.00    -0.376 OA
BRANCH   4   5
ATOM      5  C   UNL A   1      48.603  42.780  27.619  1.00  0.00     0.202 C 
BRANCH   5   6
ATOM      6  C   UNL A   1      47.442  43.774  27.447  1.00  0.00     0.261 C 
BRANCH   6   7
ATOM      7  O   UNL A   1      47.507  44.648  26.318  1.00  0.00    -0.460 OA
BRANCH   7   8
ATOM      8  C   UNL A   1      46.347  44.912  25.681  1.00  0.00     0.338 C 
ATOM      9  O   UNL A   1      45.405  45.553  26.114  1.00  0.00    -0.246 OA
BRANCH   8  10
ATOM     10  C   UNL A   1      46.489  44.487  24.268  1.00  0.00     0.060 A 
ATOM     11  C   UNL A   1      46.875  43.617  21.615  1.00  0.00    -0.021 A 
ATOM     12  C   UNL A   1      47.429  42.907  22.696  1.00  0.00     0.007 A 
ATOM     13  C   UNL A   1      46.040  44.716  21.903  1.00  0.00     0.007 A 
ATOM     14  C   UNL A   1      47.249  43.346  24.008  1.00  0.00     0.016 A 
ATOM     15  C   UNL A   1      45.847  45.150  23.219  1.00  0.00     0.016 A 
BRANCH  11  16
ATOM     16  C   UNL A   1      47.236  43.312  20.155  1.00  0.00     0.151 C 
ATOM     17  C   UNL A   1      48.030  44.372  19.460  1.00  0.00     0.083 C 
ATOM     18  C   UNL A   1      47.436  45.395  18.804  1.00  0.00     0.035 C 
ATOM     19  C   UNL A   1      48.218  46.570  18.258  1.00  0.00     0.065 C 
ATOM     20  N   UNL A   1      46.021  45.395  18.685  1.00  0.00    -0.291 N 
ATOM     21  N   UNL A   1      46.005  43.146  19.410  1.00  0.00    -0.351 N 
ATOM     22  C   UNL A   1      45.292  44.200  18.899  1.00  0.00     0.178 C 
ATOM     23  H   UNL A   1      45.664  42.234  19.264  1.00  0.00     0.163 HD
ATOM     24  S   UNL A   1      43.689  43.878  18.510  1.00  0.00    -0.040 S 
BRANCH  17  25
ATOM     25  C   UNL A   1      49.487  44.303  19.668  1.00  0.00     0.337 C 
ATOM     26  O   UNL A   1      50.274  43.814  18.873  1.00  0.00    -0.246 OA
BRANCH  25  27
ATOM     27  O   UNL A   1      49.792  44.837  20.875  1.00  0.00    -0.466 OA
ATOM     28  C   UNL A   1      50.874  44.177  21.537  1.00  0.00     0.282 C 
ENDBRANCH  25  27
ENDBRANCH  17  25
BRANCH  20  29
ATOM     29  C   UNL A   1      45.293  46.600  18.387  1.00  0.00     0.048 A 
ATOM     30  C   UNL A   1      44.932  46.939  17.079  1.00  0.00     0.027 A 
ATOM     31  C   UNL A   1      44.979  47.484  19.431  1.00  0.00     0.027 A 
ATOM     32  C   UNL A   1      44.306  48.159  16.812  1.00  0.00     0.002 A 
ATOM     33  C   UNL A   1      44.341  48.696  19.165  1.00  0.00     0.002 A 
ATOM     34  C   UNL A   1      44.016  49.040  17.854  1.00  0.00     0.000 A 
ENDBRANCH  20  29
ENDBRANCH  11  16
ENDBRANCH   8  10
ENDBRANCH   7   8
ENDBRANCH   6   7
ENDBRANCH   5   6
ENDBRANCH   4   5
ENDBRANCH   3   4
ENDBRANCH   2   3
ENDBRANCH   1   2
BRANCH   1  35
ATOM     35  C   UNL A   1      46.501  38.459  27.754  1.00  0.00     0.188 C 
BRANCH  35  36
ATOM     36  C   UNL A   1      46.161  39.098  26.384  1.00  0.00     0.188 C 
BRANCH  36  37
ATOM     37  O   UNL A   1      45.876  40.487  26.423  1.00  0.00    -0.376 OA
BRANCH  37  38
ATOM     38  C   UNL A   1      44.963  40.997  25.469  1.00  0.00     0.202 C 
BRANCH  38  39
ATOM     39  C   UNL A   1      43.809  41.848  26.017  1.00  0.00     0.261 C 
BRANCH  39  40
ATOM     40  O   UNL A   1      43.094  41.299  27.133  1.00  0.00    -0.460 OA
BRANCH  40  41
ATOM     41  C   UNL A   1      42.093  40.429  26.851  1.00  0.00     0.338 C 
ATOM     42  O   UNL A   1      41.147  40.620  26.124  1.00  0.00    -0.246 OA
BRANCH  41  43
ATOM     43  C   UNL A   1      42.462  39.125  27.449  1.00  0.00     0.060 A 
ATOM     44  C   UNL A   1      42.441  37.974  26.649  1.00  0.00     0.016 A 
ATOM     45  C   UNL A   1      42.836  39.045  28.792  1.00  0.00     0.016 A 
ATOM     46  C   UNL A   1      42.765  36.734  27.201  1.00  0.00     0.010 A 
ATOM     47  C   UNL A   1      43.139  37.799  29.348  1.00  0.00     0.010 A 
ATOM     48  C   UNL A   1      43.075  36.633  28.564  1.00  0.00    -0.014 A 
BRANCH  48  49
ATOM     49  C   UNL A   1      43.138  35.298  29.215  1.00  0.00     0.031 A 
ATOM     50  C   UNL A   1      41.840  34.599  29.525  1.00  0.00     0.074 A 
ATOM     51  C   UNL A   1      44.313  34.715  29.514  1.00  0.00     0.049 A 
ATOM     52  N   UNL A   1      41.632  33.473  30.154  1.00  0.00    -0.248 NA
ATOM     53  C   UNL A   1      40.610  35.268  29.065  1.00  0.00     0.031 C 
ATOM     54  C   UNL A   1      45.633  35.269  29.216  1.00  0.00     0.029 A 
ATOM     55  N   UNL A   1      44.586  33.527  30.150  1.00  0.00    -0.354 N 
ATOM     56  C   UNL A   1      40.251  33.305  30.181  1.00  0.00     0.074 A 
ATOM     57  C   UNL A   1      39.670  34.455  29.524  1.00  0.00     0.031 C 
ATOM     58  C   UNL A   1      46.575  34.428  29.682  1.00  0.00     0.029 A 
ATOM     59  C   UNL A   1      45.928  33.301  30.353  1.00  0.00     0.049 A 
ATOM     60  H   UNL A   1      43.886  32.895  30.432  1.00  0.00     0.167 HD
ATOM     61  C   UNL A   1      39.535  32.282  30.707  1.00  0.00     0.034 A 
ATOM     62  C   UNL A   1      46.557  32.318  31.032  1.00  0.00     0.034 A 
ATOM     63  C   UNL A   1      40.129  31.140  31.357  1.00  0.00     0.049 A 
ATOM     64  C   UNL A   1      45.725  31.231  31.683  1.00  0.00     0.074 A 
ATOM     65  C   UNL A   1      39.494  30.034  31.892  1.00  0.00     0.029 A 
ATOM     66  N   UNL A   1      41.488  30.964  31.576  1.00  0.00    -0.354 N 
ATOM     67  N   UNL A   1      44.421  31.071  31.677  1.00  0.00    -0.248 NA
ATOM     68  C   UNL A   1      46.450  30.188  32.424  1.00  0.00     0.031 C 
ATOM     69  C   UNL A   1      40.457  29.235  32.513  1.00  0.00     0.029 A 
ATOM     70  C   UNL A   1      41.705  29.789  32.276  1.00  0.00     0.049 A 
ATOM     71  H   UNL A   1      42.193  31.583  31.276  1.00  0.00     0.167 HD
ATOM     72  C   UNL A   1      44.180  29.887  32.375  1.00  0.00     0.074 A 
ATOM     73  C   UNL A   1      45.471  29.368  32.771  1.00  0.00     0.031 C 
ATOM     74  C   UNL A   1      43.000  29.279  32.660  1.00  0.00     0.034 A 
BRANCH  61  75
ATOM     75  C   UNL A   1      38.031  32.373  30.659  1.00  0.00     0.023 A 
ATOM     76  C   UNL A   1      37.282  32.943  31.702  1.00  0.00     0.031 A 
ATOM     77  C   UNL A   1      37.340  31.903  29.527  1.00  0.00     0.131 A 
ATOM     78  C   UNL A   1      35.882  32.997  31.605  1.00  0.00     0.055 A 
ATOM     79  C   UNL A   1      35.956  32.024  29.406  1.00  0.00     0.041 A 
ATOM     80  F   UNL A   1      38.004  31.323  28.514  1.00  0.00    -0.206 F 
ATOM     81  C   UNL A   1      35.217  32.568  30.453  1.00  0.00     0.022 A 
BRANCH  78  82
ATOM     82  S   UNL A   1      34.929  33.545  33.047  1.00  0.00     0.124 S 
ATOM     83  O   UNL A   1      35.668  32.923  34.143  1.00  0.00    -0.237 OA
ATOM     84  O   UNL A   1      35.025  34.997  32.957  1.00  0.00    -0.237 OA
ATOM     85  O   UNL A   1      33.598  32.992  32.810  1.00  0.00    -0.744 OA
ENDBRANCH  78  82
ENDBRANCH  61  75
BRANCH  62  86
ATOM     86  C   UNL A   1      48.044  32.323  31.203  1.00  0.00     0.023 A 
ATOM     87  C   UNL A   1      48.653  33.049  32.239  1.00  0.00     0.031 A 
ATOM     88  C   UNL A   1      48.882  31.700  30.262  1.00  0.00     0.131 A 
ATOM     89  C   UNL A   1      50.050  33.202  32.263  1.00  0.00     0.055 A 
ATOM     90  C   UNL A   1      50.274  31.791  30.333  1.00  0.00     0.041 A 
ATOM     91  F   UNL A   1      48.359  31.001  29.241  1.00  0.00    -0.206 F 
ATOM     92  C   UNL A   1      50.865  32.565  31.326  1.00  0.00     0.022 A 
BRANCH  89  93
ATOM     93  S   UNL A   1      50.773  34.375  33.444  1.00  0.00     0.124 S 
ATOM     94  O   UNL A   1      51.434  35.321  32.552  1.00  0.00    -0.237 OA
ATOM     95  O   UNL A   1      49.590  34.869  34.141  1.00  0.00    -0.237 OA
ATOM     96  O   UNL A   1      51.666  33.543  34.246  1.00  0.00    -0.744 OA
ENDBRANCH  89  93
ENDBRANCH  62  86
BRANCH  74  97
ATOM     97  C   UNL A   1      43.055  27.949  33.376  1.00  0.00     0.023 A 
ATOM     98  C   UNL A   1      42.592  27.791  34.694  1.00  0.00     0.031 A 
ATOM     99  C   UNL A   1      43.582  26.821  32.722  1.00  0.00     0.131 A 
ATOM    100  C   UNL A   1      42.721  26.549  35.335  1.00  0.00     0.055 A 
ATOM    101  C   UNL A   1      43.642  25.571  33.340  1.00  0.00     0.041 A 
ATOM    102  F   UNL A   1      44.043  26.912  31.464  1.00  0.00    -0.206 F 
ATOM    103  C   UNL A   1      43.224  25.433  34.659  1.00  0.00     0.022 A 
BRANCH 100 104
ATOM    104  S   UNL A   1      42.318  26.434  37.100  1.00  0.00     0.124 S 
ATOM    105  O   UNL A   1      42.143  24.997  37.277  1.00  0.00    -0.237 OA
ATOM    106  O   UNL A   1      43.499  27.015  37.730  1.00  0.00    -0.237 OA
ATOM    107  O   UNL A   1      41.097  27.228  37.225  1.00  0.00    -0.744 OA
ENDBRANCH 100 104
ENDBRANCH  74  97
ENDBRANCH  48  49
ENDBRANCH  41  43
ENDBRANCH  40  41
ENDBRANCH  39  40
ENDBRANCH  38  39
ENDBRANCH  37  38
ENDBRANCH  36  37
ENDBRANCH  35  36
ENDBRANCH   1  35
TORSDOF 27
ENDMDL
MODEL 2
REMARK VINA RESULT:      -7.4      8.314     15.496
REMARK SMILES COC(=O)C1=C(C)N(c2ccccc2)C(=S)N[C@@H]1c1ccc(C(=O)OCCOCCOCCOCCOC(=O)c2ccc(-c3c4nc(c(-c5cc(S(=O)(=O)[O-])ccc5F)c5ccc([nH]5)c(-c5cc(S(=O)(=O)[O-])ccc5F)c5nc(c(-c6cc(S(=O)(=O)[O-])ccc6F)c6ccc3[nH]6)C=C5)C=C4)cc2)cc1
REMARK SMILES IDX 31 1 30 2 29 3 28 4 27 5 26 6 25 7 23 8 24 9 22 10 19 11
REMARK SMILES IDX 20 12 104 13 21 14 103 15 18 16 5 17 6 18 7 19 8 20 17 21
REMARK SMILES IDX 15 22 16 24 3 25 4 26 2 27 1 28 9 29 10 30 14 31 11 32 13 33
REMARK SMILES IDX 12 34 32 35 33 36 34 37 35 38 36 39 37 40 38 41 39 42 40 43
REMARK SMILES IDX 41 44 102 45 42 46 101 47 43 48 44 49 45 50 95 51 46 52
REMARK SMILES IDX 100 53 94 54 96 55 47 56 99 57 93 58 92 59 48 61 80 62 60 63
REMARK SMILES IDX 79 64 61 65 64 66 78 67 97 68 62 69 63 70 77 72 98 73 65 74
REMARK SMILES IDX 49 75 50 76 58 77 51 78 57 79 59 80 56 81 52 82 53 83 54 84
REMARK SMILES IDX 55 85 81 86 82 87 90 88 83 89 89 90 91 91 88 92 84 93 85 94
REMARK SMILES IDX 86 95 87 96 66 97 67 98 75 99 68 100 74 101 76 102 73 103
REMARK SMILES IDX 69 104 70 105 71 106 72 107
REMARK H PARENT 17 23 96 60 64 71
REMARK Flexibility Score: inf
ROOT
ATOM      1  O   UNL A   1      32.241  23.050  26.599  1.00  0.00    -0.377 OA
ENDROOT
BRANCH   1   2
ATOM      2  C   UNL A   1      31.188  23.936  26.259  1.00  0.00     0.188 C 
BRANCH   2   3
ATOM      3  C   UNL A   1      31.413  25.438  26.527  1.00  0.00     0.188 C 
BRANCH   3   4
ATOM      4  O   UNL A   1      30.505  26.281  25.843  1.00  0.00    -0.376 OA
BRANCH   4   5
ATOM      5  C   UNL A   1      30.976  27.188  24.863  1.00  0.00     0.202 C 
BRANCH   5   6
ATOM      6  C   UNL A   1      31.533  28.568  25.250  1.00  0.00     0.261 C 
BRANCH   6   7
ATOM      7  O   UNL A   1      32.227  28.654  26.498  1.00  0.00    -0.460 OA
BRANCH   7   8
ATOM      8  C   UNL A   1      33.502  28.216  26.520  1.00  0.00     0.338 C 
ATOM      9  O   UNL A   1      33.934  27.196  26.012  1.00  0.00    -0.246 OA
BRANCH   8  10
ATOM     10  C   UNL A   1      34.352  29.297  27.073  1.00  0.00     0.060 A 
ATOM     11  C   UNL A   1      35.887  31.444  28.065  1.00  0.00    -0.021 A 
ATOM     12  C   UNL A   1      34.524  31.611  27.759  1.00  0.00     0.007 A 
ATOM     13  C   UNL A   1      36.436  30.150  27.955  1.00  0.00     0.007 A 
ATOM     14  C   UNL A   1      33.768  30.552  27.256  1.00  0.00     0.016 A 
ATOM     15  C   UNL A   1      35.676  29.083  27.463  1.00  0.00     0.016 A 
BRANCH  11  16
ATOM     16  C   UNL A   1      36.809  32.625  28.396  1.00  0.00     0.151 C 
ATOM     17  C   UNL A   1      37.136  32.792  29.845  1.00  0.00     0.083 C 
ATOM     18  C   UNL A   1      36.361  33.531  30.672  1.00  0.00     0.035 C 
ATOM     19  C   UNL A   1      36.570  33.557  32.170  1.00  0.00     0.065 C 
ATOM     20  N   UNL A   1      35.271  34.252  30.116  1.00  0.00    -0.291 N 
ATOM     21  N   UNL A   1      36.157  33.843  27.964  1.00  0.00    -0.351 N 
ATOM     22  C   UNL A   1      35.223  34.501  28.723  1.00  0.00     0.178 C 
ATOM     23  H   UNL A   1      36.393  34.217  27.085  1.00  0.00     0.163 HD
ATOM     24  S   UNL A   1      34.236  35.580  27.895  1.00  0.00    -0.040 S 
BRANCH  17  25
ATOM     25  C   UNL A   1      38.264  31.978  30.333  1.00  0.00     0.337 C 
ATOM     26  O   UNL A   1      39.437  32.214  30.090  1.00  0.00    -0.246 OA
BRANCH  25  27
ATOM     27  O   UNL A   1      37.786  30.937  31.055  1.00  0.00    -0.466 OA
ATOM     28  C   UNL A   1      38.602  30.597  32.179  1.00  0.00     0.282 C 
ENDBRANCH  25  27
ENDBRANCH  17  25
BRANCH  20  29
ATOM     29  C   UNL A   1      34.180  34.711  30.934  1.00  0.00     0.048 A 
ATOM     30  C   UNL A   1      33.531  35.925  30.686  1.00  0.00     0.027 A 
ATOM     31  C   UNL A   1      33.787  33.942  32.042  1.00  0.00     0.027 A 
ATOM     32  C   UNL A   1      32.536  36.385  31.552  1.00  0.00     0.002 A 
ATOM     33  C   UNL A   1      32.782  34.396  32.898  1.00  0.00     0.002 A 
ATOM     34  C   UNL A   1      32.166  35.624  32.660  1.00  0.00     0.000 A 
ENDBRANCH  20  29
ENDBRANCH  11  16
ENDBRANCH   8  10
ENDBRANCH   7   8
ENDBRANCH   6   7
ENDBRANCH   5   6
ENDBRANCH   4   5
ENDBRANCH   3   4
ENDBRANCH   2   3
ENDBRANCH   1   2
BRANCH   1  35
ATOM     35  C   UNL A   1      33.315  22.832  25.683  1.00  0.00     0.188 C 
BRANCH  35  36
ATOM     36  C   UNL A   1      34.315  21.657  25.824  1.00  0.00     0.188 C 
BRANCH  36  37
ATOM     37  O   UNL A   1      35.576  21.867  25.209  1.00  0.00    -0.376 OA
BRANCH  37  38
ATOM     38  C   UNL A   1      36.573  22.527  25.968  1.00  0.00     0.202 C 
BRANCH  38  39
ATOM     39  C   UNL A   1      38.022  22.090  25.715  1.00  0.00     0.261 C 
BRANCH  39  40
ATOM     40  O   UNL A   1      39.040  23.026  26.098  1.00  0.00    -0.460 OA
BRANCH  40  41
ATOM     41  C   UNL A   1      39.931  22.613  27.034  1.00  0.00     0.338 C 
ATOM     42  O   UNL A   1      40.206  21.471  27.322  1.00  0.00    -0.246 OA
BRANCH  41  43
ATOM     43  C   UNL A   1      40.653  23.814  27.515  1.00  0.00     0.060 A 
ATOM     44  C   UNL A   1      40.259  25.078  27.056  1.00  0.00     0.016 A 
ATOM     45  C   UNL A   1      41.707  23.687  28.422  1.00  0.00     0.016 A 
ATOM     46  C   UNL A   1      40.941  26.219  27.482  1.00  0.00     0.010 A 
ATOM     47  C   UNL A   1      42.402  24.829  28.830  1.00  0.00     0.010 A 
ATOM     48  C   UNL A   1      42.043  26.097  28.339  1.00  0.00    -0.014 A 
BRANCH  48  49
ATOM     49  C   UNL A   1      42.941  27.260  28.565  1.00  0.00     0.031 A 
ATOM     50  C   UNL A   1      44.225  27.327  27.780  1.00  0.00     0.074 A 
ATOM     51  C   UNL A   1      42.624  28.237  29.435  1.00  0.00     0.049 A 
ATOM     52  N   UNL A   1      45.201  28.192  27.855  1.00  0.00    -0.248 NA
ATOM     53  C   UNL A   1      44.434  26.268  26.776  1.00  0.00     0.031 C 
ATOM     54  C   UNL A   1      41.387  28.308  30.213  1.00  0.00     0.029 A 
ATOM     55  N   UNL A   1      43.325  29.354  29.819  1.00  0.00    -0.354 N 
ATOM     56  C   UNL A   1      46.147  27.776  26.924  1.00  0.00     0.074 A 
ATOM     57  C   UNL A   1      45.638  26.569  26.311  1.00  0.00     0.031 C 
ATOM     58  C   UNL A   1      41.425  29.404  30.992  1.00  0.00     0.029 A 
ATOM     59  C   UNL A   1      42.705  30.087  30.806  1.00  0.00     0.049 A 
ATOM     60  H   UNL A   1      44.190  29.609  29.425  1.00  0.00     0.167 HD
ATOM     61  C   UNL A   1      47.333  28.351  26.610  1.00  0.00     0.034 A 
ATOM     62  C   UNL A   1      43.138  31.160  31.503  1.00  0.00     0.034 A 
ATOM     63  C   UNL A   1      47.826  29.557  27.227  1.00  0.00     0.049 A 
ATOM     64  C   UNL A   1      44.506  31.731  31.188  1.00  0.00     0.074 A 
ATOM     65  C   UNL A   1      48.999  30.240  26.957  1.00  0.00     0.029 A 
ATOM     66  N   UNL A   1      47.188  30.249  28.248  1.00  0.00    -0.354 N 
ATOM     67  N   UNL A   1      45.379  31.343  30.286  1.00  0.00    -0.248 NA
ATOM     68  C   UNL A   1      44.944  32.891  31.980  1.00  0.00     0.031 C 
ATOM     69  C   UNL A   1      49.114  31.290  27.871  1.00  0.00     0.029 A 
ATOM     70  C   UNL A   1      47.965  31.326  28.646  1.00  0.00     0.049 A 
ATOM     71  H   UNL A   1      46.314  30.011  28.631  1.00  0.00     0.167 HD
ATOM     72  C   UNL A   1      46.445  32.240  30.376  1.00  0.00     0.074 A 
ATOM     73  C   UNL A   1      46.097  33.195  31.406  1.00  0.00     0.031 C 
ATOM     74  C   UNL A   1      47.603  32.276  29.670  1.00  0.00     0.034 A 
BRANCH  61  75
ATOM     75  C   UNL A   1      48.211  27.658  25.599  1.00  0.00     0.023 A 
ATOM     76  C   UNL A   1      48.105  27.908  24.220  1.00  0.00     0.031 A 
ATOM     77  C   UNL A   1      49.193  26.751  26.034  1.00  0.00     0.131 A 
ATOM     78  C   UNL A   1      48.946  27.229  23.323  1.00  0.00     0.055 A 
ATOM     79  C   UNL A   1      50.072  26.133  25.144  1.00  0.00     0.041 A 
ATOM     80  F   UNL A   1      49.318  26.453  27.338  1.00  0.00    -0.206 F 
ATOM     81  C   UNL A   1      49.947  26.367  23.778  1.00  0.00     0.022 A 
BRANCH  78  82
ATOM     82  S   UNL A   1      48.650  27.412  21.544  1.00  0.00     0.124 S 
ATOM     83  O   UNL A   1      48.675  26.022  21.095  1.00  0.00    -0.237 OA
ATOM     84  O   UNL A   1      47.350  28.072  21.505  1.00  0.00    -0.237 OA
ATOM     85  O   UNL A   1      49.776  28.225  21.090  1.00  0.00    -0.744 OA
ENDBRANCH  78  82
ENDBRANCH  61  75
BRANCH  62  86
ATOM     86  C   UNL A   1      42.321  31.745  32.611  1.00  0.00     0.023 A 
ATOM     87  C   UNL A   1      42.103  31.037  33.805  1.00  0.00     0.031 A 
ATOM     88  C   UNL A   1      41.649  32.969  32.446  1.00  0.00     0.131 A 
ATOM     89  C   UNL A   1      41.176  31.516  34.746  1.00  0.00     0.055 A 
ATOM     90  C   UNL A   1      40.786  33.478  33.418  1.00  0.00     0.041 A 
ATOM     91  F   UNL A   1      41.807  33.686  31.321  1.00  0.00    -0.206 F 
ATOM     92  C   UNL A   1      40.528  32.739  34.568  1.00  0.00     0.022 A 
BRANCH  89  93
ATOM     93  S   UNL A   1      40.713  30.438  36.131  1.00  0.00     0.124 S 
ATOM     94  O   UNL A   1      39.536  31.121  36.654  1.00  0.00    -0.237 OA
ATOM     95  O   UNL A   1      40.471  29.167  35.456  1.00  0.00    -0.237 OA
ATOM     96  O   UNL A   1      41.891  30.471  36.994  1.00  0.00    -0.744 OA
ENDBRANCH  89  93
ENDBRANCH  62  86
BRANCH  74  97
ATOM     97  C   UNL A   1      48.549  33.424  29.939  1.00  0.00     0.023 A 
ATOM     98  C   UNL A   1      49.509  33.376  30.964  1.00  0.00     0.031 A 
ATOM     99  C   UNL A   1      48.483  34.587  29.150  1.00  0.00     0.131 A 
ATOM    100  C   UNL A   1      50.323  34.492  31.212  1.00  0.00     0.055 A 
ATOM    101  C   UNL A   1      49.344  35.666  29.355  1.00  0.00     0.041 A 
ATOM    102  F   UNL A   1      47.584  34.691  28.158  1.00  0.00    -0.206 F 
ATOM    103  C   UNL A   1      50.261  35.629  30.400  1.00  0.00     0.022 A 
BRANCH 100 104
ATOM    104  S   UNL A   1      51.396  34.482  32.674  1.00  0.00     0.124 S 
ATOM    105  O   UNL A   1      51.123  33.166  33.240  1.00  0.00    -0.237 OA
ATOM    106  O   UNL A   1      52.722  34.661  32.090  1.00  0.00    -0.237 OA
ATOM    107  O   UNL A   1      50.910  35.611  33.465  1.00  0.00    -0.744 OA
ENDBRANCH 100 104
ENDBRANCH  74  97
ENDBRANCH  48  49
ENDBRANCH  41  43
ENDBRANCH  40  41
ENDBRANCH  39  40
ENDBRANCH  38  39
ENDBRANCH  37  38
ENDBRANCH  36  37
ENDBRANCH  35  36
ENDBRANCH   1  35
TORSDOF 27
ENDMDL
MODEL 3
REMARK VINA RESULT:      -7.4      6.889     14.748
REMARK SMILES COC(=O)C1=C(C)N(c2ccccc2)C(=S)N[C@@H]1c1ccc(C(=O)OCCOCCOCCOCCOC(=O)c2ccc(-c3c4nc(c(-c5cc(S(=O)(=O)[O-])ccc5F)c5ccc([nH]5)c(-c5cc(S(=O)(=O)[O-])ccc5F)c5nc(c(-c6cc(S(=O)(=O)[O-])ccc6F)c6ccc3[nH]6)C=C5)C=C4)cc2)cc1
REMARK SMILES IDX 31 1 30 2 29 3 28 4 27 5 26 6 25 7 23 8 24 9 22 10 19 11
REMARK SMILES IDX 20 12 104 13 21 14 103 15 18 16 5 17 6 18 7 19 8 20 17 21
REMARK SMILES IDX 15 22 16 24 3 25 4 26 2 27 1 28 9 29 10 30 14 31 11 32 13 33
REMARK SMILES IDX 12 34 32 35 33 36 34 37 35 38 36 39 37 40 38 41 39 42 40 43
REMARK SMILES IDX 41 44 102 45 42 46 101 47 43 48 44 49 45 50 95 51 46 52
REMARK SMILES IDX 100 53 94 54 96 55 47 56 99 57 93 58 92 59 48 61 80 62 60 63
REMARK SMILES IDX 79 64 61 65 64 66 78 67 97 68 62 69 63 70 77 72 98 73 65 74
REMARK SMILES IDX 49 75 50 76 58 77 51 78 57 79 59 80 56 81 52 82 53 83 54 84
REMARK SMILES IDX 55 85 81 86 82 87 90 88 83 89 89 90 91 91 88 92 84 93 85 94
REMARK SMILES IDX 86 95 87 96 66 97 67 98 75 99 68 100 74 101 76 102 73 103
REMARK SMILES IDX 69 104 70 105 71 106 72 107
REMARK H PARENT 17 23 96 60 64 71
REMARK Flexibility Score: inf
ROOT
ATOM      1  O   UNL A   1      51.491  22.849  38.874  1.00  0.00    -0.377 OA
ENDROOT
BRANCH   1   2
ATOM      2  C   UNL A   1      50.074  22.819  38.876  1.00  0.00     0.188 C 
BRANCH   2   3
ATOM      3  C   UNL A   1      49.373  22.332  37.592  1.00  0.00     0.188 C 
BRANCH   3   4
ATOM      4  O   UNL A   1      48.764  23.370  36.847  1.00  0.00    -0.376 OA
BRANCH   4   5
ATOM      5  C   UNL A   1      47.662  23.088  36.004  1.00  0.00     0.202 C 
BRANCH   5   6
ATOM      6  C   UNL A   1      47.126  24.132  35.009  1.00  0.00     0.261 C 
BRANCH   6   7
ATOM      7  O   UNL A   1      46.512  23.629  33.820  1.00  0.00    -0.460 OA
BRANCH   7   8
ATOM      8  C   UNL A   1      45.206  23.913  33.639  1.00  0.00     0.338 C 
ATOM      9  O   UNL A   1      44.366  24.078  34.506  1.00  0.00    -0.246 OA
BRANCH   8  10
ATOM     10  C   UNL A   1      44.995  24.219  32.204  1.00  0.00     0.060 A 
ATOM     11  C   UNL A   1      44.639  24.928  29.498  1.00  0.00    -0.021 A 
ATOM     12  C   UNL A   1      45.591  25.585  30.298  1.00  0.00     0.007 A 
ATOM     13  C   UNL A   1      43.940  23.839  30.061  1.00  0.00     0.007 A 
ATOM     14  C   UNL A   1      45.758  25.243  31.640  1.00  0.00     0.016 A 
ATOM     15  C   UNL A   1      44.115  23.486  31.404  1.00  0.00     0.016 A 
BRANCH  11  16
ATOM     16  C   UNL A   1      44.257  25.420  28.096  1.00  0.00     0.151 C 
ATOM     17  C   UNL A   1      44.233  26.906  27.926  1.00  0.00     0.083 C 
ATOM     18  C   UNL A   1      43.122  27.636  28.177  1.00  0.00     0.035 C 
ATOM     19  C   UNL A   1      43.132  29.148  28.191  1.00  0.00     0.065 C 
ATOM     20  N   UNL A   1      41.921  26.952  28.505  1.00  0.00    -0.291 N 
ATOM     21  N   UNL A   1      42.926  24.936  27.794  1.00  0.00    -0.351 N 
ATOM     22  C   UNL A   1      41.786  25.574  28.209  1.00  0.00     0.178 C 
ATOM     23  H   UNL A   1      42.836  24.110  27.266  1.00  0.00     0.163 HD
ATOM     24  S   UNL A   1      40.385  24.647  28.202  1.00  0.00    -0.040 S 
BRANCH  17  25
ATOM     25  C   UNL A   1      45.534  27.524  27.616  1.00  0.00     0.337 C 
ATOM     26  O   UNL A   1      46.164  28.228  28.390  1.00  0.00    -0.246 OA
BRANCH  25  27
ATOM     27  O   UNL A   1      45.890  27.206  26.349  1.00  0.00    -0.466 OA
ATOM     28  C   UNL A   1      45.724  28.280  25.420  1.00  0.00     0.282 C 
ENDBRANCH  25  27
ENDBRANCH  17  25
BRANCH  20  29
ATOM     29  C   UNL A   1      40.836  27.621  29.174  1.00  0.00     0.048 A 
ATOM     30  C   UNL A   1      40.893  27.939  30.535  1.00  0.00     0.027 A 
ATOM     31  C   UNL A   1      39.669  27.918  28.453  1.00  0.00     0.027 A 
ATOM     32  C   UNL A   1      39.787  28.505  31.175  1.00  0.00     0.002 A 
ATOM     33  C   UNL A   1      38.571  28.498  29.090  1.00  0.00     0.002 A 
ATOM     34  C   UNL A   1      38.626  28.779  30.454  1.00  0.00     0.000 A 
ENDBRANCH  20  29
ENDBRANCH  11  16
ENDBRANCH   8  10
ENDBRANCH   7   8
ENDBRANCH   6   7
ENDBRANCH   5   6
ENDBRANCH   4   5
ENDBRANCH   3   4
ENDBRANCH   2   3
ENDBRANCH   1   2
BRANCH   1  35
ATOM     35  C   UNL A   1      52.188  23.540  37.835  1.00  0.00     0.188 C 
BRANCH  35  36
ATOM     36  C   UNL A   1      51.843  24.989  37.410  1.00  0.00     0.188 C 
BRANCH  36  37
ATOM     37  O   UNL A   1      51.461  25.141  36.052  1.00  0.00    -0.376 OA
BRANCH  37  38
ATOM     38  C   UNL A   1      52.207  26.046  35.259  1.00  0.00     0.202 C 
BRANCH  38  39
ATOM     39  C   UNL A   1      52.354  25.689  33.774  1.00  0.00     0.261 C 
BRANCH  39  40
ATOM     40  O   UNL A   1      52.599  26.786  32.882  1.00  0.00    -0.460 OA
BRANCH  40  41
ATOM     41  C   UNL A   1      52.138  26.657  31.613  1.00  0.00     0.338 C 
ATOM     42  O   UNL A   1      52.574  25.929  30.751  1.00  0.00    -0.246 OA
BRANCH  41  43
ATOM     43  C   UNL A   1      50.880  27.434  31.521  1.00  0.00     0.060 A 
ATOM     44  C   UNL A   1      50.804  28.690  32.139  1.00  0.00     0.016 A 
ATOM     45  C   UNL A   1      49.786  26.924  30.819  1.00  0.00     0.016 A 
ATOM     46  C   UNL A   1      49.619  29.426  32.080  1.00  0.00     0.010 A 
ATOM     47  C   UNL A   1      48.594  27.653  30.780  1.00  0.00     0.010 A 
ATOM     48  C   UNL A   1      48.494  28.893  31.436  1.00  0.00    -0.014 A 
BRANCH  48  49
ATOM     49  C   UNL A   1      47.164  29.531  31.615  1.00  0.00     0.031 A 
ATOM     50  C   UNL A   1      46.282  29.030  32.728  1.00  0.00     0.074 A 
ATOM     51  C   UNL A   1      46.751  30.535  30.819  1.00  0.00     0.049 A 
ATOM     52  N   UNL A   1      45.058  29.369  33.036  1.00  0.00    -0.248 NA
ATOM     53  C   UNL A   1      46.862  28.003  33.611  1.00  0.00     0.031 C 
ATOM     54  C   UNL A   1      47.536  31.139  29.743  1.00  0.00     0.029 A 
ATOM     55  N   UNL A   1      45.559  31.218  30.786  1.00  0.00    -0.354 N 
ATOM     56  C   UNL A   1      44.714  28.589  34.134  1.00  0.00     0.074 A 
ATOM     57  C   UNL A   1      45.850  27.743  34.427  1.00  0.00     0.031 C 
ATOM     58  C   UNL A   1      46.798  32.093  29.146  1.00  0.00     0.029 A 
ATOM     59  C   UNL A   1      45.473  32.136  29.764  1.00  0.00     0.049 A 
ATOM     60  H   UNL A   1      44.834  31.066  31.434  1.00  0.00     0.167 HD
ATOM     61  C   UNL A   1      43.554  28.579  34.835  1.00  0.00     0.034 A 
ATOM     62  C   UNL A   1      44.433  32.895  29.355  1.00  0.00     0.034 A 
ATOM     63  C   UNL A   1      42.430  29.431  34.533  1.00  0.00     0.049 A 
ATOM     64  C   UNL A   1      43.120  32.802  30.106  1.00  0.00     0.074 A 
ATOM     65  C   UNL A   1      41.223  29.524  35.202  1.00  0.00     0.029 A 
ATOM     66  N   UNL A   1      42.366  30.321  33.469  1.00  0.00    -0.354 N 
ATOM     67  N   UNL A   1      42.818  32.077  31.160  1.00  0.00    -0.248 NA
ATOM     68  C   UNL A   1      42.011  33.635  29.617  1.00  0.00     0.031 C 
ATOM     69  C   UNL A   1      40.397  30.401  34.493  1.00  0.00     0.029 A 
ATOM     70  C   UNL A   1      41.124  30.933  33.440  1.00  0.00     0.049 A 
ATOM     71  H   UNL A   1      43.096  30.492  32.831  1.00  0.00     0.167 HD
ATOM     72  C   UNL A   1      41.500  32.405  31.482  1.00  0.00     0.074 A 
ATOM     73  C   UNL A   1      41.074  33.401  30.523  1.00  0.00     0.031 C 
ATOM     74  C   UNL A   1      40.713  31.931  32.481  1.00  0.00     0.034 A 
BRANCH  61  75
ATOM     75  C   UNL A   1      43.412  27.582  35.956  1.00  0.00     0.023 A 
ATOM     76  C   UNL A   1      44.128  27.701  37.159  1.00  0.00     0.031 A 
ATOM     77  C   UNL A   1      42.514  26.507  35.823  1.00  0.00     0.131 A 
ATOM     78  C   UNL A   1      43.959  26.739  38.168  1.00  0.00     0.055 A 
ATOM     79  C   UNL A   1      42.298  25.596  36.857  1.00  0.00     0.041 A 
ATOM     80  F   UNL A   1      41.825  26.329  34.684  1.00  0.00    -0.206 F 
ATOM     81  C   UNL A   1      43.028  25.705  38.036  1.00  0.00     0.022 A 
BRANCH  78  82
ATOM     82  S   UNL A   1      45.044  26.799  39.619  1.00  0.00     0.124 S 
ATOM     83  O   UNL A   1      46.003  25.738  39.315  1.00  0.00    -0.237 OA
ATOM     84  O   UNL A   1      45.564  28.161  39.570  1.00  0.00    -0.237 OA
ATOM     85  O   UNL A   1      44.144  26.514  40.734  1.00  0.00    -0.744 OA
ENDBRANCH  78  82
ENDBRANCH  61  75
BRANCH  62  86
ATOM     86  C   UNL A   1      44.541  33.767  28.144  1.00  0.00     0.023 A 
ATOM     87  C   UNL A   1      44.861  35.130  28.257  1.00  0.00     0.031 A 
ATOM     88  C   UNL A   1      44.211  33.277  26.868  1.00  0.00     0.131 A 
ATOM     89  C   UNL A   1      44.763  35.970  27.134  1.00  0.00     0.055 A 
ATOM     90  C   UNL A   1      44.189  34.102  25.740  1.00  0.00     0.041 A 
ATOM     91  F   UNL A   1      43.885  31.986  26.698  1.00  0.00    -0.206 F 
ATOM     92  C   UNL A   1      44.445  35.462  25.875  1.00  0.00     0.022 A 
BRANCH  89  93
ATOM     93  S   UNL A   1      44.904  37.763  27.379  1.00  0.00     0.124 S 
ATOM     94  O   UNL A   1      45.012  37.854  28.831  1.00  0.00    -0.237 OA
ATOM     95  O   UNL A   1      46.113  38.076  26.624  1.00  0.00    -0.237 OA
ATOM     96  O   UNL A   1      43.663  38.282  26.811  1.00  0.00    -0.744 OA
ENDBRANCH  89  93
ENDBRANCH  62  86
BRANCH  74  97
ATOM     97  C   UNL A   1      39.336  32.534  32.631  1.00  0.00     0.023 A 
ATOM     98  C   UNL A   1      38.201  31.962  32.030  1.00  0.00     0.031 A 
ATOM     99  C   UNL A   1      39.161  33.705  33.390  1.00  0.00     0.131 A 
ATOM    100  C   UNL A   1      36.954  32.595  32.149  1.00  0.00     0.055 A 
ATOM    101  C   UNL A   1      37.906  34.290  33.565  1.00  0.00     0.041 A 
ATOM    102  F   UNL A   1      40.208  34.298  33.985  1.00  0.00    -0.206 F 
ATOM    103  C   UNL A   1      36.795  33.743  32.930  1.00  0.00     0.022 A 
BRANCH 100 104
ATOM    104  S   UNL A   1      35.556  31.954  31.186  1.00  0.00     0.124 S 
ATOM    105  O   UNL A   1      35.869  32.433  29.844  1.00  0.00    -0.237 OA
ATOM    106  O   UNL A   1      35.668  30.514  31.391  1.00  0.00    -0.237 OA
ATOM    107  O   UNL A   1      34.393  32.580  31.812  1.00  0.00    -0.744 OA
ENDBRANCH 100 104
ENDBRANCH  74  97
ENDBRANCH  48  49
ENDBRANCH  41  43
ENDBRANCH  40  41
ENDBRANCH  39  40
ENDBRANCH  38  39
ENDBRANCH  37  38
ENDBRANCH  36  37
ENDBRANCH  35  36
ENDBRANCH   1  35
TORSDOF 27
ENDMDL
