MODEL 1
REMARK VINA RESULT:      -8.1      0.000      0.000
REMARK SMILES CCN1C(=O)[C@H](CC(=O)Nc2ccc(C(=O)OCCOCCOCCOCCOC(=O)c3ccc(-c4c5nc(c(-c6cc(S(=O)(=O)[O-])ccc6F)c6ccc([nH]6)c(-c6cc(S(=O)(=O)[O-])ccc6F)c6nc(c(-c7cc(S(=O)(=O)[O-])ccc7F)c7ccc4[nH]7)C=C6)C=C5)cc3)cc2)S/C1=[NH+]\c1ccc(Cl)cc1
REMARK SMILES IDX 22 1 21 2 20 3 19 4 18 5 17 6 15 7 16 8 14 9 11 10 12 11
REMARK SMILES IDX 96 12 13 13 95 14 10 15 8 16 9 17 7 19 6 20 3 21 4 22 98 23
REMARK SMILES IDX 5 24 97 25 99 26 2 28 1 29 100 30 101 31 106 32 102 33
REMARK SMILES IDX 105 34 103 35 104 36 23 37 24 38 25 39 26 40 27 41 28 42
REMARK SMILES IDX 29 43 30 44 31 45 32 46 33 47 94 48 34 49 93 50 35 51 36 52
REMARK SMILES IDX 37 53 87 54 38 55 92 56 86 57 88 58 39 59 91 60 85 61 84 62
REMARK SMILES IDX 40 64 72 65 52 66 71 67 53 68 56 69 70 70 89 71 54 72 55 73
REMARK SMILES IDX 69 75 90 76 57 77 41 78 42 79 50 80 43 81 49 82 51 83 48 84
REMARK SMILES IDX 44 85 45 86 46 87 47 88 73 89 74 90 82 91 75 92 81 93 83 94
REMARK SMILES IDX 80 95 76 96 77 97 78 98 79 99 58 100 59 101 67 102 60 103
REMARK SMILES IDX 66 104 68 105 65 106 61 107 62 108 63 109 64 110
REMARK H PARENT 10 18 99 27 88 63 56 74
REMARK Flexibility Score: inf
ROOT
ATOM      1  C   UNL A   1      45.257  25.332  30.011  1.00  0.00     0.188 C 
ENDROOT
BRANCH   1   2
ATOM      2  C   UNL A   1      44.243  26.106  29.132  1.00  0.00     0.188 C 
BRANCH   2   3
ATOM      3  O   UNL A   1      44.385  27.512  29.186  1.00  0.00    -0.376 OA
BRANCH   3   4
ATOM      4  C   UNL A   1      43.250  28.353  29.215  1.00  0.00     0.202 C 
BRANCH   4   5
ATOM      5  C   UNL A   1      42.410  28.273  30.485  1.00  0.00     0.261 C 
BRANCH   5   6
ATOM      6  O   UNL A   1      41.087  27.773  30.274  1.00  0.00    -0.460 OA
BRANCH   6   7
ATOM      7  C   UNL A   1      40.206  28.416  29.470  1.00  0.00     0.338 C 
ATOM      8  O   UNL A   1      40.088  28.296  28.266  1.00  0.00    -0.246 OA
BRANCH   7   9
ATOM      9  C   UNL A   1      39.352  29.266  30.355  1.00  0.00     0.060 A 
ATOM     10  C   UNL A   1      37.886  30.594  32.319  1.00  0.00     0.041 A 
ATOM     11  C   UNL A   1      38.876  31.286  31.622  1.00  0.00     0.027 A 
ATOM     12  C   UNL A   1      37.442  29.393  31.822  1.00  0.00     0.027 A 
ATOM     13  C   UNL A   1      39.615  30.612  30.622  1.00  0.00     0.018 A 
ATOM     14  C   UNL A   1      38.221  28.699  30.930  1.00  0.00     0.018 A 
BRANCH  10  15
ATOM     15  N   UNL A   1      37.354  31.013  33.545  1.00  0.00    -0.326 N 
ATOM     16  C   UNL A   1      36.976  32.320  33.843  1.00  0.00     0.226 C 
ATOM     17  O   UNL A   1      36.852  32.668  35.018  1.00  0.00    -0.275 OA
ATOM     18  H   UNL A   1      37.238  30.333  34.248  1.00  0.00     0.169 HD
BRANCH  16  19
ATOM     19  C   UNL A   1      36.485  33.230  32.692  1.00  0.00     0.128 C 
BRANCH  19  20
ATOM     20  C   UNL A   1      35.016  33.096  32.260  1.00  0.00     0.183 C 
ATOM     21  N   UNL A   1      34.564  34.272  30.196  1.00  0.00    -0.190 N 
ATOM     22  C   UNL A   1      34.455  34.333  31.569  1.00  0.00     0.324 C 
ATOM     23  C   UNL A   1      34.761  33.029  29.662  1.00  0.00     0.319 C 
ATOM     24  O   UNL A   1      33.996  35.284  32.195  1.00  0.00    -0.245 OA
ATOM     25  S   UNL A   1      34.905  31.829  30.919  1.00  0.00    -0.022 SA
ATOM     26  N   UNL A   1      34.770  32.871  28.382  1.00  0.00    -0.235 N 
ATOM     27  H   UNL A   1      34.937  33.660  27.816  1.00  0.00     0.313 HD
BRANCH  21  28
ATOM     28  C   UNL A   1      34.340  35.436  29.331  1.00  0.00     0.243 C 
ATOM     29  C   UNL A   1      32.889  35.803  29.058  1.00  0.00     0.054 C 
ENDBRANCH  21  28
BRANCH  26  30
ATOM     30  C   UNL A   1      34.554  31.644  27.756  1.00  0.00     0.125 A 
ATOM     31  C   UNL A   1      33.258  31.243  27.425  1.00  0.00     0.053 A 
ATOM     32  C   UNL A   1      35.589  30.699  27.705  1.00  0.00     0.053 A 
ATOM     33  C   UNL A   1      33.008  29.926  27.020  1.00  0.00     0.025 A 
ATOM     34  C   UNL A   1      35.348  29.390  27.295  1.00  0.00     0.025 A 
ATOM     35  C   UNL A   1      34.056  29.008  26.955  1.00  0.00     0.041 A 
ATOM     36  Cl  UNL A   1      33.748  27.385  26.480  1.00  0.00    -0.084 Cl
ENDBRANCH  26  30
ENDBRANCH  19  20
ENDBRANCH  16  19
ENDBRANCH  10  15
ENDBRANCH   7   9
ENDBRANCH   6   7
ENDBRANCH   5   6
ENDBRANCH   4   5
ENDBRANCH   3   4
ENDBRANCH   2   3
ENDBRANCH   1   2
BRANCH   1  37
ATOM     37  O   UNL A   1      45.732  25.795  31.270  1.00  0.00    -0.377 OA
BRANCH  37  38
ATOM     38  C   UNL A   1      44.889  25.718  32.408  1.00  0.00     0.188 C 
BRANCH  38  39
ATOM     39  C   UNL A   1      45.594  25.621  33.778  1.00  0.00     0.188 C 
BRANCH  39  40
ATOM     40  O   UNL A   1      44.715  25.294  34.843  1.00  0.00    -0.376 OA
BRANCH  40  41
ATOM     41  C   UNL A   1      43.351  25.052  34.551  1.00  0.00     0.202 C 
BRANCH  41  42
ATOM     42  C   UNL A   1      42.247  25.696  35.406  1.00  0.00     0.261 C 
BRANCH  42  43
ATOM     43  O   UNL A   1      41.749  26.970  34.987  1.00  0.00    -0.460 OA
BRANCH  43  44
ATOM     44  C   UNL A   1      41.357  27.839  35.941  1.00  0.00     0.338 C 
ATOM     45  O   UNL A   1      40.976  27.569  37.069  1.00  0.00    -0.246 OA
BRANCH  44  46
ATOM     46  C   UNL A   1      41.649  29.193  35.431  1.00  0.00     0.060 A 
ATOM     47  C   UNL A   1      42.979  29.602  35.251  1.00  0.00     0.016 A 
ATOM     48  C   UNL A   1      40.595  30.049  35.109  1.00  0.00     0.016 A 
ATOM     49  C   UNL A   1      43.257  30.885  34.776  1.00  0.00     0.010 A 
ATOM     50  C   UNL A   1      40.873  31.340  34.664  1.00  0.00     0.010 A 
ATOM     51  C   UNL A   1      42.205  31.776  34.529  1.00  0.00    -0.014 A 
BRANCH  51  52
ATOM     52  C   UNL A   1      42.462  33.229  34.386  1.00  0.00     0.031 A 
ATOM     53  C   UNL A   1      42.677  33.755  32.993  1.00  0.00     0.074 A 
ATOM     54  C   UNL A   1      42.530  34.051  35.448  1.00  0.00     0.049 A 
ATOM     55  N   UNL A   1      43.109  34.923  32.602  1.00  0.00    -0.248 NA
ATOM     56  C   UNL A   1      42.375  32.822  31.894  1.00  0.00     0.031 C 
ATOM     57  C   UNL A   1      42.259  33.673  36.833  1.00  0.00     0.029 A 
ATOM     58  N   UNL A   1      42.874  35.379  35.521  1.00  0.00    -0.354 N 
ATOM     59  C   UNL A   1      43.139  34.865  31.213  1.00  0.00     0.074 A 
ATOM     60  C   UNL A   1      42.716  33.535  30.833  1.00  0.00     0.031 C 
ATOM     61  C   UNL A   1      42.469  34.743  37.624  1.00  0.00     0.029 A 
ATOM     62  C   UNL A   1      42.946  35.860  36.809  1.00  0.00     0.049 A 
ATOM     63  H   UNL A   1      43.051  35.934  34.728  1.00  0.00     0.167 HD
ATOM     64  C   UNL A   1      43.483  35.836  30.334  1.00  0.00     0.034 A 
ATOM     65  C   UNL A   1      43.389  37.050  37.269  1.00  0.00     0.034 A 
ATOM     66  C   UNL A   1      43.921  37.149  30.732  1.00  0.00     0.049 A 
ATOM     67  C   UNL A   1      43.895  38.077  36.274  1.00  0.00     0.074 A 
ATOM     68  C   UNL A   1      44.325  38.201  29.931  1.00  0.00     0.029 A 
ATOM     69  N   UNL A   1      44.014  37.588  32.045  1.00  0.00    -0.354 N 
ATOM     70  N   UNL A   1      43.956  38.002  34.963  1.00  0.00    -0.248 NA
ATOM     71  C   UNL A   1      44.387  39.351  36.819  1.00  0.00     0.031 C 
ATOM     72  C   UNL A   1      44.728  39.251  30.761  1.00  0.00     0.029 A 
ATOM     73  C   UNL A   1      44.486  38.888  32.076  1.00  0.00     0.049 A 
ATOM     74  H   UNL A   1      43.779  37.053  32.838  1.00  0.00     0.167 HD
ATOM     75  C   UNL A   1      44.434  39.238  34.531  1.00  0.00     0.074 A 
ATOM     76  C   UNL A   1      44.649  40.038  35.717  1.00  0.00     0.031 C 
ATOM     77  C   UNL A   1      44.663  39.680  33.269  1.00  0.00     0.034 A 
BRANCH  64  78
ATOM     78  C   UNL A   1      43.443  35.494  28.867  1.00  0.00     0.023 A 
ATOM     79  C   UNL A   1      44.428  34.687  28.273  1.00  0.00     0.031 A 
ATOM     80  C   UNL A   1      42.412  35.988  28.050  1.00  0.00     0.131 A 
ATOM     81  C   UNL A   1      44.391  34.442  26.893  1.00  0.00     0.055 A 
ATOM     82  C   UNL A   1      42.337  35.675  26.691  1.00  0.00     0.041 A 
ATOM     83  F   UNL A   1      41.461  36.788  28.556  1.00  0.00    -0.206 F 
ATOM     84  C   UNL A   1      43.337  34.906  26.103  1.00  0.00     0.022 A 
BRANCH  81  85
ATOM     85  S   UNL A   1      45.808  33.613  26.123  1.00  0.00     0.124 S 
ATOM     86  O   UNL A   1      46.711  33.453  27.261  1.00  0.00    -0.237 OA
ATOM     87  O   UNL A   1      45.214  32.387  25.603  1.00  0.00    -0.237 OA
ATOM     88  O   UNL A   1      46.256  34.568  25.111  1.00  0.00    -0.744 OA
ENDBRANCH  81  85
ENDBRANCH  64  78
BRANCH  65  89
ATOM     89  C   UNL A   1      43.434  37.342  38.734  1.00  0.00     0.023 A 
ATOM     90  C   UNL A   1      42.346  37.954  39.376  1.00  0.00     0.031 A 
ATOM     91  C   UNL A   1      44.597  37.119  39.492  1.00  0.00     0.131 A 
ATOM     92  C   UNL A   1      42.470  38.396  40.703  1.00  0.00     0.055 A 
ATOM     93  C   UNL A   1      44.688  37.490  40.836  1.00  0.00     0.041 A 
ATOM     94  F   UNL A   1      45.676  36.546  38.932  1.00  0.00    -0.206 F 
ATOM     95  C   UNL A   1      43.628  38.152  41.443  1.00  0.00     0.022 A 
BRANCH  92  96
ATOM     96  S   UNL A   1      41.151  39.436  41.390  1.00  0.00     0.124 S 
ATOM     97  O   UNL A   1      41.224  40.609  40.529  1.00  0.00    -0.237 OA
ATOM     98  O   UNL A   1      39.977  38.587  41.221  1.00  0.00    -0.237 OA
ATOM     99  O   UNL A   1      41.574  39.649  42.773  1.00  0.00    -0.744 OA
ENDBRANCH  92  96
ENDBRANCH  65  89
BRANCH  77 100
ATOM    100  C   UNL A   1      45.067  41.125  33.090  1.00  0.00     0.023 A 
ATOM    101  C   UNL A   1      44.134  42.176  33.092  1.00  0.00     0.031 A 
ATOM    102  C   UNL A   1      46.430  41.450  32.955  1.00  0.00     0.131 A 
ATOM    103  C   UNL A   1      44.574  43.498  32.922  1.00  0.00     0.055 A 
ATOM    104  C   UNL A   1      46.866  42.770  32.847  1.00  0.00     0.041 A 
ATOM    105  F   UNL A   1      47.364  40.485  32.946  1.00  0.00    -0.206 F 
ATOM    106  C   UNL A   1      45.935  43.803  32.821  1.00  0.00     0.022 A 
BRANCH 103 107
ATOM    107  S   UNL A   1      43.340  44.818  32.767  1.00  0.00     0.124 S 
ATOM    108  O   UNL A   1      43.636  45.359  31.445  1.00  0.00    -0.237 OA
ATOM    109  O   UNL A   1      42.083  44.088  32.890  1.00  0.00    -0.237 OA
ATOM    110  O   UNL A   1      43.648  45.709  33.885  1.00  0.00    -0.744 OA
ENDBRANCH 103 107
ENDBRANCH  77 100
ENDBRANCH  51  52
ENDBRANCH  44  46
ENDBRANCH  43  44
ENDBRANCH  42  43
ENDBRANCH  41  42
ENDBRANCH  40  41
ENDBRANCH  39  40
ENDBRANCH  38  39
ENDBRANCH  37  38
ENDBRANCH   1  37
TORSDOF 28
ENDMDL
MODEL 2
REMARK VINA RESULT:      -7.7      6.478     12.197
REMARK SMILES CCN1C(=O)[C@H](CC(=O)Nc2ccc(C(=O)OCCOCCOCCOCCOC(=O)c3ccc(-c4c5nc(c(-c6cc(S(=O)(=O)[O-])ccc6F)c6ccc([nH]6)c(-c6cc(S(=O)(=O)[O-])ccc6F)c6nc(c(-c7cc(S(=O)(=O)[O-])ccc7F)c7ccc4[nH]7)C=C6)C=C5)cc3)cc2)S/C1=[NH+]\c1ccc(Cl)cc1
REMARK SMILES IDX 22 1 21 2 20 3 19 4 18 5 17 6 15 7 16 8 14 9 11 10 12 11
REMARK SMILES IDX 96 12 13 13 95 14 10 15 8 16 9 17 7 19 6 20 3 21 4 22 98 23
REMARK SMILES IDX 5 24 97 25 99 26 2 28 1 29 100 30 101 31 106 32 102 33
REMARK SMILES IDX 105 34 103 35 104 36 23 37 24 38 25 39 26 40 27 41 28 42
REMARK SMILES IDX 29 43 30 44 31 45 32 46 33 47 94 48 34 49 93 50 35 51 36 52
REMARK SMILES IDX 37 53 87 54 38 55 92 56 86 57 88 58 39 59 91 60 85 61 84 62
REMARK SMILES IDX 40 64 72 65 52 66 71 67 53 68 56 69 70 70 89 71 54 72 55 73
REMARK SMILES IDX 69 75 90 76 57 77 41 78 42 79 50 80 43 81 49 82 51 83 48 84
REMARK SMILES IDX 44 85 45 86 46 87 47 88 73 89 74 90 82 91 75 92 81 93 83 94
REMARK SMILES IDX 80 95 76 96 77 97 78 98 79 99 58 100 59 101 67 102 60 103
REMARK SMILES IDX 66 104 68 105 65 106 61 107 62 108 63 109 64 110
REMARK H PARENT 10 18 99 27 88 63 56 74
REMARK Flexibility Score: inf
ROOT
ATOM      1  C   UNL A   1      36.293  32.408  30.554  1.00  0.00     0.188 C 
ENDROOT
BRANCH   1   2
ATOM      2  C   UNL A   1      36.595  31.644  29.240  1.00  0.00     0.188 C 
BRANCH   2   3
ATOM      3  O   UNL A   1      36.085  32.267  28.078  1.00  0.00    -0.376 OA
BRANCH   3   4
ATOM      4  C   UNL A   1      34.698  32.271  27.809  1.00  0.00     0.202 C 
BRANCH   4   5
ATOM      5  C   UNL A   1      34.006  30.916  27.924  1.00  0.00     0.261 C 
BRANCH   5   6
ATOM      6  O   UNL A   1      33.767  30.279  26.666  1.00  0.00    -0.460 OA
BRANCH   6   7
ATOM      7  C   UNL A   1      32.517  30.159  26.159  1.00  0.00     0.338 C 
ATOM      8  O   UNL A   1      31.721  31.054  25.947  1.00  0.00    -0.246 OA
BRANCH   7   9
ATOM      9  C   UNL A   1      32.314  28.711  25.844  1.00  0.00     0.060 A 
ATOM     10  C   UNL A   1      31.968  25.951  25.676  1.00  0.00     0.041 A 
ATOM     11  C   UNL A   1      30.951  26.794  25.232  1.00  0.00     0.027 A 
ATOM     12  C   UNL A   1      33.220  26.477  25.888  1.00  0.00     0.027 A 
ATOM     13  C   UNL A   1      31.130  28.194  25.313  1.00  0.00     0.018 A 
ATOM     14  C   UNL A   1      33.364  27.829  26.069  1.00  0.00     0.018 A 
BRANCH  10  15
ATOM     15  N   UNL A   1      31.783  24.599  25.992  1.00  0.00    -0.326 N 
ATOM     16  C   UNL A   1      31.058  23.694  25.219  1.00  0.00     0.226 C 
ATOM     17  O   UNL A   1      30.656  22.644  25.723  1.00  0.00    -0.275 OA
ATOM     18  H   UNL A   1      32.197  24.263  26.820  1.00  0.00     0.169 HD
BRANCH  16  19
ATOM     19  C   UNL A   1      30.987  23.916  23.689  1.00  0.00     0.128 C 
BRANCH  19  20
ATOM     20  C   UNL A   1      31.994  23.152  22.814  1.00  0.00     0.183 C 
ATOM     21  N   UNL A   1      34.160  22.965  23.874  1.00  0.00    -0.190 N 
ATOM     22  C   UNL A   1      33.428  23.656  22.932  1.00  0.00     0.324 C 
ATOM     23  C   UNL A   1      33.665  21.746  24.245  1.00  0.00     0.319 C 
ATOM     24  O   UNL A   1      33.847  24.603  22.273  1.00  0.00    -0.245 OA
ATOM     25  S   UNL A   1      32.145  21.425  23.452  1.00  0.00    -0.022 SA
ATOM     26  N   UNL A   1      34.342  20.991  25.042  1.00  0.00    -0.235 N 
ATOM     27  H   UNL A   1      35.038  21.408  25.601  1.00  0.00     0.313 HD
BRANCH  21  28
ATOM     28  C   UNL A   1      35.468  23.425  24.354  1.00  0.00     0.243 C 
ATOM     29  C   UNL A   1      36.684  22.881  23.620  1.00  0.00     0.054 C 
ENDBRANCH  21  28
BRANCH  26  30
ATOM     30  C   UNL A   1      34.143  19.615  25.154  1.00  0.00     0.125 A 
ATOM     31  C   UNL A   1      34.965  18.728  24.455  1.00  0.00     0.053 A 
ATOM     32  C   UNL A   1      32.965  19.130  25.739  1.00  0.00     0.053 A 
ATOM     33  C   UNL A   1      34.628  17.372  24.370  1.00  0.00     0.025 A 
ATOM     34  C   UNL A   1      32.629  17.779  25.665  1.00  0.00     0.025 A 
ATOM     35  C   UNL A   1      33.463  16.905  24.979  1.00  0.00     0.041 A 
ATOM     36  Cl  UNL A   1      33.036  15.245  24.857  1.00  0.00    -0.084 Cl
ENDBRANCH  26  30
ENDBRANCH  19  20
ENDBRANCH  16  19
ENDBRANCH  10  15
ENDBRANCH   7   9
ENDBRANCH   6   7
ENDBRANCH   5   6
ENDBRANCH   4   5
ENDBRANCH   3   4
ENDBRANCH   2   3
ENDBRANCH   1   2
BRANCH   1  37
ATOM     37  O   UNL A   1      36.602  33.782  30.761  1.00  0.00    -0.377 OA
BRANCH  37  38
ATOM     38  C   UNL A   1      37.265  34.179  31.951  1.00  0.00     0.188 C 
BRANCH  38  39
ATOM     39  C   UNL A   1      38.774  34.480  31.826  1.00  0.00     0.188 C 
BRANCH  39  40
ATOM     40  O   UNL A   1      39.479  34.347  33.051  1.00  0.00    -0.376 OA
BRANCH  40  41
ATOM     41  C   UNL A   1      38.741  34.250  34.255  1.00  0.00     0.202 C 
BRANCH  41  42
ATOM     42  C   UNL A   1      38.902  33.023  35.169  1.00  0.00     0.261 C 
BRANCH  42  43
ATOM     43  O   UNL A   1      39.168  31.765  34.540  1.00  0.00    -0.460 OA
BRANCH  43  44
ATOM     44  C   UNL A   1      39.417  30.704  35.334  1.00  0.00     0.338 C 
ATOM     45  O   UNL A   1      38.667  30.212  36.161  1.00  0.00    -0.246 OA
BRANCH  44  46
ATOM     46  C   UNL A   1      40.703  30.131  34.889  1.00  0.00     0.060 A 
ATOM     47  C   UNL A   1      41.904  30.578  35.461  1.00  0.00     0.016 A 
ATOM     48  C   UNL A   1      40.710  29.129  33.917  1.00  0.00     0.016 A 
ATOM     49  C   UNL A   1      43.121  30.042  35.035  1.00  0.00     0.010 A 
ATOM     50  C   UNL A   1      41.928  28.617  33.472  1.00  0.00     0.010 A 
ATOM     51  C   UNL A   1      43.140  29.096  34.003  1.00  0.00    -0.014 A 
BRANCH  51  52
ATOM     52  C   UNL A   1      44.398  28.786  33.283  1.00  0.00     0.031 A 
ATOM     53  C   UNL A   1      44.650  29.518  31.993  1.00  0.00     0.074 A 
ATOM     54  C   UNL A   1      45.274  27.872  33.735  1.00  0.00     0.049 A 
ATOM     55  N   UNL A   1      45.553  29.302  31.076  1.00  0.00    -0.248 NA
ATOM     56  C   UNL A   1      43.742  30.640  31.697  1.00  0.00     0.031 C 
ATOM     57  C   UNL A   1      45.179  27.161  35.008  1.00  0.00     0.029 A 
ATOM     58  N   UNL A   1      46.413  27.371  33.153  1.00  0.00    -0.354 N 
ATOM     59  C   UNL A   1      45.319  30.254  30.089  1.00  0.00     0.074 A 
ATOM     60  C   UNL A   1      44.168  31.024  30.504  1.00  0.00     0.031 C 
ATOM     61  C   UNL A   1      46.207  26.297  35.101  1.00  0.00     0.029 A 
ATOM     62  C   UNL A   1      46.996  26.351  33.870  1.00  0.00     0.049 A 
ATOM     63  H   UNL A   1      46.777  27.709  32.304  1.00  0.00     0.167 HD
ATOM     64  C   UNL A   1      46.008  30.469  28.943  1.00  0.00     0.034 A 
ATOM     65  C   UNL A   1      48.020  25.533  33.544  1.00  0.00     0.034 A 
ATOM     66  C   UNL A   1      47.141  29.678  28.537  1.00  0.00     0.049 A 
ATOM     67  C   UNL A   1      48.694  25.706  32.195  1.00  0.00     0.074 A 
ATOM     68  C   UNL A   1      47.895  29.784  27.383  1.00  0.00     0.029 A 
ATOM     69  N   UNL A   1      47.681  28.633  29.272  1.00  0.00    -0.354 N 
ATOM     70  N   UNL A   1      48.443  26.584  31.250  1.00  0.00    -0.248 NA
ATOM     71  C   UNL A   1      49.790  24.781  31.871  1.00  0.00     0.031 C 
ATOM     72  C   UNL A   1      48.846  28.760  27.387  1.00  0.00     0.029 A 
ATOM     73  C   UNL A   1      48.747  28.075  28.588  1.00  0.00     0.049 A 
ATOM     74  H   UNL A   1      47.354  28.332  30.151  1.00  0.00     0.167 HD
ATOM     75  C   UNL A   1      49.391  26.353  30.253  1.00  0.00     0.074 A 
ATOM     76  C   UNL A   1      50.213  25.253  30.708  1.00  0.00     0.031 C 
ATOM     77  C   UNL A   1      49.575  26.998  29.074  1.00  0.00     0.034 A 
BRANCH  64  78
ATOM     78  C   UNL A   1      45.523  31.569  28.034  1.00  0.00     0.023 A 
ATOM     79  C   UNL A   1      45.992  32.887  28.160  1.00  0.00     0.031 A 
ATOM     80  C   UNL A   1      44.573  31.298  27.034  1.00  0.00     0.131 A 
ATOM     81  C   UNL A   1      45.470  33.895  27.337  1.00  0.00     0.055 A 
ATOM     82  C   UNL A   1      44.118  32.291  26.165  1.00  0.00     0.041 A 
ATOM     83  F   UNL A   1      44.068  30.063  26.887  1.00  0.00    -0.206 F 
ATOM     84  C   UNL A   1      44.558  33.602  26.322  1.00  0.00     0.022 A 
BRANCH  81  85
ATOM     85  S   UNL A   1      45.908  35.618  27.696  1.00  0.00     0.124 S 
ATOM     86  O   UNL A   1      45.517  35.736  29.099  1.00  0.00    -0.237 OA
ATOM     87  O   UNL A   1      47.342  35.643  27.428  1.00  0.00    -0.237 OA
ATOM     88  O   UNL A   1      45.086  36.383  26.760  1.00  0.00    -0.744 OA
ENDBRANCH  81  85
ENDBRANCH  64  78
BRANCH  65  89
ATOM     89  C   UNL A   1      48.457  24.439  34.463  1.00  0.00     0.023 A 
ATOM     90  C   UNL A   1      47.784  23.207  34.482  1.00  0.00     0.031 A 
ATOM     91  C   UNL A   1      49.478  24.640  35.410  1.00  0.00     0.131 A 
ATOM     92  C   UNL A   1      48.079  22.260  35.476  1.00  0.00     0.055 A 
ATOM     93  C   UNL A   1      49.821  23.663  36.348  1.00  0.00     0.041 A 
ATOM     94  F   UNL A   1      50.152  25.801  35.449  1.00  0.00    -0.206 F 
ATOM     95  C   UNL A   1      49.105  22.472  36.399  1.00  0.00     0.022 A 
BRANCH  92  96
ATOM     96  S   UNL A   1      46.990  20.818  35.641  1.00  0.00     0.124 S 
ATOM     97  O   UNL A   1      47.270  20.097  34.405  1.00  0.00    -0.237 OA
ATOM     98  O   UNL A   1      47.485  20.205  36.868  1.00  0.00    -0.237 OA
ATOM     99  O   UNL A   1      45.656  21.409  35.731  1.00  0.00    -0.744 OA
ENDBRANCH  92  96
ENDBRANCH  65  89
BRANCH  77 100
ATOM    100  C   UNL A   1      50.773  26.611  28.238  1.00  0.00     0.023 A 
ATOM    101  C   UNL A   1      52.045  27.175  28.434  1.00  0.00     0.031 A 
ATOM    102  C   UNL A   1      50.634  25.619  27.248  1.00  0.00     0.131 A 
ATOM    103  C   UNL A   1      53.117  26.771  27.624  1.00  0.00     0.055 A 
ATOM    104  C   UNL A   1      51.716  25.179  26.489  1.00  0.00     0.041 A 
ATOM    105  F   UNL A   1      49.440  25.047  27.019  1.00  0.00    -0.206 F 
ATOM    106  C   UNL A   1      52.965  25.762  26.668  1.00  0.00     0.022 A 
BRANCH 103 107
ATOM    107  S   UNL A   1      54.708  27.628  27.787  1.00  0.00     0.124 S 
ATOM    108  O   UNL A   1      55.217  27.588  26.420  1.00  0.00    -0.237 OA
ATOM    109  O   UNL A   1      54.307  28.941  28.279  1.00  0.00    -0.237 OA
ATOM    110  O   UNL A   1      55.443  26.806  28.747  1.00  0.00    -0.744 OA
ENDBRANCH 103 107
ENDBRANCH  77 100
ENDBRANCH  51  52
ENDBRANCH  44  46
ENDBRANCH  43  44
ENDBRANCH  42  43
ENDBRANCH  41  42
ENDBRANCH  40  41
ENDBRANCH  39  40
ENDBRANCH  38  39
ENDBRANCH  37  38
ENDBRANCH   1  37
TORSDOF 28
ENDMDL
MODEL 3
REMARK VINA RESULT:      -7.6      4.041      7.972
REMARK SMILES CCN1C(=O)[C@H](CC(=O)Nc2ccc(C(=O)OCCOCCOCCOCCOC(=O)c3ccc(-c4c5nc(c(-c6cc(S(=O)(=O)[O-])ccc6F)c6ccc([nH]6)c(-c6cc(S(=O)(=O)[O-])ccc6F)c6nc(c(-c7cc(S(=O)(=O)[O-])ccc7F)c7ccc4[nH]7)C=C6)C=C5)cc3)cc2)S/C1=[NH+]\c1ccc(Cl)cc1
REMARK SMILES IDX 22 1 21 2 20 3 19 4 18 5 17 6 15 7 16 8 14 9 11 10 12 11
REMARK SMILES IDX 96 12 13 13 95 14 10 15 8 16 9 17 7 19 6 20 3 21 4 22 98 23
REMARK SMILES IDX 5 24 97 25 99 26 2 28 1 29 100 30 101 31 106 32 102 33
REMARK SMILES IDX 105 34 103 35 104 36 23 37 24 38 25 39 26 40 27 41 28 42
REMARK SMILES IDX 29 43 30 44 31 45 32 46 33 47 94 48 34 49 93 50 35 51 36 52
REMARK SMILES IDX 37 53 87 54 38 55 92 56 86 57 88 58 39 59 91 60 85 61 84 62
REMARK SMILES IDX 40 64 72 65 52 66 71 67 53 68 56 69 70 70 89 71 54 72 55 73
REMARK SMILES IDX 69 75 90 76 57 77 41 78 42 79 50 80 43 81 49 82 51 83 48 84
REMARK SMILES IDX 44 85 45 86 46 87 47 88 73 89 74 90 82 91 75 92 81 93 83 94
REMARK SMILES IDX 80 95 76 96 77 97 78 98 79 99 58 100 59 101 67 102 60 103
REMARK SMILES IDX 66 104 68 105 65 106 61 107 62 108 63 109 64 110
REMARK H PARENT 10 18 99 27 88 63 56 74
REMARK Flexibility Score: inf
ROOT
ATOM      1  C   UNL A   1      35.812  34.367  34.017  1.00  0.00     0.188 C 
ENDROOT
BRANCH   1   2
ATOM      2  C   UNL A   1      34.888  35.168  33.066  1.00  0.00     0.188 C 
BRANCH   2   3
ATOM      3  O   UNL A   1      35.151  34.960  31.692  1.00  0.00    -0.376 OA
BRANCH   3   4
ATOM      4  C   UNL A   1      34.447  33.976  30.962  1.00  0.00     0.202 C 
BRANCH   4   5
ATOM      5  C   UNL A   1      35.262  33.239  29.904  1.00  0.00     0.261 C 
BRANCH   5   6
ATOM      6  O   UNL A   1      34.839  31.890  29.684  1.00  0.00    -0.460 OA
BRANCH   6   7
ATOM      7  C   UNL A   1      35.046  31.267  28.498  1.00  0.00     0.338 C 
ATOM      8  O   UNL A   1      34.454  31.461  27.454  1.00  0.00    -0.246 OA
BRANCH   7   9
ATOM      9  C   UNL A   1      36.193  30.329  28.697  1.00  0.00     0.060 A 
ATOM     10  C   UNL A   1      38.578  28.920  29.006  1.00  0.00     0.041 A 
ATOM     11  C   UNL A   1      37.672  28.969  30.065  1.00  0.00     0.027 A 
ATOM     12  C   UNL A   1      38.152  29.288  27.752  1.00  0.00     0.027 A 
ATOM     13  C   UNL A   1      36.461  29.680  29.904  1.00  0.00     0.018 A 
ATOM     14  C   UNL A   1      37.031  30.067  27.619  1.00  0.00     0.018 A 
BRANCH  10  15
ATOM     15  N   UNL A   1      39.930  28.583  29.146  1.00  0.00    -0.326 N 
ATOM     16  C   UNL A   1      40.413  27.286  29.310  1.00  0.00     0.226 C 
ATOM     17  O   UNL A   1      41.543  27.108  29.766  1.00  0.00    -0.275 OA
ATOM     18  H   UNL A   1      40.587  29.315  29.127  1.00  0.00     0.169 HD
BRANCH  16  19
ATOM     19  C   UNL A   1      39.616  26.114  28.688  1.00  0.00     0.128 C 
BRANCH  19  20
ATOM     20  C   UNL A   1      40.094  25.573  27.331  1.00  0.00     0.183 C 
ATOM     21  N   UNL A   1      40.226  23.158  27.311  1.00  0.00    -0.190 N 
ATOM     22  C   UNL A   1      40.958  24.320  27.431  1.00  0.00     0.324 C 
ATOM     23  C   UNL A   1      38.988  23.281  26.745  1.00  0.00     0.319 C 
ATOM     24  O   UNL A   1      42.167  24.371  27.634  1.00  0.00    -0.245 OA
ATOM     25  S   UNL A   1      38.631  24.951  26.390  1.00  0.00    -0.022 SA
ATOM     26  N   UNL A   1      38.282  22.229  26.502  1.00  0.00    -0.235 N 
ATOM     27  H   UNL A   1      38.499  21.400  26.989  1.00  0.00     0.313 HD
BRANCH  21  28
ATOM     28  C   UNL A   1      40.780  21.838  27.631  1.00  0.00     0.243 C 
ATOM     29  C   UNL A   1      41.708  21.227  26.591  1.00  0.00     0.054 C 
ENDBRANCH  21  28
BRANCH  26  30
ATOM     30  C   UNL A   1      37.230  22.202  25.588  1.00  0.00     0.125 A 
ATOM     31  C   UNL A   1      37.393  22.752  24.314  1.00  0.00     0.053 A 
ATOM     32  C   UNL A   1      35.938  21.877  26.025  1.00  0.00     0.053 A 
ATOM     33  C   UNL A   1      36.284  22.944  23.481  1.00  0.00     0.025 A 
ATOM     34  C   UNL A   1      34.832  22.058  25.198  1.00  0.00     0.025 A 
ATOM     35  C   UNL A   1      35.010  22.593  23.927  1.00  0.00     0.041 A 
ATOM     36  Cl  UNL A   1      33.645  22.849  22.915  1.00  0.00    -0.084 Cl
ENDBRANCH  26  30
ENDBRANCH  19  20
ENDBRANCH  16  19
ENDBRANCH  10  15
ENDBRANCH   7   9
ENDBRANCH   6   7
ENDBRANCH   5   6
ENDBRANCH   4   5
ENDBRANCH   3   4
ENDBRANCH   2   3
ENDBRANCH   1   2
BRANCH   1  37
ATOM     37  O   UNL A   1      35.682  32.970  34.259  1.00  0.00    -0.377 OA
BRANCH  37  38
ATOM     38  C   UNL A   1      36.209  32.045  33.321  1.00  0.00     0.188 C 
BRANCH  38  39
ATOM     39  C   UNL A   1      37.676  32.262  32.894  1.00  0.00     0.188 C 
BRANCH  39  40
ATOM     40  O   UNL A   1      38.613  31.636  33.757  1.00  0.00    -0.376 OA
BRANCH  40  41
ATOM     41  C   UNL A   1      39.001  30.301  33.489  1.00  0.00     0.202 C 
BRANCH  41  42
ATOM     42  C   UNL A   1      40.240  30.010  32.626  1.00  0.00     0.261 C 
BRANCH  42  43
ATOM     43  O   UNL A   1      40.357  30.711  31.384  1.00  0.00    -0.460 OA
BRANCH  43  44
ATOM     44  C   UNL A   1      41.581  31.139  31.015  1.00  0.00     0.338 C 
ATOM     45  O   UNL A   1      42.276  30.694  30.116  1.00  0.00    -0.246 OA
BRANCH  44  46
ATOM     46  C   UNL A   1      41.852  32.371  31.783  1.00  0.00     0.060 A 
ATOM     47  C   UNL A   1      43.028  32.480  32.540  1.00  0.00     0.016 A 
ATOM     48  C   UNL A   1      40.943  33.429  31.730  1.00  0.00     0.016 A 
ATOM     49  C   UNL A   1      43.282  33.641  33.273  1.00  0.00     0.010 A 
ATOM     50  C   UNL A   1      41.182  34.575  32.485  1.00  0.00     0.010 A 
ATOM     51  C   UNL A   1      42.334  34.672  33.288  1.00  0.00    -0.014 A 
BRANCH  51  52
ATOM     52  C   UNL A   1      42.388  35.734  34.321  1.00  0.00     0.031 A 
ATOM     53  C   UNL A   1      43.155  36.983  33.982  1.00  0.00     0.074 A 
ATOM     54  C   UNL A   1      41.806  35.592  35.525  1.00  0.00     0.049 A 
ATOM     55  N   UNL A   1      43.525  37.968  34.755  1.00  0.00    -0.248 NA
ATOM     56  C   UNL A   1      43.571  37.127  32.577  1.00  0.00     0.031 C 
ATOM     57  C   UNL A   1      40.971  34.466  35.935  1.00  0.00     0.029 A 
ATOM     58  N   UNL A   1      41.852  36.401  36.633  1.00  0.00    -0.354 N 
ATOM     59  C   UNL A   1      44.225  38.846  33.934  1.00  0.00     0.074 A 
ATOM     60  C   UNL A   1      44.257  38.258  32.612  1.00  0.00     0.031 C 
ATOM     61  C   UNL A   1      40.600  34.645  37.217  1.00  0.00     0.029 A 
ATOM     62  C   UNL A   1      41.221  35.866  37.733  1.00  0.00     0.049 A 
ATOM     63  H   UNL A   1      42.294  37.279  36.641  1.00  0.00     0.167 HD
ATOM     64  C   UNL A   1      44.785  40.037  34.253  1.00  0.00     0.034 A 
ATOM     65  C   UNL A   1      41.189  36.296  39.013  1.00  0.00     0.034 A 
ATOM     66  C   UNL A   1      44.759  40.596  35.580  1.00  0.00     0.049 A 
ATOM     67  C   UNL A   1      41.935  37.566  39.377  1.00  0.00     0.074 A 
ATOM     68  C   UNL A   1      45.320  41.779  36.027  1.00  0.00     0.029 A 
ATOM     69  N   UNL A   1      44.140  40.009  36.674  1.00  0.00    -0.354 N 
ATOM     70  N   UNL A   1      42.627  38.371  38.603  1.00  0.00    -0.248 NA
ATOM     71  C   UNL A   1      41.893  37.987  40.785  1.00  0.00     0.031 C 
ATOM     72  C   UNL A   1      45.101  41.873  37.404  1.00  0.00     0.029 A 
ATOM     73  C   UNL A   1      44.321  40.797  37.798  1.00  0.00     0.049 A 
ATOM     74  H   UNL A   1      43.645  39.159  36.655  1.00  0.00     0.167 HD
ATOM     75  C   UNL A   1      43.045  39.421  39.420  1.00  0.00     0.074 A 
ATOM     76  C   UNL A   1      42.534  39.145  40.745  1.00  0.00     0.031 C 
ATOM     77  C   UNL A   1      43.775  40.521  39.104  1.00  0.00     0.034 A 
BRANCH  64  78
ATOM     78  C   UNL A   1      45.507  40.782  33.161  1.00  0.00     0.023 A 
ATOM     79  C   UNL A   1      44.827  41.647  32.287  1.00  0.00     0.031 A 
ATOM     80  C   UNL A   1      46.892  40.621  32.986  1.00  0.00     0.131 A 
ATOM     81  C   UNL A   1      45.523  42.275  31.244  1.00  0.00     0.055 A 
ATOM     82  C   UNL A   1      47.593  41.311  31.995  1.00  0.00     0.041 A 
ATOM     83  F   UNL A   1      47.588  39.785  33.772  1.00  0.00    -0.206 F 
ATOM     84  C   UNL A   1      46.906  42.136  31.110  1.00  0.00     0.022 A 
BRANCH  81  85
ATOM     85  S   UNL A   1      44.574  43.177  29.990  1.00  0.00     0.124 S 
ATOM     86  O   UNL A   1      45.516  44.225  29.604  1.00  0.00    -0.237 OA
ATOM     87  O   UNL A   1      44.316  42.150  28.988  1.00  0.00    -0.237 OA
ATOM     88  O   UNL A   1      43.398  43.645  30.721  1.00  0.00    -0.744 OA
ENDBRANCH  81  85
ENDBRANCH  64  78
BRANCH  65  89
ATOM     89  C   UNL A   1      40.480  35.516  40.072  1.00  0.00     0.023 A 
ATOM     90  C   UNL A   1      41.058  34.359  40.618  1.00  0.00     0.031 A 
ATOM     91  C   UNL A   1      39.174  35.846  40.476  1.00  0.00     0.131 A 
ATOM     92  C   UNL A   1      40.308  33.532  41.469  1.00  0.00     0.055 A 
ATOM     93  C   UNL A   1      38.459  35.061  41.384  1.00  0.00     0.041 A 
ATOM     94  F   UNL A   1      38.562  36.935  39.982  1.00  0.00    -0.206 F 
ATOM     95  C   UNL A   1      39.017  33.884  41.870  1.00  0.00     0.022 A 
BRANCH  92  96
ATOM     96  S   UNL A   1      40.988  31.910  41.912  1.00  0.00     0.124 S 
ATOM     97  O   UNL A   1      41.758  31.579  40.719  1.00  0.00    -0.237 OA
ATOM     98  O   UNL A   1      41.761  32.223  43.109  1.00  0.00    -0.237 OA
ATOM     99  O   UNL A   1      39.797  31.092  42.135  1.00  0.00    -0.744 OA
ENDBRANCH  92  96
ENDBRANCH  65  89
BRANCH  77 100
ATOM    100  C   UNL A   1      43.974  41.566  40.177  1.00  0.00     0.023 A 
ATOM    101  C   UNL A   1      43.019  42.559  40.450  1.00  0.00     0.031 A 
ATOM    102  C   UNL A   1      45.139  41.532  40.967  1.00  0.00     0.131 A 
ATOM    103  C   UNL A   1      43.265  43.502  41.461  1.00  0.00     0.055 A 
ATOM    104  C   UNL A   1      45.349  42.433  42.010  1.00  0.00     0.041 A 
ATOM    105  F   UNL A   1      46.085  40.604  40.749  1.00  0.00    -0.206 F 
ATOM    106  C   UNL A   1      44.413  43.432  42.256  1.00  0.00     0.022 A 
BRANCH 103 107
ATOM    107  S   UNL A   1      42.093  44.869  41.686  1.00  0.00     0.124 S 
ATOM    108  O   UNL A   1      41.916  44.883  43.135  1.00  0.00    -0.237 OA
ATOM    109  O   UNL A   1      42.820  46.001  41.122  1.00  0.00    -0.237 OA
ATOM    110  O   UNL A   1      40.921  44.445  40.922  1.00  0.00    -0.744 OA
ENDBRANCH 103 107
ENDBRANCH  77 100
ENDBRANCH  51  52
ENDBRANCH  44  46
ENDBRANCH  43  44
ENDBRANCH  42  43
ENDBRANCH  41  42
ENDBRANCH  40  41
ENDBRANCH  39  40
ENDBRANCH  38  39
ENDBRANCH  37  38
ENDBRANCH   1  37
TORSDOF 28
ENDMDL
