MODEL 1
REMARK VINA RESULT:     -10.2      0.000      0.000
REMARK SMILES COc1cccc(C(=O)/C=C(/Nc2cc(C)c(C)cc2[N+](=O)[O-])C(=O)OCCOCCOCCOCCOC(=O)c2ccc(-c3c4nc(c(-c5cc(S(=O)(=O)[O-])ccc5F)c5ccc([nH]5)c(-c5cc(S(=O)(=O)[O-])ccc5F)c5nc(c(-c6cc(S(=O)(=O)[O-])ccc6F)c6ccc3[nH]6)C=C5)C=C4)cc2)c1
REMARK SMILES IDX 32 1 31 2 30 3 29 4 28 5 27 6 26 7 24 8 25 9 11 10 10 11
REMARK SMILES IDX 8 12 9 13 7 14 3 15 4 16 104 17 5 18 6 19 2 20 1 21 12 22
REMARK SMILES IDX 13 24 14 25 20 26 15 27 19 28 16 29 17 30 18 31 21 32 22 33
REMARK SMILES IDX 23 34 33 35 34 36 35 37 36 38 37 39 38 40 39 41 40 42 41 43
REMARK SMILES IDX 42 44 103 45 43 46 102 47 44 48 45 49 46 50 96 51 47 52
REMARK SMILES IDX 101 53 95 54 97 55 48 56 100 57 94 58 93 59 49 61 81 62
REMARK SMILES IDX 61 63 80 64 62 65 65 66 79 67 98 68 63 69 64 70 78 72 99 73
REMARK SMILES IDX 66 74 50 75 51 76 59 77 52 78 58 79 60 80 57 81 53 82 54 83
REMARK SMILES IDX 55 84 56 85 82 86 83 87 91 88 84 89 90 90 92 91 89 92 85 93
REMARK SMILES IDX 86 94 87 95 88 96 67 97 68 98 76 99 69 100 75 101 77 102
REMARK SMILES IDX 74 103 70 104 71 105 72 106 73 107
REMARK H PARENT 12 23 97 60 65 71
REMARK Flexibility Score: inf
ROOT
ATOM      1  O   UNL A   1      29.785  27.193  23.889  1.00  0.00    -0.377 OA
ENDROOT
BRANCH   1   2
ATOM      2  C   UNL A   1      30.651  26.668  24.885  1.00  0.00     0.188 C 
BRANCH   2   3
ATOM      3  C   UNL A   1      30.130  25.425  25.616  1.00  0.00     0.188 C 
BRANCH   3   4
ATOM      4  O   UNL A   1      30.886  24.237  25.522  1.00  0.00    -0.376 OA
BRANCH   4   5
ATOM      5  C   UNL A   1      32.042  23.886  26.259  1.00  0.00     0.202 C 
BRANCH   5   6
ATOM      6  C   UNL A   1      32.691  22.515  26.296  1.00  0.00     0.261 C 
BRANCH   6   7
ATOM      7  O   UNL A   1      34.026  22.625  25.895  1.00  0.00    -0.459 OA
BRANCH   7   8
ATOM      8  C   UNL A   1      34.376  21.911  24.817  1.00  0.00     0.354 C 
ATOM      9  O   UNL A   1      34.308  20.722  24.627  1.00  0.00    -0.244 OA
BRANCH   8  10
ATOM     10  C   UNL A   1      35.012  22.887  23.929  1.00  0.00     0.129 C 
ATOM     11  C   UNL A   1      36.360  22.839  23.988  1.00  0.00     0.086 C 
BRANCH  11  12
ATOM     12  C   UNL A   1      37.444  22.038  24.739  1.00  0.00     0.188 C 
ATOM     13  O   UNL A   1      37.382  20.813  24.565  1.00  0.00    -0.289 OA
BRANCH  12  14
ATOM     14  C   UNL A   1      38.435  22.491  25.800  1.00  0.00     0.026 A 
ATOM     15  C   UNL A   1      40.371  22.291  27.312  1.00  0.00     0.119 A 
ATOM     16  C   UNL A   1      40.204  23.595  27.763  1.00  0.00     0.046 A 
ATOM     17  C   UNL A   1      39.429  21.725  26.422  1.00  0.00     0.058 A 
ATOM     18  C   UNL A   1      39.128  24.337  27.284  1.00  0.00     0.005 A 
ATOM     19  C   UNL A   1      38.271  23.801  26.303  1.00  0.00     0.012 A 
BRANCH  15  20
ATOM     20  O   UNL A   1      41.420  21.508  27.728  1.00  0.00    -0.497 OA
ATOM     21  C   UNL A   1      42.014  20.677  26.714  1.00  0.00     0.278 C 
ENDBRANCH  15  20
ENDBRANCH  12  14
ENDBRANCH  11  12
BRANCH  10  22
ATOM     22  N   UNL A   1      34.139  23.583  23.058  1.00  0.00    -0.344 N 
ATOM     23  H   UNL A   1      33.735  23.069  22.322  1.00  0.00     0.167 HD
BRANCH  22  24
ATOM     24  C   UNL A   1      33.792  24.976  23.158  1.00  0.00     0.118 A 
ATOM     25  C   UNL A   1      34.006  25.665  24.373  1.00  0.00     0.037 A 
ATOM     26  C   UNL A   1      33.441  25.796  22.061  1.00  0.00     0.292 A 
ATOM     27  C   UNL A   1      33.978  27.090  24.454  1.00  0.00    -0.046 A 
ATOM     28  C   UNL A   1      33.594  27.194  22.088  1.00  0.00     0.091 A 
ATOM     29  C   UNL A   1      34.004  27.759  25.807  1.00  0.00     0.045 C 
ATOM     30  C   UNL A   1      33.913  27.853  23.275  1.00  0.00    -0.041 A 
ATOM     31  C   UNL A   1      34.057  29.355  23.243  1.00  0.00     0.045 C 
BRANCH  26  32
ATOM     32  N   UNL A   1      32.722  25.245  20.904  1.00  0.00     0.064 N 
ATOM     33  O   UNL A   1      33.138  24.182  20.420  1.00  0.00    -0.258 OA
ATOM     34  O   UNL A   1      31.789  25.915  20.436  1.00  0.00    -0.258 OA
ENDBRANCH  26  32
ENDBRANCH  22  24
ENDBRANCH  10  22
ENDBRANCH   8  10
ENDBRANCH   7   8
ENDBRANCH   6   7
ENDBRANCH   5   6
ENDBRANCH   4   5
ENDBRANCH   3   4
ENDBRANCH   2   3
ENDBRANCH   1   2
BRANCH   1  35
ATOM     35  C   UNL A   1      29.979  28.576  23.628  1.00  0.00     0.188 C 
BRANCH  35  36
ATOM     36  C   UNL A   1      30.953  29.309  24.589  1.00  0.00     0.188 C 
BRANCH  36  37
ATOM     37  O   UNL A   1      30.708  30.627  25.049  1.00  0.00    -0.376 OA
BRANCH  37  38
ATOM     38  C   UNL A   1      31.403  31.107  26.184  1.00  0.00     0.202 C 
BRANCH  38  39
ATOM     39  C   UNL A   1      32.863  30.695  26.454  1.00  0.00     0.261 C 
BRANCH  39  40
ATOM     40  O   UNL A   1      33.382  30.925  27.774  1.00  0.00    -0.460 OA
BRANCH  40  41
ATOM     41  C   UNL A   1      34.282  31.936  27.892  1.00  0.00     0.338 C 
ATOM     42  O   UNL A   1      34.039  33.129  27.847  1.00  0.00    -0.246 OA
BRANCH  41  43
ATOM     43  C   UNL A   1      35.586  31.380  28.346  1.00  0.00     0.060 A 
ATOM     44  C   UNL A   1      35.665  30.008  28.648  1.00  0.00     0.016 A 
ATOM     45  C   UNL A   1      36.725  32.181  28.443  1.00  0.00     0.016 A 
ATOM     46  C   UNL A   1      36.863  29.443  29.085  1.00  0.00     0.010 A 
ATOM     47  C   UNL A   1      37.914  31.624  28.932  1.00  0.00     0.010 A 
ATOM     48  C   UNL A   1      37.974  30.266  29.297  1.00  0.00    -0.014 A 
BRANCH  48  49
ATOM     49  C   UNL A   1      39.068  29.786  30.180  1.00  0.00     0.031 A 
ATOM     50  C   UNL A   1      39.091  30.317  31.591  1.00  0.00     0.074 A 
ATOM     51  C   UNL A   1      39.981  28.884  29.779  1.00  0.00     0.049 A 
ATOM     52  N   UNL A   1      39.985  30.155  32.530  1.00  0.00    -0.248 NA
ATOM     53  C   UNL A   1      37.944  31.152  31.991  1.00  0.00     0.031 C 
ATOM     54  C   UNL A   1      40.009  28.227  28.473  1.00  0.00     0.029 A 
ATOM     55  N   UNL A   1      41.072  28.369  30.436  1.00  0.00    -0.354 N 
ATOM     56  C   UNL A   1      39.513  30.869  33.626  1.00  0.00     0.074 A 
ATOM     57  C   UNL A   1      38.274  31.498  33.224  1.00  0.00     0.031 C 
ATOM     58  C   UNL A   1      41.078  27.411  28.421  1.00  0.00     0.029 A 
ATOM     59  C   UNL A   1      41.837  27.524  29.667  1.00  0.00     0.049 A 
ATOM     60  H   UNL A   1      41.286  28.586  31.373  1.00  0.00     0.167 HD
ATOM     61  C   UNL A   1      40.055  30.982  34.862  1.00  0.00     0.034 A 
ATOM     62  C   UNL A   1      43.027  26.944  29.930  1.00  0.00     0.034 A 
ATOM     63  C   UNL A   1      41.294  30.359  35.248  1.00  0.00     0.049 A 
ATOM     64  C   UNL A   1      43.681  27.190  31.278  1.00  0.00     0.074 A 
ATOM     65  C   UNL A   1      41.949  30.427  36.465  1.00  0.00     0.029 A 
ATOM     66  N   UNL A   1      42.068  29.554  34.423  1.00  0.00    -0.354 N 
ATOM     67  N   UNL A   1      43.237  27.890  32.298  1.00  0.00    -0.248 NA
ATOM     68  C   UNL A   1      44.988  26.562  31.511  1.00  0.00     0.031 C 
ATOM     69  C   UNL A   1      43.152  29.726  36.353  1.00  0.00     0.029 A 
ATOM     70  C   UNL A   1      43.205  29.141  35.098  1.00  0.00     0.049 A 
ATOM     71  H   UNL A   1      41.842  29.312  33.496  1.00  0.00     0.167 HD
ATOM     72  C   UNL A   1      44.191  27.740  33.306  1.00  0.00     0.074 A 
ATOM     73  C   UNL A   1      45.222  26.874  32.776  1.00  0.00     0.031 C 
ATOM     74  C   UNL A   1      44.214  28.264  34.558  1.00  0.00     0.034 A 
BRANCH  61  75
ATOM     75  C   UNL A   1      39.334  31.844  35.866  1.00  0.00     0.023 A 
ATOM     76  C   UNL A   1      38.625  31.287  36.944  1.00  0.00     0.031 A 
ATOM     77  C   UNL A   1      39.357  33.245  35.745  1.00  0.00     0.131 A 
ATOM     78  C   UNL A   1      37.930  32.122  37.830  1.00  0.00     0.055 A 
ATOM     79  C   UNL A   1      38.728  34.074  36.674  1.00  0.00     0.041 A 
ATOM     80  F   UNL A   1      39.993  33.830  34.718  1.00  0.00    -0.206 F 
ATOM     81  C   UNL A   1      38.002  33.513  37.720  1.00  0.00     0.022 A 
BRANCH  78  82
ATOM     82  S   UNL A   1      36.836  31.363  39.061  1.00  0.00     0.124 S 
ATOM     83  O   UNL A   1      35.743  32.330  39.117  1.00  0.00    -0.237 OA
ATOM     84  O   UNL A   1      36.520  30.077  38.452  1.00  0.00    -0.237 OA
ATOM     85  O   UNL A   1      37.666  31.298  40.262  1.00  0.00    -0.744 OA
ENDBRANCH  78  82
ENDBRANCH  61  75
BRANCH  62  86
ATOM     86  C   UNL A   1      43.732  26.119  28.900  1.00  0.00     0.023 A 
ATOM     87  C   UNL A   1      44.535  26.720  27.917  1.00  0.00     0.031 A 
ATOM     88  C   UNL A   1      43.517  24.731  28.808  1.00  0.00     0.131 A 
ATOM     89  C   UNL A   1      45.017  25.959  26.841  1.00  0.00     0.055 A 
ATOM     90  C   UNL A   1      44.064  23.964  27.777  1.00  0.00     0.041 A 
ATOM     91  F   UNL A   1      42.756  24.096  29.715  1.00  0.00    -0.206 F 
ATOM     92  C   UNL A   1      44.801  24.581  26.772  1.00  0.00     0.022 A 
BRANCH  89  93
ATOM     93  S   UNL A   1      45.794  26.825  25.449  1.00  0.00     0.124 S 
ATOM     94  O   UNL A   1      46.179  25.711  24.590  1.00  0.00    -0.237 OA
ATOM     95  O   UNL A   1      44.699  27.660  24.966  1.00  0.00    -0.237 OA
ATOM     96  O   UNL A   1      46.901  27.546  26.074  1.00  0.00    -0.744 OA
ENDBRANCH  89  93
ENDBRANCH  62  86
BRANCH  74  97
ATOM     97  C   UNL A   1      45.350  27.852  35.467  1.00  0.00     0.023 A 
ATOM     98  C   UNL A   1      45.387  26.595  36.092  1.00  0.00     0.031 A 
ATOM     99  C   UNL A   1      46.416  28.739  35.705  1.00  0.00     0.131 A 
ATOM    100  C   UNL A   1      46.436  26.282  36.973  1.00  0.00     0.055 A 
ATOM    101  C   UNL A   1      47.491  28.396  36.524  1.00  0.00     0.041 A 
ATOM    102  F   UNL A   1      46.433  29.955  35.135  1.00  0.00    -0.206 F 
ATOM    103  C   UNL A   1      47.498  27.168  37.176  1.00  0.00     0.022 A 
BRANCH 100 104
ATOM    104  S   UNL A   1      46.339  24.745  37.930  1.00  0.00     0.124 S 
ATOM    105  O   UNL A   1      47.202  23.855  37.161  1.00  0.00    -0.237 OA
ATOM    106  O   UNL A   1      46.850  25.158  39.233  1.00  0.00    -0.237 OA
ATOM    107  O   UNL A   1      44.917  24.411  37.899  1.00  0.00    -0.744 OA
ENDBRANCH 100 104
ENDBRANCH  74  97
ENDBRANCH  48  49
ENDBRANCH  41  43
ENDBRANCH  40  41
ENDBRANCH  39  40
ENDBRANCH  38  39
ENDBRANCH  37  38
ENDBRANCH  36  37
ENDBRANCH  35  36
ENDBRANCH   1  35
TORSDOF 29
ENDMDL
MODEL 2
REMARK VINA RESULT:      -9.9      2.357      2.796
REMARK SMILES COc1cccc(C(=O)/C=C(/Nc2cc(C)c(C)cc2[N+](=O)[O-])C(=O)OCCOCCOCCOCCOC(=O)c2ccc(-c3c4nc(c(-c5cc(S(=O)(=O)[O-])ccc5F)c5ccc([nH]5)c(-c5cc(S(=O)(=O)[O-])ccc5F)c5nc(c(-c6cc(S(=O)(=O)[O-])ccc6F)c6ccc3[nH]6)C=C5)C=C4)cc2)c1
REMARK SMILES IDX 32 1 31 2 30 3 29 4 28 5 27 6 26 7 24 8 25 9 11 10 10 11
REMARK SMILES IDX 8 12 9 13 7 14 3 15 4 16 104 17 5 18 6 19 2 20 1 21 12 22
REMARK SMILES IDX 13 24 14 25 20 26 15 27 19 28 16 29 17 30 18 31 21 32 22 33
REMARK SMILES IDX 23 34 33 35 34 36 35 37 36 38 37 39 38 40 39 41 40 42 41 43
REMARK SMILES IDX 42 44 103 45 43 46 102 47 44 48 45 49 46 50 96 51 47 52
REMARK SMILES IDX 101 53 95 54 97 55 48 56 100 57 94 58 93 59 49 61 81 62
REMARK SMILES IDX 61 63 80 64 62 65 65 66 79 67 98 68 63 69 64 70 78 72 99 73
REMARK SMILES IDX 66 74 50 75 51 76 59 77 52 78 58 79 60 80 57 81 53 82 54 83
REMARK SMILES IDX 55 84 56 85 82 86 83 87 91 88 84 89 90 90 92 91 89 92 85 93
REMARK SMILES IDX 86 94 87 95 88 96 67 97 68 98 76 99 69 100 75 101 77 102
REMARK SMILES IDX 74 103 70 104 71 105 72 106 73 107
REMARK H PARENT 12 23 97 60 65 71
REMARK Flexibility Score: inf
ROOT
ATOM      1  O   UNL A   1      29.442  27.088  23.797  1.00  0.00    -0.377 OA
ENDROOT
BRANCH   1   2
ATOM      2  C   UNL A   1      30.480  26.547  24.601  1.00  0.00     0.188 C 
BRANCH   2   3
ATOM      3  C   UNL A   1      30.012  25.784  25.846  1.00  0.00     0.188 C 
BRANCH   3   4
ATOM      4  O   UNL A   1      30.265  24.397  25.907  1.00  0.00    -0.376 OA
BRANCH   4   5
ATOM      5  C   UNL A   1      31.476  23.752  26.252  1.00  0.00     0.202 C 
BRANCH   5   6
ATOM      6  C   UNL A   1      31.886  22.350  25.841  1.00  0.00     0.261 C 
BRANCH   6   7
ATOM      7  O   UNL A   1      33.212  22.367  25.398  1.00  0.00    -0.459 OA
BRANCH   7   8
ATOM      8  C   UNL A   1      33.445  21.775  24.220  1.00  0.00     0.354 C 
ATOM      9  O   UNL A   1      33.037  20.723  23.794  1.00  0.00    -0.244 OA
BRANCH   8  10
ATOM     10  C   UNL A   1      34.448  22.630  23.580  1.00  0.00     0.129 C 
ATOM     11  C   UNL A   1      35.712  22.249  23.863  1.00  0.00     0.086 C 
BRANCH  11  12
ATOM     12  C   UNL A   1      36.416  21.152  24.688  1.00  0.00     0.188 C 
ATOM     13  O   UNL A   1      35.684  20.203  25.001  1.00  0.00    -0.289 OA
BRANCH  12  14
ATOM     14  C   UNL A   1      37.793  21.148  25.335  1.00  0.00     0.026 A 
ATOM     15  C   UNL A   1      39.701  22.080  26.587  1.00  0.00     0.119 A 
ATOM     16  C   UNL A   1      40.386  20.872  26.518  1.00  0.00     0.046 A 
ATOM     17  C   UNL A   1      38.469  22.232  25.909  1.00  0.00     0.058 A 
ATOM     18  C   UNL A   1      39.813  19.815  25.816  1.00  0.00     0.005 A 
ATOM     19  C   UNL A   1      38.529  19.945  25.253  1.00  0.00     0.012 A 
BRANCH  15  20
ATOM     20  O   UNL A   1      40.198  23.159  27.277  1.00  0.00    -0.497 OA
ATOM     21  C   UNL A   1      39.380  24.343  27.249  1.00  0.00     0.278 C 
ENDBRANCH  15  20
ENDBRANCH  12  14
ENDBRANCH  11  12
BRANCH  10  22
ATOM     22  N   UNL A   1      33.943  23.582  22.661  1.00  0.00    -0.344 N 
ATOM     23  H   UNL A   1      33.771  23.274  21.742  1.00  0.00     0.167 HD
BRANCH  22  24
ATOM     24  C   UNL A   1      33.661  24.962  22.956  1.00  0.00     0.118 A 
ATOM     25  C   UNL A   1      33.893  25.460  24.258  1.00  0.00     0.037 A 
ATOM     26  C   UNL A   1      33.361  25.945  21.985  1.00  0.00     0.292 A 
ATOM     27  C   UNL A   1      33.932  26.859  24.542  1.00  0.00    -0.046 A 
ATOM     28  C   UNL A   1      33.580  27.317  22.213  1.00  0.00     0.091 A 
ATOM     29  C   UNL A   1      33.974  27.327  25.976  1.00  0.00     0.045 C 
ATOM     30  C   UNL A   1      33.916  27.784  23.483  1.00  0.00    -0.041 A 
ATOM     31  C   UNL A   1      34.131  29.267  23.666  1.00  0.00     0.045 C 
BRANCH  26  32
ATOM     32  N   UNL A   1      32.630  25.600  20.759  1.00  0.00     0.064 N 
ATOM     33  O   UNL A   1      31.502  26.092  20.605  1.00  0.00    -0.258 OA
ATOM     34  O   UNL A   1      33.152  24.779  19.991  1.00  0.00    -0.258 OA
ENDBRANCH  26  32
ENDBRANCH  22  24
ENDBRANCH  10  22
ENDBRANCH   8  10
ENDBRANCH   7   8
ENDBRANCH   6   7
ENDBRANCH   5   6
ENDBRANCH   4   5
ENDBRANCH   3   4
ENDBRANCH   2   3
ENDBRANCH   1   2
BRANCH   1  35
ATOM     35  C   UNL A   1      29.666  28.432  23.394  1.00  0.00     0.188 C 
BRANCH  35  36
ATOM     36  C   UNL A   1      30.657  29.239  24.276  1.00  0.00     0.188 C 
BRANCH  36  37
ATOM     37  O   UNL A   1      30.449  30.606  24.586  1.00  0.00    -0.376 OA
BRANCH  37  38
ATOM     38  C   UNL A   1      30.989  31.137  25.780  1.00  0.00     0.202 C 
BRANCH  38  39
ATOM     39  C   UNL A   1      32.388  30.720  26.273  1.00  0.00     0.261 C 
BRANCH  39  40
ATOM     40  O   UNL A   1      32.759  31.101  27.608  1.00  0.00    -0.460 OA
BRANCH  40  41
ATOM     41  C   UNL A   1      33.573  32.183  27.713  1.00  0.00     0.338 C 
ATOM     42  O   UNL A   1      33.222  33.349  27.775  1.00  0.00    -0.246 OA
BRANCH  41  43
ATOM     43  C   UNL A   1      34.960  31.727  28.003  1.00  0.00     0.060 A 
ATOM     44  C   UNL A   1      35.223  30.345  28.029  1.00  0.00     0.016 A 
ATOM     45  C   UNL A   1      35.997  32.636  28.214  1.00  0.00     0.016 A 
ATOM     46  C   UNL A   1      36.505  29.869  28.305  1.00  0.00     0.010 A 
ATOM     47  C   UNL A   1      37.272  32.158  28.542  1.00  0.00     0.010 A 
ATOM     48  C   UNL A   1      37.519  30.775  28.633  1.00  0.00    -0.014 A 
BRANCH  48  49
ATOM     49  C   UNL A   1      38.713  30.284  29.366  1.00  0.00     0.031 A 
ATOM     50  C   UNL A   1      38.880  30.746  30.792  1.00  0.00     0.074 A 
ATOM     51  C   UNL A   1      39.597  29.429  28.822  1.00  0.00     0.049 A 
ATOM     52  N   UNL A   1      39.875  30.564  31.618  1.00  0.00    -0.248 NA
ATOM     53  C   UNL A   1      37.765  31.527  31.357  1.00  0.00     0.031 C 
ATOM     54  C   UNL A   1      39.497  28.837  27.489  1.00  0.00     0.029 A 
ATOM     55  N   UNL A   1      40.765  28.914  29.330  1.00  0.00    -0.354 N 
ATOM     56  C   UNL A   1      39.510  31.210  32.795  1.00  0.00     0.074 A 
ATOM     57  C   UNL A   1      38.221  31.822  32.563  1.00  0.00     0.031 C 
ATOM     58  C   UNL A   1      40.572  28.055  27.279  1.00  0.00     0.029 A 
ATOM     59  C   UNL A   1      41.460  28.129  28.439  1.00  0.00     0.049 A 
ATOM     60  H   UNL A   1      41.076  29.090  30.248  1.00  0.00     0.167 HD
ATOM     61  C   UNL A   1      40.182  31.278  33.968  1.00  0.00     0.034 A 
ATOM     62  C   UNL A   1      42.685  27.571  28.542  1.00  0.00     0.034 A 
ATOM     63  C   UNL A   1      41.470  30.672  34.185  1.00  0.00     0.049 A 
ATOM     64  C   UNL A   1      43.477  27.769  29.821  1.00  0.00     0.074 A 
ATOM     65  C   UNL A   1      42.253  30.700  35.325  1.00  0.00     0.029 A 
ATOM     66  N   UNL A   1      42.166  29.930  33.241  1.00  0.00    -0.354 N 
ATOM     67  N   UNL A   1      43.132  28.406  30.918  1.00  0.00    -0.248 NA
ATOM     68  C   UNL A   1      44.816  27.168  29.878  1.00  0.00     0.031 C 
ATOM     69  C   UNL A   1      43.452  30.040  35.048  1.00  0.00     0.029 A 
ATOM     70  C   UNL A   1      43.380  29.518  33.766  1.00  0.00     0.049 A 
ATOM     71  H   UNL A   1      41.846  29.728  32.332  1.00  0.00     0.167 HD
ATOM     72  C   UNL A   1      44.195  28.234  31.807  1.00  0.00     0.074 A 
ATOM     73  C   UNL A   1      45.181  27.425  31.124  1.00  0.00     0.031 C 
ATOM     74  C   UNL A   1      44.344  28.697  33.075  1.00  0.00     0.034 A 
BRANCH  61  75
ATOM     75  C   UNL A   1      39.556  32.069  35.088  1.00  0.00     0.023 A 
ATOM     76  C   UNL A   1      39.901  33.411  35.327  1.00  0.00     0.031 A 
ATOM     77  C   UNL A   1      38.598  31.475  35.928  1.00  0.00     0.131 A 
ATOM     78  C   UNL A   1      39.329  34.097  36.407  1.00  0.00     0.055 A 
ATOM     79  C   UNL A   1      37.975  32.187  36.953  1.00  0.00     0.041 A 
ATOM     80  F   UNL A   1      38.253  30.187  35.765  1.00  0.00    -0.206 F 
ATOM     81  C   UNL A   1      38.346  33.504  37.203  1.00  0.00     0.022 A 
BRANCH  78  82
ATOM     82  S   UNL A   1      39.972  35.739  36.830  1.00  0.00     0.124 S 
ATOM     83  O   UNL A   1      39.704  36.484  35.601  1.00  0.00    -0.237 OA
ATOM     84  O   UNL A   1      39.166  36.106  37.988  1.00  0.00    -0.237 OA
ATOM     85  O   UNL A   1      41.386  35.493  37.105  1.00  0.00    -0.744 OA
ENDBRANCH  78  82
ENDBRANCH  61  75
BRANCH  62  86
ATOM     86  C   UNL A   1      43.291  26.817  27.400  1.00  0.00     0.023 A 
ATOM     87  C   UNL A   1      43.227  25.414  27.345  1.00  0.00     0.031 A 
ATOM     88  C   UNL A   1      44.045  27.475  26.411  1.00  0.00     0.131 A 
ATOM     89  C   UNL A   1      43.974  24.714  26.384  1.00  0.00     0.055 A 
ATOM     90  C   UNL A   1      44.723  26.777  25.410  1.00  0.00     0.041 A 
ATOM     91  F   UNL A   1      44.148  28.814  26.410  1.00  0.00    -0.206 F 
ATOM     92  C   UNL A   1      44.709  25.386  25.406  1.00  0.00     0.022 A 
BRANCH  89  93
ATOM     93  S   UNL A   1      44.098  22.910  26.533  1.00  0.00     0.124 S 
ATOM     94  O   UNL A   1      43.347  22.469  25.362  1.00  0.00    -0.237 OA
ATOM     95  O   UNL A   1      45.541  22.704  26.485  1.00  0.00    -0.237 OA
ATOM     96  O   UNL A   1      43.469  22.632  27.822  1.00  0.00    -0.744 OA
ENDBRANCH  89  93
ENDBRANCH  62  86
BRANCH  74  97
ATOM     97  C   UNL A   1      45.581  28.274  33.832  1.00  0.00     0.023 A 
ATOM     98  C   UNL A   1      46.747  29.058  33.858  1.00  0.00     0.031 A 
ATOM     99  C   UNL A   1      45.587  27.060  34.545  1.00  0.00     0.131 A 
ATOM    100  C   UNL A   1      47.889  28.592  34.528  1.00  0.00     0.055 A 
ATOM    101  C   UNL A   1      46.701  26.636  35.269  1.00  0.00     0.041 A 
ATOM    102  F   UNL A   1      44.502  26.269  34.556  1.00  0.00    -0.206 F 
ATOM    103  C   UNL A   1      47.866  27.396  35.251  1.00  0.00     0.022 A 
BRANCH 100 104
ATOM    104  S   UNL A   1      49.438  29.519  34.357  1.00  0.00     0.124 S 
ATOM    105  O   UNL A   1      50.377  28.472  33.970  1.00  0.00    -0.237 OA
ATOM    106  O   UNL A   1      49.106  30.490  33.320  1.00  0.00    -0.237 OA
ATOM    107  O   UNL A   1      49.649  30.082  35.689  1.00  0.00    -0.744 OA
ENDBRANCH 100 104
ENDBRANCH  74  97
ENDBRANCH  48  49
ENDBRANCH  41  43
ENDBRANCH  40  41
ENDBRANCH  39  40
ENDBRANCH  38  39
ENDBRANCH  37  38
ENDBRANCH  36  37
ENDBRANCH  35  36
ENDBRANCH   1  35
TORSDOF 29
ENDMDL
MODEL 3
REMARK VINA RESULT:      -9.3      1.643      7.138
REMARK SMILES COc1cccc(C(=O)/C=C(/Nc2cc(C)c(C)cc2[N+](=O)[O-])C(=O)OCCOCCOCCOCCOC(=O)c2ccc(-c3c4nc(c(-c5cc(S(=O)(=O)[O-])ccc5F)c5ccc([nH]5)c(-c5cc(S(=O)(=O)[O-])ccc5F)c5nc(c(-c6cc(S(=O)(=O)[O-])ccc6F)c6ccc3[nH]6)C=C5)C=C4)cc2)c1
REMARK SMILES IDX 32 1 31 2 30 3 29 4 28 5 27 6 26 7 24 8 25 9 11 10 10 11
REMARK SMILES IDX 8 12 9 13 7 14 3 15 4 16 104 17 5 18 6 19 2 20 1 21 12 22
REMARK SMILES IDX 13 24 14 25 20 26 15 27 19 28 16 29 17 30 18 31 21 32 22 33
REMARK SMILES IDX 23 34 33 35 34 36 35 37 36 38 37 39 38 40 39 41 40 42 41 43
REMARK SMILES IDX 42 44 103 45 43 46 102 47 44 48 45 49 46 50 96 51 47 52
REMARK SMILES IDX 101 53 95 54 97 55 48 56 100 57 94 58 93 59 49 61 81 62
REMARK SMILES IDX 61 63 80 64 62 65 65 66 79 67 98 68 63 69 64 70 78 72 99 73
REMARK SMILES IDX 66 74 50 75 51 76 59 77 52 78 58 79 60 80 57 81 53 82 54 83
REMARK SMILES IDX 55 84 56 85 82 86 83 87 91 88 84 89 90 90 92 91 89 92 85 93
REMARK SMILES IDX 86 94 87 95 88 96 67 97 68 98 76 99 69 100 75 101 77 102
REMARK SMILES IDX 74 103 70 104 71 105 72 106 73 107
REMARK H PARENT 12 23 97 60 65 71
REMARK Flexibility Score: inf
ROOT
ATOM      1  O   UNL A   1      30.006  27.028  23.704  1.00  0.00    -0.377 OA
ENDROOT
BRANCH   1   2
ATOM      2  C   UNL A   1      30.586  26.471  24.874  1.00  0.00     0.188 C 
BRANCH   2   3
ATOM      3  C   UNL A   1      29.883  25.224  25.423  1.00  0.00     0.188 C 
BRANCH   3   4
ATOM      4  O   UNL A   1      30.574  23.995  25.366  1.00  0.00    -0.376 OA
BRANCH   4   5
ATOM      5  C   UNL A   1      31.884  23.716  25.823  1.00  0.00     0.202 C 
BRANCH   5   6
ATOM      6  C   UNL A   1      32.475  22.335  26.040  1.00  0.00     0.261 C 
BRANCH   6   7
ATOM      7  O   UNL A   1      33.832  22.354  25.701  1.00  0.00    -0.459 OA
BRANCH   7   8
ATOM      8  C   UNL A   1      34.159  21.745  24.554  1.00  0.00     0.354 C 
ATOM      9  O   UNL A   1      33.994  20.599  24.218  1.00  0.00    -0.244 OA
BRANCH   8  10
ATOM     10  C   UNL A   1      34.914  22.758  23.812  1.00  0.00     0.129 C 
ATOM     11  C   UNL A   1      36.246  22.663  24.013  1.00  0.00     0.086 C 
BRANCH  11  12
ATOM     12  C   UNL A   1      37.219  21.778  24.820  1.00  0.00     0.188 C 
ATOM     13  O   UNL A   1      36.917  20.577  24.839  1.00  0.00    -0.289 OA
BRANCH  12  14
ATOM     14  C   UNL A   1      38.361  22.173  25.744  1.00  0.00     0.026 A 
ATOM     15  C   UNL A   1      40.482  21.878  26.964  1.00  0.00     0.119 A 
ATOM     16  C   UNL A   1      40.416  23.170  27.471  1.00  0.00     0.046 A 
ATOM     17  C   UNL A   1      39.410  21.363  26.198  1.00  0.00     0.058 A 
ATOM     18  C   UNL A   1      39.305  23.953  27.169  1.00  0.00     0.005 A 
ATOM     19  C   UNL A   1      38.306  23.469  26.302  1.00  0.00     0.012 A 
BRANCH  15  20
ATOM     20  O   UNL A   1      41.556  21.056  27.206  1.00  0.00    -0.497 OA
ATOM     21  C   UNL A   1      42.472  20.892  26.108  1.00  0.00     0.278 C 
ENDBRANCH  15  20
ENDBRANCH  12  14
ENDBRANCH  11  12
BRANCH  10  22
ATOM     22  N   UNL A   1      34.160  23.538  22.902  1.00  0.00    -0.344 N 
ATOM     23  H   UNL A   1      33.856  23.098  22.075  1.00  0.00     0.167 HD
BRANCH  22  24
ATOM     24  C   UNL A   1      33.800  24.920  23.082  1.00  0.00     0.118 A 
ATOM     25  C   UNL A   1      34.003  25.537  24.337  1.00  0.00     0.037 A 
ATOM     26  C   UNL A   1      33.445  25.800  22.034  1.00  0.00     0.292 A 
ATOM     27  C   UNL A   1      33.962  26.955  24.502  1.00  0.00    -0.046 A 
ATOM     28  C   UNL A   1      33.585  27.195  22.145  1.00  0.00     0.091 A 
ATOM     29  C   UNL A   1      33.977  27.543  25.893  1.00  0.00     0.045 C 
ATOM     30  C   UNL A   1      33.894  27.786  23.370  1.00  0.00    -0.041 A 
ATOM     31  C   UNL A   1      34.024  29.288  23.428  1.00  0.00     0.045 C 
BRANCH  26  32
ATOM     32  N   UNL A   1      32.735  25.312  20.844  1.00  0.00     0.064 N 
ATOM     33  O   UNL A   1      31.744  25.953  20.463  1.00  0.00    -0.258 OA
ATOM     34  O   UNL A   1      33.123  24.248  20.339  1.00  0.00    -0.258 OA
ENDBRANCH  26  32
ENDBRANCH  22  24
ENDBRANCH  10  22
ENDBRANCH   8  10
ENDBRANCH   7   8
ENDBRANCH   6   7
ENDBRANCH   5   6
ENDBRANCH   4   5
ENDBRANCH   3   4
ENDBRANCH   2   3
ENDBRANCH   1   2
BRANCH   1  35
ATOM     35  C   UNL A   1      30.197  28.430  23.578  1.00  0.00     0.188 C 
BRANCH  35  36
ATOM     36  C   UNL A   1      30.794  29.140  24.823  1.00  0.00     0.188 C 
BRANCH  36  37
ATOM     37  O   UNL A   1      30.961  30.546  24.882  1.00  0.00    -0.376 OA
BRANCH  37  38
ATOM     38  C   UNL A   1      31.359  31.148  26.098  1.00  0.00     0.202 C 
BRANCH  38  39
ATOM     39  C   UNL A   1      32.808  31.025  26.608  1.00  0.00     0.261 C 
BRANCH  39  40
ATOM     40  O   UNL A   1      33.113  31.618  27.881  1.00  0.00    -0.460 OA
BRANCH  40  41
ATOM     41  C   UNL A   1      33.971  32.671  27.856  1.00  0.00     0.338 C 
ATOM     42  O   UNL A   1      33.684  33.832  27.619  1.00  0.00    -0.246 OA
BRANCH  41  43
ATOM     43  C   UNL A   1      35.283  32.247  28.417  1.00  0.00     0.060 A 
ATOM     44  C   UNL A   1      35.397  30.957  28.965  1.00  0.00     0.016 A 
ATOM     45  C   UNL A   1      36.397  33.087  28.378  1.00  0.00     0.016 A 
ATOM     46  C   UNL A   1      36.603  30.518  29.510  1.00  0.00     0.010 A 
ATOM     47  C   UNL A   1      37.594  32.666  28.971  1.00  0.00     0.010 A 
ATOM     48  C   UNL A   1      37.687  31.399  29.579  1.00  0.00    -0.014 A 
BRANCH  48  49
ATOM     49  C   UNL A   1      38.780  31.122  30.546  1.00  0.00     0.031 A 
ATOM     50  C   UNL A   1      39.878  30.194  30.091  1.00  0.00     0.074 A 
ATOM     51  C   UNL A   1      38.835  31.695  31.761  1.00  0.00     0.049 A 
ATOM     52  N   UNL A   1      40.883  29.697  30.762  1.00  0.00    -0.248 NA
ATOM     53  C   UNL A   1      39.827  29.767  28.681  1.00  0.00     0.031 C 
ATOM     54  C   UNL A   1      37.886  32.679  32.280  1.00  0.00     0.029 A 
ATOM     55  N   UNL A   1      39.733  31.523  32.786  1.00  0.00    -0.354 N 
ATOM     56  C   UNL A   1      41.578  28.898  29.861  1.00  0.00     0.074 A 
ATOM     57  C   UNL A   1      40.859  28.943  28.607  1.00  0.00     0.031 C 
ATOM     58  C   UNL A   1      38.244  33.007  33.535  1.00  0.00     0.029 A 
ATOM     59  C   UNL A   1      39.414  32.221  33.928  1.00  0.00     0.049 A 
ATOM     60  H   UNL A   1      40.531  30.951  32.710  1.00  0.00     0.167 HD
ATOM     61  C   UNL A   1      42.721  28.197  30.055  1.00  0.00     0.034 A 
ATOM     62  C   UNL A   1      39.984  32.196  35.152  1.00  0.00     0.034 A 
ATOM     63  C   UNL A   1      43.423  28.151  31.311  1.00  0.00     0.049 A 
ATOM     64  C   UNL A   1      41.188  31.302  35.382  1.00  0.00     0.074 A 
ATOM     65  C   UNL A   1      44.575  27.453  31.628  1.00  0.00     0.029 A 
ATOM     66  N   UNL A   1      43.040  28.830  32.459  1.00  0.00    -0.354 N 
ATOM     67  N   UNL A   1      41.821  30.528  34.528  1.00  0.00    -0.248 NA
ATOM     68  C   UNL A   1      41.758  31.285  36.736  1.00  0.00     0.031 C 
ATOM     69  C   UNL A   1      44.846  27.650  32.984  1.00  0.00     0.029 A 
ATOM     70  C   UNL A   1      43.918  28.545  33.491  1.00  0.00     0.049 A 
ATOM     71  H   UNL A   1      42.258  29.424  32.530  1.00  0.00     0.167 HD
ATOM     72  C   UNL A   1      42.890  29.977  35.236  1.00  0.00     0.074 A 
ATOM     73  C   UNL A   1      42.823  30.516  36.577  1.00  0.00     0.031 C 
ATOM     74  C   UNL A   1      43.845  29.106  34.818  1.00  0.00     0.034 A 
BRANCH  61  75
ATOM     75  C   UNL A   1      43.252  27.391  28.898  1.00  0.00     0.023 A 
ATOM     76  C   UNL A   1      44.379  27.804  28.166  1.00  0.00     0.031 A 
ATOM     77  C   UNL A   1      42.625  26.190  28.522  1.00  0.00     0.131 A 
ATOM     78  C   UNL A   1      44.814  27.049  27.068  1.00  0.00     0.055 A 
ATOM     79  C   UNL A   1      43.109  25.403  27.477  1.00  0.00     0.041 A 
ATOM     80  F   UNL A   1      41.527  25.763  29.166  1.00  0.00    -0.206 F 
ATOM     81  C   UNL A   1      44.206  25.835  26.737  1.00  0.00     0.022 A 
BRANCH  78  82
ATOM     82  S   UNL A   1      46.115  27.732  26.006  1.00  0.00     0.124 S 
ATOM     83  O   UNL A   1      47.202  27.928  26.962  1.00  0.00    -0.237 OA
ATOM     84  O   UNL A   1      46.311  26.672  25.025  1.00  0.00    -0.237 OA
ATOM     85  O   UNL A   1      45.521  28.962  25.486  1.00  0.00    -0.744 OA
ENDBRANCH  78  82
ENDBRANCH  61  75
BRANCH  62  86
ATOM     86  C   UNL A   1      39.413  32.985  36.287  1.00  0.00     0.023 A 
ATOM     87  C   UNL A   1      39.925  34.250  36.619  1.00  0.00     0.031 A 
ATOM     88  C   UNL A   1      38.430  32.437  37.133  1.00  0.00     0.131 A 
ATOM     89  C   UNL A   1      39.523  34.882  37.806  1.00  0.00     0.055 A 
ATOM     90  C   UNL A   1      37.976  33.106  38.272  1.00  0.00     0.041 A 
ATOM     91  F   UNL A   1      37.902  31.229  36.873  1.00  0.00    -0.206 F 
ATOM     92  C   UNL A   1      38.540  34.327  38.627  1.00  0.00     0.022 A 
BRANCH  89  93
ATOM     93  S   UNL A   1      40.421  36.365  38.343  1.00  0.00     0.124 S 
ATOM     94  O   UNL A   1      41.212  35.842  39.450  1.00  0.00    -0.237 OA
ATOM     95  O   UNL A   1      41.160  36.720  37.137  1.00  0.00    -0.237 OA
ATOM     96  O   UNL A   1      39.354  37.290  38.717  1.00  0.00    -0.744 OA
ENDBRANCH  89  93
ENDBRANCH  62  86
BRANCH  74  97
ATOM     97  C   UNL A   1      44.939  28.747  35.797  1.00  0.00     0.023 A 
ATOM     98  C   UNL A   1      44.727  27.851  36.858  1.00  0.00     0.031 A 
ATOM     99  C   UNL A   1      46.220  29.313  35.658  1.00  0.00     0.131 A 
ATOM    100  C   UNL A   1      45.760  27.595  37.775  1.00  0.00     0.055 A 
ATOM    101  C   UNL A   1      47.263  29.000  36.529  1.00  0.00     0.041 A 
ATOM    102  F   UNL A   1      46.481  30.177  34.663  1.00  0.00    -0.206 F 
ATOM    103  C   UNL A   1      47.032  28.148  37.604  1.00  0.00     0.022 A 
BRANCH 100 104
ATOM    104  S   UNL A   1      45.389  26.612  39.252  1.00  0.00     0.124 S 
ATOM    105  O   UNL A   1      46.611  25.832  39.412  1.00  0.00    -0.237 OA
ATOM    106  O   UNL A   1      45.154  27.640  40.260  1.00  0.00    -0.237 OA
ATOM    107  O   UNL A   1      44.207  25.843  38.864  1.00  0.00    -0.744 OA
ENDBRANCH 100 104
ENDBRANCH  74  97
ENDBRANCH  48  49
ENDBRANCH  41  43
ENDBRANCH  40  41
ENDBRANCH  39  40
ENDBRANCH  38  39
ENDBRANCH  37  38
ENDBRANCH  36  37
ENDBRANCH  35  36
ENDBRANCH   1  35
TORSDOF 29
ENDMDL
