MODEL 1
REMARK VINA RESULT:      -8.6      0.000      0.000
REMARK SMILES CCc1ccccc1NC(=O)c1cc(S(=O)(=O)N2CCC[C@H](C(=O)OCCOCCOCCOCCOC(=O)c3ccc(-c4c5nc(c(-c6cc(S(=O)(=O)[O-])ccc6F)c6ccc([nH]6)c(-c6cc(S(=O)(=O)[O-])ccc6F)c6nc(c(-c7cc(S(=O)(=O)[O-])ccc7F)c7ccc4[nH]7)C=C6)C=C5)cc3)C2)ccc1F
REMARK SMILES IDX 30 1 29 2 28 3 27 4 26 5 25 6 23 7 24 8 22 9 18 10 19 11
REMARK SMILES IDX 103 12 20 13 21 14 15 15 16 16 17 17 14 18 12 19 13 20
REMARK SMILES IDX 106 21 105 22 107 23 104 24 10 25 9 26 11 28 8 29 3 30 4 31
REMARK SMILES IDX 5 32 7 33 6 34 2 35 1 36 31 37 32 38 33 39 34 40 35 41 36 42
REMARK SMILES IDX 37 43 38 44 39 45 40 46 41 47 102 48 42 49 101 50 43 51
REMARK SMILES IDX 44 52 45 53 95 54 46 55 100 56 94 57 96 58 47 59 99 60 93 61
REMARK SMILES IDX 92 62 48 64 80 65 60 66 79 67 61 68 64 69 78 70 97 71 62 72
REMARK SMILES IDX 63 73 77 75 98 76 65 77 49 78 50 79 58 80 51 81 57 82 59 83
REMARK SMILES IDX 56 84 52 85 53 86 54 87 55 88 81 89 82 90 90 91 83 92 89 93
REMARK SMILES IDX 91 94 88 95 84 96 85 97 86 98 87 99 66 100 67 101 75 102
REMARK SMILES IDX 68 103 74 104 76 105 73 106 69 107 70 108 71 109 72 110
REMARK H PARENT 9 27 96 63 64 74
REMARK Flexibility Score: inf
ROOT
ATOM      1  C   UNL A   1      46.973  40.119  29.072  1.00  0.00     0.188 C 
ENDROOT
BRANCH   1   2
ATOM      2  C   UNL A   1      46.425  41.552  29.121  1.00  0.00     0.188 C 
BRANCH   2   3
ATOM      3  O   UNL A   1      46.124  42.123  27.854  1.00  0.00    -0.376 OA
BRANCH   3   4
ATOM      4  C   UNL A   1      46.706  43.400  27.621  1.00  0.00     0.202 C 
BRANCH   4   5
ATOM      5  C   UNL A   1      45.687  44.501  27.306  1.00  0.00     0.261 C 
BRANCH   5   6
ATOM      6  O   UNL A   1      45.750  45.046  25.981  1.00  0.00    -0.463 OA
BRANCH   6   7
ATOM      7  C   UNL A   1      44.898  44.540  25.074  1.00  0.00     0.310 C 
ATOM      8  O   UNL A   1      44.156  43.580  25.269  1.00  0.00    -0.252 OA
BRANCH   7   9
ATOM      9  C   UNL A   1      45.009  45.191  23.714  1.00  0.00     0.114 C 
ATOM     10  N   UNL A   1      44.125  43.456  22.114  1.00  0.00    -0.197 NA
ATOM     11  C   UNL A   1      45.437  43.308  21.447  1.00  0.00     0.102 C 
ATOM     12  C   UNL A   1      43.831  44.677  22.912  1.00  0.00     0.117 C 
ATOM     13  C   UNL A   1      46.585  43.762  22.325  1.00  0.00     0.018 C 
ATOM     14  C   UNL A   1      46.310  45.131  22.918  1.00  0.00     0.018 C 
BRANCH  10  15
ATOM     15  S   UNL A   1      42.797  42.784  21.289  1.00  0.00     0.243 S 
ATOM     16  O   UNL A   1      41.653  42.895  22.166  1.00  0.00    -0.207 OA
ATOM     17  O   UNL A   1      43.194  41.527  20.692  1.00  0.00    -0.207 OA
BRANCH  15  18
ATOM     18  C   UNL A   1      42.465  43.894  19.930  1.00  0.00     0.083 A 
ATOM     19  C   UNL A   1      43.316  44.922  17.934  1.00  0.00     0.077 A 
ATOM     20  C   UNL A   1      43.538  44.164  19.083  1.00  0.00     0.038 A 
ATOM     21  C   UNL A   1      42.020  45.262  17.548  1.00  0.00     0.136 A 
ATOM     22  C   UNL A   1      40.960  45.039  18.417  1.00  0.00     0.041 A 
ATOM     23  F   UNL A   1      41.781  45.891  16.388  1.00  0.00    -0.206 F 
ATOM     24  C   UNL A   1      41.195  44.409  19.640  1.00  0.00     0.025 A 
BRANCH  19  25
ATOM     25  C   UNL A   1      44.496  45.439  17.239  1.00  0.00     0.258 C 
ATOM     26  N   UNL A   1      44.926  46.735  17.423  1.00  0.00    -0.322 N 
ATOM     27  H   UNL A   1      45.753  46.956  16.937  1.00  0.00     0.170 HD
ATOM     28  O   UNL A   1      45.116  44.679  16.497  1.00  0.00    -0.269 OA
BRANCH  26  29
ATOM     29  C   UNL A   1      44.400  47.805  18.178  1.00  0.00     0.044 A 
ATOM     30  C   UNL A   1      44.897  48.024  19.477  1.00  0.00    -0.025 A 
ATOM     31  C   UNL A   1      44.520  49.202  20.156  1.00  0.00     0.006 A 
ATOM     32  C   UNL A   1      43.630  50.114  19.591  1.00  0.00     0.000 A 
ATOM     33  C   UNL A   1      43.416  48.670  17.679  1.00  0.00     0.026 A 
ATOM     34  C   UNL A   1      43.052  49.832  18.363  1.00  0.00     0.002 A 
BRANCH  30  35
ATOM     35  C   UNL A   1      45.805  47.051  20.201  1.00  0.00     0.034 C 
ATOM     36  C   UNL A   1      47.299  47.269  20.002  1.00  0.00     0.009 C 
ENDBRANCH  30  35
ENDBRANCH  26  29
ENDBRANCH  19  25
ENDBRANCH  15  18
ENDBRANCH  10  15
ENDBRANCH   7   9
ENDBRANCH   6   7
ENDBRANCH   5   6
ENDBRANCH   4   5
ENDBRANCH   3   4
ENDBRANCH   2   3
ENDBRANCH   1   2
BRANCH   1  37
ATOM     37  O   UNL A   1      48.143  39.851  28.315  1.00  0.00    -0.377 OA
BRANCH  37  38
ATOM     38  C   UNL A   1      48.861  38.640  28.552  1.00  0.00     0.188 C 
BRANCH  38  39
ATOM     39  C   UNL A   1      50.043  38.291  27.632  1.00  0.00     0.188 C 
BRANCH  39  40
ATOM     40  O   UNL A   1      49.660  37.708  26.391  1.00  0.00    -0.376 OA
BRANCH  40  41
ATOM     41  C   UNL A   1      49.249  36.347  26.428  1.00  0.00     0.202 C 
BRANCH  41  42
ATOM     42  C   UNL A   1      48.136  35.974  25.440  1.00  0.00     0.261 C 
BRANCH  42  43
ATOM     43  O   UNL A   1      46.819  35.888  26.011  1.00  0.00    -0.460 OA
BRANCH  43  44
ATOM     44  C   UNL A   1      46.282  37.029  26.497  1.00  0.00     0.338 C 
ATOM     45  O   UNL A   1      46.353  38.143  26.013  1.00  0.00    -0.246 OA
BRANCH  44  46
ATOM     46  C   UNL A   1      45.442  36.673  27.653  1.00  0.00     0.060 A 
ATOM     47  C   UNL A   1      44.477  37.583  28.099  1.00  0.00     0.016 A 
ATOM     48  C   UNL A   1      45.648  35.462  28.318  1.00  0.00     0.016 A 
ATOM     49  C   UNL A   1      43.741  37.301  29.249  1.00  0.00     0.010 A 
ATOM     50  C   UNL A   1      44.924  35.191  29.479  1.00  0.00     0.010 A 
ATOM     51  C   UNL A   1      43.998  36.127  29.970  1.00  0.00    -0.014 A 
BRANCH  51  52
ATOM     52  C   UNL A   1      43.473  35.980  31.347  1.00  0.00     0.031 A 
ATOM     53  C   UNL A   1      42.252  35.123  31.548  1.00  0.00     0.074 A 
ATOM     54  C   UNL A   1      44.060  36.589  32.390  1.00  0.00     0.049 A 
ATOM     55  N   UNL A   1      41.576  34.878  32.639  1.00  0.00    -0.248 NA
ATOM     56  C   UNL A   1      41.721  34.460  30.346  1.00  0.00     0.031 C 
ATOM     57  C   UNL A   1      45.265  37.414  32.319  1.00  0.00     0.029 A 
ATOM     58  N   UNL A   1      43.710  36.614  33.715  1.00  0.00    -0.354 N 
ATOM     59  C   UNL A   1      40.543  34.028  32.259  1.00  0.00     0.074 A 
ATOM     60  C   UNL A   1      40.659  33.836  30.829  1.00  0.00     0.031 C 
ATOM     61  C   UNL A   1      45.545  37.879  33.549  1.00  0.00     0.029 A 
ATOM     62  C   UNL A   1      44.524  37.412  34.485  1.00  0.00     0.049 A 
ATOM     63  H   UNL A   1      42.948  36.111  34.082  1.00  0.00     0.167 HD
ATOM     64  C   UNL A   1      39.590  33.453  33.032  1.00  0.00     0.034 A 
ATOM     65  C   UNL A   1      44.435  37.741  35.789  1.00  0.00     0.034 A 
ATOM     66  C   UNL A   1      39.468  33.681  34.450  1.00  0.00     0.049 A 
ATOM     67  C   UNL A   1      43.310  37.165  36.616  1.00  0.00     0.074 A 
ATOM     68  C   UNL A   1      38.545  33.151  35.334  1.00  0.00     0.029 A 
ATOM     69  N   UNL A   1      40.287  34.526  35.190  1.00  0.00    -0.354 N 
ATOM     70  N   UNL A   1      42.349  36.348  36.251  1.00  0.00    -0.248 NA
ATOM     71  C   UNL A   1      43.264  37.551  38.033  1.00  0.00     0.031 C 
ATOM     72  C   UNL A   1      38.764  33.726  36.592  1.00  0.00     0.029 A 
ATOM     73  C   UNL A   1      39.870  34.558  36.510  1.00  0.00     0.049 A 
ATOM     74  H   UNL A   1      41.052  35.027  34.827  1.00  0.00     0.167 HD
ATOM     75  C   UNL A   1      41.601  36.102  37.401  1.00  0.00     0.074 A 
ATOM     76  C   UNL A   1      42.230  36.848  38.471  1.00  0.00     0.031 C 
ATOM     77  C   UNL A   1      40.501  35.322  37.561  1.00  0.00     0.034 A 
BRANCH  64  78
ATOM     78  C   UNL A   1      38.581  32.575  32.334  1.00  0.00     0.023 A 
ATOM     79  C   UNL A   1      37.392  33.102  31.796  1.00  0.00     0.031 A 
ATOM     80  C   UNL A   1      38.779  31.186  32.260  1.00  0.00     0.131 A 
ATOM     81  C   UNL A   1      36.414  32.238  31.282  1.00  0.00     0.055 A 
ATOM     82  C   UNL A   1      37.836  30.339  31.675  1.00  0.00     0.041 A 
ATOM     83  F   UNL A   1      39.882  30.623  32.779  1.00  0.00    -0.206 F 
ATOM     84  C   UNL A   1      36.638  30.861  31.196  1.00  0.00     0.022 A 
BRANCH  81  85
ATOM     85  S   UNL A   1      34.785  32.920  30.870  1.00  0.00     0.124 S 
ATOM     86  O   UNL A   1      34.431  32.144  29.684  1.00  0.00    -0.237 OA
ATOM     87  O   UNL A   1      34.011  32.637  32.072  1.00  0.00    -0.237 OA
ATOM     88  O   UNL A   1      35.057  34.334  30.621  1.00  0.00    -0.744 OA
ENDBRANCH  81  85
ENDBRANCH  64  78
BRANCH  65  89
ATOM     89  C   UNL A   1      45.409  38.694  36.395  1.00  0.00     0.023 A 
ATOM     90  C   UNL A   1      45.165  40.075  36.408  1.00  0.00     0.031 A 
ATOM     91  C   UNL A   1      46.628  38.233  36.925  1.00  0.00     0.131 A 
ATOM     92  C   UNL A   1      46.142  40.953  36.903  1.00  0.00     0.055 A 
ATOM     93  C   UNL A   1      47.577  39.106  37.458  1.00  0.00     0.041 A 
ATOM     94  F   UNL A   1      46.911  36.921  36.934  1.00  0.00    -0.206 F 
ATOM     95  C   UNL A   1      47.341  40.477  37.439  1.00  0.00     0.022 A 
BRANCH  92  96
ATOM     96  S   UNL A   1      45.853  42.740  36.767  1.00  0.00     0.124 S 
ATOM     97  O   UNL A   1      46.724  43.097  35.652  1.00  0.00    -0.237 OA
ATOM     98  O   UNL A   1      44.419  42.795  36.503  1.00  0.00    -0.237 OA
ATOM     99  O   UNL A   1      46.266  43.251  38.071  1.00  0.00    -0.744 OA
ENDBRANCH  92  96
ENDBRANCH  65  89
BRANCH  77 100
ATOM    100  C   UNL A   1      39.938  35.208  38.957  1.00  0.00     0.023 A 
ATOM    101  C   UNL A   1      40.135  34.058  39.743  1.00  0.00     0.031 A 
ATOM    102  C   UNL A   1      39.191  36.266  39.504  1.00  0.00     0.131 A 
ATOM    103  C   UNL A   1      39.549  33.976  41.016  1.00  0.00     0.055 A 
ATOM    104  C   UNL A   1      38.657  36.199  40.792  1.00  0.00     0.041 A 
ATOM    105  F   UNL A   1      38.974  37.386  38.796  1.00  0.00    -0.206 F 
ATOM    106  C   UNL A   1      38.825  35.045  41.550  1.00  0.00     0.022 A 
BRANCH 103 107
ATOM    107  S   UNL A   1      39.681  32.420  41.939  1.00  0.00     0.124 S 
ATOM    108  O   UNL A   1      40.197  32.872  43.227  1.00  0.00    -0.237 OA
ATOM    109  O   UNL A   1      38.304  31.939  41.937  1.00  0.00    -0.237 OA
ATOM    110  O   UNL A   1      40.615  31.626  41.141  1.00  0.00    -0.744 OA
ENDBRANCH 103 107
ENDBRANCH  77 100
ENDBRANCH  51  52
ENDBRANCH  44  46
ENDBRANCH  43  44
ENDBRANCH  42  43
ENDBRANCH  41  42
ENDBRANCH  40  41
ENDBRANCH  39  40
ENDBRANCH  38  39
ENDBRANCH  37  38
ENDBRANCH   1  37
TORSDOF 28
ENDMDL
MODEL 2
REMARK VINA RESULT:      -8.6      8.068     15.369
REMARK SMILES CCc1ccccc1NC(=O)c1cc(S(=O)(=O)N2CCC[C@H](C(=O)OCCOCCOCCOCCOC(=O)c3ccc(-c4c5nc(c(-c6cc(S(=O)(=O)[O-])ccc6F)c6ccc([nH]6)c(-c6cc(S(=O)(=O)[O-])ccc6F)c6nc(c(-c7cc(S(=O)(=O)[O-])ccc7F)c7ccc4[nH]7)C=C6)C=C5)cc3)C2)ccc1F
REMARK SMILES IDX 30 1 29 2 28 3 27 4 26 5 25 6 23 7 24 8 22 9 18 10 19 11
REMARK SMILES IDX 103 12 20 13 21 14 15 15 16 16 17 17 14 18 12 19 13 20
REMARK SMILES IDX 106 21 105 22 107 23 104 24 10 25 9 26 11 28 8 29 3 30 4 31
REMARK SMILES IDX 5 32 7 33 6 34 2 35 1 36 31 37 32 38 33 39 34 40 35 41 36 42
REMARK SMILES IDX 37 43 38 44 39 45 40 46 41 47 102 48 42 49 101 50 43 51
REMARK SMILES IDX 44 52 45 53 95 54 46 55 100 56 94 57 96 58 47 59 99 60 93 61
REMARK SMILES IDX 92 62 48 64 80 65 60 66 79 67 61 68 64 69 78 70 97 71 62 72
REMARK SMILES IDX 63 73 77 75 98 76 65 77 49 78 50 79 58 80 51 81 57 82 59 83
REMARK SMILES IDX 56 84 52 85 53 86 54 87 55 88 81 89 82 90 90 91 83 92 89 93
REMARK SMILES IDX 91 94 88 95 84 96 85 97 86 98 87 99 66 100 67 101 75 102
REMARK SMILES IDX 68 103 74 104 76 105 73 106 69 107 70 108 71 109 72 110
REMARK H PARENT 9 27 96 63 64 74
REMARK Flexibility Score: inf
ROOT
ATOM      1  C   UNL A   1      39.407  27.643  28.344  1.00  0.00     0.188 C 
ENDROOT
BRANCH   1   2
ATOM      2  C   UNL A   1      39.375  28.914  29.204  1.00  0.00     0.188 C 
BRANCH   2   3
ATOM      3  O   UNL A   1      38.629  29.993  28.654  1.00  0.00    -0.376 OA
BRANCH   3   4
ATOM      4  C   UNL A   1      37.599  29.607  27.752  1.00  0.00     0.202 C 
BRANCH   4   5
ATOM      5  C   UNL A   1      36.192  29.657  28.355  1.00  0.00     0.261 C 
BRANCH   5   6
ATOM      6  O   UNL A   1      35.120  29.313  27.465  1.00  0.00    -0.463 OA
BRANCH   6   7
ATOM      7  C   UNL A   1      34.114  30.196  27.356  1.00  0.00     0.310 C 
ATOM      8  O   UNL A   1      34.251  31.417  27.349  1.00  0.00    -0.252 OA
BRANCH   7   9
ATOM      9  C   UNL A   1      32.746  29.552  27.357  1.00  0.00     0.114 C 
ATOM     10  N   UNL A   1      32.514  28.571  25.047  1.00  0.00    -0.197 NA
ATOM     11  C   UNL A   1      31.391  29.470  24.706  1.00  0.00     0.102 C 
ATOM     12  C   UNL A   1      32.865  28.327  26.471  1.00  0.00     0.117 C 
ATOM     13  C   UNL A   1      31.369  30.717  25.568  1.00  0.00     0.018 C 
ATOM     14  C   UNL A   1      31.494  30.365  27.038  1.00  0.00     0.018 C 
BRANCH  10  15
ATOM     15  S   UNL A   1      32.744  27.249  24.000  1.00  0.00     0.243 S 
ATOM     16  O   UNL A   1      34.172  27.076  23.844  1.00  0.00    -0.207 OA
ATOM     17  O   UNL A   1      31.853  27.377  22.868  1.00  0.00    -0.207 OA
BRANCH  15  18
ATOM     18  C   UNL A   1      32.189  25.816  24.908  1.00  0.00     0.083 A 
ATOM     19  C   UNL A   1      32.826  23.919  26.236  1.00  0.00     0.077 A 
ATOM     20  C   UNL A   1      33.187  24.984  25.413  1.00  0.00     0.038 A 
ATOM     21  C   UNL A   1      31.513  23.782  26.685  1.00  0.00     0.136 A 
ATOM     22  C   UNL A   1      30.512  24.577  26.142  1.00  0.00     0.041 A 
ATOM     23  F   UNL A   1      31.174  22.831  27.567  1.00  0.00    -0.206 F 
ATOM     24  C   UNL A   1      30.844  25.554  25.202  1.00  0.00     0.025 A 
BRANCH  19  25
ATOM     25  C   UNL A   1      33.846  22.902  26.494  1.00  0.00     0.258 C 
ATOM     26  N   UNL A   1      34.082  21.880  25.601  1.00  0.00    -0.322 N 
ATOM     27  H   UNL A   1      34.820  21.282  25.861  1.00  0.00     0.170 HD
ATOM     28  O   UNL A   1      34.511  22.991  27.525  1.00  0.00    -0.269 OA
BRANCH  26  29
ATOM     29  C   UNL A   1      33.462  21.530  24.382  1.00  0.00     0.044 A 
ATOM     30  C   UNL A   1      32.930  20.234  24.242  1.00  0.00    -0.025 A 
ATOM     31  C   UNL A   1      32.141  19.946  23.108  1.00  0.00     0.006 A 
ATOM     32  C   UNL A   1      31.929  20.895  22.109  1.00  0.00     0.000 A 
ATOM     33  C   UNL A   1      33.338  22.429  23.313  1.00  0.00     0.026 A 
ATOM     34  C   UNL A   1      32.554  22.129  22.197  1.00  0.00     0.002 A 
BRANCH  30  35
ATOM     35  C   UNL A   1      33.174  19.117  25.235  1.00  0.00     0.034 C 
ATOM     36  C   UNL A   1      32.492  17.792  24.920  1.00  0.00     0.009 C 
ENDBRANCH  30  35
ENDBRANCH  26  29
ENDBRANCH  19  25
ENDBRANCH  15  18
ENDBRANCH  10  15
ENDBRANCH   7   9
ENDBRANCH   6   7
ENDBRANCH   5   6
ENDBRANCH   4   5
ENDBRANCH   3   4
ENDBRANCH   2   3
ENDBRANCH   1   2
BRANCH   1  37
ATOM     37  O   UNL A   1      40.028  27.686  27.069  1.00  0.00    -0.377 OA
BRANCH  37  38
ATOM     38  C   UNL A   1      41.194  26.897  26.837  1.00  0.00     0.188 C 
BRANCH  38  39
ATOM     39  C   UNL A   1      41.238  25.990  25.595  1.00  0.00     0.188 C 
BRANCH  39  40
ATOM     40  O   UNL A   1      42.549  25.771  25.083  1.00  0.00    -0.376 OA
BRANCH  40  41
ATOM     41  C   UNL A   1      43.066  24.452  25.204  1.00  0.00     0.202 C 
BRANCH  41  42
ATOM     42  C   UNL A   1      44.588  24.333  25.054  1.00  0.00     0.261 C 
BRANCH  42  43
ATOM     43  O   UNL A   1      45.355  25.076  26.018  1.00  0.00    -0.460 OA
BRANCH  43  44
ATOM     44  C   UNL A   1      45.941  26.217  25.590  1.00  0.00     0.338 C 
ATOM     45  O   UNL A   1      46.544  26.391  24.548  1.00  0.00    -0.246 OA
BRANCH  44  46
ATOM     46  C   UNL A   1      45.591  27.284  26.542  1.00  0.00     0.060 A 
ATOM     47  C   UNL A   1      44.721  28.301  26.134  1.00  0.00     0.016 A 
ATOM     48  C   UNL A   1      46.163  27.297  27.816  1.00  0.00     0.016 A 
ATOM     49  C   UNL A   1      44.456  29.368  26.991  1.00  0.00     0.010 A 
ATOM     50  C   UNL A   1      45.912  28.376  28.665  1.00  0.00     0.010 A 
ATOM     51  C   UNL A   1      45.089  29.433  28.239  1.00  0.00    -0.014 A 
BRANCH  51  52
ATOM     52  C   UNL A   1      45.079  30.702  29.004  1.00  0.00     0.031 A 
ATOM     53  C   UNL A   1      43.900  30.976  29.899  1.00  0.00     0.074 A 
ATOM     54  C   UNL A   1      46.084  31.587  28.907  1.00  0.00     0.049 A 
ATOM     55  N   UNL A   1      43.635  32.027  30.627  1.00  0.00    -0.248 NA
ATOM     56  C   UNL A   1      42.882  29.916  29.971  1.00  0.00     0.031 C 
ATOM     57  C   UNL A   1      47.290  31.412  28.099  1.00  0.00     0.029 A 
ATOM     58  N   UNL A   1      46.243  32.819  29.488  1.00  0.00    -0.354 N 
ATOM     59  C   UNL A   1      42.421  31.755  31.251  1.00  0.00     0.074 A 
ATOM     60  C   UNL A   1      41.986  30.458  30.779  1.00  0.00     0.031 C 
ATOM     61  C   UNL A   1      48.059  32.508  28.224  1.00  0.00     0.029 A 
ATOM     62  C   UNL A   1      47.386  33.472  29.094  1.00  0.00     0.049 A 
ATOM     63  H   UNL A   1      45.598  33.200  30.127  1.00  0.00     0.167 HD
ATOM     64  C   UNL A   1      41.737  32.513  32.142  1.00  0.00     0.034 A 
ATOM     65  C   UNL A   1      47.822  34.714  29.385  1.00  0.00     0.034 A 
ATOM     66  C   UNL A   1      42.167  33.819  32.576  1.00  0.00     0.049 A 
ATOM     67  C   UNL A   1      46.998  35.582  30.307  1.00  0.00     0.074 A 
ATOM     68  C   UNL A   1      41.557  34.676  33.475  1.00  0.00     0.029 A 
ATOM     69  N   UNL A   1      43.312  34.466  32.125  1.00  0.00    -0.354 N 
ATOM     70  N   UNL A   1      45.861  35.309  30.905  1.00  0.00    -0.248 NA
ATOM     71  C   UNL A   1      47.522  36.924  30.597  1.00  0.00     0.031 C 
ATOM     72  C   UNL A   1      42.296  35.864  33.517  1.00  0.00     0.029 A 
ATOM     73  C   UNL A   1      43.407  35.722  32.700  1.00  0.00     0.049 A 
ATOM     74  H   UNL A   1      43.960  34.085  31.490  1.00  0.00     0.167 HD
ATOM     75  C   UNL A   1      45.550  36.435  31.664  1.00  0.00     0.074 A 
ATOM     76  C   UNL A   1      46.623  37.385  31.455  1.00  0.00     0.031 C 
ATOM     77  C   UNL A   1      44.479  36.662  32.468  1.00  0.00     0.034 A 
BRANCH  64  78
ATOM     78  C   UNL A   1      40.427  31.960  32.647  1.00  0.00     0.023 A 
ATOM     79  C   UNL A   1      39.205  32.272  32.022  1.00  0.00     0.031 A 
ATOM     80  C   UNL A   1      40.391  31.163  33.803  1.00  0.00     0.131 A 
ATOM     81  C   UNL A   1      37.997  31.857  32.601  1.00  0.00     0.055 A 
ATOM     82  C   UNL A   1      39.190  30.687  34.331  1.00  0.00     0.041 A 
ATOM     83  F   UNL A   1      41.523  30.855  34.457  1.00  0.00    -0.206 F 
ATOM     84  C   UNL A   1      37.982  31.046  33.739  1.00  0.00     0.022 A 
BRANCH  81  85
ATOM     85  S   UNL A   1      36.444  32.518  31.938  1.00  0.00     0.124 S 
ATOM     86  O   UNL A   1      36.717  32.530  30.503  1.00  0.00    -0.237 OA
ATOM     87  O   UNL A   1      35.464  31.540  32.394  1.00  0.00    -0.237 OA
ATOM     88  O   UNL A   1      36.342  33.839  32.556  1.00  0.00    -0.744 OA
ENDBRANCH  81  85
ENDBRANCH  64  78
BRANCH  65  89
ATOM     89  C   UNL A   1      49.077  35.236  28.774  1.00  0.00     0.023 A 
ATOM     90  C   UNL A   1      49.117  35.648  27.433  1.00  0.00     0.031 A 
ATOM     91  C   UNL A   1      50.272  35.281  29.515  1.00  0.00     0.131 A 
ATOM     92  C   UNL A   1      50.334  36.049  26.861  1.00  0.00     0.055 A 
ATOM     93  C   UNL A   1      51.471  35.724  28.955  1.00  0.00     0.041 A 
ATOM     94  F   UNL A   1      50.288  34.896  30.801  1.00  0.00    -0.206 F 
ATOM     95  C   UNL A   1      51.509  36.101  27.616  1.00  0.00     0.022 A 
BRANCH  92  96
ATOM     96  S   UNL A   1      50.377  36.432  25.088  1.00  0.00     0.124 S 
ATOM     97  O   UNL A   1      49.165  37.228  24.927  1.00  0.00    -0.237 OA
ATOM     98  O   UNL A   1      51.639  37.154  24.965  1.00  0.00    -0.237 OA
ATOM     99  O   UNL A   1      50.349  35.116  24.455  1.00  0.00    -0.744 OA
ENDBRANCH  92  96
ENDBRANCH  65  89
BRANCH  77 100
ATOM    100  C   UNL A   1      44.446  37.975  33.213  1.00  0.00     0.023 A 
ATOM    101  C   UNL A   1      43.621  39.037  32.803  1.00  0.00     0.031 A 
ATOM    102  C   UNL A   1      45.255  38.161  34.347  1.00  0.00     0.131 A 
ATOM    103  C   UNL A   1      43.661  40.257  33.497  1.00  0.00     0.055 A 
ATOM    104  C   UNL A   1      45.250  39.359  35.064  1.00  0.00     0.041 A 
ATOM    105  F   UNL A   1      46.061  37.179  34.781  1.00  0.00    -0.206 F 
ATOM    106  C   UNL A   1      44.458  40.419  34.633  1.00  0.00     0.022 A 
BRANCH 103 107
ATOM    107  S   UNL A   1      42.713  41.661  32.848  1.00  0.00     0.124 S 
ATOM    108  O   UNL A   1      41.853  41.017  31.860  1.00  0.00    -0.237 OA
ATOM    109  O   UNL A   1      42.043  42.164  34.043  1.00  0.00    -0.237 OA
ATOM    110  O   UNL A   1      43.739  42.544  32.296  1.00  0.00    -0.744 OA
ENDBRANCH 103 107
ENDBRANCH  77 100
ENDBRANCH  51  52
ENDBRANCH  44  46
ENDBRANCH  43  44
ENDBRANCH  42  43
ENDBRANCH  41  42
ENDBRANCH  40  41
ENDBRANCH  39  40
ENDBRANCH  38  39
ENDBRANCH  37  38
ENDBRANCH   1  37
TORSDOF 28
ENDMDL
MODEL 3
REMARK VINA RESULT:      -7.7      9.406     18.028
REMARK SMILES CCc1ccccc1NC(=O)c1cc(S(=O)(=O)N2CCC[C@H](C(=O)OCCOCCOCCOCCOC(=O)c3ccc(-c4c5nc(c(-c6cc(S(=O)(=O)[O-])ccc6F)c6ccc([nH]6)c(-c6cc(S(=O)(=O)[O-])ccc6F)c6nc(c(-c7cc(S(=O)(=O)[O-])ccc7F)c7ccc4[nH]7)C=C6)C=C5)cc3)C2)ccc1F
REMARK SMILES IDX 30 1 29 2 28 3 27 4 26 5 25 6 23 7 24 8 22 9 18 10 19 11
REMARK SMILES IDX 103 12 20 13 21 14 15 15 16 16 17 17 14 18 12 19 13 20
REMARK SMILES IDX 106 21 105 22 107 23 104 24 10 25 9 26 11 28 8 29 3 30 4 31
REMARK SMILES IDX 5 32 7 33 6 34 2 35 1 36 31 37 32 38 33 39 34 40 35 41 36 42
REMARK SMILES IDX 37 43 38 44 39 45 40 46 41 47 102 48 42 49 101 50 43 51
REMARK SMILES IDX 44 52 45 53 95 54 46 55 100 56 94 57 96 58 47 59 99 60 93 61
REMARK SMILES IDX 92 62 48 64 80 65 60 66 79 67 61 68 64 69 78 70 97 71 62 72
REMARK SMILES IDX 63 73 77 75 98 76 65 77 49 78 50 79 58 80 51 81 57 82 59 83
REMARK SMILES IDX 56 84 52 85 53 86 54 87 55 88 81 89 82 90 90 91 83 92 89 93
REMARK SMILES IDX 91 94 88 95 84 96 85 97 86 98 87 99 66 100 67 101 75 102
REMARK SMILES IDX 68 103 74 104 76 105 73 106 69 107 70 108 71 109 72 110
REMARK H PARENT 9 27 96 63 64 74
REMARK Flexibility Score: inf
ROOT
ATOM      1  C   UNL A   1      39.963  27.704  28.296  1.00  0.00     0.188 C 
ENDROOT
BRANCH   1   2
ATOM      2  C   UNL A   1      40.147  29.162  28.741  1.00  0.00     0.188 C 
BRANCH   2   3
ATOM      3  O   UNL A   1      39.000  29.987  28.583  1.00  0.00    -0.376 OA
BRANCH   3   4
ATOM      4  C   UNL A   1      37.811  29.294  28.225  1.00  0.00     0.202 C 
BRANCH   4   5
ATOM      5  C   UNL A   1      36.688  30.205  27.715  1.00  0.00     0.261 C 
BRANCH   5   6
ATOM      6  O   UNL A   1      35.413  29.576  27.528  1.00  0.00    -0.463 OA
BRANCH   6   7
ATOM      7  C   UNL A   1      34.358  30.385  27.341  1.00  0.00     0.310 C 
ATOM      8  O   UNL A   1      34.428  31.602  27.185  1.00  0.00    -0.252 OA
BRANCH   7   9
ATOM      9  C   UNL A   1      33.028  29.676  27.453  1.00  0.00     0.114 C 
ATOM     10  N   UNL A   1      32.625  28.731  25.152  1.00  0.00    -0.197 NA
ATOM     11  C   UNL A   1      31.434  29.581  24.939  1.00  0.00     0.102 C 
ATOM     12  C   UNL A   1      33.120  28.476  26.531  1.00  0.00     0.117 C 
ATOM     13  C   UNL A   1      31.435  30.807  25.829  1.00  0.00     0.018 C 
ATOM     14  C   UNL A   1      31.715  30.434  27.272  1.00  0.00     0.018 C 
BRANCH  10  15
ATOM     15  S   UNL A   1      32.817  27.442  24.057  1.00  0.00     0.243 S 
ATOM     16  O   UNL A   1      34.193  27.464  23.614  1.00  0.00    -0.207 OA
ATOM     17  O   UNL A   1      31.707  27.436  23.128  1.00  0.00    -0.207 OA
BRANCH  15  18
ATOM     18  C   UNL A   1      32.654  25.955  25.032  1.00  0.00     0.083 A 
ATOM     19  C   UNL A   1      33.796  24.198  26.205  1.00  0.00     0.077 A 
ATOM     20  C   UNL A   1      33.840  25.293  25.343  1.00  0.00     0.038 A 
ATOM     21  C   UNL A   1      32.619  23.871  26.876  1.00  0.00     0.136 A 
ATOM     22  C   UNL A   1      31.428  24.496  26.527  1.00  0.00     0.041 A 
ATOM     23  F   UNL A   1      32.589  22.893  27.793  1.00  0.00    -0.206 F 
ATOM     24  C   UNL A   1      31.438  25.498  25.555  1.00  0.00     0.025 A 
BRANCH  19  25
ATOM     25  C   UNL A   1      34.988  23.352  26.267  1.00  0.00     0.258 C 
ATOM     26  N   UNL A   1      34.995  22.082  25.733  1.00  0.00    -0.322 N 
ATOM     27  H   UNL A   1      35.865  21.625  25.797  1.00  0.00     0.170 HD
ATOM     28  O   UNL A   1      36.002  23.810  26.792  1.00  0.00    -0.269 OA
BRANCH  26  29
ATOM     29  C   UNL A   1      33.987  21.315  25.112  1.00  0.00     0.044 A 
ATOM     30  C   UNL A   1      33.614  21.631  23.791  1.00  0.00    -0.025 A 
ATOM     31  C   UNL A   1      32.755  20.750  23.102  1.00  0.00     0.006 A 
ATOM     32  C   UNL A   1      32.230  19.614  23.718  1.00  0.00     0.000 A 
ATOM     33  C   UNL A   1      33.356  20.238  25.751  1.00  0.00     0.026 A 
ATOM     34  C   UNL A   1      32.506  19.375  25.055  1.00  0.00     0.002 A 
BRANCH  30  35
ATOM     35  C   UNL A   1      34.070  22.882  23.069  1.00  0.00     0.034 C 
ATOM     36  C   UNL A   1      35.564  22.973  22.785  1.00  0.00     0.009 C 
ENDBRANCH  30  35
ENDBRANCH  26  29
ENDBRANCH  19  25
ENDBRANCH  15  18
ENDBRANCH  10  15
ENDBRANCH   7   9
ENDBRANCH   6   7
ENDBRANCH   5   6
ENDBRANCH   4   5
ENDBRANCH   3   4
ENDBRANCH   2   3
ENDBRANCH   1   2
BRANCH   1  37
ATOM     37  O   UNL A   1      40.532  27.278  27.068  1.00  0.00    -0.377 OA
BRANCH  37  38
ATOM     38  C   UNL A   1      41.309  26.081  27.042  1.00  0.00     0.188 C 
BRANCH  38  39
ATOM     39  C   UNL A   1      40.804  24.890  26.210  1.00  0.00     0.188 C 
BRANCH  39  40
ATOM     40  O   UNL A   1      41.590  23.711  26.347  1.00  0.00    -0.376 OA
BRANCH  40  41
ATOM     41  C   UNL A   1      41.336  22.908  27.493  1.00  0.00     0.202 C 
BRANCH  41  42
ATOM     42  C   UNL A   1      42.560  22.181  28.064  1.00  0.00     0.261 C 
BRANCH  42  43
ATOM     43  O   UNL A   1      43.691  23.024  28.348  1.00  0.00    -0.460 OA
BRANCH  43  44
ATOM     44  C   UNL A   1      44.620  23.157  27.375  1.00  0.00     0.338 C 
ATOM     45  O   UNL A   1      44.911  22.345  26.517  1.00  0.00    -0.246 OA
BRANCH  44  46
ATOM     46  C   UNL A   1      45.127  24.538  27.425  1.00  0.00     0.060 A 
ATOM     47  C   UNL A   1      44.926  25.377  26.323  1.00  0.00     0.016 A 
ATOM     48  C   UNL A   1      45.839  24.979  28.543  1.00  0.00     0.016 A 
ATOM     49  C   UNL A   1      45.484  26.655  26.317  1.00  0.00     0.010 A 
ATOM     50  C   UNL A   1      46.412  26.252  28.527  1.00  0.00     0.010 A 
ATOM     51  C   UNL A   1      46.269  27.077  27.398  1.00  0.00    -0.014 A 
BRANCH  51  52
ATOM     52  C   UNL A   1      47.126  28.277  27.260  1.00  0.00     0.031 A 
ATOM     53  C   UNL A   1      46.546  29.608  27.658  1.00  0.00     0.074 A 
ATOM     54  C   UNL A   1      48.383  28.191  26.794  1.00  0.00     0.049 A 
ATOM     55  N   UNL A   1      47.072  30.801  27.586  1.00  0.00    -0.248 NA
ATOM     56  C   UNL A   1      45.180  29.580  28.206  1.00  0.00     0.031 C 
ATOM     57  C   UNL A   1      49.059  26.953  26.410  1.00  0.00     0.029 A 
ATOM     58  N   UNL A   1      49.310  29.172  26.553  1.00  0.00    -0.354 N 
ATOM     59  C   UNL A   1      46.106  31.669  28.084  1.00  0.00     0.074 A 
ATOM     60  C   UNL A   1      44.948  30.866  28.414  1.00  0.00     0.031 C 
ATOM     61  C   UNL A   1      50.293  27.253  25.966  1.00  0.00     0.029 A 
ATOM     62  C   UNL A   1      50.479  28.703  26.004  1.00  0.00     0.049 A 
ATOM     63  H   UNL A   1      49.153  30.123  26.753  1.00  0.00     0.167 HD
ATOM     64  C   UNL A   1      46.181  33.011  28.258  1.00  0.00     0.034 A 
ATOM     65  C   UNL A   1      51.563  29.373  25.562  1.00  0.00     0.034 A 
ATOM     66  C   UNL A   1      47.330  33.801  27.893  1.00  0.00     0.049 A 
ATOM     67  C   UNL A   1      51.590  30.878  25.678  1.00  0.00     0.074 A 
ATOM     68  C   UNL A   1      47.518  35.165  28.025  1.00  0.00     0.029 A 
ATOM     69  N   UNL A   1      48.482  33.296  27.303  1.00  0.00    -0.354 N 
ATOM     70  N   UNL A   1      50.678  31.688  26.167  1.00  0.00    -0.248 NA
ATOM     71  C   UNL A   1      52.797  31.559  25.188  1.00  0.00     0.031 C 
ATOM     72  C   UNL A   1      48.755  35.493  27.456  1.00  0.00     0.029 A 
ATOM     73  C   UNL A   1      49.370  34.325  27.034  1.00  0.00     0.049 A 
ATOM     74  H   UNL A   1      48.644  32.345  27.105  1.00  0.00     0.167 HD
ATOM     75  C   UNL A   1      51.215  32.970  26.068  1.00  0.00     0.074 A 
ATOM     76  C   UNL A   1      52.532  32.824  25.484  1.00  0.00     0.031 C 
ATOM     77  C   UNL A   1      50.675  34.160  26.436  1.00  0.00     0.034 A 
BRANCH  64  78
ATOM     78  C   UNL A   1      44.957  33.697  28.815  1.00  0.00     0.023 A 
ATOM     79  C   UNL A   1      44.758  33.836  30.201  1.00  0.00     0.031 A 
ATOM     80  C   UNL A   1      43.949  34.161  27.954  1.00  0.00     0.131 A 
ATOM     81  C   UNL A   1      43.546  34.351  30.685  1.00  0.00     0.055 A 
ATOM     82  C   UNL A   1      42.777  34.744  28.440  1.00  0.00     0.041 A 
ATOM     83  F   UNL A   1      44.073  34.030  26.623  1.00  0.00    -0.206 F 
ATOM     84  C   UNL A   1      42.563  34.827  29.813  1.00  0.00     0.022 A 
BRANCH  81  85
ATOM     85  S   UNL A   1      43.206  34.245  32.463  1.00  0.00     0.124 S 
ATOM     86  O   UNL A   1      43.033  32.806  32.646  1.00  0.00    -0.237 OA
ATOM     87  O   UNL A   1      44.411  34.823  33.049  1.00  0.00    -0.237 OA
ATOM     88  O   UNL A   1      41.990  35.038  32.629  1.00  0.00    -0.744 OA
ENDBRANCH  81  85
ENDBRANCH  64  78
BRANCH  65  89
ATOM     89  C   UNL A   1      52.698  28.641  24.931  1.00  0.00     0.023 A 
ATOM     90  C   UNL A   1      52.703  28.349  23.559  1.00  0.00     0.031 A 
ATOM     91  C   UNL A   1      53.773  28.177  25.710  1.00  0.00     0.131 A 
ATOM     92  C   UNL A   1      53.742  27.580  23.012  1.00  0.00     0.055 A 
ATOM     93  C   UNL A   1      54.828  27.452  25.153  1.00  0.00     0.041 A 
ATOM     94  F   UNL A   1      53.815  28.427  27.028  1.00  0.00    -0.206 F 
ATOM     95  C   UNL A   1      54.810  27.139  23.797  1.00  0.00     0.022 A 
BRANCH  92  96
ATOM     96  S   UNL A   1      53.638  27.097  21.266  1.00  0.00     0.124 S 
ATOM     97  O   UNL A   1      54.983  26.588  21.019  1.00  0.00    -0.237 OA
ATOM     98  O   UNL A   1      52.571  26.102  21.290  1.00  0.00    -0.237 OA
ATOM     99  O   UNL A   1      53.308  28.347  20.586  1.00  0.00    -0.744 OA
ENDBRANCH  92  96
ENDBRANCH  65  89
BRANCH  77 100
ATOM    100  C   UNL A   1      51.531  35.390  26.253  1.00  0.00     0.023 A 
ATOM    101  C   UNL A   1      52.438  35.813  27.240  1.00  0.00     0.031 A 
ATOM    102  C   UNL A   1      51.432  36.147  25.072  1.00  0.00     0.131 A 
ATOM    103  C   UNL A   1      53.177  36.991  27.048  1.00  0.00     0.055 A 
ATOM    104  C   UNL A   1      52.209  37.289  24.865  1.00  0.00     0.041 A 
ATOM    105  F   UNL A   1      50.582  35.787  24.099  1.00  0.00    -0.206 F 
ATOM    106  C   UNL A   1      53.079  37.722  25.861  1.00  0.00     0.022 A 
BRANCH 103 107
ATOM    107  S   UNL A   1      54.215  37.602  28.405  1.00  0.00     0.124 S 
ATOM    108  O   UNL A   1      55.092  36.462  28.653  1.00  0.00    -0.237 OA
ATOM    109  O   UNL A   1      54.848  38.775  27.810  1.00  0.00    -0.237 OA
ATOM    110  O   UNL A   1      53.255  37.890  29.469  1.00  0.00    -0.744 OA
ENDBRANCH 103 107
ENDBRANCH  77 100
ENDBRANCH  51  52
ENDBRANCH  44  46
ENDBRANCH  43  44
ENDBRANCH  42  43
ENDBRANCH  41  42
ENDBRANCH  40  41
ENDBRANCH  39  40
ENDBRANCH  38  39
ENDBRANCH  37  38
ENDBRANCH   1  37
TORSDOF 28
ENDMDL
