MODEL 1
REMARK VINA RESULT:     -10.4      0.000      0.000
REMARK SMILES COc1cc(C(=O)N[C@H]2CCCC[C@H]2C(=O)OCCOCCOCCOCCOC(=O)c2ccc(-c3c4nc(c(-c5cc(S(=O)(=O)[O-])ccc5F)c5ccc([nH]5)c(-c5cc(S(=O)(=O)[O-])ccc5F)c5nc(c(-c6cc(S(=O)(=O)[O-])ccc6F)c6ccc3[nH]6)C=C5)C=C4)cc2)cc(Cl)c1OC
REMARK SMILES IDX 23 1 22 2 21 3 20 4 19 5 18 6 17 7 15 8 16 9 14 10 9 11
REMARK SMILES IDX 10 12 11 13 13 14 12 15 8 16 6 17 7 18 5 20 3 21 4 22 98 23
REMARK SMILES IDX 96 24 95 25 97 26 2 27 1 28 99 29 100 30 24 31 25 32 26 33
REMARK SMILES IDX 27 34 28 35 29 36 30 37 31 38 32 39 33 40 94 41 34 42 93 43
REMARK SMILES IDX 35 44 36 45 37 46 87 47 38 48 92 49 86 50 88 51 39 52 91 53
REMARK SMILES IDX 85 54 84 55 40 57 72 58 52 59 71 60 53 61 56 62 70 63 89 64
REMARK SMILES IDX 54 65 55 66 69 68 90 69 57 70 41 71 42 72 50 73 43 74 49 75
REMARK SMILES IDX 51 76 48 77 44 78 45 79 46 80 47 81 73 82 74 83 82 84 75 85
REMARK SMILES IDX 81 86 83 87 80 88 76 89 77 90 78 91 79 92 58 93 59 94 67 95
REMARK SMILES IDX 60 96 66 97 68 98 65 99 61 100 62 101 63 102 64 103
REMARK H PARENT 8 19 88 56 56 67
REMARK Flexibility Score: inf
ROOT
ATOM      1  O   UNL A   1      42.279  19.533  25.975  1.00  0.00    -0.377 OA
ENDROOT
BRANCH   1   2
ATOM      2  C   UNL A   1      41.841  20.035  27.225  1.00  0.00     0.188 C 
BRANCH   2   3
ATOM      3  C   UNL A   1      40.667  21.032  27.295  1.00  0.00     0.188 C 
BRANCH   3   4
ATOM      4  O   UNL A   1      39.547  20.823  26.463  1.00  0.00    -0.376 OA
BRANCH   4   5
ATOM      5  C   UNL A   1      38.985  21.888  25.722  1.00  0.00     0.202 C 
BRANCH   5   6
ATOM      6  C   UNL A   1      37.585  22.450  25.981  1.00  0.00     0.261 C 
BRANCH   6   7
ATOM      7  O   UNL A   1      36.477  21.534  26.010  1.00  0.00    -0.463 OA
BRANCH   7   8
ATOM      8  C   UNL A   1      35.212  22.016  26.188  1.00  0.00     0.311 C 
ATOM      9  O   UNL A   1      34.758  22.393  27.263  1.00  0.00    -0.252 OA
BRANCH   8  10
ATOM     10  C   UNL A   1      34.345  21.908  24.926  1.00  0.00     0.121 C 
ATOM     11  C   UNL A   1      32.957  21.356  25.201  1.00  0.00     0.096 C 
ATOM     12  C   UNL A   1      32.369  20.922  23.835  1.00  0.00     0.026 C 
ATOM     13  C   UNL A   1      32.224  22.094  22.868  1.00  0.00     0.002 C 
ATOM     14  C   UNL A   1      34.213  23.157  24.019  1.00  0.00     0.017 C 
ATOM     15  C   UNL A   1      33.531  22.866  22.687  1.00  0.00     0.001 C 
BRANCH  11  16
ATOM     16  N   UNL A   1      31.964  22.152  25.984  1.00  0.00    -0.348 N 
ATOM     17  C   UNL A   1      31.470  23.409  26.262  1.00  0.00     0.251 C 
ATOM     18  O   UNL A   1      30.785  23.445  27.294  1.00  0.00    -0.269 OA
ATOM     19  H   UNL A   1      31.447  21.514  26.527  1.00  0.00     0.164 HD
BRANCH  17  20
ATOM     20  C   UNL A   1      31.587  24.718  25.524  1.00  0.00     0.045 A 
ATOM     21  C   UNL A   1      32.095  27.113  25.564  1.00  0.00     0.163 A 
ATOM     22  C   UNL A   1      31.959  25.864  26.223  1.00  0.00     0.064 A 
ATOM     23  C   UNL A   1      31.794  27.291  24.202  1.00  0.00     0.179 A 
ATOM     24  C   UNL A   1      31.546  26.142  23.488  1.00  0.00     0.087 A 
ATOM     25  C   UNL A   1      31.433  24.928  24.170  1.00  0.00     0.038 A 
ATOM     26  Cl  UNL A   1      31.466  26.027  21.759  1.00  0.00    -0.080 Cl
BRANCH  21  27
ATOM     27  O   UNL A   1      32.574  28.184  26.279  1.00  0.00    -0.493 OA
ATOM     28  C   UNL A   1      32.127  28.074  27.637  1.00  0.00     0.278 C 
ENDBRANCH  21  27
BRANCH  23  29
ATOM     29  O   UNL A   1      31.840  28.559  23.688  1.00  0.00    -0.491 OA
ATOM     30  C   UNL A   1      30.600  29.087  23.207  1.00  0.00     0.278 C 
ENDBRANCH  23  29
ENDBRANCH  17  20
ENDBRANCH  11  16
ENDBRANCH   8  10
ENDBRANCH   7   8
ENDBRANCH   6   7
ENDBRANCH   5   6
ENDBRANCH   4   5
ENDBRANCH   3   4
ENDBRANCH   2   3
ENDBRANCH   1   2
BRANCH   1  31
ATOM     31  C   UNL A   1      43.655  19.254  25.742  1.00  0.00     0.188 C 
BRANCH  31  32
ATOM     32  C   UNL A   1      44.282  19.465  24.351  1.00  0.00     0.188 C 
BRANCH  32  33
ATOM     33  O   UNL A   1      45.052  20.646  24.209  1.00  0.00    -0.376 OA
BRANCH  33  34
ATOM     34  C   UNL A   1      45.778  21.128  25.330  1.00  0.00     0.202 C 
BRANCH  34  35
ATOM     35  C   UNL A   1      45.737  22.635  25.639  1.00  0.00     0.261 C 
BRANCH  35  36
ATOM     36  O   UNL A   1      44.849  23.421  24.834  1.00  0.00    -0.460 OA
BRANCH  36  37
ATOM     37  C   UNL A   1      43.547  23.433  25.186  1.00  0.00     0.338 C 
ATOM     38  O   UNL A   1      42.660  22.713  24.752  1.00  0.00    -0.246 OA
BRANCH  37  39
ATOM     39  C   UNL A   1      43.406  24.331  26.343  1.00  0.00     0.060 A 
ATOM     40  C   UNL A   1      42.767  23.857  27.496  1.00  0.00     0.016 A 
ATOM     41  C   UNL A   1      43.896  25.638  26.283  1.00  0.00     0.016 A 
ATOM     42  C   UNL A   1      42.576  24.705  28.582  1.00  0.00     0.010 A 
ATOM     43  C   UNL A   1      43.674  26.496  27.360  1.00  0.00     0.010 A 
ATOM     44  C   UNL A   1      42.978  26.043  28.494  1.00  0.00    -0.014 A 
BRANCH  44  45
ATOM     45  C   UNL A   1      42.440  27.017  29.471  1.00  0.00     0.031 A 
ATOM     46  C   UNL A   1      43.159  27.158  30.785  1.00  0.00     0.074 A 
ATOM     47  C   UNL A   1      41.369  27.778  29.185  1.00  0.00     0.049 A 
ATOM     48  N   UNL A   1      42.858  27.890  31.824  1.00  0.00    -0.248 NA
ATOM     49  C   UNL A   1      44.387  26.359  30.947  1.00  0.00     0.031 C 
ATOM     50  C   UNL A   1      40.639  27.768  27.918  1.00  0.00     0.029 A 
ATOM     51  N   UNL A   1      40.705  28.703  29.950  1.00  0.00    -0.354 N 
ATOM     52  C   UNL A   1      43.843  27.624  32.769  1.00  0.00     0.074 A 
ATOM     53  C   UNL A   1      44.741  26.652  32.188  1.00  0.00     0.031 C 
ATOM     54  C   UNL A   1      39.614  28.635  28.001  1.00  0.00     0.029 A 
ATOM     55  C   UNL A   1      39.588  29.224  29.339  1.00  0.00     0.049 A 
ATOM     56  H   UNL A   1      40.999  28.969  30.851  1.00  0.00     0.167 HD
ATOM     57  C   UNL A   1      43.979  28.146  34.011  1.00  0.00     0.034 A 
ATOM     58  C   UNL A   1      38.637  30.050  29.825  1.00  0.00     0.034 A 
ATOM     59  C   UNL A   1      43.071  29.115  34.569  1.00  0.00     0.049 A 
ATOM     60  C   UNL A   1      38.768  30.550  31.247  1.00  0.00     0.074 A 
ATOM     61  C   UNL A   1      43.132  29.737  35.804  1.00  0.00     0.029 A 
ATOM     62  N   UNL A   1      41.926  29.587  33.940  1.00  0.00    -0.354 N 
ATOM     63  N   UNL A   1      39.716  30.312  32.127  1.00  0.00    -0.248 NA
ATOM     64  C   UNL A   1      37.705  31.437  31.740  1.00  0.00     0.031 C 
ATOM     65  C   UNL A   1      41.978  30.510  35.958  1.00  0.00     0.029 A 
ATOM     66  C   UNL A   1      41.248  30.455  34.781  1.00  0.00     0.049 A 
ATOM     67  H   UNL A   1      41.639  29.343  33.031  1.00  0.00     0.167 HD
ATOM     68  C   UNL A   1      39.380  31.053  33.259  1.00  0.00     0.074 A 
ATOM     69  C   UNL A   1      38.155  31.756  32.944  1.00  0.00     0.031 C 
ATOM     70  C   UNL A   1      40.026  31.150  34.450  1.00  0.00     0.034 A 
BRANCH  57  71
ATOM     71  C   UNL A   1      45.101  27.626  34.875  1.00  0.00     0.023 A 
ATOM     72  C   UNL A   1      44.958  26.492  35.693  1.00  0.00     0.031 A 
ATOM     73  C   UNL A   1      46.343  28.286  34.873  1.00  0.00     0.131 A 
ATOM     74  C   UNL A   1      46.024  26.081  36.508  1.00  0.00     0.055 A 
ATOM     75  C   UNL A   1      47.422  27.827  35.629  1.00  0.00     0.041 A 
ATOM     76  F   UNL A   1      46.527  29.394  34.137  1.00  0.00    -0.206 F 
ATOM     77  C   UNL A   1      47.264  26.724  36.460  1.00  0.00     0.022 A 
BRANCH  74  78
ATOM     78  S   UNL A   1      45.734  24.768  37.726  1.00  0.00     0.124 S 
ATOM     79  O   UNL A   1      45.885  23.567  36.907  1.00  0.00    -0.237 OA
ATOM     80  O   UNL A   1      46.785  25.008  38.706  1.00  0.00    -0.237 OA
ATOM     81  O   UNL A   1      44.373  25.026  38.192  1.00  0.00    -0.744 OA
ENDBRANCH  74  78
ENDBRANCH  57  71
BRANCH  58  82
ATOM     82  C   UNL A   1      37.445  30.415  29.002  1.00  0.00     0.023 A 
ATOM     83  C   UNL A   1      36.983  31.740  28.935  1.00  0.00     0.031 A 
ATOM     84  C   UNL A   1      36.688  29.424  28.348  1.00  0.00     0.131 A 
ATOM     85  C   UNL A   1      35.766  32.026  28.295  1.00  0.00     0.055 A 
ATOM     86  C   UNL A   1      35.518  29.726  27.651  1.00  0.00     0.041 A 
ATOM     87  F   UNL A   1      37.074  28.138  28.387  1.00  0.00    -0.206 F 
ATOM     88  C   UNL A   1      35.040  31.031  27.638  1.00  0.00     0.022 A 
BRANCH  85  89
ATOM     89  S   UNL A   1      35.076  33.697  28.453  1.00  0.00     0.124 S 
ATOM     90  O   UNL A   1      35.752  34.182  29.652  1.00  0.00    -0.237 OA
ATOM     91  O   UNL A   1      35.483  34.312  27.194  1.00  0.00    -0.237 OA
ATOM     92  O   UNL A   1      33.642  33.461  28.595  1.00  0.00    -0.744 OA
ENDBRANCH  85  89
ENDBRANCH  58  82
BRANCH  70  93
ATOM     93  C   UNL A   1      39.451  32.098  35.476  1.00  0.00     0.023 A 
ATOM     94  C   UNL A   1      39.862  33.440  35.566  1.00  0.00     0.031 A 
ATOM     95  C   UNL A   1      38.471  31.647  36.379  1.00  0.00     0.131 A 
ATOM     96  C   UNL A   1      39.342  34.262  36.576  1.00  0.00     0.055 A 
ATOM     97  C   UNL A   1      37.903  32.490  37.333  1.00  0.00     0.041 A 
ATOM     98  F   UNL A   1      38.041  30.375  36.342  1.00  0.00    -0.206 F 
ATOM     99  C   UNL A   1      38.349  33.804  37.445  1.00  0.00     0.022 A 
BRANCH  96 100
ATOM    100  S   UNL A   1      40.055  35.914  36.807  1.00  0.00     0.124 S 
ATOM    101  O   UNL A   1      39.252  36.440  37.906  1.00  0.00    -0.237 OA
ATOM    102  O   UNL A   1      41.448  35.613  37.122  1.00  0.00    -0.237 OA
ATOM    103  O   UNL A   1      39.840  36.564  35.515  1.00  0.00    -0.744 OA
ENDBRANCH  96 100
ENDBRANCH  70  93
ENDBRANCH  44  45
ENDBRANCH  37  39
ENDBRANCH  36  37
ENDBRANCH  35  36
ENDBRANCH  34  35
ENDBRANCH  33  34
ENDBRANCH  32  33
ENDBRANCH  31  32
ENDBRANCH   1  31
TORSDOF 27
ENDMDL
MODEL 2
REMARK VINA RESULT:     -10.0     10.606     16.272
REMARK SMILES COc1cc(C(=O)N[C@H]2CCCC[C@H]2C(=O)OCCOCCOCCOCCOC(=O)c2ccc(-c3c4nc(c(-c5cc(S(=O)(=O)[O-])ccc5F)c5ccc([nH]5)c(-c5cc(S(=O)(=O)[O-])ccc5F)c5nc(c(-c6cc(S(=O)(=O)[O-])ccc6F)c6ccc3[nH]6)C=C5)C=C4)cc2)cc(Cl)c1OC
REMARK SMILES IDX 23 1 22 2 21 3 20 4 19 5 18 6 17 7 15 8 16 9 14 10 9 11
REMARK SMILES IDX 10 12 11 13 13 14 12 15 8 16 6 17 7 18 5 20 3 21 4 22 98 23
REMARK SMILES IDX 96 24 95 25 97 26 2 27 1 28 99 29 100 30 24 31 25 32 26 33
REMARK SMILES IDX 27 34 28 35 29 36 30 37 31 38 32 39 33 40 94 41 34 42 93 43
REMARK SMILES IDX 35 44 36 45 37 46 87 47 38 48 92 49 86 50 88 51 39 52 91 53
REMARK SMILES IDX 85 54 84 55 40 57 72 58 52 59 71 60 53 61 56 62 70 63 89 64
REMARK SMILES IDX 54 65 55 66 69 68 90 69 57 70 41 71 42 72 50 73 43 74 49 75
REMARK SMILES IDX 51 76 48 77 44 78 45 79 46 80 47 81 73 82 74 83 82 84 75 85
REMARK SMILES IDX 81 86 83 87 80 88 76 89 77 90 78 91 79 92 58 93 59 94 67 95
REMARK SMILES IDX 60 96 66 97 68 98 65 99 61 100 62 101 63 102 64 103
REMARK H PARENT 8 19 88 56 56 67
REMARK Flexibility Score: inf
ROOT
ATOM      1  O   UNL A   1      42.140  41.394  25.032  1.00  0.00    -0.377 OA
ENDROOT
BRANCH   1   2
ATOM      2  C   UNL A   1      41.470  41.906  23.894  1.00  0.00     0.188 C 
BRANCH   2   3
ATOM      3  C   UNL A   1      42.250  42.689  22.819  1.00  0.00     0.188 C 
BRANCH   3   4
ATOM      4  O   UNL A   1      41.529  43.450  21.875  1.00  0.00    -0.376 OA
BRANCH   4   5
ATOM      5  C   UNL A   1      41.701  43.237  20.488  1.00  0.00     0.202 C 
BRANCH   5   6
ATOM      6  C   UNL A   1      42.971  43.621  19.726  1.00  0.00     0.261 C 
BRANCH   6   7
ATOM      7  O   UNL A   1      42.836  44.127  18.387  1.00  0.00    -0.463 OA
BRANCH   7   8
ATOM      8  C   UNL A   1      41.729  44.855  18.053  1.00  0.00     0.311 C 
ATOM      9  O   UNL A   1      40.607  44.385  17.905  1.00  0.00    -0.252 OA
BRANCH   8  10
ATOM     10  C   UNL A   1      42.051  46.322  17.736  1.00  0.00     0.121 C 
ATOM     11  C   UNL A   1      43.383  46.777  18.307  1.00  0.00     0.096 C 
ATOM     12  C   UNL A   1      43.378  48.326  18.276  1.00  0.00     0.026 C 
ATOM     13  C   UNL A   1      43.264  48.877  16.857  1.00  0.00     0.002 C 
ATOM     14  C   UNL A   1      41.955  46.793  16.264  1.00  0.00     0.017 C 
ATOM     15  C   UNL A   1      42.063  48.305  16.104  1.00  0.00     0.001 C 
BRANCH  11  16
ATOM     16  N   UNL A   1      44.666  46.234  17.768  1.00  0.00    -0.348 N 
ATOM     17  C   UNL A   1      45.880  45.655  18.071  1.00  0.00     0.251 C 
ATOM     18  O   UNL A   1      46.691  45.707  17.136  1.00  0.00    -0.269 OA
ATOM     19  H   UNL A   1      44.630  46.329  16.789  1.00  0.00     0.164 HD
BRANCH  17  20
ATOM     20  C   UNL A   1      46.373  44.949  19.308  1.00  0.00     0.045 A 
ATOM     21  C   UNL A   1      47.846  43.279  20.326  1.00  0.00     0.163 A 
ATOM     22  C   UNL A   1      47.343  43.957  19.186  1.00  0.00     0.064 A 
ATOM     23  C   UNL A   1      47.352  43.503  21.624  1.00  0.00     0.179 A 
ATOM     24  C   UNL A   1      46.486  44.563  21.760  1.00  0.00     0.087 A 
ATOM     25  C   UNL A   1      46.024  45.216  20.615  1.00  0.00     0.038 A 
ATOM     26  Cl  UNL A   1      45.978  45.264  23.264  1.00  0.00    -0.080 Cl
BRANCH  21  27
ATOM     27  O   UNL A   1      48.882  42.392  20.160  1.00  0.00    -0.493 OA
ATOM     28  C   UNL A   1      50.096  43.127  19.960  1.00  0.00     0.278 C 
ENDBRANCH  21  27
BRANCH  23  29
ATOM     29  O   UNL A   1      47.816  42.712  22.640  1.00  0.00    -0.491 OA
ATOM     30  C   UNL A   1      46.986  41.606  23.004  1.00  0.00     0.278 C 
ENDBRANCH  23  29
ENDBRANCH  17  20
ENDBRANCH  11  16
ENDBRANCH   8  10
ENDBRANCH   7   8
ENDBRANCH   6   7
ENDBRANCH   5   6
ENDBRANCH   4   5
ENDBRANCH   3   4
ENDBRANCH   2   3
ENDBRANCH   1   2
BRANCH   1  31
ATOM     31  C   UNL A   1      41.508  40.449  25.888  1.00  0.00     0.188 C 
BRANCH  31  32
ATOM     32  C   UNL A   1      42.338  39.487  26.758  1.00  0.00     0.188 C 
BRANCH  32  33
ATOM     33  O   UNL A   1      43.717  39.798  26.854  1.00  0.00    -0.376 OA
BRANCH  33  34
ATOM     34  C   UNL A   1      44.612  38.799  27.320  1.00  0.00     0.202 C 
BRANCH  34  35
ATOM     35  C   UNL A   1      44.996  38.796  28.811  1.00  0.00     0.261 C 
BRANCH  35  36
ATOM     36  O   UNL A   1      44.698  37.597  29.537  1.00  0.00    -0.460 OA
BRANCH  36  37
ATOM     37  C   UNL A   1      45.743  36.862  29.969  1.00  0.00     0.338 C 
ATOM     38  O   UNL A   1      46.660  37.237  30.685  1.00  0.00    -0.246 OA
BRANCH  37  39
ATOM     39  C   UNL A   1      45.487  35.461  29.599  1.00  0.00     0.060 A 
ATOM     40  C   UNL A   1      44.825  35.188  28.395  1.00  0.00     0.016 A 
ATOM     41  C   UNL A   1      45.894  34.425  30.443  1.00  0.00     0.016 A 
ATOM     42  C   UNL A   1      44.527  33.873  28.050  1.00  0.00     0.010 A 
ATOM     43  C   UNL A   1      45.565  33.111  30.111  1.00  0.00     0.010 A 
ATOM     44  C   UNL A   1      44.845  32.836  28.935  1.00  0.00    -0.014 A 
BRANCH  44  45
ATOM     45  C   UNL A   1      44.198  31.517  28.754  1.00  0.00     0.031 A 
ATOM     46  C   UNL A   1      44.981  30.447  28.041  1.00  0.00     0.074 A 
ATOM     47  C   UNL A   1      42.969  31.266  29.238  1.00  0.00     0.049 A 
ATOM     48  N   UNL A   1      44.622  29.238  27.705  1.00  0.00    -0.248 NA
ATOM     49  C   UNL A   1      46.360  30.795  27.654  1.00  0.00     0.031 C 
ATOM     50  C   UNL A   1      42.151  32.209  30.000  1.00  0.00     0.029 A 
ATOM     51  N   UNL A   1      42.191  30.139  29.152  1.00  0.00    -0.354 N 
ATOM     52  C   UNL A   1      45.718  28.688  27.049  1.00  0.00     0.074 A 
ATOM     53  C   UNL A   1      46.749  29.701  27.019  1.00  0.00     0.031 C 
ATOM     54  C   UNL A   1      40.976  31.625  30.296  1.00  0.00     0.029 A 
ATOM     55  C   UNL A   1      40.941  30.289  29.705  1.00  0.00     0.049 A 
ATOM     56  H   UNL A   1      42.499  29.302  28.733  1.00  0.00     0.167 HD
ATOM     57  C   UNL A   1      45.846  27.449  26.518  1.00  0.00     0.034 A 
ATOM     58  C   UNL A   1      39.882  29.452  29.697  1.00  0.00     0.034 A 
ATOM     59  C   UNL A   1      44.804  26.457  26.560  1.00  0.00     0.049 A 
ATOM     60  C   UNL A   1      40.025  28.106  29.020  1.00  0.00     0.074 A 
ATOM     61  C   UNL A   1      44.837  25.157  26.084  1.00  0.00     0.029 A 
ATOM     62  N   UNL A   1      43.535  26.655  27.089  1.00  0.00    -0.354 N 
ATOM     63  N   UNL A   1      41.074  27.585  28.422  1.00  0.00    -0.248 NA
ATOM     64  C   UNL A   1      38.845  27.231  29.023  1.00  0.00     0.031 C 
ATOM     65  C   UNL A   1      43.563  24.605  26.240  1.00  0.00     0.029 A 
ATOM     66  C   UNL A   1      42.763  25.519  26.907  1.00  0.00     0.049 A 
ATOM     67  H   UNL A   1      43.230  27.481  27.528  1.00  0.00     0.167 HD
ATOM     68  C   UNL A   1      40.687  26.308  28.016  1.00  0.00     0.074 A 
ATOM     69  C   UNL A   1      39.318  26.135  28.452  1.00  0.00     0.031 C 
ATOM     70  C   UNL A   1      41.397  25.363  27.349  1.00  0.00     0.034 A 
BRANCH  57  71
ATOM     71  C   UNL A   1      47.123  27.127  25.782  1.00  0.00     0.023 A 
ATOM     72  C   UNL A   1      48.208  26.486  26.403  1.00  0.00     0.031 A 
ATOM     73  C   UNL A   1      47.249  27.471  24.424  1.00  0.00     0.131 A 
ATOM     74  C   UNL A   1      49.388  26.252  25.679  1.00  0.00     0.055 A 
ATOM     75  C   UNL A   1      48.395  27.168  23.690  1.00  0.00     0.041 A 
ATOM     76  F   UNL A   1      46.257  28.115  23.788  1.00  0.00    -0.206 F 
ATOM     77  C   UNL A   1      49.478  26.562  24.320  1.00  0.00     0.022 A 
BRANCH  74  78
ATOM     78  S   UNL A   1      50.850  25.646  26.566  1.00  0.00     0.124 S 
ATOM     79  O   UNL A   1      51.273  26.843  27.291  1.00  0.00    -0.237 OA
ATOM     80  O   UNL A   1      50.302  24.568  27.379  1.00  0.00    -0.237 OA
ATOM     81  O   UNL A   1      51.751  25.226  25.495  1.00  0.00    -0.744 OA
ENDBRANCH  74  78
ENDBRANCH  57  71
BRANCH  58  82
ATOM     82  C   UNL A   1      38.573  29.866  30.287  1.00  0.00     0.023 A 
ATOM     83  C   UNL A   1      37.678  30.680  29.574  1.00  0.00     0.031 A 
ATOM     84  C   UNL A   1      38.242  29.535  31.614  1.00  0.00     0.131 A 
ATOM     85  C   UNL A   1      36.537  31.193  30.213  1.00  0.00     0.055 A 
ATOM     86  C   UNL A   1      37.069  29.988  32.220  1.00  0.00     0.041 A 
ATOM     87  F   UNL A   1      39.065  28.769  32.349  1.00  0.00    -0.206 F 
ATOM     88  C   UNL A   1      36.218  30.839  31.525  1.00  0.00     0.022 A 
BRANCH  85  89
ATOM     89  S   UNL A   1      35.548  32.443  29.346  1.00  0.00     0.124 S 
ATOM     90  O   UNL A   1      35.270  31.774  28.080  1.00  0.00    -0.237 OA
ATOM     91  O   UNL A   1      34.412  32.609  30.248  1.00  0.00    -0.237 OA
ATOM     92  O   UNL A   1      36.447  33.591  29.262  1.00  0.00    -0.744 OA
ENDBRANCH  85  89
ENDBRANCH  58  82
BRANCH  70  93
ATOM     93  C   UNL A   1      40.724  24.031  27.107  1.00  0.00     0.023 A 
ATOM     94  C   UNL A   1      39.516  23.924  26.397  1.00  0.00     0.031 A 
ATOM     95  C   UNL A   1      41.308  22.849  27.598  1.00  0.00     0.131 A 
ATOM     96  C   UNL A   1      38.901  22.671  26.252  1.00  0.00     0.055 A 
ATOM     97  C   UNL A   1      40.730  21.598  27.387  1.00  0.00     0.041 A 
ATOM     98  F   UNL A   1      42.461  22.891  28.287  1.00  0.00    -0.206 F 
ATOM     99  C   UNL A   1      39.511  21.506  26.723  1.00  0.00     0.022 A 
BRANCH  96 100
ATOM    100  S   UNL A   1      37.238  22.595  25.530  1.00  0.00     0.124 S 
ATOM    101  O   UNL A   1      37.506  22.875  24.124  1.00  0.00    -0.237 OA
ATOM    102  O   UNL A   1      36.823  21.230  25.842  1.00  0.00    -0.237 OA
ATOM    103  O   UNL A   1      36.507  23.642  26.243  1.00  0.00    -0.744 OA
ENDBRANCH  96 100
ENDBRANCH  70  93
ENDBRANCH  44  45
ENDBRANCH  37  39
ENDBRANCH  36  37
ENDBRANCH  35  36
ENDBRANCH  34  35
ENDBRANCH  33  34
ENDBRANCH  32  33
ENDBRANCH  31  32
ENDBRANCH   1  31
TORSDOF 27
ENDMDL
MODEL 3
REMARK VINA RESULT:      -9.4      1.887      2.363
REMARK SMILES COc1cc(C(=O)N[C@H]2CCCC[C@H]2C(=O)OCCOCCOCCOCCOC(=O)c2ccc(-c3c4nc(c(-c5cc(S(=O)(=O)[O-])ccc5F)c5ccc([nH]5)c(-c5cc(S(=O)(=O)[O-])ccc5F)c5nc(c(-c6cc(S(=O)(=O)[O-])ccc6F)c6ccc3[nH]6)C=C5)C=C4)cc2)cc(Cl)c1OC
REMARK SMILES IDX 23 1 22 2 21 3 20 4 19 5 18 6 17 7 15 8 16 9 14 10 9 11
REMARK SMILES IDX 10 12 11 13 13 14 12 15 8 16 6 17 7 18 5 20 3 21 4 22 98 23
REMARK SMILES IDX 96 24 95 25 97 26 2 27 1 28 99 29 100 30 24 31 25 32 26 33
REMARK SMILES IDX 27 34 28 35 29 36 30 37 31 38 32 39 33 40 94 41 34 42 93 43
REMARK SMILES IDX 35 44 36 45 37 46 87 47 38 48 92 49 86 50 88 51 39 52 91 53
REMARK SMILES IDX 85 54 84 55 40 57 72 58 52 59 71 60 53 61 56 62 70 63 89 64
REMARK SMILES IDX 54 65 55 66 69 68 90 69 57 70 41 71 42 72 50 73 43 74 49 75
REMARK SMILES IDX 51 76 48 77 44 78 45 79 46 80 47 81 73 82 74 83 82 84 75 85
REMARK SMILES IDX 81 86 83 87 80 88 76 89 77 90 78 91 79 92 58 93 59 94 67 95
REMARK SMILES IDX 60 96 66 97 68 98 65 99 61 100 62 101 63 102 64 103
REMARK H PARENT 8 19 88 56 56 67
REMARK Flexibility Score: inf
ROOT
ATOM      1  O   UNL A   1      42.273  19.502  25.990  1.00  0.00    -0.377 OA
ENDROOT
BRANCH   1   2
ATOM      2  C   UNL A   1      41.881  20.120  27.202  1.00  0.00     0.188 C 
BRANCH   2   3
ATOM      3  C   UNL A   1      40.732  21.149  27.214  1.00  0.00     0.188 C 
BRANCH   3   4
ATOM      4  O   UNL A   1      39.629  20.946  26.360  1.00  0.00    -0.376 OA
BRANCH   4   5
ATOM      5  C   UNL A   1      38.976  22.040  25.746  1.00  0.00     0.202 C 
BRANCH   5   6
ATOM      6  C   UNL A   1      37.533  22.444  26.057  1.00  0.00     0.261 C 
BRANCH   6   7
ATOM      7  O   UNL A   1      36.505  21.446  25.941  1.00  0.00    -0.463 OA
BRANCH   7   8
ATOM      8  C   UNL A   1      35.203  21.793  26.166  1.00  0.00     0.311 C 
ATOM      9  O   UNL A   1      34.717  21.981  27.276  1.00  0.00    -0.252 OA
BRANCH   8  10
ATOM     10  C   UNL A   1      34.352  21.791  24.889  1.00  0.00     0.121 C 
ATOM     11  C   UNL A   1      32.947  21.255  25.110  1.00  0.00     0.096 C 
ATOM     12  C   UNL A   1      32.368  20.927  23.711  1.00  0.00     0.026 C 
ATOM     13  C   UNL A   1      32.264  22.164  22.822  1.00  0.00     0.002 C 
ATOM     14  C   UNL A   1      34.260  23.099  24.066  1.00  0.00     0.017 C 
ATOM     15  C   UNL A   1      33.591  22.914  22.709  1.00  0.00     0.001 C 
BRANCH  11  16
ATOM     16  N   UNL A   1      31.962  22.021  25.932  1.00  0.00    -0.348 N 
ATOM     17  C   UNL A   1      31.470  23.266  26.261  1.00  0.00     0.251 C 
ATOM     18  O   UNL A   1      30.797  23.264  27.300  1.00  0.00    -0.269 OA
ATOM     19  H   UNL A   1      31.452  21.363  26.457  1.00  0.00     0.164 HD
BRANCH  17  20
ATOM     20  C   UNL A   1      31.577  24.601  25.569  1.00  0.00     0.045 A 
ATOM     21  C   UNL A   1      32.101  26.990  25.685  1.00  0.00     0.163 A 
ATOM     22  C   UNL A   1      31.974  25.718  26.301  1.00  0.00     0.064 A 
ATOM     23  C   UNL A   1      31.769  27.221  24.338  1.00  0.00     0.179 A 
ATOM     24  C   UNL A   1      31.496  26.100  23.588  1.00  0.00     0.087 A 
ATOM     25  C   UNL A   1      31.392  24.862  24.228  1.00  0.00     0.038 A 
ATOM     26  Cl  UNL A   1      31.372  26.049  21.859  1.00  0.00    -0.080 Cl
BRANCH  21  27
ATOM     27  O   UNL A   1      32.605  28.031  26.427  1.00  0.00    -0.493 OA
ATOM     28  C   UNL A   1      31.836  28.159  27.630  1.00  0.00     0.278 C 
ENDBRANCH  21  27
BRANCH  23  29
ATOM     29  O   UNL A   1      31.810  28.506  23.871  1.00  0.00    -0.491 OA
ATOM     30  C   UNL A   1      30.570  29.219  23.884  1.00  0.00     0.278 C 
ENDBRANCH  23  29
ENDBRANCH  17  20
ENDBRANCH  11  16
ENDBRANCH   8  10
ENDBRANCH   7   8
ENDBRANCH   6   7
ENDBRANCH   5   6
ENDBRANCH   4   5
ENDBRANCH   3   4
ENDBRANCH   2   3
ENDBRANCH   1   2
BRANCH   1  31
ATOM     31  C   UNL A   1      43.640  19.201  25.733  1.00  0.00     0.188 C 
BRANCH  31  32
ATOM     32  C   UNL A   1      44.182  19.141  24.292  1.00  0.00     0.188 C 
BRANCH  32  33
ATOM     33  O   UNL A   1      44.952  20.261  23.890  1.00  0.00    -0.376 OA
BRANCH  33  34
ATOM     34  C   UNL A   1      45.847  20.846  24.824  1.00  0.00     0.202 C 
BRANCH  34  35
ATOM     35  C   UNL A   1      45.891  22.380  24.936  1.00  0.00     0.261 C 
BRANCH  35  36
ATOM     36  O   UNL A   1      44.874  23.095  24.221  1.00  0.00    -0.460 OA
BRANCH  36  37
ATOM     37  C   UNL A   1      43.683  23.249  24.834  1.00  0.00     0.338 C 
ATOM     38  O   UNL A   1      42.665  22.603  24.637  1.00  0.00    -0.246 OA
BRANCH  37  39
ATOM     39  C   UNL A   1      43.870  24.201  25.940  1.00  0.00     0.060 A 
ATOM     40  C   UNL A   1      43.567  23.793  27.246  1.00  0.00     0.016 A 
ATOM     41  C   UNL A   1      44.335  25.494  25.685  1.00  0.00     0.016 A 
ATOM     42  C   UNL A   1      43.686  24.693  28.300  1.00  0.00     0.010 A 
ATOM     43  C   UNL A   1      44.422  26.404  26.738  1.00  0.00     0.010 A 
ATOM     44  C   UNL A   1      44.059  26.017  28.041  1.00  0.00    -0.014 A 
BRANCH  44  45
ATOM     45  C   UNL A   1      43.815  27.045  29.077  1.00  0.00     0.031 A 
ATOM     46  C   UNL A   1      44.923  27.326  30.056  1.00  0.00     0.074 A 
ATOM     47  C   UNL A   1      42.661  27.733  29.126  1.00  0.00     0.049 A 
ATOM     48  N   UNL A   1      44.940  28.128  31.086  1.00  0.00    -0.248 NA
ATOM     49  C   UNL A   1      46.186  26.597  29.841  1.00  0.00     0.031 C 
ATOM     50  C   UNL A   1      41.549  27.586  28.187  1.00  0.00     0.029 A 
ATOM     51  N   UNL A   1      42.231  28.689  30.011  1.00  0.00    -0.354 N 
ATOM     52  C   UNL A   1      46.201  27.985  31.654  1.00  0.00     0.074 A 
ATOM     53  C   UNL A   1      46.916  27.008  30.865  1.00  0.00     0.031 C 
ATOM     54  C   UNL A   1      40.555  28.412  28.559  1.00  0.00     0.029 A 
ATOM     55  C   UNL A   1      40.940  29.108  29.785  1.00  0.00     0.049 A 
ATOM     56  H   UNL A   1      42.793  29.042  30.739  1.00  0.00     0.167 HD
ATOM     57  C   UNL A   1      46.711  28.614  32.740  1.00  0.00     0.034 A 
ATOM     58  C   UNL A   1      40.154  29.931  30.512  1.00  0.00     0.034 A 
ATOM     59  C   UNL A   1      45.979  29.586  33.510  1.00  0.00     0.049 A 
ATOM     60  C   UNL A   1      40.722  30.553  31.770  1.00  0.00     0.074 A 
ATOM     61  C   UNL A   1      46.410  30.311  34.608  1.00  0.00     0.029 A 
ATOM     62  N   UNL A   1      44.661  29.955  33.281  1.00  0.00    -0.354 N 
ATOM     63  N   UNL A   1      41.924  30.430  32.287  1.00  0.00    -0.248 NA
ATOM     64  C   UNL A   1      39.829  31.431  32.538  1.00  0.00     0.031 C 
ATOM     65  C   UNL A   1      45.325  31.043  35.097  1.00  0.00     0.029 A 
ATOM     66  C   UNL A   1      44.247  30.860  34.245  1.00  0.00     0.049 A 
ATOM     67  H   UNL A   1      44.102  29.623  32.542  1.00  0.00     0.167 HD
ATOM     68  C   UNL A   1      41.939  31.247  33.417  1.00  0.00     0.074 A 
ATOM     69  C   UNL A   1      40.634  31.868  33.494  1.00  0.00     0.031 C 
ATOM     70  C   UNL A   1      42.940  31.471  34.307  1.00  0.00     0.034 A 
BRANCH  57  71
ATOM     71  C   UNL A   1      48.092  28.216  33.201  1.00  0.00     0.023 A 
ATOM     72  C   UNL A   1      48.305  27.207  34.155  1.00  0.00     0.031 A 
ATOM     73  C   UNL A   1      49.218  28.866  32.664  1.00  0.00     0.131 A 
ATOM     74  C   UNL A   1      49.610  26.912  34.578  1.00  0.00     0.055 A 
ATOM     75  C   UNL A   1      50.516  28.515  33.032  1.00  0.00     0.041 A 
ATOM     76  F   UNL A   1      49.073  29.861  31.774  1.00  0.00    -0.206 F 
ATOM     77  C   UNL A   1      50.719  27.538  34.002  1.00  0.00     0.022 A 
BRANCH  74  78
ATOM     78  S   UNL A   1      49.838  25.781  35.978  1.00  0.00     0.124 S 
ATOM     79  O   UNL A   1      50.935  26.422  36.700  1.00  0.00    -0.237 OA
ATOM     80  O   UNL A   1      48.536  25.819  36.631  1.00  0.00    -0.237 OA
ATOM     81  O   UNL A   1      50.182  24.511  35.341  1.00  0.00    -0.744 OA
ENDBRANCH  74  78
ENDBRANCH  57  71
BRANCH  58  82
ATOM     82  C   UNL A   1      38.733  30.174  30.123  1.00  0.00     0.023 A 
ATOM     83  C   UNL A   1      38.323  31.408  29.592  1.00  0.00     0.031 A 
ATOM     84  C   UNL A   1      37.740  29.207  30.372  1.00  0.00     0.131 A 
ATOM     85  C   UNL A   1      36.957  31.667  29.395  1.00  0.00     0.055 A 
ATOM     86  C   UNL A   1      36.391  29.444  30.105  1.00  0.00     0.041 A 
ATOM     87  F   UNL A   1      38.070  28.013  30.891  1.00  0.00    -0.206 F 
ATOM     88  C   UNL A   1      35.990  30.689  29.632  1.00  0.00     0.022 A 
BRANCH  85  89
ATOM     89  S   UNL A   1      36.450  33.354  28.956  1.00  0.00     0.124 S 
ATOM     90  O   UNL A   1      37.663  34.111  29.246  1.00  0.00    -0.237 OA
ATOM     91  O   UNL A   1      36.106  33.208  27.545  1.00  0.00    -0.237 OA
ATOM     92  O   UNL A   1      35.322  33.613  29.847  1.00  0.00    -0.744 OA
ENDBRANCH  85  89
ENDBRANCH  58  82
BRANCH  70  93
ATOM     93  C   UNL A   1      42.680  32.476  35.405  1.00  0.00     0.023 A 
ATOM     94  C   UNL A   1      42.847  33.858  35.207  1.00  0.00     0.031 A 
ATOM     95  C   UNL A   1      42.256  32.037  36.673  1.00  0.00     0.131 A 
ATOM     96  C   UNL A   1      42.651  34.744  36.276  1.00  0.00     0.055 A 
ATOM     97  C   UNL A   1      41.992  32.930  37.711  1.00  0.00     0.041 A 
ATOM     98  F   UNL A   1      42.083  30.729  36.921  1.00  0.00    -0.206 F 
ATOM     99  C   UNL A   1      42.203  34.292  37.520  1.00  0.00     0.022 A 
BRANCH  96 100
ATOM    100  S   UNL A   1      43.091  36.490  36.052  1.00  0.00     0.124 S 
ATOM    101  O   UNL A   1      44.189  36.405  35.095  1.00  0.00    -0.237 OA
ATOM    102  O   UNL A   1      41.846  37.063  35.546  1.00  0.00    -0.237 OA
ATOM    103  O   UNL A   1      43.470  36.924  37.395  1.00  0.00    -0.744 OA
ENDBRANCH  96 100
ENDBRANCH  70  93
ENDBRANCH  44  45
ENDBRANCH  37  39
ENDBRANCH  36  37
ENDBRANCH  35  36
ENDBRANCH  34  35
ENDBRANCH  33  34
ENDBRANCH  32  33
ENDBRANCH  31  32
ENDBRANCH   1  31
TORSDOF 27
ENDMDL
