MODEL 1
REMARK VINA RESULT:      -9.0      0.000      0.000
REMARK SMILES CCC(CC)(NC(=O)CS[C@H]1CCS(=O)(=O)C1)C(=O)OCCOCCOCCOCCOC(=O)c1ccc(-c2c3nc(c(-c4cc(S(=O)(=O)[O-])ccc4F)c4ccc([nH]4)c(-c4cc(S(=O)(=O)[O-])ccc4F)c4nc(c(-c5cc(S(=O)(=O)[O-])ccc5F)c5ccc2[nH]5)C=C4)C=C3)cc1
REMARK SMILES IDX 25 1 24 2 23 3 22 4 21 5 20 6 18 7 19 8 3 9 2 10 1 11 4 12
REMARK SMILES IDX 5 13 6 14 7 15 8 17 9 18 10 19 11 20 12 21 17 22 13 23 14 24
REMARK SMILES IDX 15 25 16 26 26 27 27 28 28 29 29 30 30 31 31 32 32 33 33 34
REMARK SMILES IDX 34 35 35 36 36 37 97 38 37 39 96 40 38 41 39 42 40 43 90 44
REMARK SMILES IDX 41 45 95 46 89 47 91 48 42 49 94 50 88 51 87 52 43 54 75 55
REMARK SMILES IDX 55 56 74 57 56 58 59 59 73 60 92 61 57 62 58 63 72 65 93 66
REMARK SMILES IDX 60 67 44 68 45 69 53 70 46 71 52 72 54 73 51 74 47 75 48 76
REMARK SMILES IDX 49 77 50 78 76 79 77 80 85 81 78 82 84 83 86 84 83 85 79 86
REMARK SMILES IDX 80 87 81 88 82 89 61 90 62 91 70 92 63 93 69 94 71 95 68 96
REMARK SMILES IDX 64 97 65 98 66 99 67 100
REMARK H PARENT 6 16 91 53 59 64
REMARK Flexibility Score: inf
ROOT
ATOM      1  C   UNL A   1      39.122  24.083  26.934  1.00  0.00     0.188 C 
ENDROOT
BRANCH   1   2
ATOM      2  C   UNL A   1      37.781  23.664  25.999  1.00  0.00     0.188 C 
BRANCH   2   3
ATOM      3  O   UNL A   1      36.269  23.678  25.992  1.00  0.00    -0.376 OA
BRANCH   3   4
ATOM      4  C   UNL A   1      35.047  22.854  26.182  1.00  0.00     0.202 C 
BRANCH   4   5
ATOM      5  C   UNL A   1      33.683  23.473  26.609  1.00  0.00     0.261 C 
BRANCH   5   6
ATOM      6  O   UNL A   1      33.470  24.679  25.927  1.00  0.00    -0.461 OA
BRANCH   6   7
ATOM      7  C   UNL A   1      32.135  24.886  25.821  1.00  0.00     0.331 C 
ATOM      8  O   UNL A   1      31.330  24.526  26.672  1.00  0.00    -0.249 OA
BRANCH   7   9
ATOM      9  C   UNL A   1      31.818  25.572  24.491  1.00  0.00     0.137 C 
BRANCH   9  10
ATOM     10  C   UNL A   1      32.110  27.148  24.486  1.00  0.00     0.037 C 
ATOM     11  C   UNL A   1      33.485  27.608  23.988  1.00  0.00     0.007 C 
ENDBRANCH   9  10
BRANCH   9  12
ATOM     12  C   UNL A   1      30.248  25.381  24.447  1.00  0.00     0.037 C 
ATOM     13  C   UNL A   1      29.381  26.562  24.010  1.00  0.00     0.007 C 
ENDBRANCH   9  12
BRANCH   9  14
ATOM     14  N   UNL A   1      32.520  24.702  23.312  1.00  0.00    -0.340 N 
ATOM     15  C   UNL A   1      32.918  23.359  23.001  1.00  0.00     0.230 C 
ATOM     16  H   UNL A   1      32.750  25.295  22.560  1.00  0.00     0.164 HD
ATOM     17  O   UNL A   1      33.760  23.359  22.079  1.00  0.00    -0.274 OA
BRANCH  15  18
ATOM     18  C   UNL A   1      32.335  21.820  23.545  1.00  0.00     0.169 C 
BRANCH  18  19
ATOM     19  S   UNL A   1      32.426  19.717  22.757  1.00  0.00    -0.148 SA
BRANCH  19  20
ATOM     20  C   UNL A   1      33.168  18.067  23.983  1.00  0.00     0.063 C 
ATOM     21  C   UNL A   1      32.291  17.877  25.263  1.00  0.00     0.031 C 
ATOM     22  C   UNL A   1      33.362  16.537  23.645  1.00  0.00     0.151 C 
ATOM     23  C   UNL A   1      33.022  16.848  26.168  1.00  0.00     0.138 C 
ATOM     24  S   UNL A   1      33.677  15.609  25.096  1.00  0.00     0.151 S 
ATOM     25  O   UNL A   1      35.102  15.490  25.273  1.00  0.00    -0.229 OA
ATOM     26  O   UNL A   1      32.803  14.442  25.080  1.00  0.00    -0.229 OA
ENDBRANCH  19  20
ENDBRANCH  18  19
ENDBRANCH  15  18
ENDBRANCH   9  14
ENDBRANCH   7   9
ENDBRANCH   6   7
ENDBRANCH   5   6
ENDBRANCH   4   5
ENDBRANCH   3   4
ENDBRANCH   2   3
ENDBRANCH   1   2
BRANCH   1  27
ATOM     27  O   UNL A   1      39.065  25.108  27.933  1.00  0.00    -0.377 OA
BRANCH  27  28
ATOM     28  C   UNL A   1      39.963  26.214  28.131  1.00  0.00     0.188 C 
BRANCH  28  29
ATOM     29  C   UNL A   1      39.666  27.698  27.816  1.00  0.00     0.188 C 
BRANCH  29  30
ATOM     30  O   UNL A   1      38.556  28.378  28.368  1.00  0.00    -0.376 OA
BRANCH  30  31
ATOM     31  C   UNL A   1      38.108  29.543  27.712  1.00  0.00     0.202 C 
BRANCH  31  32
ATOM     32  C   UNL A   1      37.181  30.473  28.511  1.00  0.00     0.261 C 
BRANCH  32  33
ATOM     33  O   UNL A   1      37.632  30.862  29.823  1.00  0.00    -0.460 OA
BRANCH  33  34
ATOM     34  C   UNL A   1      37.155  30.122  30.857  1.00  0.00     0.338 C 
ATOM     35  O   UNL A   1      35.996  29.783  31.021  1.00  0.00    -0.246 OA
BRANCH  34  36
ATOM     36  C   UNL A   1      38.253  29.643  31.741  1.00  0.00     0.060 A 
ATOM     37  C   UNL A   1      39.301  30.531  32.028  1.00  0.00     0.016 A 
ATOM     38  C   UNL A   1      38.339  28.313  32.161  1.00  0.00     0.016 A 
ATOM     39  C   UNL A   1      40.478  30.072  32.625  1.00  0.00     0.010 A 
ATOM     40  C   UNL A   1      39.527  27.849  32.752  1.00  0.00     0.010 A 
ATOM     41  C   UNL A   1      40.630  28.709  32.916  1.00  0.00    -0.014 A 
BRANCH  41  42
ATOM     42  C   UNL A   1      42.009  28.154  33.063  1.00  0.00     0.031 A 
ATOM     43  C   UNL A   1      42.774  27.838  31.797  1.00  0.00     0.074 A 
ATOM     44  C   UNL A   1      42.606  27.998  34.259  1.00  0.00     0.049 A 
ATOM     45  N   UNL A   1      43.976  27.343  31.642  1.00  0.00    -0.248 NA
ATOM     46  C   UNL A   1      42.077  28.116  30.531  1.00  0.00     0.031 C 
ATOM     47  C   UNL A   1      42.010  28.327  35.552  1.00  0.00     0.029 A 
ATOM     48  N   UNL A   1      43.858  27.526  34.578  1.00  0.00    -0.354 N 
ATOM     49  C   UNL A   1      44.172  27.242  30.266  1.00  0.00     0.074 A 
ATOM     50  C   UNL A   1      42.949  27.684  29.635  1.00  0.00     0.031 C 
ATOM     51  C   UNL A   1      42.896  28.046  36.524  1.00  0.00     0.029 A 
ATOM     52  C   UNL A   1      44.110  27.484  35.931  1.00  0.00     0.049 A 
ATOM     53  H   UNL A   1      44.515  27.244  33.901  1.00  0.00     0.167 HD
ATOM     54  C   UNL A   1      45.271  26.828  29.587  1.00  0.00     0.034 A 
ATOM     55  C   UNL A   1      45.185  27.028  36.609  1.00  0.00     0.034 A 
ATOM     56  C   UNL A   1      46.485  26.382  30.227  1.00  0.00     0.049 A 
ATOM     57  C   UNL A   1      46.368  26.486  35.834  1.00  0.00     0.074 A 
ATOM     58  C   UNL A   1      47.659  25.948  29.638  1.00  0.00     0.029 A 
ATOM     59  N   UNL A   1      46.676  26.301  31.600  1.00  0.00    -0.354 N 
ATOM     60  N   UNL A   1      46.538  26.394  34.535  1.00  0.00    -0.248 NA
ATOM     61  C   UNL A   1      47.509  26.000  36.622  1.00  0.00     0.031 C 
ATOM     62  C   UNL A   1      48.525  25.523  30.651  1.00  0.00     0.029 A 
ATOM     63  C   UNL A   1      47.935  25.790  31.877  1.00  0.00     0.049 A 
ATOM     64  H   UNL A   1      46.014  26.567  32.280  1.00  0.00     0.167 HD
ATOM     65  C   UNL A   1      47.825  25.887  34.353  1.00  0.00     0.074 A 
ATOM     66  C   UNL A   1      48.385  25.704  35.675  1.00  0.00     0.031 C 
ATOM     67  C   UNL A   1      48.487  25.607  33.200  1.00  0.00     0.034 A 
BRANCH  54  68
ATOM     68  C   UNL A   1      45.178  26.772  28.078  1.00  0.00     0.023 A 
ATOM     69  C   UNL A   1      44.851  25.589  27.391  1.00  0.00     0.031 A 
ATOM     70  C   UNL A   1      45.460  27.917  27.312  1.00  0.00     0.131 A 
ATOM     71  C   UNL A   1      44.891  25.559  25.987  1.00  0.00     0.055 A 
ATOM     72  C   UNL A   1      45.410  27.903  25.917  1.00  0.00     0.041 A 
ATOM     73  F   UNL A   1      45.805  29.070  27.906  1.00  0.00    -0.206 F 
ATOM     74  C   UNL A   1      45.141  26.715  25.246  1.00  0.00     0.022 A 
BRANCH  71  75
ATOM     75  S   UNL A   1      44.772  23.955  25.147  1.00  0.00     0.124 S 
ATOM     76  O   UNL A   1      43.411  24.001  24.616  1.00  0.00    -0.237 OA
ATOM     77  O   UNL A   1      45.845  24.033  24.164  1.00  0.00    -0.237 OA
ATOM     78  O   UNL A   1      44.980  22.988  26.222  1.00  0.00    -0.744 OA
ENDBRANCH  71  75
ENDBRANCH  54  68
BRANCH  55  79
ATOM     79  C   UNL A   1      45.204  27.029  38.104  1.00  0.00     0.023 A 
ATOM     80  C   UNL A   1      45.722  28.117  38.829  1.00  0.00     0.031 A 
ATOM     81  C   UNL A   1      44.771  25.905  38.832  1.00  0.00     0.131 A 
ATOM     82  C   UNL A   1      45.841  28.037  40.226  1.00  0.00     0.055 A 
ATOM     83  C   UNL A   1      44.837  25.856  40.226  1.00  0.00     0.041 A 
ATOM     84  F   UNL A   1      44.277  24.832  38.195  1.00  0.00    -0.206 F 
ATOM     85  C   UNL A   1      45.388  26.920  40.931  1.00  0.00     0.022 A 
BRANCH  82  86
ATOM     86  S   UNL A   1      46.695  29.376  41.106  1.00  0.00     0.124 S 
ATOM     87  O   UNL A   1      47.254  28.670  42.253  1.00  0.00    -0.237 OA
ATOM     88  O   UNL A   1      47.651  29.834  40.103  1.00  0.00    -0.237 OA
ATOM     89  O   UNL A   1      45.622  30.319  41.415  1.00  0.00    -0.744 OA
ENDBRANCH  82  86
ENDBRANCH  55  79
BRANCH  67  90
ATOM     90  C   UNL A   1      49.923  25.144  33.317  1.00  0.00     0.023 A 
ATOM     91  C   UNL A   1      50.285  23.790  33.198  1.00  0.00     0.031 A 
ATOM     92  C   UNL A   1      50.944  26.075  33.579  1.00  0.00     0.131 A 
ATOM     93  C   UNL A   1      51.615  23.400  33.421  1.00  0.00     0.055 A 
ATOM     94  C   UNL A   1      52.278  25.690  33.719  1.00  0.00     0.041 A 
ATOM     95  F   UNL A   1      50.661  27.383  33.707  1.00  0.00    -0.206 F 
ATOM     96  C   UNL A   1      52.617  24.343  33.659  1.00  0.00     0.022 A 
BRANCH  93  97
ATOM     97  S   UNL A   1      51.996  21.628  33.531  1.00  0.00     0.124 S 
ATOM     98  O   UNL A   1      50.806  21.105  34.197  1.00  0.00    -0.237 OA
ATOM     99  O   UNL A   1      52.157  21.256  32.129  1.00  0.00    -0.237 OA
ATOM    100  O   UNL A   1      53.220  21.589  34.328  1.00  0.00    -0.744 OA
ENDBRANCH  93  97
ENDBRANCH  67  90
ENDBRANCH  41  42
ENDBRANCH  34  36
ENDBRANCH  33  34
ENDBRANCH  32  33
ENDBRANCH  31  32
ENDBRANCH  30  31
ENDBRANCH  29  30
ENDBRANCH  28  29
ENDBRANCH  27  28
ENDBRANCH   1  27
TORSDOF 29
ENDMDL
MODEL 2
REMARK VINA RESULT:      -9.0      0.949      7.469
REMARK SMILES CCC(CC)(NC(=O)CS[C@H]1CCS(=O)(=O)C1)C(=O)OCCOCCOCCOCCOC(=O)c1ccc(-c2c3nc(c(-c4cc(S(=O)(=O)[O-])ccc4F)c4ccc([nH]4)c(-c4cc(S(=O)(=O)[O-])ccc4F)c4nc(c(-c5cc(S(=O)(=O)[O-])ccc5F)c5ccc2[nH]5)C=C4)C=C3)cc1
REMARK SMILES IDX 25 1 24 2 23 3 22 4 21 5 20 6 18 7 19 8 3 9 2 10 1 11 4 12
REMARK SMILES IDX 5 13 6 14 7 15 8 17 9 18 10 19 11 20 12 21 17 22 13 23 14 24
REMARK SMILES IDX 15 25 16 26 26 27 27 28 28 29 29 30 30 31 31 32 32 33 33 34
REMARK SMILES IDX 34 35 35 36 36 37 97 38 37 39 96 40 38 41 39 42 40 43 90 44
REMARK SMILES IDX 41 45 95 46 89 47 91 48 42 49 94 50 88 51 87 52 43 54 75 55
REMARK SMILES IDX 55 56 74 57 56 58 59 59 73 60 92 61 57 62 58 63 72 65 93 66
REMARK SMILES IDX 60 67 44 68 45 69 53 70 46 71 52 72 54 73 51 74 47 75 48 76
REMARK SMILES IDX 49 77 50 78 76 79 77 80 85 81 78 82 84 83 86 84 83 85 79 86
REMARK SMILES IDX 80 87 81 88 82 89 61 90 62 91 70 92 63 93 69 94 71 95 68 96
REMARK SMILES IDX 64 97 65 98 66 99 67 100
REMARK H PARENT 6 16 91 53 59 64
REMARK Flexibility Score: inf
ROOT
ATOM      1  C   UNL A   1      39.200  23.749  26.876  1.00  0.00     0.188 C 
ENDROOT
BRANCH   1   2
ATOM      2  C   UNL A   1      37.809  23.431  25.976  1.00  0.00     0.188 C 
BRANCH   2   3
ATOM      3  O   UNL A   1      36.298  23.432  26.057  1.00  0.00    -0.376 OA
BRANCH   3   4
ATOM      4  C   UNL A   1      35.116  22.781  26.678  1.00  0.00     0.202 C 
BRANCH   4   5
ATOM      5  C   UNL A   1      33.662  23.282  26.429  1.00  0.00     0.261 C 
BRANCH   5   6
ATOM      6  O   UNL A   1      33.665  24.664  26.200  1.00  0.00    -0.461 OA
BRANCH   6   7
ATOM      7  C   UNL A   1      32.386  25.112  26.245  1.00  0.00     0.331 C 
ATOM      8  O   UNL A   1      31.524  24.609  26.955  1.00  0.00    -0.249 OA
BRANCH   7   9
ATOM      9  C   UNL A   1      32.205  26.270  25.263  1.00  0.00     0.137 C 
BRANCH   9  10
ATOM     10  C   UNL A   1      32.896  27.638  25.735  1.00  0.00     0.037 C 
ATOM     11  C   UNL A   1      33.447  28.563  24.643  1.00  0.00     0.007 C 
ENDBRANCH   9  10
BRANCH   9  12
ATOM     12  C   UNL A   1      30.639  26.474  25.358  1.00  0.00     0.037 C 
ATOM     13  C   UNL A   1      29.873  26.845  24.087  1.00  0.00     0.007 C 
ENDBRANCH   9  12
BRANCH   9  14
ATOM     14  N   UNL A   1      32.611  25.728  23.786  1.00  0.00    -0.340 N 
ATOM     15  C   UNL A   1      32.654  24.519  23.013  1.00  0.00     0.230 C 
ATOM     16  H   UNL A   1      32.936  26.479  23.239  1.00  0.00     0.164 HD
ATOM     17  O   UNL A   1      33.419  24.657  22.036  1.00  0.00    -0.274 OA
BRANCH  15  18
ATOM     18  C   UNL A   1      31.745  23.046  23.111  1.00  0.00     0.169 C 
BRANCH  18  19
ATOM     19  S   UNL A   1      31.784  21.080  22.023  1.00  0.00    -0.148 SA
BRANCH  19  20
ATOM     20  C   UNL A   1      32.753  19.318  22.879  1.00  0.00     0.063 C 
ATOM     21  C   UNL A   1      33.475  19.668  24.221  1.00  0.00     0.031 C 
ATOM     22  C   UNL A   1      32.154  17.929  23.332  1.00  0.00     0.151 C 
ATOM     23  C   UNL A   1      34.311  18.425  24.628  1.00  0.00     0.138 C 
ATOM     24  S   UNL A   1      33.326  17.009  24.251  1.00  0.00     0.151 S 
ATOM     25  O   UNL A   1      34.031  16.127  23.357  1.00  0.00    -0.229 OA
ATOM     26  O   UNL A   1      32.666  16.519  25.455  1.00  0.00    -0.229 OA
ENDBRANCH  19  20
ENDBRANCH  18  19
ENDBRANCH  15  18
ENDBRANCH   9  14
ENDBRANCH   7   9
ENDBRANCH   6   7
ENDBRANCH   5   6
ENDBRANCH   4   5
ENDBRANCH   3   4
ENDBRANCH   2   3
ENDBRANCH   1   2
BRANCH   1  27
ATOM     27  O   UNL A   1      39.323  24.909  27.707  1.00  0.00    -0.377 OA
BRANCH  27  28
ATOM     28  C   UNL A   1      40.337  25.929  27.671  1.00  0.00     0.188 C 
BRANCH  28  29
ATOM     29  C   UNL A   1      40.096  27.453  27.570  1.00  0.00     0.188 C 
BRANCH  29  30
ATOM     30  O   UNL A   1      39.149  28.121  28.381  1.00  0.00    -0.376 OA
BRANCH  30  31
ATOM     31  C   UNL A   1      38.763  29.423  28.002  1.00  0.00     0.202 C 
BRANCH  31  32
ATOM     32  C   UNL A   1      37.542  30.019  28.721  1.00  0.00     0.261 C 
BRANCH  32  33
ATOM     33  O   UNL A   1      37.771  30.570  30.032  1.00  0.00    -0.460 OA
BRANCH  33  34
ATOM     34  C   UNL A   1      37.407  29.782  31.077  1.00  0.00     0.338 C 
ATOM     35  O   UNL A   1      36.273  29.423  31.342  1.00  0.00    -0.246 OA
BRANCH  34  36
ATOM     36  C   UNL A   1      38.593  29.281  31.825  1.00  0.00     0.060 A 
ATOM     37  C   UNL A   1      39.633  30.184  32.089  1.00  0.00     0.016 A 
ATOM     38  C   UNL A   1      38.755  27.927  32.133  1.00  0.00     0.016 A 
ATOM     39  C   UNL A   1      40.872  29.725  32.547  1.00  0.00     0.010 A 
ATOM     40  C   UNL A   1      40.004  27.466  32.583  1.00  0.00     0.010 A 
ATOM     41  C   UNL A   1      41.091  28.352  32.718  1.00  0.00    -0.014 A 
BRANCH  41  42
ATOM     42  C   UNL A   1      42.493  27.839  32.704  1.00  0.00     0.031 A 
ATOM     43  C   UNL A   1      43.160  27.592  34.040  1.00  0.00     0.074 A 
ATOM     44  C   UNL A   1      43.143  27.527  31.568  1.00  0.00     0.049 A 
ATOM     45  N   UNL A   1      44.365  27.159  34.311  1.00  0.00    -0.248 NA
ATOM     46  C   UNL A   1      42.349  27.881  35.234  1.00  0.00     0.031 C 
ATOM     47  C   UNL A   1      42.595  27.650  30.219  1.00  0.00     0.029 A 
ATOM     48  N   UNL A   1      44.411  27.033  31.370  1.00  0.00    -0.354 N 
ATOM     49  C   UNL A   1      44.458  27.136  35.701  1.00  0.00     0.074 A 
ATOM     50  C   UNL A   1      43.204  27.640  36.214  1.00  0.00     0.031 C 
ATOM     51  C   UNL A   1      43.523  27.243  29.333  1.00  0.00     0.029 A 
ATOM     52  C   UNL A   1      44.743  26.864  30.045  1.00  0.00     0.049 A 
ATOM     53  H   UNL A   1      45.026  26.819  32.109  1.00  0.00     0.167 HD
ATOM     54  C   UNL A   1      45.487  26.725  36.483  1.00  0.00     0.034 A 
ATOM     55  C   UNL A   1      45.902  26.467  29.475  1.00  0.00     0.034 A 
ATOM     56  C   UNL A   1      46.738  26.229  35.962  1.00  0.00     0.049 A 
ATOM     57  C   UNL A   1      47.070  26.097  30.364  1.00  0.00     0.074 A 
ATOM     58  C   UNL A   1      47.845  25.780  36.661  1.00  0.00     0.029 A 
ATOM     59  N   UNL A   1      47.053  26.129  34.613  1.00  0.00    -0.354 N 
ATOM     60  N   UNL A   1      47.144  26.082  31.675  1.00  0.00    -0.248 NA
ATOM     61  C   UNL A   1      48.307  25.676  29.691  1.00  0.00     0.031 C 
ATOM     62  C   UNL A   1      48.857  25.493  35.739  1.00  0.00     0.029 A 
ATOM     63  C   UNL A   1      48.349  25.660  34.460  1.00  0.00     0.049 A 
ATOM     64  H   UNL A   1      46.446  26.358  33.872  1.00  0.00     0.167 HD
ATOM     65  C   UNL A   1      48.418  25.603  31.981  1.00  0.00     0.074 A 
ATOM     66  C   UNL A   1      49.070  25.333  30.716  1.00  0.00     0.031 C 
ATOM     67  C   UNL A   1      48.994  25.396  33.194  1.00  0.00     0.034 A 
BRANCH  54  68
ATOM     68  C   UNL A   1      45.324  26.865  37.980  1.00  0.00     0.023 A 
ATOM     69  C   UNL A   1      45.713  28.027  38.672  1.00  0.00     0.031 A 
ATOM     70  C   UNL A   1      44.805  25.798  38.736  1.00  0.00     0.131 A 
ATOM     71  C   UNL A   1      45.650  28.064  40.074  1.00  0.00     0.055 A 
ATOM     72  C   UNL A   1      44.661  25.875  40.122  1.00  0.00     0.041 A 
ATOM     73  F   UNL A   1      44.441  24.651  38.140  1.00  0.00    -0.206 F 
ATOM     74  C   UNL A   1      45.100  27.006  40.802  1.00  0.00     0.022 A 
BRANCH  71  75
ATOM     75  S   UNL A   1      46.442  29.444  40.946  1.00  0.00     0.124 S 
ATOM     76  O   UNL A   1      46.584  30.427  39.874  1.00  0.00    -0.237 OA
ATOM     77  O   UNL A   1      45.468  29.763  41.982  1.00  0.00    -0.237 OA
ATOM     78  O   UNL A   1      47.698  28.871  41.425  1.00  0.00    -0.744 OA
ENDBRANCH  71  75
ENDBRANCH  54  68
BRANCH  55  79
ATOM     79  C   UNL A   1      46.045  26.418  27.987  1.00  0.00     0.023 A 
ATOM     80  C   UNL A   1      45.780  25.242  27.265  1.00  0.00     0.031 A 
ATOM     81  C   UNL A   1      46.525  27.531  27.272  1.00  0.00     0.131 A 
ATOM     82  C   UNL A   1      46.043  25.189  25.886  1.00  0.00     0.055 A 
ATOM     83  C   UNL A   1      46.728  27.491  25.891  1.00  0.00     0.041 A 
ATOM     84  F   UNL A   1      46.807  28.678  27.908  1.00  0.00    -0.206 F 
ATOM     85  C   UNL A   1      46.500  26.311  25.191  1.00  0.00     0.022 A 
BRANCH  82  86
ATOM     86  S   UNL A   1      45.876  23.600  25.026  1.00  0.00     0.124 S 
ATOM     87  O   UNL A   1      46.410  22.669  26.014  1.00  0.00    -0.237 OA
ATOM     88  O   UNL A   1      44.437  23.533  24.791  1.00  0.00    -0.237 OA
ATOM     89  O   UNL A   1      46.692  23.773  23.826  1.00  0.00    -0.744 OA
ENDBRANCH  82  86
ENDBRANCH  55  79
BRANCH  67  90
ATOM     90  C   UNL A   1      50.375  24.777  33.212  1.00  0.00     0.023 A 
ATOM     91  C   UNL A   1      50.572  23.387  33.289  1.00  0.00     0.031 A 
ATOM     92  C   UNL A   1      51.516  25.600  33.176  1.00  0.00     0.131 A 
ATOM     93  C   UNL A   1      51.872  22.870  33.409  1.00  0.00     0.055 A 
ATOM     94  C   UNL A   1      52.808  25.075  33.215  1.00  0.00     0.041 A 
ATOM     95  F   UNL A   1      51.394  26.936  33.107  1.00  0.00    -0.206 F 
ATOM     96  C   UNL A   1      52.992  23.703  33.351  1.00  0.00     0.022 A 
BRANCH  93  97
ATOM     97  S   UNL A   1      52.076  21.105  33.781  1.00  0.00     0.124 S 
ATOM     98  O   UNL A   1      51.124  20.491  32.861  1.00  0.00    -0.237 OA
ATOM     99  O   UNL A   1      53.487  20.884  33.479  1.00  0.00    -0.237 OA
ATOM    100  O   UNL A   1      51.723  21.010  35.196  1.00  0.00    -0.744 OA
ENDBRANCH  93  97
ENDBRANCH  67  90
ENDBRANCH  41  42
ENDBRANCH  34  36
ENDBRANCH  33  34
ENDBRANCH  32  33
ENDBRANCH  31  32
ENDBRANCH  30  31
ENDBRANCH  29  30
ENDBRANCH  28  29
ENDBRANCH  27  28
ENDBRANCH   1  27
TORSDOF 29
ENDMDL
MODEL 3
REMARK VINA RESULT:      -7.7      2.035      2.420
REMARK SMILES CCC(CC)(NC(=O)CS[C@H]1CCS(=O)(=O)C1)C(=O)OCCOCCOCCOCCOC(=O)c1ccc(-c2c3nc(c(-c4cc(S(=O)(=O)[O-])ccc4F)c4ccc([nH]4)c(-c4cc(S(=O)(=O)[O-])ccc4F)c4nc(c(-c5cc(S(=O)(=O)[O-])ccc5F)c5ccc2[nH]5)C=C4)C=C3)cc1
REMARK SMILES IDX 25 1 24 2 23 3 22 4 21 5 20 6 18 7 19 8 3 9 2 10 1 11 4 12
REMARK SMILES IDX 5 13 6 14 7 15 8 17 9 18 10 19 11 20 12 21 17 22 13 23 14 24
REMARK SMILES IDX 15 25 16 26 26 27 27 28 28 29 29 30 30 31 31 32 32 33 33 34
REMARK SMILES IDX 34 35 35 36 36 37 97 38 37 39 96 40 38 41 39 42 40 43 90 44
REMARK SMILES IDX 41 45 95 46 89 47 91 48 42 49 94 50 88 51 87 52 43 54 75 55
REMARK SMILES IDX 55 56 74 57 56 58 59 59 73 60 92 61 57 62 58 63 72 65 93 66
REMARK SMILES IDX 60 67 44 68 45 69 53 70 46 71 52 72 54 73 51 74 47 75 48 76
REMARK SMILES IDX 49 77 50 78 76 79 77 80 85 81 78 82 84 83 86 84 83 85 79 86
REMARK SMILES IDX 80 87 81 88 82 89 61 90 62 91 70 92 63 93 69 94 71 95 68 96
REMARK SMILES IDX 64 97 65 98 66 99 67 100
REMARK H PARENT 6 16 91 53 59 64
REMARK Flexibility Score: inf
ROOT
ATOM      1  C   UNL A   1      39.249  24.242  27.269  1.00  0.00     0.188 C 
ENDROOT
BRANCH   1   2
ATOM      2  C   UNL A   1      37.967  24.131  26.176  1.00  0.00     0.188 C 
BRANCH   2   3
ATOM      3  O   UNL A   1      36.458  24.100  26.094  1.00  0.00    -0.376 OA
BRANCH   3   4
ATOM      4  C   UNL A   1      35.274  23.243  25.824  1.00  0.00     0.202 C 
BRANCH   4   5
ATOM      5  C   UNL A   1      33.887  23.508  26.480  1.00  0.00     0.261 C 
BRANCH   5   6
ATOM      6  O   UNL A   1      33.569  24.870  26.395  1.00  0.00    -0.461 OA
BRANCH   6   7
ATOM      7  C   UNL A   1      32.224  25.008  26.491  1.00  0.00     0.331 C 
ATOM      8  O   UNL A   1      31.528  24.308  27.218  1.00  0.00    -0.249 OA
BRANCH   7   9
ATOM      9  C   UNL A   1      31.743  26.106  25.543  1.00  0.00     0.137 C 
BRANCH   9  10
ATOM     10  C   UNL A   1      32.126  27.589  26.017  1.00  0.00     0.037 C 
ATOM     11  C   UNL A   1      31.754  27.990  27.450  1.00  0.00     0.007 C 
ENDBRANCH   9  10
BRANCH   9  12
ATOM     12  C   UNL A   1      30.177  25.948  25.704  1.00  0.00     0.037 C 
ATOM     13  C   UNL A   1      29.282  26.293  24.513  1.00  0.00     0.007 C 
ENDBRANCH   9  12
BRANCH   9  14
ATOM     14  N   UNL A   1      32.196  25.688  24.039  1.00  0.00    -0.340 N 
ATOM     15  C   UNL A   1      32.340  24.535  23.197  1.00  0.00     0.230 C 
ATOM     16  H   UNL A   1      32.460  26.495  23.540  1.00  0.00     0.164 HD
ATOM     17  O   UNL A   1      33.094  24.793  22.235  1.00  0.00    -0.274 OA
BRANCH  15  18
ATOM     18  C   UNL A   1      31.556  22.990  23.200  1.00  0.00     0.169 C 
BRANCH  18  19
ATOM     19  S   UNL A   1      31.959  21.001  22.234  1.00  0.00    -0.148 SA
BRANCH  19  20
ATOM     20  C   UNL A   1      32.487  19.241  23.416  1.00  0.00     0.063 C 
ATOM     21  C   UNL A   1      32.847  18.030  22.495  1.00  0.00     0.031 C 
ATOM     22  C   UNL A   1      33.626  19.021  24.487  1.00  0.00     0.151 C 
ATOM     23  C   UNL A   1      32.983  16.784  23.411  1.00  0.00     0.138 C 
ATOM     24  S   UNL A   1      33.801  17.324  24.879  1.00  0.00     0.151 S 
ATOM     25  O   UNL A   1      33.002  17.029  26.040  1.00  0.00    -0.229 OA
ATOM     26  O   UNL A   1      35.220  16.994  24.816  1.00  0.00    -0.229 OA
ENDBRANCH  19  20
ENDBRANCH  18  19
ENDBRANCH  15  18
ENDBRANCH   9  14
ENDBRANCH   7   9
ENDBRANCH   6   7
ENDBRANCH   5   6
ENDBRANCH   4   5
ENDBRANCH   3   4
ENDBRANCH   2   3
ENDBRANCH   1   2
BRANCH   1  27
ATOM     27  O   UNL A   1      39.153  24.994  28.484  1.00  0.00    -0.377 OA
BRANCH  27  28
ATOM     28  C   UNL A   1      39.623  26.328  28.747  1.00  0.00     0.188 C 
BRANCH  28  29
ATOM     29  C   UNL A   1      39.041  27.634  28.158  1.00  0.00     0.188 C 
BRANCH  29  30
ATOM     30  O   UNL A   1      38.222  28.503  28.915  1.00  0.00    -0.376 OA
BRANCH  30  31
ATOM     31  C   UNL A   1      37.247  29.253  28.225  1.00  0.00     0.202 C 
BRANCH  31  32
ATOM     32  C   UNL A   1      37.020  30.697  28.700  1.00  0.00     0.261 C 
BRANCH  32  33
ATOM     33  O   UNL A   1      37.924  31.194  29.707  1.00  0.00    -0.460 OA
BRANCH  33  34
ATOM     34  C   UNL A   1      37.613  30.875  30.990  1.00  0.00     0.338 C 
ATOM     35  O   UNL A   1      36.489  30.785  31.454  1.00  0.00    -0.246 OA
BRANCH  34  36
ATOM     36  C   UNL A   1      38.826  30.515  31.775  1.00  0.00     0.060 A 
ATOM     37  C   UNL A   1      39.929  31.380  31.714  1.00  0.00     0.016 A 
ATOM     38  C   UNL A   1      38.943  29.289  32.435  1.00  0.00     0.016 A 
ATOM     39  C   UNL A   1      41.175  30.977  32.205  1.00  0.00     0.010 A 
ATOM     40  C   UNL A   1      40.197  28.880  32.919  1.00  0.00     0.010 A 
ATOM     41  C   UNL A   1      41.335  29.691  32.736  1.00  0.00    -0.014 A 
BRANCH  41  42
ATOM     42  C   UNL A   1      42.704  29.096  32.781  1.00  0.00     0.031 A 
ATOM     43  C   UNL A   1      43.217  28.427  31.523  1.00  0.00     0.074 A 
ATOM     44  C   UNL A   1      43.508  29.197  33.856  1.00  0.00     0.049 A 
ATOM     45  N   UNL A   1      44.359  27.829  31.295  1.00  0.00    -0.248 NA
ATOM     46  C   UNL A   1      42.307  28.434  30.367  1.00  0.00     0.031 C 
ATOM     47  C   UNL A   1      43.166  29.873  35.106  1.00  0.00     0.029 A 
ATOM     48  N   UNL A   1      44.785  28.733  34.064  1.00  0.00    -0.354 N 
ATOM     49  C   UNL A   1      44.297  27.381  29.977  1.00  0.00     0.074 A 
ATOM     50  C   UNL A   1      42.989  27.737  29.474  1.00  0.00     0.031 C 
ATOM     51  C   UNL A   1      44.209  29.779  35.951  1.00  0.00     0.029 A 
ATOM     52  C   UNL A   1      45.280  29.007  35.319  1.00  0.00     0.049 A 
ATOM     53  H   UNL A   1      45.300  28.250  33.378  1.00  0.00     0.167 HD
ATOM     54  C   UNL A   1      45.242  26.739  29.247  1.00  0.00     0.034 A 
ATOM     55  C   UNL A   1      46.451  28.659  35.895  1.00  0.00     0.034 A 
ATOM     56  C   UNL A   1      46.543  26.382  29.760  1.00  0.00     0.049 A 
ATOM     57  C   UNL A   1      47.459  27.864  35.092  1.00  0.00     0.074 A 
ATOM     58  C   UNL A   1      47.579  25.738  29.107  1.00  0.00     0.029 A 
ATOM     59  N   UNL A   1      46.981  26.627  31.055  1.00  0.00    -0.354 N 
ATOM     60  N   UNL A   1      47.385  27.446  33.849  1.00  0.00    -0.248 NA
ATOM     61  C   UNL A   1      48.714  27.509  35.769  1.00  0.00     0.031 C 
ATOM     62  C   UNL A   1      48.606  25.516  30.030  1.00  0.00     0.029 A 
ATOM     63  C   UNL A   1      48.257  26.115  31.231  1.00  0.00     0.049 A 
ATOM     64  H   UNL A   1      46.461  27.095  31.748  1.00  0.00     0.167 HD
ATOM     65  C   UNL A   1      48.605  26.823  33.583  1.00  0.00     0.074 A 
ATOM     66  C   UNL A   1      49.394  26.931  34.792  1.00  0.00     0.031 C 
ATOM     67  C   UNL A   1      49.038  26.224  32.442  1.00  0.00     0.034 A 
BRANCH  54  68
ATOM     68  C   UNL A   1      44.873  26.322  27.840  1.00  0.00     0.023 A 
ATOM     69  C   UNL A   1      44.249  25.092  27.563  1.00  0.00     0.031 A 
ATOM     70  C   UNL A   1      45.187  27.156  26.752  1.00  0.00     0.131 A 
ATOM     71  C   UNL A   1      44.032  24.699  26.232  1.00  0.00     0.055 A 
ATOM     72  C   UNL A   1      44.886  26.799  25.437  1.00  0.00     0.041 A 
ATOM     73  F   UNL A   1      45.807  28.331  26.947  1.00  0.00    -0.206 F 
ATOM     74  C   UNL A   1      44.320  25.557  25.168  1.00  0.00     0.022 A 
BRANCH  71  75
ATOM     75  S   UNL A   1      43.516  22.991  25.901  1.00  0.00     0.124 S 
ATOM     76  O   UNL A   1      44.717  22.244  26.270  1.00  0.00    -0.237 OA
ATOM     77  O   UNL A   1      42.368  22.832  26.785  1.00  0.00    -0.237 OA
ATOM     78  O   UNL A   1      43.208  22.996  24.473  1.00  0.00    -0.744 OA
ENDBRANCH  71  75
ENDBRANCH  54  68
BRANCH  55  79
ATOM     79  C   UNL A   1      46.744  29.025  37.315  1.00  0.00     0.023 A 
ATOM     80  C   UNL A   1      47.422  30.213  37.640  1.00  0.00     0.031 A 
ATOM     81  C   UNL A   1      46.415  28.151  38.369  1.00  0.00     0.131 A 
ATOM     82  C   UNL A   1      47.793  30.469  38.971  1.00  0.00     0.055 A 
ATOM     83  C   UNL A   1      46.733  28.440  39.697  1.00  0.00     0.041 A 
ATOM     84  F   UNL A   1      45.777  26.997  38.120  1.00  0.00    -0.206 F 
ATOM     85  C   UNL A   1      47.440  29.598  40.004  1.00  0.00     0.022 A 
BRANCH  82  86
ATOM     86  S   UNL A   1      48.838  31.911  39.322  1.00  0.00     0.124 S 
ATOM     87  O   UNL A   1      49.032  32.470  37.989  1.00  0.00    -0.237 OA
ATOM     88  O   UNL A   1      47.992  32.683  40.227  1.00  0.00    -0.237 OA
ATOM     89  O   UNL A   1      50.030  31.327  39.935  1.00  0.00    -0.744 OA
ENDBRANCH  82  86
ENDBRANCH  55  79
BRANCH  67  90
ATOM     90  C   UNL A   1      50.460  25.707  32.425  1.00  0.00     0.023 A 
ATOM     91  C   UNL A   1      51.547  26.517  32.052  1.00  0.00     0.031 A 
ATOM     92  C   UNL A   1      50.726  24.368  32.764  1.00  0.00     0.131 A 
ATOM     93  C   UNL A   1      52.832  25.960  31.950  1.00  0.00     0.055 A 
ATOM     94  C   UNL A   1      52.018  23.841  32.739  1.00  0.00     0.041 A 
ATOM     95  F   UNL A   1      49.729  23.542  33.125  1.00  0.00    -0.206 F 
ATOM     96  C   UNL A   1      53.078  24.634  32.311  1.00  0.00     0.022 A 
BRANCH  93  97
ATOM     97  S   UNL A   1      54.155  26.955  31.206  1.00  0.00     0.124 S 
ATOM     98  O   UNL A   1      53.446  27.647  30.134  1.00  0.00    -0.237 OA
ATOM     99  O   UNL A   1      54.586  27.787  32.325  1.00  0.00    -0.237 OA
ATOM    100  O   UNL A   1      55.128  25.958  30.765  1.00  0.00    -0.744 OA
ENDBRANCH  93  97
ENDBRANCH  67  90
ENDBRANCH  41  42
ENDBRANCH  34  36
ENDBRANCH  33  34
ENDBRANCH  32  33
ENDBRANCH  31  32
ENDBRANCH  30  31
ENDBRANCH  29  30
ENDBRANCH  28  29
ENDBRANCH  27  28
ENDBRANCH   1  27
TORSDOF 29
ENDMDL
