MODEL 1
REMARK VINA RESULT:      -6.8      0.000      0.000
REMARK SMILES CC1(C)NC(=O)N(CCC(=O)N2CCC[C@H]2C(=O)OCCOCCOCCOCCOC(=O)c2ccc(-c3c4nc(c(-c5cc(S(=O)(=O)[O-])ccc5F)c5ccc([nH]5)c(-c5cc(S(=O)(=O)[O-])ccc5F)c5nc(c(-c6cc(S(=O)(=O)[O-])ccc6F)c6ccc3[nH]6)C=C5)C=C4)cc2)C1=O
REMARK SMILES IDX 24 1 23 2 22 3 21 4 20 5 19 6 17 7 18 8 16 9 12 10 13 11
REMARK SMILES IDX 14 12 15 13 10 14 11 15 9 16 8 17 7 18 1 19 2 20 3 21 4 22
REMARK SMILES IDX 97 23 5 24 98 26 6 27 25 28 26 29 27 30 28 31 29 32 30 33
REMARK SMILES IDX 31 34 32 35 33 36 34 37 35 38 96 39 36 40 95 41 37 42 38 43
REMARK SMILES IDX 39 44 89 45 40 46 94 47 88 48 90 49 41 50 93 51 87 52 86 53
REMARK SMILES IDX 42 55 74 56 54 57 73 58 55 59 58 60 72 61 91 62 56 63 57 64
REMARK SMILES IDX 71 66 92 67 59 68 43 69 44 70 52 71 45 72 51 73 53 74 50 75
REMARK SMILES IDX 46 76 47 77 48 78 49 79 75 80 76 81 84 82 77 83 83 84 85 85
REMARK SMILES IDX 82 86 78 87 79 88 80 89 81 90 60 91 61 92 69 93 62 94 68 95
REMARK SMILES IDX 70 96 67 97 63 98 64 99 65 100 66 101
REMARK H PARENT 4 25 90 54 58 65
REMARK Flexibility Score: inf
ROOT
ATOM      1  C   UNL A   1      48.757  41.215  29.262  1.00  0.00     0.188 C 
ENDROOT
BRANCH   1   2
ATOM      2  C   UNL A   1      47.582  41.803  28.473  1.00  0.00     0.188 C 
BRANCH   2   3
ATOM      3  O   UNL A   1      46.909  42.876  29.114  1.00  0.00    -0.376 OA
BRANCH   3   4
ATOM      4  C   UNL A   1      45.893  43.535  28.367  1.00  0.00     0.202 C 
BRANCH   4   5
ATOM      5  C   UNL A   1      44.912  44.392  29.173  1.00  0.00     0.261 C 
BRANCH   5   6
ATOM      6  O   UNL A   1      44.800  44.011  30.560  1.00  0.00    -0.462 OA
BRANCH   6   7
ATOM      7  C   UNL A   1      43.564  43.866  31.086  1.00  0.00     0.328 C 
ATOM      8  O   UNL A   1      43.015  44.704  31.795  1.00  0.00    -0.250 OA
BRANCH   7   9
ATOM      9  C   UNL A   1      42.907  42.515  30.727  1.00  0.00     0.195 C 
ATOM     10  N   UNL A   1      43.719  41.419  30.180  1.00  0.00    -0.329 N 
ATOM     11  C   UNL A   1      44.214  40.656  31.316  1.00  0.00     0.120 C 
ATOM     12  C   UNL A   1      43.041  40.628  32.280  1.00  0.00     0.024 C 
ATOM     13  C   UNL A   1      42.292  41.933  32.011  1.00  0.00     0.039 C 
BRANCH  10  14
ATOM     14  C   UNL A   1      43.227  40.692  29.086  1.00  0.00     0.225 C 
ATOM     15  O   UNL A   1      42.033  40.423  28.956  1.00  0.00    -0.275 OA
BRANCH  14  16
ATOM     16  C   UNL A   1      44.268  40.044  28.186  1.00  0.00     0.122 C 
BRANCH  16  17
ATOM     17  C   UNL A   1      44.022  39.864  26.691  1.00  0.00     0.140 C 
BRANCH  17  18
ATOM     18  N   UNL A   1      43.861  41.059  25.877  1.00  0.00    -0.262 N 
ATOM     19  C   UNL A   1      44.634  42.787  22.940  1.00  0.00     0.045 C 
ATOM     20  C   UNL A   1      44.240  42.889  24.404  1.00  0.00     0.115 C 
ATOM     21  C   UNL A   1      44.571  44.265  24.957  1.00  0.00     0.045 C 
ATOM     22  N   UNL A   1      42.848  42.572  24.600  1.00  0.00    -0.324 N 
ATOM     23  C   UNL A   1      44.866  41.759  25.255  1.00  0.00     0.255 C 
ATOM     24  C   UNL A   1      42.658  41.480  25.407  1.00  0.00     0.325 C 
ATOM     25  H   UNL A   1      42.111  43.085  24.196  1.00  0.00     0.166 HD
ATOM     26  O   UNL A   1      46.065  41.529  25.339  1.00  0.00    -0.272 OA
ATOM     27  O   UNL A   1      41.564  40.997  25.645  1.00  0.00    -0.248 OA
ENDBRANCH  17  18
ENDBRANCH  16  17
ENDBRANCH  14  16
ENDBRANCH  10  14
ENDBRANCH   7   9
ENDBRANCH   6   7
ENDBRANCH   5   6
ENDBRANCH   4   5
ENDBRANCH   3   4
ENDBRANCH   2   3
ENDBRANCH   1   2
BRANCH   1  28
ATOM     28  O   UNL A   1      49.018  39.836  29.166  1.00  0.00    -0.377 OA
BRANCH  28  29
ATOM     29  C   UNL A   1      48.364  39.127  28.136  1.00  0.00     0.188 C 
BRANCH  29  30
ATOM     30  C   UNL A   1      49.072  37.944  27.451  1.00  0.00     0.188 C 
BRANCH  30  31
ATOM     31  O   UNL A   1      48.263  36.799  27.192  1.00  0.00    -0.376 OA
BRANCH  31  32
ATOM     32  C   UNL A   1      48.771  35.877  26.232  1.00  0.00     0.202 C 
BRANCH  32  33
ATOM     33  C   UNL A   1      47.678  35.093  25.498  1.00  0.00     0.261 C 
BRANCH  33  34
ATOM     34  O   UNL A   1      46.378  35.691  25.555  1.00  0.00    -0.460 OA
BRANCH  34  35
ATOM     35  C   UNL A   1      45.312  34.859  25.612  1.00  0.00     0.338 C 
ATOM     36  O   UNL A   1      44.999  34.010  24.797  1.00  0.00    -0.246 OA
BRANCH  35  37
ATOM     37  C   UNL A   1      44.732  35.010  26.962  1.00  0.00     0.060 A 
ATOM     38  C   UNL A   1      45.181  34.158  27.982  1.00  0.00     0.016 A 
ATOM     39  C   UNL A   1      43.882  36.083  27.251  1.00  0.00     0.016 A 
ATOM     40  C   UNL A   1      44.812  34.408  29.304  1.00  0.00     0.010 A 
ATOM     41  C   UNL A   1      43.470  36.297  28.565  1.00  0.00     0.010 A 
ATOM     42  C   UNL A   1      43.926  35.457  29.595  1.00  0.00    -0.014 A 
BRANCH  42  43
ATOM     43  C   UNL A   1      43.249  35.504  30.912  1.00  0.00     0.031 A 
ATOM     44  C   UNL A   1      43.893  36.360  31.967  1.00  0.00     0.074 A 
ATOM     45  C   UNL A   1      42.148  34.781  31.181  1.00  0.00     0.049 A 
ATOM     46  N   UNL A   1      43.560  36.530  33.217  1.00  0.00    -0.248 NA
ATOM     47  C   UNL A   1      45.082  37.123  31.548  1.00  0.00     0.031 C 
ATOM     48  C   UNL A   1      41.430  33.935  30.227  1.00  0.00     0.029 A 
ATOM     49  N   UNL A   1      41.452  34.625  32.354  1.00  0.00    -0.354 N 
ATOM     50  C   UNL A   1      44.493  37.423  33.731  1.00  0.00     0.074 A 
ATOM     51  C   UNL A   1      45.414  37.745  32.666  1.00  0.00     0.031 C 
ATOM     52  C   UNL A   1      40.413  33.325  30.865  1.00  0.00     0.029 A 
ATOM     53  C   UNL A   1      40.429  33.708  32.277  1.00  0.00     0.049 A 
ATOM     54  H   UNL A   1      41.665  35.125  33.176  1.00  0.00     0.167 HD
ATOM     55  C   UNL A   1      44.579  37.924  34.984  1.00  0.00     0.034 A 
ATOM     56  C   UNL A   1      39.630  33.212  33.247  1.00  0.00     0.034 A 
ATOM     57  C   UNL A   1      43.692  37.550  36.050  1.00  0.00     0.049 A 
ATOM     58  C   UNL A   1      39.816  33.706  34.666  1.00  0.00     0.074 A 
ATOM     59  C   UNL A   1      43.667  38.012  37.352  1.00  0.00     0.029 A 
ATOM     60  N   UNL A   1      42.693  36.591  35.943  1.00  0.00    -0.354 N 
ATOM     61  N   UNL A   1      40.660  34.603  35.126  1.00  0.00    -0.248 NA
ATOM     62  C   UNL A   1      38.949  33.120  35.698  1.00  0.00     0.031 C 
ATOM     63  C   UNL A   1      42.705  37.278  38.053  1.00  0.00     0.029 A 
ATOM     64  C   UNL A   1      42.080  36.410  37.169  1.00  0.00     0.049 A 
ATOM     65  H   UNL A   1      42.457  36.111  35.116  1.00  0.00     0.167 HD
ATOM     66  C   UNL A   1      40.407  34.701  36.493  1.00  0.00     0.074 A 
ATOM     67  C   UNL A   1      39.324  33.784  36.781  1.00  0.00     0.031 C 
ATOM     68  C   UNL A   1      41.008  35.478  37.429  1.00  0.00     0.034 A 
BRANCH  55  69
ATOM     69  C   UNL A   1      45.720  38.864  35.266  1.00  0.00     0.023 A 
ATOM     70  C   UNL A   1      45.638  40.234  34.963  1.00  0.00     0.031 A 
ATOM     71  C   UNL A   1      46.925  38.370  35.795  1.00  0.00     0.131 A 
ATOM     72  C   UNL A   1      46.763  41.054  35.136  1.00  0.00     0.055 A 
ATOM     73  C   UNL A   1      48.018  39.205  36.028  1.00  0.00     0.041 A 
ATOM     74  F   UNL A   1      47.066  37.065  36.068  1.00  0.00    -0.206 F 
ATOM     75  C   UNL A   1      47.944  40.554  35.688  1.00  0.00     0.022 A 
BRANCH  72  76
ATOM     76  S   UNL A   1      46.699  42.757  34.516  1.00  0.00     0.124 S 
ATOM     77  O   UNL A   1      47.771  43.391  35.281  1.00  0.00    -0.237 OA
ATOM     78  O   UNL A   1      46.950  42.584  33.090  1.00  0.00    -0.237 OA
ATOM     79  O   UNL A   1      45.350  43.197  34.862  1.00  0.00    -0.744 OA
ENDBRANCH  72  76
ENDBRANCH  55  69
BRANCH  56  80
ATOM     80  C   UNL A   1      38.635  32.136  32.952  1.00  0.00     0.023 A 
ATOM     81  C   UNL A   1      39.027  30.794  32.812  1.00  0.00     0.031 A 
ATOM     82  C   UNL A   1      37.285  32.452  32.713  1.00  0.00     0.131 A 
ATOM     83  C   UNL A   1      38.094  29.830  32.393  1.00  0.00     0.055 A 
ATOM     84  C   UNL A   1      36.349  31.481  32.348  1.00  0.00     0.041 A 
ATOM     85  F   UNL A   1      36.854  33.718  32.824  1.00  0.00    -0.206 F 
ATOM     86  C   UNL A   1      36.756  30.163  32.171  1.00  0.00     0.022 A 
BRANCH  83  87
ATOM     87  S   UNL A   1      38.676  28.147  32.042  1.00  0.00     0.124 S 
ATOM     88  O   UNL A   1      40.064  28.213  32.485  1.00  0.00    -0.237 OA
ATOM     89  O   UNL A   1      37.778  27.340  32.861  1.00  0.00    -0.237 OA
ATOM     90  O   UNL A   1      38.488  28.015  30.599  1.00  0.00    -0.744 OA
ENDBRANCH  83  87
ENDBRANCH  56  80
BRANCH  68  91
ATOM     91  C   UNL A   1      40.486  35.392  38.841  1.00  0.00     0.023 A 
ATOM     92  C   UNL A   1      41.000  34.463  39.761  1.00  0.00     0.031 A 
ATOM     93  C   UNL A   1      39.484  36.277  39.276  1.00  0.00     0.131 A 
ATOM     94  C   UNL A   1      40.483  34.416  41.065  1.00  0.00     0.055 A 
ATOM     95  C   UNL A   1      39.011  36.261  40.589  1.00  0.00     0.041 A 
ATOM     96  F   UNL A   1      38.962  37.185  38.436  1.00  0.00    -0.206 F 
ATOM     97  C   UNL A   1      39.505  35.321  41.489  1.00  0.00     0.022 A 
BRANCH  94  98
ATOM     98  S   UNL A   1      41.069  33.121  42.190  1.00  0.00     0.124 S 
ATOM     99  O   UNL A   1      41.283  33.867  43.426  1.00  0.00    -0.237 OA
ATOM    100  O   UNL A   1      39.953  32.181  42.197  1.00  0.00    -0.237 OA
ATOM    101  O   UNL A   1      42.285  32.630  41.543  1.00  0.00    -0.744 OA
ENDBRANCH  94  98
ENDBRANCH  68  91
ENDBRANCH  42  43
ENDBRANCH  35  37
ENDBRANCH  34  35
ENDBRANCH  33  34
ENDBRANCH  32  33
ENDBRANCH  31  32
ENDBRANCH  30  31
ENDBRANCH  29  30
ENDBRANCH  28  29
ENDBRANCH   1  28
TORSDOF 27
ENDMDL
MODEL 2
REMARK VINA RESULT:      -6.5      9.693     15.463
REMARK SMILES CC1(C)NC(=O)N(CCC(=O)N2CCC[C@H]2C(=O)OCCOCCOCCOCCOC(=O)c2ccc(-c3c4nc(c(-c5cc(S(=O)(=O)[O-])ccc5F)c5ccc([nH]5)c(-c5cc(S(=O)(=O)[O-])ccc5F)c5nc(c(-c6cc(S(=O)(=O)[O-])ccc6F)c6ccc3[nH]6)C=C5)C=C4)cc2)C1=O
REMARK SMILES IDX 24 1 23 2 22 3 21 4 20 5 19 6 17 7 18 8 16 9 12 10 13 11
REMARK SMILES IDX 14 12 15 13 10 14 11 15 9 16 8 17 7 18 1 19 2 20 3 21 4 22
REMARK SMILES IDX 97 23 5 24 98 26 6 27 25 28 26 29 27 30 28 31 29 32 30 33
REMARK SMILES IDX 31 34 32 35 33 36 34 37 35 38 96 39 36 40 95 41 37 42 38 43
REMARK SMILES IDX 39 44 89 45 40 46 94 47 88 48 90 49 41 50 93 51 87 52 86 53
REMARK SMILES IDX 42 55 74 56 54 57 73 58 55 59 58 60 72 61 91 62 56 63 57 64
REMARK SMILES IDX 71 66 92 67 59 68 43 69 44 70 52 71 45 72 51 73 53 74 50 75
REMARK SMILES IDX 46 76 47 77 48 78 49 79 75 80 76 81 84 82 77 83 83 84 85 85
REMARK SMILES IDX 82 86 78 87 79 88 80 89 81 90 60 91 61 92 69 93 62 94 68 95
REMARK SMILES IDX 70 96 67 97 63 98 64 99 65 100 66 101
REMARK H PARENT 4 25 90 54 58 65
REMARK Flexibility Score: inf
ROOT
ATOM      1  C   UNL A   1      40.593  26.052  27.145  1.00  0.00     0.188 C 
ENDROOT
BRANCH   1   2
ATOM      2  C   UNL A   1      40.385  24.776  27.968  1.00  0.00     0.188 C 
BRANCH   2   3
ATOM      3  O   UNL A   1      39.810  23.691  27.254  1.00  0.00    -0.376 OA
BRANCH   3   4
ATOM      4  C   UNL A   1      38.613  23.958  26.534  1.00  0.00     0.202 C 
BRANCH   4   5
ATOM      5  C   UNL A   1      37.971  22.762  25.826  1.00  0.00     0.261 C 
BRANCH   5   6
ATOM      6  O   UNL A   1      36.551  22.898  25.609  1.00  0.00    -0.462 OA
BRANCH   6   7
ATOM      7  C   UNL A   1      35.800  21.776  25.561  1.00  0.00     0.328 C 
ATOM      8  O   UNL A   1      36.250  20.656  25.339  1.00  0.00    -0.250 OA
BRANCH   7   9
ATOM      9  C   UNL A   1      34.297  22.043  25.791  1.00  0.00     0.195 C 
ATOM     10  N   UNL A   1      33.454  22.530  24.690  1.00  0.00    -0.329 N 
ATOM     11  C   UNL A   1      32.943  21.354  24.001  1.00  0.00     0.120 C 
ATOM     12  C   UNL A   1      32.633  20.377  25.123  1.00  0.00     0.024 C 
ATOM     13  C   UNL A   1      33.642  20.718  26.218  1.00  0.00     0.039 C 
BRANCH  10  14
ATOM     14  C   UNL A   1      32.548  23.570  24.939  1.00  0.00     0.225 C 
ATOM     15  O   UNL A   1      32.598  24.259  25.958  1.00  0.00    -0.275 OA
BRANCH  14  16
ATOM     16  C   UNL A   1      31.349  23.657  24.006  1.00  0.00     0.122 C 
BRANCH  16  17
ATOM     17  C   UNL A   1      31.246  24.750  22.947  1.00  0.00     0.140 C 
BRANCH  17  18
ATOM     18  N   UNL A   1      31.498  26.123  23.356  1.00  0.00    -0.262 N 
ATOM     19  C   UNL A   1      31.814  28.446  25.948  1.00  0.00     0.045 C 
ATOM     20  C   UNL A   1      31.452  28.215  24.490  1.00  0.00     0.115 C 
ATOM     21  C   UNL A   1      30.611  29.361  23.955  1.00  0.00     0.045 C 
ATOM     22  N   UNL A   1      32.628  28.012  23.680  1.00  0.00    -0.324 N 
ATOM     23  C   UNL A   1      30.769  26.844  24.271  1.00  0.00     0.255 C 
ATOM     24  C   UNL A   1      32.657  26.778  23.083  1.00  0.00     0.325 C 
ATOM     25  H   UNL A   1      33.335  28.688  23.568  1.00  0.00     0.166 HD
ATOM     26  O   UNL A   1      29.751  26.471  24.838  1.00  0.00    -0.272 OA
ATOM     27  O   UNL A   1      33.592  26.372  22.414  1.00  0.00    -0.248 OA
ENDBRANCH  17  18
ENDBRANCH  16  17
ENDBRANCH  14  16
ENDBRANCH  10  14
ENDBRANCH   7   9
ENDBRANCH   6   7
ENDBRANCH   5   6
ENDBRANCH   4   5
ENDBRANCH   3   4
ENDBRANCH   2   3
ENDBRANCH   1   2
BRANCH   1  28
ATOM     28  O   UNL A   1      39.887  27.216  27.503  1.00  0.00    -0.377 OA
BRANCH  28  29
ATOM     29  C   UNL A   1      38.865  27.077  28.466  1.00  0.00     0.188 C 
BRANCH  29  30
ATOM     30  C   UNL A   1      39.003  27.769  29.835  1.00  0.00     0.188 C 
BRANCH  30  31
ATOM     31  O   UNL A   1      37.838  28.436  30.317  1.00  0.00    -0.376 OA
BRANCH  31  32
ATOM     32  C   UNL A   1      37.606  29.743  29.802  1.00  0.00     0.202 C 
BRANCH  32  33
ATOM     33  C   UNL A   1      36.980  30.701  30.821  1.00  0.00     0.261 C 
BRANCH  33  34
ATOM     34  O   UNL A   1      37.308  30.413  32.186  1.00  0.00    -0.460 OA
BRANCH  34  35
ATOM     35  C   UNL A   1      38.250  31.185  32.776  1.00  0.00     0.338 C 
ATOM     36  O   UNL A   1      38.065  32.175  33.461  1.00  0.00    -0.246 OA
BRANCH  35  37
ATOM     37  C   UNL A   1      39.532  30.466  32.632  1.00  0.00     0.060 A 
ATOM     38  C   UNL A   1      39.650  29.188  33.198  1.00  0.00     0.016 A 
ATOM     39  C   UNL A   1      40.542  30.979  31.811  1.00  0.00     0.016 A 
ATOM     40  C   UNL A   1      40.765  28.403  32.905  1.00  0.00     0.010 A 
ATOM     41  C   UNL A   1      41.682  30.214  31.566  1.00  0.00     0.010 A 
ATOM     42  C   UNL A   1      41.801  28.927  32.117  1.00  0.00    -0.014 A 
BRANCH  42  43
ATOM     43  C   UNL A   1      43.124  28.261  32.103  1.00  0.00     0.031 A 
ATOM     44  C   UNL A   1      43.968  28.418  33.338  1.00  0.00     0.074 A 
ATOM     45  C   UNL A   1      43.584  27.597  31.028  1.00  0.00     0.049 A 
ATOM     46  N   UNL A   1      45.183  28.006  33.572  1.00  0.00    -0.248 NA
ATOM     47  C   UNL A   1      43.349  29.147  34.459  1.00  0.00     0.031 C 
ATOM     48  C   UNL A   1      42.843  27.368  29.788  1.00  0.00     0.029 A 
ATOM     49  N   UNL A   1      44.805  27.011  30.800  1.00  0.00    -0.354 N 
ATOM     50  C   UNL A   1      45.472  28.420  34.867  1.00  0.00     0.074 A 
ATOM     51  C   UNL A   1      44.314  29.128  35.362  1.00  0.00     0.031 C 
ATOM     52  C   UNL A   1      43.640  26.717  28.918  1.00  0.00     0.029 A 
ATOM     53  C   UNL A   1      44.955  26.515  29.525  1.00  0.00     0.049 A 
ATOM     54  H   UNL A   1      45.508  26.951  31.487  1.00  0.00     0.167 HD
ATOM     55  C   UNL A   1      46.605  28.233  35.580  1.00  0.00     0.034 A 
ATOM     56  C   UNL A   1      46.044  25.997  28.916  1.00  0.00     0.034 A 
ATOM     57  C   UNL A   1      47.771  27.577  35.056  1.00  0.00     0.049 A 
ATOM     58  C   UNL A   1      47.337  25.897  29.699  1.00  0.00     0.074 A 
ATOM     59  C   UNL A   1      48.967  27.307  35.694  1.00  0.00     0.029 A 
ATOM     60  N   UNL A   1      47.899  27.123  33.750  1.00  0.00    -0.354 N 
ATOM     61  N   UNL A   1      47.576  26.231  30.948  1.00  0.00    -0.248 NA
ATOM     62  C   UNL A   1      48.507  25.357  28.992  1.00  0.00     0.031 C 
ATOM     63  C   UNL A   1      49.844  26.760  34.752  1.00  0.00     0.029 A 
ATOM     64  C   UNL A   1      49.171  26.620  33.548  1.00  0.00     0.049 A 
ATOM     65  H   UNL A   1      47.188  27.154  33.069  1.00  0.00     0.167 HD
ATOM     66  C   UNL A   1      48.915  25.919  31.177  1.00  0.00     0.074 A 
ATOM     67  C   UNL A   1      49.427  25.359  29.944  1.00  0.00     0.031 C 
ATOM     68  C   UNL A   1      49.658  26.077  32.302  1.00  0.00     0.034 A 
BRANCH  55  69
ATOM     69  C   UNL A   1      46.645  28.818  36.966  1.00  0.00     0.023 A 
ATOM     70  C   UNL A   1      46.207  28.090  38.086  1.00  0.00     0.031 A 
ATOM     71  C   UNL A   1      47.076  30.141  37.159  1.00  0.00     0.131 A 
ATOM     72  C   UNL A   1      46.154  28.711  39.342  1.00  0.00     0.055 A 
ATOM     73  C   UNL A   1      47.085  30.730  38.424  1.00  0.00     0.041 A 
ATOM     74  F   UNL A   1      47.472  30.889  36.118  1.00  0.00    -0.206 F 
ATOM     75  C   UNL A   1      46.612  30.017  39.523  1.00  0.00     0.022 A 
BRANCH  72  76
ATOM     76  S   UNL A   1      45.364  27.826  40.715  1.00  0.00     0.124 S 
ATOM     77  O   UNL A   1      44.701  28.916  41.427  1.00  0.00    -0.237 OA
ATOM     78  O   UNL A   1      44.486  26.889  40.023  1.00  0.00    -0.237 OA
ATOM     79  O   UNL A   1      46.488  27.219  41.423  1.00  0.00    -0.744 OA
ENDBRANCH  72  76
ENDBRANCH  55  69
BRANCH  56  80
ATOM     80  C   UNL A   1      46.008  25.604  27.474  1.00  0.00     0.023 A 
ATOM     81  C   UNL A   1      45.486  24.365  27.065  1.00  0.00     0.031 A 
ATOM     82  C   UNL A   1      46.585  26.428  26.491  1.00  0.00     0.131 A 
ATOM     83  C   UNL A   1      45.598  23.964  25.723  1.00  0.00     0.055 A 
ATOM     84  C   UNL A   1      46.648  26.048  25.148  1.00  0.00     0.041 A 
ATOM     85  F   UNL A   1      47.108  27.619  26.823  1.00  0.00    -0.206 F 
ATOM     86  C   UNL A   1      46.165  24.802  24.760  1.00  0.00     0.022 A 
BRANCH  83  87
ATOM     87  S   UNL A   1      45.082  22.285  25.268  1.00  0.00     0.124 S 
ATOM     88  O   UNL A   1      44.995  22.383  23.816  1.00  0.00    -0.237 OA
ATOM     89  O   UNL A   1      46.180  21.480  25.793  1.00  0.00    -0.237 OA
ATOM     90  O   UNL A   1      43.806  22.121  25.960  1.00  0.00    -0.744 OA
ENDBRANCH  83  87
ENDBRANCH  56  80
BRANCH  68  91
ATOM     91  C   UNL A   1      51.090  25.607  32.258  1.00  0.00     0.023 A 
ATOM     92  C   UNL A   1      52.138  26.471  31.898  1.00  0.00     0.031 A 
ATOM     93  C   UNL A   1      51.408  24.285  32.615  1.00  0.00     0.131 A 
ATOM     94  C   UNL A   1      53.456  25.991  31.869  1.00  0.00     0.055 A 
ATOM     95  C   UNL A   1      52.726  23.828  32.635  1.00  0.00     0.041 A 
ATOM     96  F   UNL A   1      50.443  23.421  32.969  1.00  0.00    -0.206 F 
ATOM     97  C   UNL A   1      53.758  24.680  32.253  1.00  0.00     0.022 A 
BRANCH  94  98
ATOM     98  S   UNL A   1      54.771  27.088  31.273  1.00  0.00     0.124 S 
ATOM     99  O   UNL A   1      55.629  27.198  32.449  1.00  0.00    -0.237 OA
ATOM    100  O   UNL A   1      55.322  26.337  30.150  1.00  0.00    -0.237 OA
ATOM    101  O   UNL A   1      54.058  28.311  30.908  1.00  0.00    -0.744 OA
ENDBRANCH  94  98
ENDBRANCH  68  91
ENDBRANCH  42  43
ENDBRANCH  35  37
ENDBRANCH  34  35
ENDBRANCH  33  34
ENDBRANCH  32  33
ENDBRANCH  31  32
ENDBRANCH  30  31
ENDBRANCH  29  30
ENDBRANCH  28  29
ENDBRANCH   1  28
TORSDOF 27
ENDMDL
MODEL 3
REMARK VINA RESULT:      -6.2      2.107      3.612
REMARK SMILES CC1(C)NC(=O)N(CCC(=O)N2CCC[C@H]2C(=O)OCCOCCOCCOCCOC(=O)c2ccc(-c3c4nc(c(-c5cc(S(=O)(=O)[O-])ccc5F)c5ccc([nH]5)c(-c5cc(S(=O)(=O)[O-])ccc5F)c5nc(c(-c6cc(S(=O)(=O)[O-])ccc6F)c6ccc3[nH]6)C=C5)C=C4)cc2)C1=O
REMARK SMILES IDX 24 1 23 2 22 3 21 4 20 5 19 6 17 7 18 8 16 9 12 10 13 11
REMARK SMILES IDX 14 12 15 13 10 14 11 15 9 16 8 17 7 18 1 19 2 20 3 21 4 22
REMARK SMILES IDX 97 23 5 24 98 26 6 27 25 28 26 29 27 30 28 31 29 32 30 33
REMARK SMILES IDX 31 34 32 35 33 36 34 37 35 38 96 39 36 40 95 41 37 42 38 43
REMARK SMILES IDX 39 44 89 45 40 46 94 47 88 48 90 49 41 50 93 51 87 52 86 53
REMARK SMILES IDX 42 55 74 56 54 57 73 58 55 59 58 60 72 61 91 62 56 63 57 64
REMARK SMILES IDX 71 66 92 67 59 68 43 69 44 70 52 71 45 72 51 73 53 74 50 75
REMARK SMILES IDX 46 76 47 77 48 78 49 79 75 80 76 81 84 82 77 83 83 84 85 85
REMARK SMILES IDX 82 86 78 87 79 88 80 89 81 90 60 91 61 92 69 93 62 94 68 95
REMARK SMILES IDX 70 96 67 97 63 98 64 99 65 100 66 101
REMARK H PARENT 4 25 90 54 58 65
REMARK Flexibility Score: inf
ROOT
ATOM      1  C   UNL A   1      49.599  42.012  29.210  1.00  0.00     0.188 C 
ENDROOT
BRANCH   1   2
ATOM      2  C   UNL A   1      48.999  42.724  27.992  1.00  0.00     0.188 C 
BRANCH   2   3
ATOM      3  O   UNL A   1      47.843  43.503  28.265  1.00  0.00    -0.376 OA
BRANCH   3   4
ATOM      4  C   UNL A   1      47.545  44.552  27.352  1.00  0.00     0.202 C 
BRANCH   4   5
ATOM      5  C   UNL A   1      46.069  44.942  27.230  1.00  0.00     0.261 C 
BRANCH   5   6
ATOM      6  O   UNL A   1      45.152  43.914  27.658  1.00  0.00    -0.462 OA
BRANCH   6   7
ATOM      7  C   UNL A   1      44.799  42.960  26.769  1.00  0.00     0.328 C 
ATOM      8  O   UNL A   1      44.360  43.194  25.647  1.00  0.00    -0.250 OA
BRANCH   7   9
ATOM      9  C   UNL A   1      44.980  41.527  27.315  1.00  0.00     0.195 C 
ATOM     10  N   UNL A   1      44.127  41.036  28.407  1.00  0.00    -0.329 N 
ATOM     11  C   UNL A   1      42.950  40.446  27.787  1.00  0.00     0.120 C 
ATOM     12  C   UNL A   1      43.499  39.728  26.566  1.00  0.00     0.024 C 
ATOM     13  C   UNL A   1      44.723  40.546  26.157  1.00  0.00     0.039 C 
BRANCH  10  14
ATOM     14  C   UNL A   1      44.718  40.329  29.462  1.00  0.00     0.225 C 
ATOM     15  O   UNL A   1      45.939  40.227  29.586  1.00  0.00    -0.275 OA
BRANCH  14  16
ATOM     16  C   UNL A   1      43.782  39.488  30.318  1.00  0.00     0.122 C 
BRANCH  16  17
ATOM     17  C   UNL A   1      43.665  39.713  31.822  1.00  0.00     0.140 C 
BRANCH  17  18
ATOM     18  N   UNL A   1      43.870  41.062  32.328  1.00  0.00    -0.262 N 
ATOM     19  C   UNL A   1      42.691  43.730  34.252  1.00  0.00     0.045 C 
ATOM     20  C   UNL A   1      43.542  43.300  33.068  1.00  0.00     0.115 C 
ATOM     21  C   UNL A   1      43.781  44.465  32.123  1.00  0.00     0.045 C 
ATOM     22  N   UNL A   1      44.788  42.716  33.498  1.00  0.00    -0.324 N 
ATOM     23  C   UNL A   1      42.943  42.075  32.337  1.00  0.00     0.255 C 
ATOM     24  C   UNL A   1      44.928  41.409  33.107  1.00  0.00     0.325 C 
ATOM     25  H   UNL A   1      45.467  43.204  34.018  1.00  0.00     0.166 HD
ATOM     26  O   UNL A   1      41.817  42.027  31.859  1.00  0.00    -0.272 OA
ATOM     27  O   UNL A   1      45.872  40.705  33.424  1.00  0.00    -0.248 OA
ENDBRANCH  17  18
ENDBRANCH  16  17
ENDBRANCH  14  16
ENDBRANCH  10  14
ENDBRANCH   7   9
ENDBRANCH   6   7
ENDBRANCH   5   6
ENDBRANCH   4   5
ENDBRANCH   3   4
ENDBRANCH   2   3
ENDBRANCH   1   2
BRANCH   1  28
ATOM     28  O   UNL A   1      49.713  40.610  29.190  1.00  0.00    -0.377 OA
BRANCH  28  29
ATOM     29  C   UNL A   1      49.282  39.946  28.021  1.00  0.00     0.188 C 
BRANCH  29  30
ATOM     30  C   UNL A   1      50.145  38.824  27.415  1.00  0.00     0.188 C 
BRANCH  30  31
ATOM     31  O   UNL A   1      49.461  37.614  27.097  1.00  0.00    -0.376 OA
BRANCH  31  32
ATOM     32  C   UNL A   1      49.799  37.013  25.851  1.00  0.00     0.202 C 
BRANCH  32  33
ATOM     33  C   UNL A   1      48.680  36.144  25.267  1.00  0.00     0.261 C 
BRANCH  33  34
ATOM     34  O   UNL A   1      47.406  36.311  25.900  1.00  0.00    -0.460 OA
BRANCH  34  35
ATOM     35  C   UNL A   1      46.602  35.227  25.978  1.00  0.00     0.338 C 
ATOM     36  O   UNL A   1      46.603  34.257  25.241  1.00  0.00    -0.246 OA
BRANCH  35  37
ATOM     37  C   UNL A   1      45.883  35.328  27.264  1.00  0.00     0.060 A 
ATOM     38  C   UNL A   1      46.076  34.319  28.219  1.00  0.00     0.016 A 
ATOM     39  C   UNL A   1      45.162  36.483  27.583  1.00  0.00     0.016 A 
ATOM     40  C   UNL A   1      45.582  34.488  29.513  1.00  0.00     0.010 A 
ATOM     41  C   UNL A   1      44.621  36.624  28.860  1.00  0.00     0.010 A 
ATOM     42  C   UNL A   1      44.822  35.625  29.827  1.00  0.00    -0.014 A 
BRANCH  42  43
ATOM     43  C   UNL A   1      43.997  35.643  31.057  1.00  0.00     0.031 A 
ATOM     44  C   UNL A   1      44.639  36.224  32.287  1.00  0.00     0.074 A 
ATOM     45  C   UNL A   1      42.760  35.118  31.102  1.00  0.00     0.049 A 
ATOM     46  N   UNL A   1      44.180  36.303  33.506  1.00  0.00    -0.248 NA
ATOM     47  C   UNL A   1      45.988  36.789  32.110  1.00  0.00     0.031 C 
ATOM     48  C   UNL A   1      42.035  34.548  29.967  1.00  0.00     0.029 A 
ATOM     49  N   UNL A   1      41.900  34.958  32.161  1.00  0.00    -0.354 N 
ATOM     50  C   UNL A   1      45.180  36.931  34.238  1.00  0.00     0.074 A 
ATOM     51  C   UNL A   1      46.276  37.196  33.334  1.00  0.00     0.031 C 
ATOM     52  C   UNL A   1      40.852  34.072  30.399  1.00  0.00     0.029 A 
ATOM     53  C   UNL A   1      40.750  34.271  31.845  1.00  0.00     0.049 A 
ATOM     54  H   UNL A   1      42.089  35.304  33.063  1.00  0.00     0.167 HD
ATOM     55  C   UNL A   1      45.190  37.251  35.552  1.00  0.00     0.034 A 
ATOM     56  C   UNL A   1      39.756  33.825  32.643  1.00  0.00     0.034 A 
ATOM     57  C   UNL A   1      44.118  36.929  36.453  1.00  0.00     0.049 A 
ATOM     58  C   UNL A   1      39.840  34.099  34.130  1.00  0.00     0.074 A 
ATOM     59  C   UNL A   1      44.005  37.227  37.798  1.00  0.00     0.029 A 
ATOM     60  N   UNL A   1      42.989  36.201  36.105  1.00  0.00    -0.354 N 
ATOM     61  N   UNL A   1      40.761  34.755  34.801  1.00  0.00    -0.248 NA
ATOM     62  C   UNL A   1      38.755  33.570  34.970  1.00  0.00     0.031 C 
ATOM     63  C   UNL A   1      42.845  36.612  38.280  1.00  0.00     0.029 A 
ATOM     64  C   UNL A   1      42.198  35.994  37.221  1.00  0.00     0.049 A 
ATOM     65  H   UNL A   1      42.782  35.878  35.198  1.00  0.00     0.167 HD
ATOM     66  C   UNL A   1      40.352  34.734  36.133  1.00  0.00     0.074 A 
ATOM     67  C   UNL A   1      39.096  34.014  36.170  1.00  0.00     0.031 C 
ATOM     68  C   UNL A   1      40.954  35.262  37.229  1.00  0.00     0.034 A 
BRANCH  55  69
ATOM     69  C   UNL A   1      46.432  37.913  36.085  1.00  0.00     0.023 A 
ATOM     70  C   UNL A   1      46.554  39.312  36.142  1.00  0.00     0.031 A 
ATOM     71  C   UNL A   1      47.527  37.131  36.489  1.00  0.00     0.131 A 
ATOM     72  C   UNL A   1      47.770  39.888  36.539  1.00  0.00     0.055 A 
ATOM     73  C   UNL A   1      48.710  37.711  36.948  1.00  0.00     0.041 A 
ATOM     74  F   UNL A   1      47.473  35.793  36.421  1.00  0.00    -0.206 F 
ATOM     75  C   UNL A   1      48.840  39.099  36.964  1.00  0.00     0.022 A 
BRANCH  72  76
ATOM     76  S   UNL A   1      47.973  41.683  36.376  1.00  0.00     0.124 S 
ATOM     77  O   UNL A   1      48.842  41.777  35.205  1.00  0.00    -0.237 OA
ATOM     78  O   UNL A   1      46.602  42.141  36.191  1.00  0.00    -0.237 OA
ATOM     79  O   UNL A   1      48.595  42.074  37.639  1.00  0.00    -0.744 OA
ENDBRANCH  72  76
ENDBRANCH  55  69
BRANCH  56  80
ATOM     80  C   UNL A   1      38.634  33.004  32.094  1.00  0.00     0.023 A 
ATOM     81  C   UNL A   1      37.581  33.592  31.374  1.00  0.00     0.031 A 
ATOM     82  C   UNL A   1      38.553  31.626  32.364  1.00  0.00     0.131 A 
ATOM     83  C   UNL A   1      36.470  32.818  30.996  1.00  0.00     0.055 A 
ATOM     84  C   UNL A   1      37.472  30.849  31.942  1.00  0.00     0.041 A 
ATOM     85  F   UNL A   1      39.526  31.010  33.056  1.00  0.00    -0.206 F 
ATOM     86  C   UNL A   1      36.414  31.449  31.266  1.00  0.00     0.022 A 
BRANCH  83  87
ATOM     87  S   UNL A   1      35.047  33.647  30.235  1.00  0.00     0.124 S 
ATOM     88  O   UNL A   1      35.662  34.299  29.084  1.00  0.00    -0.237 OA
ATOM     89  O   UNL A   1      34.165  32.523  29.941  1.00  0.00    -0.237 OA
ATOM     90  O   UNL A   1      34.576  34.548  31.284  1.00  0.00    -0.744 OA
ENDBRANCH  83  87
ENDBRANCH  56  80
BRANCH  68  91
ATOM     91  C   UNL A   1      40.245  35.107  38.551  1.00  0.00     0.023 A 
ATOM     92  C   UNL A   1      40.388  33.950  39.334  1.00  0.00     0.031 A 
ATOM     93  C   UNL A   1      39.441  36.151  39.044  1.00  0.00     0.131 A 
ATOM     94  C   UNL A   1      39.709  33.849  40.557  1.00  0.00     0.055 A 
ATOM     95  C   UNL A   1      38.810  36.066  40.285  1.00  0.00     0.041 A 
ATOM     96  F   UNL A   1      39.274  37.279  38.335  1.00  0.00    -0.206 F 
ATOM     97  C   UNL A   1      38.935  34.906  41.046  1.00  0.00     0.022 A 
BRANCH  94  98
ATOM     98  S   UNL A   1      39.805  32.293  41.483  1.00  0.00     0.124 S 
ATOM     99  O   UNL A   1      39.913  32.765  42.859  1.00  0.00    -0.237 OA
ATOM    100  O   UNL A   1      38.550  31.638  41.130  1.00  0.00    -0.237 OA
ATOM    101  O   UNL A   1      41.007  31.651  40.950  1.00  0.00    -0.744 OA
ENDBRANCH  94  98
ENDBRANCH  68  91
ENDBRANCH  42  43
ENDBRANCH  35  37
ENDBRANCH  34  35
ENDBRANCH  33  34
ENDBRANCH  32  33
ENDBRANCH  31  32
ENDBRANCH  30  31
ENDBRANCH  29  30
ENDBRANCH  28  29
ENDBRANCH   1  28
TORSDOF 27
ENDMDL
