MODEL 1
REMARK VINA RESULT:      -6.8      0.000      0.000
REMARK SMILES O=C(OCCOCCOCCOCCOC(=O)c1cn(C2CC2)c2cc(N3CC[NH2+]CC3)ccc2c1=O)c1ccc(-c2c3nc(c(-c4cc(S(=O)(=O)[O-])ccc4F)c4ccc([nH]4)c(-c4cc(S(=O)(=O)[O-])ccc4F)c4nc(c(-c5cc(S(=O)(=O)[O-])ccc5F)c5ccc2[nH]5)C=C4)C=C3)cc1
REMARK SMILES IDX 8 1 7 2 6 3 5 4 4 5 3 6 2 7 1 8 38 9 39 10 100 11 40 12
REMARK SMILES IDX 99 13 41 14 42 15 43 16 93 17 44 18 98 19 92 20 94 21 45 22
REMARK SMILES IDX 97 23 91 24 90 25 46 27 78 28 58 29 77 30 59 31 62 32 76 33
REMARK SMILES IDX 95 34 60 35 61 36 75 38 96 39 63 40 47 41 48 42 56 43 49 44
REMARK SMILES IDX 55 45 57 46 54 47 50 48 51 49 52 50 53 51 79 52 80 53 88 54
REMARK SMILES IDX 81 55 87 56 89 57 86 58 82 59 83 60 84 61 85 62 64 63 65 64
REMARK SMILES IDX 73 65 66 66 72 67 74 68 71 69 67 70 68 71 69 72 70 73 9 74
REMARK SMILES IDX 10 75 11 76 12 77 13 78 14 79 15 80 16 81 17 82 18 83 19 84
REMARK SMILES IDX 36 85 20 86 35 87 37 88 24 89 34 90 25 91 33 92 26 93 21 94
REMARK SMILES IDX 22 95 23 96 27 97 28 98 32 99 29 100 31 101 30 102
REMARK H PARENT 94 26 62 37 30 103 30 104
REMARK Flexibility Score: inf
ROOT
ATOM      1  C   UNL A   1      41.179  33.954  38.603  1.00  0.00     0.188 C 
ENDROOT
BRANCH   1   2
ATOM      2  C   UNL A   1      42.088  34.009  39.829  1.00  0.00     0.188 C 
BRANCH   2   3
ATOM      3  O   UNL A   1      42.055  35.310  40.423  1.00  0.00    -0.376 OA
BRANCH   3   4
ATOM      4  C   UNL A   1      41.074  36.189  39.878  1.00  0.00     0.202 C 
BRANCH   4   5
ATOM      5  C   UNL A   1      41.599  37.585  39.554  1.00  0.00     0.261 C 
BRANCH   5   6
ATOM      6  O   UNL A   1      43.002  37.606  39.265  1.00  0.00    -0.460 OA
BRANCH   6   7
ATOM      7  C   UNL A   1      43.625  37.806  38.077  1.00  0.00     0.338 C 
ATOM      8  O   UNL A   1      43.937  38.968  37.807  1.00  0.00    -0.246 OA
BRANCH   7   9
ATOM      9  C   UNL A   1      43.911  36.751  37.036  1.00  0.00     0.060 A 
ATOM     10  C   UNL A   1      42.785  36.091  36.500  1.00  0.00     0.016 A 
ATOM     11  C   UNL A   1      45.163  36.357  36.554  1.00  0.00     0.016 A 
ATOM     12  C   UNL A   1      42.905  35.101  35.516  1.00  0.00     0.010 A 
ATOM     13  C   UNL A   1      45.296  35.358  35.585  1.00  0.00     0.010 A 
ATOM     14  C   UNL A   1      44.168  34.741  35.045  1.00  0.00    -0.014 A 
BRANCH  14  15
ATOM     15  C   UNL A   1      44.337  33.891  33.848  1.00  0.00     0.031 A 
ATOM     16  C   UNL A   1      44.108  34.422  32.469  1.00  0.00     0.074 A 
ATOM     17  C   UNL A   1      44.569  32.582  34.066  1.00  0.00     0.049 A 
ATOM     18  N   UNL A   1      44.188  33.786  31.331  1.00  0.00    -0.248 NA
ATOM     19  C   UNL A   1      43.732  35.839  32.344  1.00  0.00     0.031 C 
ATOM     20  C   UNL A   1      44.720  31.980  35.394  1.00  0.00     0.029 A 
ATOM     21  N   UNL A   1      44.661  31.520  33.205  1.00  0.00    -0.354 N 
ATOM     22  C   UNL A   1      43.899  34.725  30.348  1.00  0.00     0.074 A 
ATOM     23  C   UNL A   1      43.600  35.967  31.027  1.00  0.00     0.031 C 
ATOM     24  C   UNL A   1      44.830  30.651  35.262  1.00  0.00     0.029 A 
ATOM     25  C   UNL A   1      44.756  30.307  33.845  1.00  0.00     0.049 A 
ATOM     26  H   UNL A   1      44.661  31.617  32.226  1.00  0.00     0.167 HD
ATOM     27  C   UNL A   1      43.902  34.548  29.005  1.00  0.00     0.034 A 
ATOM     28  C   UNL A   1      44.764  29.053  33.352  1.00  0.00     0.034 A 
ATOM     29  C   UNL A   1      44.184  33.279  28.377  1.00  0.00     0.049 A 
ATOM     30  C   UNL A   1      44.786  28.882  31.857  1.00  0.00     0.074 A 
ATOM     31  C   UNL A   1      44.311  33.005  27.027  1.00  0.00     0.029 A 
ATOM     32  N   UNL A   1      44.361  32.076  29.047  1.00  0.00    -0.354 N 
ATOM     33  N   UNL A   1      44.684  29.806  30.930  1.00  0.00    -0.248 NA
ATOM     34  C   UNL A   1      44.964  27.524  31.332  1.00  0.00     0.031 C 
ATOM     35  C   UNL A   1      44.486  31.631  26.876  1.00  0.00     0.029 A 
ATOM     36  C   UNL A   1      44.558  31.052  28.136  1.00  0.00     0.049 A 
ATOM     37  H   UNL A   1      44.348  31.966  30.026  1.00  0.00     0.167 HD
ATOM     38  C   UNL A   1      44.817  29.149  29.714  1.00  0.00     0.074 A 
ATOM     39  C   UNL A   1      45.021  27.748  30.023  1.00  0.00     0.031 C 
ATOM     40  C   UNL A   1      44.776  29.661  28.459  1.00  0.00     0.034 A 
BRANCH  27  41
ATOM     41  C   UNL A   1      43.649  35.724  28.092  1.00  0.00     0.023 A 
ATOM     42  C   UNL A   1      44.719  36.544  27.679  1.00  0.00     0.031 A 
ATOM     43  C   UNL A   1      42.340  36.155  27.815  1.00  0.00     0.131 A 
ATOM     44  C   UNL A   1      44.457  37.777  27.066  1.00  0.00     0.055 A 
ATOM     45  C   UNL A   1      42.086  37.365  27.168  1.00  0.00     0.041 A 
ATOM     46  F   UNL A   1      41.284  35.418  28.198  1.00  0.00    -0.206 F 
ATOM     47  C   UNL A   1      43.147  38.190  26.806  1.00  0.00     0.022 A 
BRANCH  44  48
ATOM     48  S   UNL A   1      45.798  38.930  26.658  1.00  0.00     0.124 S 
ATOM     49  O   UNL A   1      45.138  39.843  25.726  1.00  0.00    -0.237 OA
ATOM     50  O   UNL A   1      46.118  39.499  27.964  1.00  0.00    -0.237 OA
ATOM     51  O   UNL A   1      46.825  38.079  26.067  1.00  0.00    -0.744 OA
ENDBRANCH  44  48
ENDBRANCH  27  41
BRANCH  28  52
ATOM     52  C   UNL A   1      44.834  27.911  34.307  1.00  0.00     0.023 A 
ATOM     53  C   UNL A   1      43.678  27.472  34.984  1.00  0.00     0.031 A 
ATOM     54  C   UNL A   1      46.070  27.361  34.686  1.00  0.00     0.131 A 
ATOM     55  C   UNL A   1      43.793  26.567  36.048  1.00  0.00     0.055 A 
ATOM     56  C   UNL A   1      46.170  26.409  35.701  1.00  0.00     0.041 A 
ATOM     57  F   UNL A   1      47.201  27.768  34.090  1.00  0.00    -0.206 F 
ATOM     58  C   UNL A   1      45.032  26.022  36.402  1.00  0.00     0.022 A 
BRANCH  55  59
ATOM     59  S   UNL A   1      42.369  26.193  37.110  1.00  0.00     0.124 S 
ATOM     60  O   UNL A   1      42.908  26.447  38.442  1.00  0.00    -0.237 OA
ATOM     61  O   UNL A   1      41.377  27.155  36.637  1.00  0.00    -0.237 OA
ATOM     62  O   UNL A   1      42.067  24.798  36.806  1.00  0.00    -0.744 OA
ENDBRANCH  55  59
ENDBRANCH  28  52
BRANCH  40  63
ATOM     63  C   UNL A   1      44.957  28.726  27.289  1.00  0.00     0.023 A 
ATOM     64  C   UNL A   1      46.252  28.463  26.803  1.00  0.00     0.031 A 
ATOM     65  C   UNL A   1      43.857  28.269  26.547  1.00  0.00     0.131 A 
ATOM     66  C   UNL A   1      46.413  27.816  25.572  1.00  0.00     0.055 A 
ATOM     67  C   UNL A   1      44.023  27.578  25.347  1.00  0.00     0.041 A 
ATOM     68  F   UNL A   1      42.603  28.505  26.969  1.00  0.00    -0.206 F 
ATOM     69  C   UNL A   1      45.305  27.366  24.845  1.00  0.00     0.022 A 
BRANCH  66  70
ATOM     70  S   UNL A   1      48.054  27.626  24.825  1.00  0.00     0.124 S 
ATOM     71  O   UNL A   1      48.281  26.188  24.954  1.00  0.00    -0.237 OA
ATOM     72  O   UNL A   1      47.827  28.102  23.463  1.00  0.00    -0.237 OA
ATOM     73  O   UNL A   1      48.917  28.465  25.648  1.00  0.00    -0.744 OA
ENDBRANCH  66  70
ENDBRANCH  40  63
ENDBRANCH  14  15
ENDBRANCH   7   9
ENDBRANCH   6   7
ENDBRANCH   5   6
ENDBRANCH   4   5
ENDBRANCH   3   4
ENDBRANCH   2   3
ENDBRANCH   1   2
BRANCH   1  74
ATOM     74  O   UNL A   1      40.488  32.719  38.432  1.00  0.00    -0.377 OA
BRANCH  74  75
ATOM     75  C   UNL A   1      39.434  32.698  37.473  1.00  0.00     0.188 C 
BRANCH  75  76
ATOM     76  C   UNL A   1      38.700  34.013  37.133  1.00  0.00     0.188 C 
BRANCH  76  77
ATOM     77  O   UNL A   1      37.963  33.973  35.917  1.00  0.00    -0.376 OA
BRANCH  77  78
ATOM     78  C   UNL A   1      38.618  34.561  34.798  1.00  0.00     0.202 C 
BRANCH  78  79
ATOM     79  C   UNL A   1      37.879  34.317  33.478  1.00  0.00     0.261 C 
BRANCH  79  80
ATOM     80  O   UNL A   1      38.599  33.488  32.547  1.00  0.00    -0.459 OA
BRANCH  80  81
ATOM     81  C   UNL A   1      37.975  33.134  31.397  1.00  0.00     0.343 C 
ATOM     82  O   UNL A   1      37.140  33.787  30.794  1.00  0.00    -0.246 OA
BRANCH  81  83
ATOM     83  C   UNL A   1      38.519  31.836  30.961  1.00  0.00     0.124 A 
ATOM     84  C   UNL A   1      39.320  31.151  31.790  1.00  0.00     0.106 A 
ATOM     85  C   UNL A   1      38.345  31.318  29.584  1.00  0.00     0.203 A 
ATOM     86  N   UNL A   1      39.954  29.957  31.503  1.00  0.00    -0.343 N 
ATOM     87  C   UNL A   1      39.009  30.036  29.243  1.00  0.00     0.047 A 
ATOM     88  O   UNL A   1      37.724  31.932  28.726  1.00  0.00    -0.288 OA
ATOM     89  C   UNL A   1      39.721  29.344  30.234  1.00  0.00     0.054 A 
ATOM     90  C   UNL A   1      38.905  29.525  27.941  1.00  0.00     0.016 A 
ATOM     91  C   UNL A   1      40.173  28.053  29.920  1.00  0.00     0.053 A 
ATOM     92  C   UNL A   1      39.424  28.265  27.641  1.00  0.00     0.027 A 
ATOM     93  C   UNL A   1      40.009  27.489  28.643  1.00  0.00     0.039 A 
BRANCH  86  94
ATOM     94  C   UNL A   1      40.967  29.398  32.427  1.00  0.00     0.087 C 
ATOM     95  C   UNL A   1      41.109  29.689  33.899  1.00  0.00     0.027 C 
ATOM     96  C   UNL A   1      40.565  28.366  33.449  1.00  0.00     0.027 C 
ENDBRANCH  86  94
BRANCH  93  97
ATOM     97  N   UNL A   1      40.338  26.159  28.453  1.00  0.00    -0.360 N 
ATOM     98  C   UNL A   1      39.213  25.213  28.434  1.00  0.00     0.178 C 
ATOM     99  C   UNL A   1      41.574  25.755  27.778  1.00  0.00     0.178 C 
ATOM    100  C   UNL A   1      39.028  24.598  27.030  1.00  0.00     0.282 C 
ATOM    101  C   UNL A   1      41.303  25.046  26.431  1.00  0.00     0.282 C 
ATOM    102  N   UNL A   1      40.268  23.991  26.499  1.00  0.00    -0.343 N 
ATOM    103  H   UNL A   1      40.097  23.614  25.566  1.00  0.00     0.346 HD
ATOM    104  H   UNL A   1      40.576  23.231  27.104  1.00  0.00     0.346 HD
ENDBRANCH  93  97
ENDBRANCH  81  83
ENDBRANCH  80  81
ENDBRANCH  79  80
ENDBRANCH  78  79
ENDBRANCH  77  78
ENDBRANCH  76  77
ENDBRANCH  75  76
ENDBRANCH  74  75
ENDBRANCH   1  74
TORSDOF 25
ENDMDL
MODEL 2
REMARK VINA RESULT:      -6.6      2.966      3.970
REMARK SMILES O=C(OCCOCCOCCOCCOC(=O)c1cn(C2CC2)c2cc(N3CC[NH2+]CC3)ccc2c1=O)c1ccc(-c2c3nc(c(-c4cc(S(=O)(=O)[O-])ccc4F)c4ccc([nH]4)c(-c4cc(S(=O)(=O)[O-])ccc4F)c4nc(c(-c5cc(S(=O)(=O)[O-])ccc5F)c5ccc2[nH]5)C=C4)C=C3)cc1
REMARK SMILES IDX 8 1 7 2 6 3 5 4 4 5 3 6 2 7 1 8 38 9 39 10 100 11 40 12
REMARK SMILES IDX 99 13 41 14 42 15 43 16 93 17 44 18 98 19 92 20 94 21 45 22
REMARK SMILES IDX 97 23 91 24 90 25 46 27 78 28 58 29 77 30 59 31 62 32 76 33
REMARK SMILES IDX 95 34 60 35 61 36 75 38 96 39 63 40 47 41 48 42 56 43 49 44
REMARK SMILES IDX 55 45 57 46 54 47 50 48 51 49 52 50 53 51 79 52 80 53 88 54
REMARK SMILES IDX 81 55 87 56 89 57 86 58 82 59 83 60 84 61 85 62 64 63 65 64
REMARK SMILES IDX 73 65 66 66 72 67 74 68 71 69 67 70 68 71 69 72 70 73 9 74
REMARK SMILES IDX 10 75 11 76 12 77 13 78 14 79 15 80 16 81 17 82 18 83 19 84
REMARK SMILES IDX 36 85 20 86 35 87 37 88 24 89 34 90 25 91 33 92 26 93 21 94
REMARK SMILES IDX 22 95 23 96 27 97 28 98 32 99 29 100 31 101 30 102
REMARK H PARENT 94 26 62 37 30 103 30 104
REMARK Flexibility Score: inf
ROOT
ATOM      1  C   UNL A   1      38.265  32.343  37.619  1.00  0.00     0.188 C 
ENDROOT
BRANCH   1   2
ATOM      2  C   UNL A   1      37.855  32.719  39.041  1.00  0.00     0.188 C 
BRANCH   2   3
ATOM      3  O   UNL A   1      38.517  33.917  39.457  1.00  0.00    -0.376 OA
BRANCH   3   4
ATOM      4  C   UNL A   1      39.863  33.735  39.888  1.00  0.00     0.202 C 
BRANCH   4   5
ATOM      5  C   UNL A   1      40.441  34.926  40.647  1.00  0.00     0.261 C 
BRANCH   5   6
ATOM      6  O   UNL A   1      41.270  35.764  39.835  1.00  0.00    -0.460 OA
BRANCH   6   7
ATOM      7  C   UNL A   1      41.030  36.258  38.595  1.00  0.00     0.338 C 
ATOM      8  O   UNL A   1      40.367  37.296  38.533  1.00  0.00    -0.246 OA
BRANCH   7   9
ATOM      9  C   UNL A   1      41.443  35.621  37.290  1.00  0.00     0.060 A 
ATOM     10  C   UNL A   1      42.828  35.406  37.119  1.00  0.00     0.016 A 
ATOM     11  C   UNL A   1      40.609  35.231  36.239  1.00  0.00     0.016 A 
ATOM     12  C   UNL A   1      43.348  34.811  35.962  1.00  0.00     0.010 A 
ATOM     13  C   UNL A   1      41.118  34.652  35.073  1.00  0.00     0.010 A 
ATOM     14  C   UNL A   1      42.487  34.418  34.937  1.00  0.00    -0.014 A 
BRANCH  14  15
ATOM     15  C   UNL A   1      42.948  33.572  33.816  1.00  0.00     0.031 A 
ATOM     16  C   UNL A   1      43.133  34.126  32.440  1.00  0.00     0.074 A 
ATOM     17  C   UNL A   1      43.055  32.253  34.062  1.00  0.00     0.049 A 
ATOM     18  N   UNL A   1      43.501  33.499  31.355  1.00  0.00    -0.248 NA
ATOM     19  C   UNL A   1      42.867  35.560  32.246  1.00  0.00     0.031 C 
ATOM     20  C   UNL A   1      42.805  31.632  35.366  1.00  0.00     0.029 A 
ATOM     21  N   UNL A   1      43.340  31.196  33.238  1.00  0.00    -0.354 N 
ATOM     22  C   UNL A   1      43.537  34.459  30.351  1.00  0.00     0.074 A 
ATOM     23  C   UNL A   1      43.112  35.707  30.947  1.00  0.00     0.031 C 
ATOM     24  C   UNL A   1      42.892  30.301  35.241  1.00  0.00     0.029 A 
ATOM     25  C   UNL A   1      43.201  29.973  33.852  1.00  0.00     0.049 A 
ATOM     26  H   UNL A   1      43.617  31.302  32.299  1.00  0.00     0.167 HD
ATOM     27  C   UNL A   1      43.906  34.294  29.058  1.00  0.00     0.034 A 
ATOM     28  C   UNL A   1      43.295  28.725  33.354  1.00  0.00     0.034 A 
ATOM     29  C   UNL A   1      44.299  33.019  28.507  1.00  0.00     0.049 A 
ATOM     30  C   UNL A   1      43.725  28.568  31.921  1.00  0.00     0.074 A 
ATOM     31  C   UNL A   1      44.786  32.752  27.239  1.00  0.00     0.029 A 
ATOM     32  N   UNL A   1      44.232  31.803  29.173  1.00  0.00    -0.354 N 
ATOM     33  N   UNL A   1      43.924  29.504  31.022  1.00  0.00    -0.248 NA
ATOM     34  C   UNL A   1      43.986  27.207  31.436  1.00  0.00     0.031 C 
ATOM     35  C   UNL A   1      44.939  31.373  27.113  1.00  0.00     0.029 A 
ATOM     36  C   UNL A   1      44.633  30.780  28.330  1.00  0.00     0.049 A 
ATOM     37  H   UNL A   1      43.943  31.684  30.107  1.00  0.00     0.167 HD
ATOM     38  C   UNL A   1      44.363  28.852  29.877  1.00  0.00     0.074 A 
ATOM     39  C   UNL A   1      44.415  27.441  30.200  1.00  0.00     0.031 C 
ATOM     40  C   UNL A   1      44.695  29.377  28.671  1.00  0.00     0.034 A 
BRANCH  27  41
ATOM     41  C   UNL A   1      43.967  35.489  28.137  1.00  0.00     0.023 A 
ATOM     42  C   UNL A   1      45.156  36.237  28.023  1.00  0.00     0.031 A 
ATOM     43  C   UNL A   1      42.799  36.007  27.550  1.00  0.00     0.131 A 
ATOM     44  C   UNL A   1      45.135  37.487  27.391  1.00  0.00     0.055 A 
ATOM     45  C   UNL A   1      42.794  37.236  26.886  1.00  0.00     0.041 A 
ATOM     46  F   UNL A   1      41.637  35.341  27.640  1.00  0.00    -0.206 F 
ATOM     47  C   UNL A   1      43.962  37.989  26.819  1.00  0.00     0.022 A 
BRANCH  44  48
ATOM     48  S   UNL A   1      46.607  38.550  27.357  1.00  0.00     0.124 S 
ATOM     49  O   UNL A   1      47.643  37.617  26.917  1.00  0.00    -0.237 OA
ATOM     50  O   UNL A   1      46.227  39.565  26.378  1.00  0.00    -0.237 OA
ATOM     51  O   UNL A   1      46.735  39.015  28.733  1.00  0.00    -0.744 OA
ENDBRANCH  44  48
ENDBRANCH  27  41
BRANCH  28  52
ATOM     52  C   UNL A   1      43.049  27.572  34.266  1.00  0.00     0.023 A 
ATOM     53  C   UNL A   1      44.128  26.877  34.848  1.00  0.00     0.031 A 
ATOM     54  C   UNL A   1      41.758  27.045  34.431  1.00  0.00     0.131 A 
ATOM     55  C   UNL A   1      43.901  25.660  35.505  1.00  0.00     0.055 A 
ATOM     56  C   UNL A   1      41.530  25.867  35.144  1.00  0.00     0.041 A 
ATOM     57  F   UNL A   1      40.702  27.657  33.872  1.00  0.00    -0.206 F 
ATOM     58  C   UNL A   1      42.606  25.157  35.668  1.00  0.00     0.022 A 
BRANCH  55  59
ATOM     59  S   UNL A   1      45.289  24.609  36.023  1.00  0.00     0.124 S 
ATOM     60  O   UNL A   1      44.650  23.303  36.149  1.00  0.00    -0.237 OA
ATOM     61  O   UNL A   1      46.214  24.753  34.902  1.00  0.00    -0.237 OA
ATOM     62  O   UNL A   1      45.736  25.217  37.272  1.00  0.00    -0.744 OA
ENDBRANCH  55  59
ENDBRANCH  28  52
BRANCH  40  63
ATOM     63  C   UNL A   1      45.155  28.446  27.578  1.00  0.00     0.023 A 
ATOM     64  C   UNL A   1      44.224  27.599  26.946  1.00  0.00     0.031 A 
ATOM     65  C   UNL A   1      46.521  28.257  27.311  1.00  0.00     0.131 A 
ATOM     66  C   UNL A   1      44.676  26.559  26.127  1.00  0.00     0.055 A 
ATOM     67  C   UNL A   1      46.963  27.251  26.453  1.00  0.00     0.041 A 
ATOM     68  F   UNL A   1      47.445  29.036  27.898  1.00  0.00    -0.206 F 
ATOM     69  C   UNL A   1      46.040  26.384  25.871  1.00  0.00     0.022 A 
BRANCH  66  70
ATOM     70  S   UNL A   1      43.521  25.336  25.449  1.00  0.00     0.124 S 
ATOM     71  O   UNL A   1      43.039  24.671  26.658  1.00  0.00    -0.237 OA
ATOM     72  O   UNL A   1      42.543  26.182  24.770  1.00  0.00    -0.237 OA
ATOM     73  O   UNL A   1      44.351  24.511  24.578  1.00  0.00    -0.744 OA
ENDBRANCH  66  70
ENDBRANCH  40  63
ENDBRANCH  14  15
ENDBRANCH   7   9
ENDBRANCH   6   7
ENDBRANCH   5   6
ENDBRANCH   4   5
ENDBRANCH   3   4
ENDBRANCH   2   3
ENDBRANCH   1   2
BRANCH   1  74
ATOM     74  O   UNL A   1      37.792  33.233  36.611  1.00  0.00    -0.377 OA
BRANCH  74  75
ATOM     75  C   UNL A   1      36.867  32.702  35.666  1.00  0.00     0.188 C 
BRANCH  75  76
ATOM     76  C   UNL A   1      37.370  32.308  34.261  1.00  0.00     0.188 C 
BRANCH  76  77
ATOM     77  O   UNL A   1      36.728  33.000  33.196  1.00  0.00    -0.376 OA
BRANCH  77  78
ATOM     78  C   UNL A   1      37.128  34.357  33.034  1.00  0.00     0.202 C 
BRANCH  78  79
ATOM     79  C   UNL A   1      38.521  34.498  32.412  1.00  0.00     0.261 C 
BRANCH  79  80
ATOM     80  O   UNL A   1      38.511  34.954  31.047  1.00  0.00    -0.459 OA
BRANCH  80  81
ATOM     81  C   UNL A   1      39.114  34.178  30.113  1.00  0.00     0.343 C 
ATOM     82  O   UNL A   1      40.308  34.134  29.867  1.00  0.00    -0.246 OA
BRANCH  81  83
ATOM     83  C   UNL A   1      38.080  33.348  29.471  1.00  0.00     0.124 A 
ATOM     84  C   UNL A   1      37.000  33.941  28.943  1.00  0.00     0.106 A 
ATOM     85  C   UNL A   1      38.103  31.868  29.515  1.00  0.00     0.203 A 
ATOM     86  N   UNL A   1      35.922  33.297  28.366  1.00  0.00    -0.343 N 
ATOM     87  C   UNL A   1      36.962  31.144  28.901  1.00  0.00     0.047 A 
ATOM     88  O   UNL A   1      38.993  31.241  30.076  1.00  0.00    -0.288 OA
ATOM     89  C   UNL A   1      35.947  31.873  28.264  1.00  0.00     0.054 A 
ATOM     90  C   UNL A   1      36.921  29.743  28.953  1.00  0.00     0.016 A 
ATOM     91  C   UNL A   1      34.989  31.146  27.541  1.00  0.00     0.053 A 
ATOM     92  C   UNL A   1      35.916  29.048  28.277  1.00  0.00     0.027 A 
ATOM     93  C   UNL A   1      34.975  29.740  27.513  1.00  0.00     0.039 A 
BRANCH  86  94
ATOM     94  C   UNL A   1      34.702  34.050  27.994  1.00  0.00     0.087 C 
ATOM     95  C   UNL A   1      33.274  33.609  28.180  1.00  0.00     0.027 C 
ATOM     96  C   UNL A   1      33.848  34.674  29.066  1.00  0.00     0.027 C 
ENDBRANCH  86  94
BRANCH  93  97
ATOM     97  N   UNL A   1      34.102  29.098  26.655  1.00  0.00    -0.360 N 
ATOM     98  C   UNL A   1      33.266  28.046  27.252  1.00  0.00     0.178 C 
ATOM     99  C   UNL A   1      33.617  29.731  25.425  1.00  0.00     0.178 C 
ATOM    100  C   UNL A   1      31.778  28.460  27.266  1.00  0.00     0.282 C 
ATOM    101  C   UNL A   1      32.097  30.012  25.470  1.00  0.00     0.282 C 
ATOM    102  N   UNL A   1      31.282  28.868  25.933  1.00  0.00    -0.343 N 
ATOM    103  H   UNL A   1      30.302  29.144  25.999  1.00  0.00     0.346 HD
ATOM    104  H   UNL A   1      31.356  28.091  25.276  1.00  0.00     0.346 HD
ENDBRANCH  93  97
ENDBRANCH  81  83
ENDBRANCH  80  81
ENDBRANCH  79  80
ENDBRANCH  78  79
ENDBRANCH  77  78
ENDBRANCH  76  77
ENDBRANCH  75  76
ENDBRANCH  74  75
ENDBRANCH   1  74
TORSDOF 25
ENDMDL
MODEL 3
REMARK VINA RESULT:      -6.5      5.816     12.352
REMARK SMILES O=C(OCCOCCOCCOCCOC(=O)c1cn(C2CC2)c2cc(N3CC[NH2+]CC3)ccc2c1=O)c1ccc(-c2c3nc(c(-c4cc(S(=O)(=O)[O-])ccc4F)c4ccc([nH]4)c(-c4cc(S(=O)(=O)[O-])ccc4F)c4nc(c(-c5cc(S(=O)(=O)[O-])ccc5F)c5ccc2[nH]5)C=C4)C=C3)cc1
REMARK SMILES IDX 8 1 7 2 6 3 5 4 4 5 3 6 2 7 1 8 38 9 39 10 100 11 40 12
REMARK SMILES IDX 99 13 41 14 42 15 43 16 93 17 44 18 98 19 92 20 94 21 45 22
REMARK SMILES IDX 97 23 91 24 90 25 46 27 78 28 58 29 77 30 59 31 62 32 76 33
REMARK SMILES IDX 95 34 60 35 61 36 75 38 96 39 63 40 47 41 48 42 56 43 49 44
REMARK SMILES IDX 55 45 57 46 54 47 50 48 51 49 52 50 53 51 79 52 80 53 88 54
REMARK SMILES IDX 81 55 87 56 89 57 86 58 82 59 83 60 84 61 85 62 64 63 65 64
REMARK SMILES IDX 73 65 66 66 72 67 74 68 71 69 67 70 68 71 69 72 70 73 9 74
REMARK SMILES IDX 10 75 11 76 12 77 13 78 14 79 15 80 16 81 17 82 18 83 19 84
REMARK SMILES IDX 36 85 20 86 35 87 37 88 24 89 34 90 25 91 33 92 26 93 21 94
REMARK SMILES IDX 22 95 23 96 27 97 28 98 32 99 29 100 31 101 30 102
REMARK H PARENT 94 26 62 37 30 103 30 104
REMARK Flexibility Score: inf
ROOT
ATOM      1  C   UNL A   1      44.103  41.828  31.409  1.00  0.00     0.188 C 
ENDROOT
BRANCH   1   2
ATOM      2  C   UNL A   1      45.314  41.047  31.913  1.00  0.00     0.188 C 
BRANCH   2   3
ATOM      3  O   UNL A   1      44.996  40.352  33.123  1.00  0.00    -0.376 OA
BRANCH   3   4
ATOM      4  C   UNL A   1      44.140  39.226  32.957  1.00  0.00     0.202 C 
BRANCH   4   5
ATOM      5  C   UNL A   1      44.878  37.901  32.784  1.00  0.00     0.261 C 
BRANCH   5   6
ATOM      6  O   UNL A   1      44.610  37.266  31.529  1.00  0.00    -0.460 OA
BRANCH   6   7
ATOM      7  C   UNL A   1      45.435  36.511  30.761  1.00  0.00     0.338 C 
ATOM      8  O   UNL A   1      46.512  37.021  30.442  1.00  0.00    -0.246 OA
BRANCH   7   9
ATOM      9  C   UNL A   1      45.128  35.140  30.211  1.00  0.00     0.060 A 
ATOM     10  C   UNL A   1      45.345  34.059  31.092  1.00  0.00     0.016 A 
ATOM     11  C   UNL A   1      44.661  34.828  28.931  1.00  0.00     0.016 A 
ATOM     12  C   UNL A   1      45.088  32.733  30.716  1.00  0.00     0.010 A 
ATOM     13  C   UNL A   1      44.418  33.508  28.540  1.00  0.00     0.010 A 
ATOM     14  C   UNL A   1      44.608  32.456  29.436  1.00  0.00    -0.014 A 
BRANCH  14  15
ATOM     15  C   UNL A   1      44.091  31.120  29.072  1.00  0.00     0.031 A 
ATOM     16  C   UNL A   1      44.872  30.186  28.204  1.00  0.00     0.074 A 
ATOM     17  C   UNL A   1      42.827  30.842  29.442  1.00  0.00     0.049 A 
ATOM     18  N   UNL A   1      44.533  28.999  27.778  1.00  0.00    -0.248 NA
ATOM     19  C   UNL A   1      46.196  30.637  27.745  1.00  0.00     0.031 C 
ATOM     20  C   UNL A   1      41.975  31.746  30.221  1.00  0.00     0.029 A 
ATOM     21  N   UNL A   1      42.018  29.768  29.176  1.00  0.00    -0.354 N 
ATOM     22  C   UNL A   1      45.606  28.544  27.021  1.00  0.00     0.074 A 
ATOM     23  C   UNL A   1      46.593  29.602  27.011  1.00  0.00     0.031 C 
ATOM     24  C   UNL A   1      40.750  31.215  30.321  1.00  0.00     0.029 A 
ATOM     25  C   UNL A   1      40.726  29.938  29.616  1.00  0.00     0.049 A 
ATOM     26  H   UNL A   1      42.332  28.956  28.717  1.00  0.00     0.167 HD
ATOM     27  C   UNL A   1      45.739  27.342  26.409  1.00  0.00     0.034 A 
ATOM     28  C   UNL A   1      39.636  29.162  29.456  1.00  0.00     0.034 A 
ATOM     29  C   UNL A   1      44.711  26.329  26.430  1.00  0.00     0.049 A 
ATOM     30  C   UNL A   1      39.813  27.824  28.790  1.00  0.00     0.074 A 
ATOM     31  C   UNL A   1      44.774  25.041  25.929  1.00  0.00     0.029 A 
ATOM     32  N   UNL A   1      43.436  26.491  26.955  1.00  0.00    -0.354 N 
ATOM     33  N   UNL A   1      40.890  27.331  28.225  1.00  0.00    -0.248 NA
ATOM     34  C   UNL A   1      38.658  26.918  28.770  1.00  0.00     0.031 C 
ATOM     35  C   UNL A   1      43.520  24.453  26.081  1.00  0.00     0.029 A 
ATOM     36  C   UNL A   1      42.693  25.339  26.757  1.00  0.00     0.049 A 
ATOM     37  H   UNL A   1      43.108  27.304  27.403  1.00  0.00     0.167 HD
ATOM     38  C   UNL A   1      40.556  26.049  27.811  1.00  0.00     0.074 A 
ATOM     39  C   UNL A   1      39.178  25.835  28.202  1.00  0.00     0.031 C 
ATOM     40  C   UNL A   1      41.324  25.134  27.167  1.00  0.00     0.034 A 
BRANCH  27  41
ATOM     41  C   UNL A   1      47.029  26.998  25.706  1.00  0.00     0.023 A 
ATOM     42  C   UNL A   1      48.082  26.385  26.415  1.00  0.00     0.031 A 
ATOM     43  C   UNL A   1      47.292  27.469  24.407  1.00  0.00     0.131 A 
ATOM     44  C   UNL A   1      49.360  26.315  25.843  1.00  0.00     0.055 A 
ATOM     45  C   UNL A   1      48.557  27.360  23.827  1.00  0.00     0.041 A 
ATOM     46  F   UNL A   1      46.328  28.072  23.693  1.00  0.00    -0.206 F 
ATOM     47  C   UNL A   1      49.602  26.796  24.553  1.00  0.00     0.022 A 
BRANCH  44  48
ATOM     48  S   UNL A   1      50.777  25.675  26.780  1.00  0.00     0.124 S 
ATOM     49  O   UNL A   1      51.782  25.507  25.730  1.00  0.00    -0.237 OA
ATOM     50  O   UNL A   1      51.036  26.760  27.721  1.00  0.00    -0.237 OA
ATOM     51  O   UNL A   1      50.280  24.434  27.364  1.00  0.00    -0.744 OA
ENDBRANCH  44  48
ENDBRANCH  27  41
BRANCH  28  52
ATOM     52  C   UNL A   1      38.337  29.632  30.016  1.00  0.00     0.023 A 
ATOM     53  C   UNL A   1      37.498  30.480  29.265  1.00  0.00     0.031 A 
ATOM     54  C   UNL A   1      37.999  29.388  31.357  1.00  0.00     0.131 A 
ATOM     55  C   UNL A   1      36.406  31.106  29.881  1.00  0.00     0.055 A 
ATOM     56  C   UNL A   1      36.871  29.961  31.947  1.00  0.00     0.041 A 
ATOM     57  F   UNL A   1      38.783  28.610  32.121  1.00  0.00    -0.206 F 
ATOM     58  C   UNL A   1      36.080  30.840  31.214  1.00  0.00     0.022 A 
BRANCH  55  59
ATOM     59  S   UNL A   1      35.473  32.406  29.023  1.00  0.00     0.124 S 
ATOM     60  O   UNL A   1      34.543  31.628  28.211  1.00  0.00    -0.237 OA
ATOM     61  O   UNL A   1      34.876  33.137  30.138  1.00  0.00    -0.237 OA
ATOM     62  O   UNL A   1      36.497  33.137  28.285  1.00  0.00    -0.744 OA
ENDBRANCH  55  59
ENDBRANCH  28  52
BRANCH  40  63
ATOM     63  C   UNL A   1      40.722  23.793  26.830  1.00  0.00     0.023 A 
ATOM     64  C   UNL A   1      39.524  23.733  26.091  1.00  0.00     0.031 A 
ATOM     65  C   UNL A   1      41.214  22.610  27.404  1.00  0.00     0.131 A 
ATOM     66  C   UNL A   1      38.825  22.525  25.999  1.00  0.00     0.055 A 
ATOM     67  C   UNL A   1      40.540  21.397  27.266  1.00  0.00     0.041 A 
ATOM     68  F   UNL A   1      42.347  22.621  28.125  1.00  0.00    -0.206 F 
ATOM     69  C   UNL A   1      39.329  21.355  26.577  1.00  0.00     0.022 A 
BRANCH  66  70
ATOM     70  S   UNL A   1      37.191  22.450  25.217  1.00  0.00     0.124 S 
ATOM     71  O   UNL A   1      36.793  23.857  25.211  1.00  0.00    -0.237 OA
ATOM     72  O   UNL A   1      37.504  21.885  23.907  1.00  0.00    -0.237 OA
ATOM     73  O   UNL A   1      36.413  21.590  26.102  1.00  0.00    -0.744 OA
ENDBRANCH  66  70
ENDBRANCH  40  63
ENDBRANCH  14  15
ENDBRANCH   7   9
ENDBRANCH   6   7
ENDBRANCH   5   6
ENDBRANCH   4   5
ENDBRANCH   3   4
ENDBRANCH   2   3
ENDBRANCH   1   2
BRANCH   1  74
ATOM     74  O   UNL A   1      43.594  41.388  30.152  1.00  0.00    -0.377 OA
BRANCH  74  75
ATOM     75  C   UNL A   1      44.160  41.979  28.985  1.00  0.00     0.188 C 
BRANCH  75  76
ATOM     76  C   UNL A   1      45.528  41.479  28.476  1.00  0.00     0.188 C 
BRANCH  76  77
ATOM     77  O   UNL A   1      46.205  42.395  27.623  1.00  0.00    -0.376 OA
BRANCH  77  78
ATOM     78  C   UNL A   1      47.334  43.037  28.206  1.00  0.00     0.202 C 
BRANCH  78  79
ATOM     79  C   UNL A   1      48.566  43.016  27.296  1.00  0.00     0.261 C 
BRANCH  79  80
ATOM     80  O   UNL A   1      49.107  44.320  27.011  1.00  0.00    -0.459 OA
BRANCH  80  81
ATOM     81  C   UNL A   1      48.236  45.325  26.748  1.00  0.00     0.343 C 
ATOM     82  O   UNL A   1      48.035  46.310  27.438  1.00  0.00    -0.246 OA
BRANCH  81  83
ATOM     83  C   UNL A   1      47.601  45.052  25.447  1.00  0.00     0.124 A 
ATOM     84  C   UNL A   1      48.367  44.970  24.350  1.00  0.00     0.106 A 
ATOM     85  C   UNL A   1      46.131  45.015  25.267  1.00  0.00     0.203 A 
ATOM     86  N   UNL A   1      47.915  44.782  23.057  1.00  0.00    -0.343 N 
ATOM     87  C   UNL A   1      45.611  44.812  23.893  1.00  0.00     0.047 A 
ATOM     88  O   UNL A   1      45.351  45.195  26.195  1.00  0.00    -0.288 OA
ATOM     89  C   UNL A   1      46.513  44.611  22.838  1.00  0.00     0.054 A 
ATOM     90  C   UNL A   1      44.226  44.808  23.668  1.00  0.00     0.016 A 
ATOM     91  C   UNL A   1      45.979  44.240  21.595  1.00  0.00     0.053 A 
ATOM     92  C   UNL A   1      43.725  44.500  22.403  1.00  0.00     0.027 A 
ATOM     93  C   UNL A   1      44.594  44.152  21.367  1.00  0.00     0.039 A 
BRANCH  86  94
ATOM     94  C   UNL A   1      48.840  44.903  21.908  1.00  0.00     0.087 C 
ATOM     95  C   UNL A   1      50.057  45.786  21.814  1.00  0.00     0.027 C 
ATOM     96  C   UNL A   1      50.221  44.306  21.989  1.00  0.00     0.027 C 
ENDBRANCH  86  94
BRANCH  93  97
ATOM     97  N   UNL A   1      44.146  43.630  20.168  1.00  0.00    -0.360 N 
ATOM     98  C   UNL A   1      43.134  42.568  20.264  1.00  0.00     0.178 C 
ATOM     99  C   UNL A   1      44.211  44.392  18.918  1.00  0.00     0.178 C 
ATOM    100  C   UNL A   1      41.774  43.046  19.711  1.00  0.00     0.282 C 
ATOM    101  C   UNL A   1      42.809  44.736  18.367  1.00  0.00     0.282 C 
ATOM    102  N   UNL A   1      41.870  43.594  18.340  1.00  0.00    -0.343 N 
ATOM    103  H   UNL A   1      40.951  43.908  18.028  1.00  0.00     0.346 HD
ATOM    104  H   UNL A   1      42.204  42.877  17.696  1.00  0.00     0.346 HD
ENDBRANCH  93  97
ENDBRANCH  81  83
ENDBRANCH  80  81
ENDBRANCH  79  80
ENDBRANCH  78  79
ENDBRANCH  77  78
ENDBRANCH  76  77
ENDBRANCH  75  76
ENDBRANCH  74  75
ENDBRANCH   1  74
TORSDOF 25
ENDMDL
