MODEL 1
REMARK VINA RESULT:      -7.7      0.000      0.000
REMARK SMILES CC[C@@](CC(F)(F)F)(C(=O)OCCOCCOCCOCCOC(=O)c1ccc(-c2c3nc(c(-c4cc(S(=O)(=O)[O-])ccc4F)c4ccc([nH]4)c(-c4cc(S(=O)(=O)[O-])ccc4F)c4nc(c(-c5cc(S(=O)(=O)[O-])ccc5F)c5ccc2[nH]5)C=C4)C=C3)cc1)c1ccccc1
REMARK SMILES IDX 18 1 17 2 16 3 15 4 14 5 13 6 12 7 11 8 9 9 10 10 3 11 2 12
REMARK SMILES IDX 1 13 4 14 5 15 6 16 7 17 8 18 89 19 90 20 94 21 91 22 93 23
REMARK SMILES IDX 92 24 19 25 20 26 21 27 22 28 23 29 24 30 25 31 26 32 27 33
REMARK SMILES IDX 88 34 28 35 87 36 29 37 30 38 31 39 81 40 32 41 86 42 80 43
REMARK SMILES IDX 82 44 33 45 85 46 79 47 78 48 34 50 66 51 46 52 65 53 47 54
REMARK SMILES IDX 50 55 64 56 83 57 48 58 49 59 63 61 84 62 51 63 35 64 36 65
REMARK SMILES IDX 44 66 37 67 43 68 45 69 42 70 38 71 39 72 40 73 41 74 67 75
REMARK SMILES IDX 68 76 76 77 69 78 75 79 77 80 74 81 70 82 71 83 72 84 73 85
REMARK SMILES IDX 52 86 53 87 61 88 54 89 60 90 62 91 59 92 55 93 56 94 57 95
REMARK SMILES IDX 58 96
REMARK H PARENT 82 49 50 60
REMARK Flexibility Score: inf
ROOT
ATOM      1  C   UNL A   1      39.560  27.487  28.035  1.00  0.00     0.188 C 
ENDROOT
BRANCH   1   2
ATOM      2  O   UNL A   1      39.719  26.078  28.143  1.00  0.00    -0.377 OA
BRANCH   2   3
ATOM      3  C   UNL A   1      39.949  25.344  26.960  1.00  0.00     0.188 C 
BRANCH   3   4
ATOM      4  C   UNL A   1      39.828  23.823  27.081  1.00  0.00     0.188 C 
BRANCH   4   5
ATOM      5  O   UNL A   1      38.779  23.184  26.397  1.00  0.00    -0.376 OA
BRANCH   5   6
ATOM      6  C   UNL A   1      37.566  23.874  26.137  1.00  0.00     0.202 C 
BRANCH   6   7
ATOM      7  C   UNL A   1      36.558  23.580  24.998  1.00  0.00     0.261 C 
BRANCH   7   8
ATOM      8  O   UNL A   1      35.217  23.157  25.313  1.00  0.00    -0.463 OA
BRANCH   8   9
ATOM      9  C   UNL A   1      34.476  22.667  24.292  1.00  0.00     0.316 C 
ATOM     10  O   UNL A   1      34.729  22.896  23.110  1.00  0.00    -0.251 OA
BRANCH   9  11
ATOM     11  C   UNL A   1      33.217  21.829  24.724  1.00  0.00     0.101 C 
BRANCH  11  12
ATOM     12  C   UNL A   1      32.805  21.907  26.238  1.00  0.00     0.020 C 
ATOM     13  C   UNL A   1      33.924  22.019  27.281  1.00  0.00     0.005 C 
ENDBRANCH  11  12
BRANCH  11  14
ATOM     14  C   UNL A   1      32.107  22.432  23.814  1.00  0.00     0.139 C 
BRANCH  14  15
ATOM     15  C   UNL A   1      31.186  23.428  24.512  1.00  0.00     0.390 C 
ATOM     16  F   UNL A   1      30.540  22.889  25.562  1.00  0.00    -0.171 F 
ATOM     17  F   UNL A   1      31.916  24.467  24.980  1.00  0.00    -0.171 F 
ATOM     18  F   UNL A   1      30.262  23.943  23.677  1.00  0.00    -0.171 F 
ENDBRANCH  14  15
ENDBRANCH  11  14
BRANCH  11  19
ATOM     19  C   UNL A   1      33.489  20.317  24.410  1.00  0.00    -0.030 A 
ATOM     20  C   UNL A   1      34.689  19.690  24.800  1.00  0.00     0.005 A 
ATOM     21  C   UNL A   1      32.528  19.494  23.806  1.00  0.00     0.005 A 
ATOM     22  C   UNL A   1      34.922  18.324  24.626  1.00  0.00     0.000 A 
ATOM     23  C   UNL A   1      32.755  18.121  23.626  1.00  0.00     0.000 A 
ATOM     24  C   UNL A   1      33.947  17.535  24.041  1.00  0.00     0.000 A 
ENDBRANCH  11  19
ENDBRANCH   9  11
ENDBRANCH   8   9
ENDBRANCH   7   8
ENDBRANCH   6   7
ENDBRANCH   5   6
ENDBRANCH   4   5
ENDBRANCH   3   4
ENDBRANCH   2   3
ENDBRANCH   1   2
BRANCH   1  25
ATOM     25  C   UNL A   1      38.611  28.234  28.995  1.00  0.00     0.188 C 
BRANCH  25  26
ATOM     26  O   UNL A   1      37.737  29.163  28.369  1.00  0.00    -0.376 OA
BRANCH  26  27
ATOM     27  C   UNL A   1      36.471  29.426  28.953  1.00  0.00     0.202 C 
BRANCH  27  28
ATOM     28  C   UNL A   1      36.397  30.397  30.144  1.00  0.00     0.261 C 
BRANCH  28  29
ATOM     29  O   UNL A   1      36.278  29.816  31.451  1.00  0.00    -0.460 OA
BRANCH  29  30
ATOM     30  C   UNL A   1      37.004  30.350  32.456  1.00  0.00     0.338 C 
ATOM     31  O   UNL A   1      36.584  31.018  33.386  1.00  0.00    -0.246 OA
BRANCH  30  32
ATOM     32  C   UNL A   1      38.372  29.799  32.355  1.00  0.00     0.060 A 
ATOM     33  C   UNL A   1      38.566  28.422  32.530  1.00  0.00     0.016 A 
ATOM     34  C   UNL A   1      39.454  30.634  32.065  1.00  0.00     0.016 A 
ATOM     35  C   UNL A   1      39.848  27.880  32.451  1.00  0.00     0.010 A 
ATOM     36  C   UNL A   1      40.741  30.095  32.016  1.00  0.00     0.010 A 
ATOM     37  C   UNL A   1      40.947  28.722  32.245  1.00  0.00    -0.014 A 
BRANCH  37  38
ATOM     38  C   UNL A   1      42.314  28.213  32.512  1.00  0.00     0.031 A 
ATOM     39  C   UNL A   1      43.150  27.800  31.330  1.00  0.00     0.074 A 
ATOM     40  C   UNL A   1      42.814  28.150  33.758  1.00  0.00     0.049 A 
ATOM     41  N   UNL A   1      44.343  27.270  31.297  1.00  0.00    -0.248 NA
ATOM     42  C   UNL A   1      42.550  28.016  30.003  1.00  0.00     0.031 C 
ATOM     43  C   UNL A   1      42.123  28.584  34.970  1.00  0.00     0.029 A 
ATOM     44  N   UNL A   1      44.026  27.687  34.209  1.00  0.00    -0.354 N 
ATOM     45  C   UNL A   1      44.633  27.076  29.950  1.00  0.00     0.074 A 
ATOM     46  C   UNL A   1      43.475  27.515  29.202  1.00  0.00     0.031 C 
ATOM     47  C   UNL A   1      42.921  28.359  36.030  1.00  0.00     0.029 A 
ATOM     48  C   UNL A   1      44.157  27.723  35.578  1.00  0.00     0.049 A 
ATOM     49  H   UNL A   1      44.735  27.361  33.608  1.00  0.00     0.167 HD
ATOM     50  C   UNL A   1      45.764  26.581  29.391  1.00  0.00     0.034 A 
ATOM     51  C   UNL A   1      45.149  27.265  36.369  1.00  0.00     0.034 A 
ATOM     52  C   UNL A   1      46.902  26.138  30.156  1.00  0.00     0.049 A 
ATOM     53  C   UNL A   1      46.356  26.616  35.727  1.00  0.00     0.074 A 
ATOM     54  C   UNL A   1      48.103  25.631  29.694  1.00  0.00     0.029 A 
ATOM     55  N   UNL A   1      46.975  26.132  31.543  1.00  0.00    -0.354 N 
ATOM     56  N   UNL A   1      46.622  26.440  34.452  1.00  0.00    -0.248 NA
ATOM     57  C   UNL A   1      47.398  26.111  36.631  1.00  0.00     0.031 C 
ATOM     58  C   UNL A   1      48.864  25.236  30.799  1.00  0.00     0.029 A 
ATOM     59  C   UNL A   1      48.183  25.590  31.954  1.00  0.00     0.049 A 
ATOM     60  H   UNL A   1      46.272  26.464  32.146  1.00  0.00     0.167 HD
ATOM     61  C   UNL A   1      47.880  25.840  34.405  1.00  0.00     0.074 A 
ATOM     62  C   UNL A   1      48.321  25.697  35.776  1.00  0.00     0.031 C 
ATOM     63  C   UNL A   1      48.608  25.449  33.327  1.00  0.00     0.034 A 
BRANCH  50  64
ATOM     64  C   UNL A   1      45.790  26.433  27.889  1.00  0.00     0.023 A 
ATOM     65  C   UNL A   1      45.285  25.292  27.242  1.00  0.00     0.031 A 
ATOM     66  C   UNL A   1      46.359  27.443  27.092  1.00  0.00     0.131 A 
ATOM     67  C   UNL A   1      45.417  25.159  25.851  1.00  0.00     0.055 A 
ATOM     68  C   UNL A   1      46.411  27.343  25.702  1.00  0.00     0.041 A 
ATOM     69  F   UNL A   1      46.885  28.542  27.654  1.00  0.00    -0.206 F 
ATOM     70  C   UNL A   1      45.951  26.190  25.074  1.00  0.00     0.022 A 
BRANCH  67  71
ATOM     71  S   UNL A   1      45.021  23.561  25.090  1.00  0.00     0.124 S 
ATOM     72  O   UNL A   1      45.791  23.625  23.851  1.00  0.00    -0.237 OA
ATOM     73  O   UNL A   1      45.496  22.610  26.089  1.00  0.00    -0.237 OA
ATOM     74  O   UNL A   1      43.571  23.614  24.918  1.00  0.00    -0.744 OA
ENDBRANCH  67  71
ENDBRANCH  50  64
BRANCH  51  75
ATOM     75  C   UNL A   1      45.041  27.352  37.856  1.00  0.00     0.023 A 
ATOM     76  C   UNL A   1      45.537  28.464  38.556  1.00  0.00     0.031 A 
ATOM     77  C   UNL A   1      44.507  26.289  38.607  1.00  0.00     0.131 A 
ATOM     78  C   UNL A   1      45.541  28.464  39.960  1.00  0.00     0.055 A 
ATOM     79  C   UNL A   1      44.454  26.322  40.002  1.00  0.00     0.041 A 
ATOM     80  F   UNL A   1      44.029  25.196  37.992  1.00  0.00    -0.206 F 
ATOM     81  C   UNL A   1      44.987  27.408  40.688  1.00  0.00     0.022 A 
BRANCH  78  82
ATOM     82  S   UNL A   1      46.381  29.819  40.826  1.00  0.00     0.124 S 
ATOM     83  O   UNL A   1      45.253  30.568  41.366  1.00  0.00    -0.237 OA
ATOM     84  O   UNL A   1      47.197  29.098  41.798  1.00  0.00    -0.237 OA
ATOM     85  O   UNL A   1      47.127  30.491  39.765  1.00  0.00    -0.744 OA
ENDBRANCH  78  82
ENDBRANCH  51  75
BRANCH  63  86
ATOM     86  C   UNL A   1      49.986  24.885  33.587  1.00  0.00     0.023 A 
ATOM     87  C   UNL A   1      51.137  25.693  33.581  1.00  0.00     0.031 A 
ATOM     88  C   UNL A   1      50.148  23.511  33.843  1.00  0.00     0.131 A 
ATOM     89  C   UNL A   1      52.401  25.112  33.768  1.00  0.00     0.055 A 
ATOM     90  C   UNL A   1      51.401  22.952  34.100  1.00  0.00     0.041 A 
ATOM     91  F   UNL A   1      49.087  22.688  33.857  1.00  0.00    -0.206 F 
ATOM     92  C   UNL A   1      52.538  23.750  34.048  1.00  0.00     0.022 A 
BRANCH  89  93
ATOM     93  S   UNL A   1      53.876  26.142  33.535  1.00  0.00     0.124 S 
ATOM     94  O   UNL A   1      53.361  27.477  33.817  1.00  0.00    -0.237 OA
ATOM     95  O   UNL A   1      54.800  25.593  34.521  1.00  0.00    -0.237 OA
ATOM     96  O   UNL A   1      54.244  25.902  32.140  1.00  0.00    -0.744 OA
ENDBRANCH  89  93
ENDBRANCH  63  86
ENDBRANCH  37  38
ENDBRANCH  30  32
ENDBRANCH  29  30
ENDBRANCH  28  29
ENDBRANCH  27  28
ENDBRANCH  26  27
ENDBRANCH  25  26
ENDBRANCH   1  25
TORSDOF 27
ENDMDL
MODEL 2
REMARK VINA RESULT:      -7.6      2.147      7.714
REMARK SMILES CC[C@@](CC(F)(F)F)(C(=O)OCCOCCOCCOCCOC(=O)c1ccc(-c2c3nc(c(-c4cc(S(=O)(=O)[O-])ccc4F)c4ccc([nH]4)c(-c4cc(S(=O)(=O)[O-])ccc4F)c4nc(c(-c5cc(S(=O)(=O)[O-])ccc5F)c5ccc2[nH]5)C=C4)C=C3)cc1)c1ccccc1
REMARK SMILES IDX 18 1 17 2 16 3 15 4 14 5 13 6 12 7 11 8 9 9 10 10 3 11 2 12
REMARK SMILES IDX 1 13 4 14 5 15 6 16 7 17 8 18 89 19 90 20 94 21 91 22 93 23
REMARK SMILES IDX 92 24 19 25 20 26 21 27 22 28 23 29 24 30 25 31 26 32 27 33
REMARK SMILES IDX 88 34 28 35 87 36 29 37 30 38 31 39 81 40 32 41 86 42 80 43
REMARK SMILES IDX 82 44 33 45 85 46 79 47 78 48 34 50 66 51 46 52 65 53 47 54
REMARK SMILES IDX 50 55 64 56 83 57 48 58 49 59 63 61 84 62 51 63 35 64 36 65
REMARK SMILES IDX 44 66 37 67 43 68 45 69 42 70 38 71 39 72 40 73 41 74 67 75
REMARK SMILES IDX 68 76 76 77 69 78 75 79 77 80 74 81 70 82 71 83 72 84 73 85
REMARK SMILES IDX 52 86 53 87 61 88 54 89 60 90 62 91 59 92 55 93 56 94 57 95
REMARK SMILES IDX 58 96
REMARK H PARENT 82 49 50 60
REMARK Flexibility Score: inf
ROOT
ATOM      1  C   UNL A   1      39.990  27.246  27.193  1.00  0.00     0.188 C 
ENDROOT
BRANCH   1   2
ATOM      2  O   UNL A   1      40.221  25.919  27.650  1.00  0.00    -0.377 OA
BRANCH   2   3
ATOM      3  C   UNL A   1      40.440  24.913  26.685  1.00  0.00     0.188 C 
BRANCH   3   4
ATOM      4  C   UNL A   1      40.028  23.496  27.089  1.00  0.00     0.188 C 
BRANCH   4   5
ATOM      5  O   UNL A   1      38.891  22.936  26.479  1.00  0.00    -0.376 OA
BRANCH   5   6
ATOM      6  C   UNL A   1      37.787  23.756  26.128  1.00  0.00     0.202 C 
BRANCH   6   7
ATOM      7  C   UNL A   1      36.949  23.676  24.827  1.00  0.00     0.261 C 
BRANCH   7   8
ATOM      8  O   UNL A   1      35.533  23.420  24.896  1.00  0.00    -0.463 OA
BRANCH   8   9
ATOM      9  C   UNL A   1      35.145  22.124  24.858  1.00  0.00     0.316 C 
ATOM     10  O   UNL A   1      35.810  21.240  24.321  1.00  0.00    -0.251 OA
BRANCH   9  11
ATOM     11  C   UNL A   1      33.738  21.831  25.496  1.00  0.00     0.101 C 
BRANCH  11  12
ATOM     12  C   UNL A   1      33.714  21.525  27.037  1.00  0.00     0.020 C 
ATOM     13  C   UNL A   1      33.896  22.701  28.005  1.00  0.00     0.005 C 
ENDBRANCH  11  12
BRANCH  11  14
ATOM     14  C   UNL A   1      32.965  23.145  25.178  1.00  0.00     0.139 C 
BRANCH  14  15
ATOM     15  C   UNL A   1      31.470  23.090  25.472  1.00  0.00     0.390 C 
ATOM     16  F   UNL A   1      31.060  21.865  25.848  1.00  0.00    -0.171 F 
ATOM     17  F   UNL A   1      31.178  23.938  26.486  1.00  0.00    -0.171 F 
ATOM     18  F   UNL A   1      30.725  23.471  24.416  1.00  0.00    -0.171 F 
ENDBRANCH  14  15
ENDBRANCH  11  14
BRANCH  11  19
ATOM     19  C   UNL A   1      33.112  20.584  24.781  1.00  0.00    -0.030 A 
ATOM     20  C   UNL A   1      32.682  20.644  23.440  1.00  0.00     0.005 A 
ATOM     21  C   UNL A   1      33.026  19.330  25.403  1.00  0.00     0.005 A 
ATOM     22  C   UNL A   1      32.213  19.529  22.744  1.00  0.00     0.000 A 
ATOM     23  C   UNL A   1      32.555  18.205  24.710  1.00  0.00     0.000 A 
ATOM     24  C   UNL A   1      32.155  18.301  23.380  1.00  0.00     0.000 A 
ENDBRANCH  11  19
ENDBRANCH   9  11
ENDBRANCH   8   9
ENDBRANCH   7   8
ENDBRANCH   6   7
ENDBRANCH   5   6
ENDBRANCH   4   5
ENDBRANCH   3   4
ENDBRANCH   2   3
ENDBRANCH   1   2
BRANCH   1  25
ATOM     25  C   UNL A   1      39.254  28.257  28.097  1.00  0.00     0.188 C 
BRANCH  25  26
ATOM     26  O   UNL A   1      38.368  29.134  27.415  1.00  0.00    -0.376 OA
BRANCH  26  27
ATOM     27  C   UNL A   1      37.358  29.807  28.149  1.00  0.00     0.202 C 
BRANCH  27  28
ATOM     28  C   UNL A   1      37.781  30.826  29.222  1.00  0.00     0.261 C 
BRANCH  28  29
ATOM     29  O   UNL A   1      37.607  30.438  30.592  1.00  0.00    -0.460 OA
BRANCH  29  30
ATOM     30  C   UNL A   1      38.475  30.917  31.508  1.00  0.00     0.338 C 
ATOM     31  O   UNL A   1      38.219  31.662  32.439  1.00  0.00    -0.246 OA
BRANCH  30  32
ATOM     32  C   UNL A   1      39.756  30.205  31.316  1.00  0.00     0.060 A 
ATOM     33  C   UNL A   1      39.821  28.833  31.592  1.00  0.00     0.016 A 
ATOM     34  C   UNL A   1      40.882  30.884  30.844  1.00  0.00     0.016 A 
ATOM     35  C   UNL A   1      41.021  28.141  31.431  1.00  0.00     0.010 A 
ATOM     36  C   UNL A   1      42.091  30.198  30.712  1.00  0.00     0.010 A 
ATOM     37  C   UNL A   1      42.173  28.833  31.040  1.00  0.00    -0.014 A 
BRANCH  37  38
ATOM     38  C   UNL A   1      43.499  28.191  31.209  1.00  0.00     0.031 A 
ATOM     39  C   UNL A   1      44.114  28.206  32.583  1.00  0.00     0.074 A 
ATOM     40  C   UNL A   1      44.126  27.581  30.187  1.00  0.00     0.049 A 
ATOM     41  N   UNL A   1      45.281  27.772  32.979  1.00  0.00    -0.248 NA
ATOM     42  C   UNL A   1      43.296  28.799  33.654  1.00  0.00     0.031 C 
ATOM     43  C   UNL A   1      43.597  27.445  28.831  1.00  0.00     0.029 A 
ATOM     44  N   UNL A   1      45.352  26.966  30.134  1.00  0.00    -0.354 N 
ATOM     45  C   UNL A   1      45.343  28.049  34.341  1.00  0.00     0.074 A 
ATOM     46  C   UNL A   1      44.110  28.718  34.692  1.00  0.00     0.031 C 
ATOM     47  C   UNL A   1      44.499  26.793  28.076  1.00  0.00     0.029 A 
ATOM     48  C   UNL A   1      45.687  26.507  28.881  1.00  0.00     0.049 A 
ATOM     49  H   UNL A   1      45.937  26.862  30.919  1.00  0.00     0.167 HD
ATOM     50  C   UNL A   1      46.337  27.765  35.217  1.00  0.00     0.034 A 
ATOM     51  C   UNL A   1      46.832  25.952  28.434  1.00  0.00     0.034 A 
ATOM     52  C   UNL A   1      47.564  27.107  34.844  1.00  0.00     0.049 A 
ATOM     53  C   UNL A   1      47.971  25.743  29.409  1.00  0.00     0.074 A 
ATOM     54  C   UNL A   1      48.633  26.759  35.650  1.00  0.00     0.029 A 
ATOM     55  N   UNL A   1      47.894  26.712  33.553  1.00  0.00    -0.354 N 
ATOM     56  N   UNL A   1      48.020  26.006  30.695  1.00  0.00    -0.248 NA
ATOM     57  C   UNL A   1      49.206  25.158  28.870  1.00  0.00     0.031 C 
ATOM     58  C   UNL A   1      49.643  26.238  34.834  1.00  0.00     0.029 A 
ATOM     59  C   UNL A   1      49.168  26.164  33.535  1.00  0.00     0.049 A 
ATOM     60  H   UNL A   1      47.309  26.807  32.767  1.00  0.00     0.167 HD
ATOM     61  C   UNL A   1      49.276  25.579  31.124  1.00  0.00     0.074 A 
ATOM     62  C   UNL A   1      49.946  25.033  29.962  1.00  0.00     0.031 C 
ATOM     63  C   UNL A   1      49.825  25.628  32.366  1.00  0.00     0.034 A 
BRANCH  50  64
ATOM     64  C   UNL A   1      46.161  28.227  36.644  1.00  0.00     0.023 A 
ATOM     65  C   UNL A   1      46.595  29.493  37.077  1.00  0.00     0.031 A 
ATOM     66  C   UNL A   1      45.573  27.373  37.594  1.00  0.00     0.131 A 
ATOM     67  C   UNL A   1      46.494  29.840  38.433  1.00  0.00     0.055 A 
ATOM     68  C   UNL A   1      45.400  27.757  38.923  1.00  0.00     0.041 A 
ATOM     69  F   UNL A   1      45.168  26.141  37.246  1.00  0.00    -0.206 F 
ATOM     70  C   UNL A   1      45.874  28.992  39.353  1.00  0.00     0.022 A 
BRANCH  67  71
ATOM     71  S   UNL A   1      47.321  31.350  39.005  1.00  0.00     0.124 S 
ATOM     72  O   UNL A   1      48.722  31.043  38.728  1.00  0.00    -0.237 OA
ATOM     73  O   UNL A   1      46.714  32.378  38.169  1.00  0.00    -0.237 OA
ATOM     74  O   UNL A   1      46.974  31.413  40.424  1.00  0.00    -0.744 OA
ENDBRANCH  67  71
ENDBRANCH  50  64
BRANCH  51  75
ATOM     75  C   UNL A   1      46.995  25.590  26.994  1.00  0.00     0.023 A 
ATOM     76  C   UNL A   1      47.527  26.505  26.071  1.00  0.00     0.031 A 
ATOM     77  C   UNL A   1      46.549  24.348  26.506  1.00  0.00     0.131 A 
ATOM     78  C   UNL A   1      47.548  26.188  24.703  1.00  0.00     0.055 A 
ATOM     79  C   UNL A   1      46.633  24.013  25.153  1.00  0.00     0.041 A 
ATOM     80  F   UNL A   1      46.021  23.440  27.340  1.00  0.00    -0.206 F 
ATOM     81  C   UNL A   1      47.121  24.942  24.240  1.00  0.00     0.022 A 
BRANCH  78  82
ATOM     82  S   UNL A   1      48.043  27.473  23.522  1.00  0.00     0.124 S 
ATOM     83  O   UNL A   1      49.185  28.074  24.201  1.00  0.00    -0.237 OA
ATOM     84  O   UNL A   1      48.346  26.688  22.330  1.00  0.00    -0.237 OA
ATOM     85  O   UNL A   1      46.857  28.320  23.424  1.00  0.00    -0.744 OA
ENDBRANCH  78  82
ENDBRANCH  51  75
BRANCH  63  86
ATOM     86  C   UNL A   1      51.197  25.017  32.543  1.00  0.00     0.023 A 
ATOM     87  C   UNL A   1      51.375  23.652  32.830  1.00  0.00     0.031 A 
ATOM     88  C   UNL A   1      52.346  25.821  32.424  1.00  0.00     0.131 A 
ATOM     89  C   UNL A   1      52.666  23.146  33.046  1.00  0.00     0.055 A 
ATOM     90  C   UNL A   1      53.630  25.295  32.568  1.00  0.00     0.041 A 
ATOM     91  F   UNL A   1      52.239  27.132  32.155  1.00  0.00    -0.206 F 
ATOM     92  C   UNL A   1      53.796  23.954  32.897  1.00  0.00     0.022 A 
BRANCH  89  93
ATOM     93  S   UNL A   1      52.845  21.438  33.631  1.00  0.00     0.124 S 
ATOM     94  O   UNL A   1      52.025  20.703  32.675  1.00  0.00    -0.237 OA
ATOM     95  O   UNL A   1      54.285  21.223  33.535  1.00  0.00    -0.237 OA
ATOM     96  O   UNL A   1      52.316  21.486  34.993  1.00  0.00    -0.744 OA
ENDBRANCH  89  93
ENDBRANCH  63  86
ENDBRANCH  37  38
ENDBRANCH  30  32
ENDBRANCH  29  30
ENDBRANCH  28  29
ENDBRANCH  27  28
ENDBRANCH  26  27
ENDBRANCH  25  26
ENDBRANCH   1  25
TORSDOF 27
ENDMDL
MODEL 3
REMARK VINA RESULT:      -7.6      5.807     11.563
REMARK SMILES CC[C@@](CC(F)(F)F)(C(=O)OCCOCCOCCOCCOC(=O)c1ccc(-c2c3nc(c(-c4cc(S(=O)(=O)[O-])ccc4F)c4ccc([nH]4)c(-c4cc(S(=O)(=O)[O-])ccc4F)c4nc(c(-c5cc(S(=O)(=O)[O-])ccc5F)c5ccc2[nH]5)C=C4)C=C3)cc1)c1ccccc1
REMARK SMILES IDX 18 1 17 2 16 3 15 4 14 5 13 6 12 7 11 8 9 9 10 10 3 11 2 12
REMARK SMILES IDX 1 13 4 14 5 15 6 16 7 17 8 18 89 19 90 20 94 21 91 22 93 23
REMARK SMILES IDX 92 24 19 25 20 26 21 27 22 28 23 29 24 30 25 31 26 32 27 33
REMARK SMILES IDX 88 34 28 35 87 36 29 37 30 38 31 39 81 40 32 41 86 42 80 43
REMARK SMILES IDX 82 44 33 45 85 46 79 47 78 48 34 50 66 51 46 52 65 53 47 54
REMARK SMILES IDX 50 55 64 56 83 57 48 58 49 59 63 61 84 62 51 63 35 64 36 65
REMARK SMILES IDX 44 66 37 67 43 68 45 69 42 70 38 71 39 72 40 73 41 74 67 75
REMARK SMILES IDX 68 76 76 77 69 78 75 79 77 80 74 81 70 82 71 83 72 84 73 85
REMARK SMILES IDX 52 86 53 87 61 88 54 89 60 90 62 91 59 92 55 93 56 94 57 95
REMARK SMILES IDX 58 96
REMARK H PARENT 82 49 50 60
REMARK Flexibility Score: inf
ROOT
ATOM      1  C   UNL A   1      50.953  25.152  32.670  1.00  0.00     0.188 C 
ENDROOT
BRANCH   1   2
ATOM      2  O   UNL A   1      51.022  25.702  31.360  1.00  0.00    -0.377 OA
BRANCH   2   3
ATOM      3  C   UNL A   1      50.178  26.790  31.052  1.00  0.00     0.188 C 
BRANCH   3   4
ATOM      4  C   UNL A   1      48.840  26.436  30.400  1.00  0.00     0.188 C 
BRANCH   4   5
ATOM      5  O   UNL A   1      48.833  26.124  29.029  1.00  0.00    -0.376 OA
BRANCH   5   6
ATOM      6  C   UNL A   1      47.610  25.863  28.357  1.00  0.00     0.202 C 
BRANCH   6   7
ATOM      7  C   UNL A   1      47.188  24.534  27.682  1.00  0.00     0.261 C 
BRANCH   7   8
ATOM      8  O   UNL A   1      45.890  23.969  27.951  1.00  0.00    -0.463 OA
BRANCH   8   9
ATOM      9  C   UNL A   1      45.018  23.923  26.917  1.00  0.00     0.316 C 
ATOM     10  O   UNL A   1      45.205  23.240  25.912  1.00  0.00    -0.251 OA
BRANCH   9  11
ATOM     11  C   UNL A   1      43.767  24.866  27.058  1.00  0.00     0.101 C 
BRANCH  11  12
ATOM     12  C   UNL A   1      42.576  24.609  26.067  1.00  0.00     0.020 C 
ATOM     13  C   UNL A   1      41.427  25.625  26.047  1.00  0.00     0.005 C 
ENDBRANCH  11  12
BRANCH  11  14
ATOM     14  C   UNL A   1      43.334  24.599  28.530  1.00  0.00     0.139 C 
BRANCH  14  15
ATOM     15  C   UNL A   1      42.626  23.267  28.752  1.00  0.00     0.390 C 
ATOM     16  F   UNL A   1      42.557  22.926  30.051  1.00  0.00    -0.171 F 
ATOM     17  F   UNL A   1      41.355  23.349  28.291  1.00  0.00    -0.171 F 
ATOM     18  F   UNL A   1      43.218  22.255  28.088  1.00  0.00    -0.171 F 
ENDBRANCH  14  15
ENDBRANCH  11  14
BRANCH  11  19
ATOM     19  C   UNL A   1      44.227  26.348  26.832  1.00  0.00    -0.030 A 
ATOM     20  C   UNL A   1      44.076  27.326  27.836  1.00  0.00     0.005 A 
ATOM     21  C   UNL A   1      44.885  26.757  25.663  1.00  0.00     0.005 A 
ATOM     22  C   UNL A   1      44.564  28.627  27.706  1.00  0.00     0.000 A 
ATOM     23  C   UNL A   1      45.377  28.064  25.524  1.00  0.00     0.000 A 
ATOM     24  C   UNL A   1      45.222  28.997  26.546  1.00  0.00     0.000 A 
ENDBRANCH  11  19
ENDBRANCH   9  11
ENDBRANCH   8   9
ENDBRANCH   7   8
ENDBRANCH   6   7
ENDBRANCH   5   6
ENDBRANCH   4   5
ENDBRANCH   3   4
ENDBRANCH   2   3
ENDBRANCH   1   2
BRANCH   1  25
ATOM     25  C   UNL A   1      50.063  23.922  32.945  1.00  0.00     0.188 C 
BRANCH  25  26
ATOM     26  O   UNL A   1      49.063  24.116  33.936  1.00  0.00    -0.376 OA
BRANCH  26  27
ATOM     27  C   UNL A   1      48.298  23.006  34.376  1.00  0.00     0.202 C 
BRANCH  27  28
ATOM     28  C   UNL A   1      47.179  23.243  35.405  1.00  0.00     0.261 C 
BRANCH  28  29
ATOM     29  O   UNL A   1      46.164  24.194  35.056  1.00  0.00    -0.460 OA
BRANCH  29  30
ATOM     30  C   UNL A   1      45.223  23.825  34.160  1.00  0.00     0.338 C 
ATOM     31  O   UNL A   1      44.768  22.706  33.998  1.00  0.00    -0.246 OA
BRANCH  30  32
ATOM     32  C   UNL A   1      44.679  25.060  33.558  1.00  0.00     0.060 A 
ATOM     33  C   UNL A   1      44.576  25.149  32.163  1.00  0.00     0.016 A 
ATOM     34  C   UNL A   1      44.251  26.116  34.367  1.00  0.00     0.016 A 
ATOM     35  C   UNL A   1      44.076  26.309  31.570  1.00  0.00     0.010 A 
ATOM     36  C   UNL A   1      43.780  27.288  33.771  1.00  0.00     0.010 A 
ATOM     37  C   UNL A   1      43.725  27.402  32.370  1.00  0.00    -0.014 A 
BRANCH  37  38
ATOM     38  C   UNL A   1      43.538  28.732  31.743  1.00  0.00     0.031 A 
ATOM     39  C   UNL A   1      44.756  29.425  31.194  1.00  0.00     0.074 A 
ATOM     40  C   UNL A   1      42.322  29.296  31.630  1.00  0.00     0.049 A 
ATOM     41  N   UNL A   1      44.870  30.611  30.657  1.00  0.00    -0.248 NA
ATOM     42  C   UNL A   1      46.019  28.673  31.267  1.00  0.00     0.031 C 
ATOM     43  C   UNL A   1      41.065  28.689  32.063  1.00  0.00     0.029 A 
ATOM     44  N   UNL A   1      41.949  30.515  31.118  1.00  0.00    -0.354 N 
ATOM     45  C   UNL A   1      46.217  30.752  30.338  1.00  0.00     0.074 A 
ATOM     46  C   UNL A   1      46.883  29.545  30.775  1.00  0.00     0.031 C 
ATOM     47  C   UNL A   1      40.058  29.544  31.805  1.00  0.00     0.029 A 
ATOM     48  C   UNL A   1      40.603  30.774  31.233  1.00  0.00     0.049 A 
ATOM     49  H   UNL A   1      42.586  31.143  30.706  1.00  0.00     0.167 HD
ATOM     50  C   UNL A   1      46.838  31.794  29.734  1.00  0.00     0.034 A 
ATOM     51  C   UNL A   1      39.904  31.890  30.938  1.00  0.00     0.034 A 
ATOM     52  C   UNL A   1      46.158  32.993  29.317  1.00  0.00     0.049 A 
ATOM     53  C   UNL A   1      40.638  33.082  30.363  1.00  0.00     0.074 A 
ATOM     54  C   UNL A   1      46.684  34.105  28.684  1.00  0.00     0.029 A 
ATOM     55  N   UNL A   1      44.804  33.247  29.505  1.00  0.00    -0.354 N 
ATOM     56  N   UNL A   1      41.912  33.205  30.063  1.00  0.00    -0.248 NA
ATOM     57  C   UNL A   1      39.838  34.281  30.081  1.00  0.00     0.031 C 
ATOM     58  C   UNL A   1      45.672  35.064  28.572  1.00  0.00     0.029 A 
ATOM     59  C   UNL A   1      44.489  34.515  29.041  1.00  0.00     0.049 A 
ATOM     60  H   UNL A   1      44.164  32.618  29.909  1.00  0.00     0.167 HD
ATOM     61  C   UNL A   1      42.053  34.482  29.521  1.00  0.00     0.074 A 
ATOM     62  C   UNL A   1      40.735  35.081  29.525  1.00  0.00     0.031 C 
ATOM     63  C   UNL A   1      43.169  35.101  29.056  1.00  0.00     0.034 A 
BRANCH  50  64
ATOM     64  C   UNL A   1      48.334  31.702  29.553  1.00  0.00     0.023 A 
ATOM     65  C   UNL A   1      49.234  32.159  30.532  1.00  0.00     0.031 A 
ATOM     66  C   UNL A   1      48.869  31.173  28.364  1.00  0.00     0.131 A 
ATOM     67  C   UNL A   1      50.614  32.139  30.278  1.00  0.00     0.055 A 
ATOM     68  C   UNL A   1      50.244  31.078  28.153  1.00  0.00     0.041 A 
ATOM     69  F   UNL A   1      48.060  30.749  27.380  1.00  0.00    -0.206 F 
ATOM     70  C   UNL A   1      51.126  31.575  29.107  1.00  0.00     0.022 A 
BRANCH  67  71
ATOM     71  S   UNL A   1      51.721  32.996  31.431  1.00  0.00     0.124 S 
ATOM     72  O   UNL A   1      52.774  32.002  31.623  1.00  0.00    -0.237 OA
ATOM     73  O   UNL A   1      52.097  34.188  30.680  1.00  0.00    -0.237 OA
ATOM     74  O   UNL A   1      50.878  33.234  32.601  1.00  0.00    -0.744 OA
ENDBRANCH  67  71
ENDBRANCH  50  64
BRANCH  51  75
ATOM     75  C   UNL A   1      38.439  31.967  31.216  1.00  0.00     0.023 A 
ATOM     76  C   UNL A   1      37.944  32.700  32.307  1.00  0.00     0.031 A 
ATOM     77  C   UNL A   1      37.516  31.246  30.437  1.00  0.00     0.131 A 
ATOM     78  C   UNL A   1      36.577  32.651  32.622  1.00  0.00     0.055 A 
ATOM     79  C   UNL A   1      36.147  31.253  30.716  1.00  0.00     0.041 A 
ATOM     80  F   UNL A   1      37.933  30.518  29.389  1.00  0.00    -0.206 F 
ATOM     81  C   UNL A   1      35.672  31.947  31.824  1.00  0.00     0.022 A 
BRANCH  78  82
ATOM     82  S   UNL A   1      36.011  33.436  34.157  1.00  0.00     0.124 S 
ATOM     83  O   UNL A   1      36.410  34.822  33.945  1.00  0.00    -0.237 OA
ATOM     84  O   UNL A   1      34.577  33.168  34.123  1.00  0.00    -0.237 OA
ATOM     85  O   UNL A   1      36.751  32.723  35.196  1.00  0.00    -0.744 OA
ENDBRANCH  78  82
ENDBRANCH  51  75
BRANCH  63  86
ATOM     86  C   UNL A   1      43.000  36.478  28.454  1.00  0.00     0.023 A 
ATOM     87  C   UNL A   1      43.222  37.650  29.198  1.00  0.00     0.031 A 
ATOM     88  C   UNL A   1      42.606  36.616  27.110  1.00  0.00     0.131 A 
ATOM     89  C   UNL A   1      42.993  38.905  28.612  1.00  0.00     0.055 A 
ATOM     90  C   UNL A   1      42.450  37.867  26.513  1.00  0.00     0.041 A 
ATOM     91  F   UNL A   1      42.375  35.533  26.351  1.00  0.00    -0.206 F 
ATOM     92  C   UNL A   1      42.629  39.021  27.268  1.00  0.00     0.022 A 
BRANCH  89  93
ATOM     93  S   UNL A   1      43.074  40.383  29.660  1.00  0.00     0.124 S 
ATOM     94  O   UNL A   1      41.695  40.854  29.627  1.00  0.00    -0.237 OA
ATOM     95  O   UNL A   1      43.533  39.839  30.934  1.00  0.00    -0.237 OA
ATOM     96  O   UNL A   1      44.039  41.239  28.970  1.00  0.00    -0.744 OA
ENDBRANCH  89  93
ENDBRANCH  63  86
ENDBRANCH  37  38
ENDBRANCH  30  32
ENDBRANCH  29  30
ENDBRANCH  28  29
ENDBRANCH  27  28
ENDBRANCH  26  27
ENDBRANCH  25  26
ENDBRANCH   1  25
TORSDOF 27
ENDMDL
