MODEL 1
REMARK VINA RESULT:     -10.0      0.000      0.000
REMARK SMILES Nn1c(S[C@@H](C(=O)OCCOCCOCCOCCOC(=O)c2ccc(-c3c4nc(c(-c5cc(S(=O)(=O)[O-])ccc5F)c5ccc([nH]5)c(-c5cc(S(=O)(=O)[O-])ccc5F)c5nc(c(-c6cc(S(=O)(=O)[O-])ccc6F)c6ccc3[nH]6)C=C5)C=C4)cc2)c2ccccc2)nc2ccc(Br)cc2c1=O
REMARK SMILES IDX 14 1 13 2 12 3 11 4 10 5 9 6 8 7 6 8 7 9 5 10 4 11 3 12 2 13
REMARK SMILES IDX 100 14 92 15 99 16 101 17 93 18 98 19 94 20 96 21 95 22
REMARK SMILES IDX 97 23 1 24 86 27 87 28 91 29 88 30 90 31 89 32 15 33 16 34
REMARK SMILES IDX 17 35 18 36 19 37 20 38 21 39 22 40 23 41 24 42 85 43 25 44
REMARK SMILES IDX 84 45 26 46 27 47 28 48 78 49 29 50 83 51 77 52 79 53 30 54
REMARK SMILES IDX 82 55 76 56 75 57 31 59 63 60 43 61 62 62 44 63 47 64 61 65
REMARK SMILES IDX 80 66 45 67 46 68 60 70 81 71 48 72 32 73 33 74 41 75 34 76
REMARK SMILES IDX 40 77 42 78 39 79 35 80 36 81 37 82 38 83 64 84 65 85 73 86
REMARK SMILES IDX 66 87 72 88 74 89 71 90 67 91 68 92 69 93 70 94 49 95 50 96
REMARK SMILES IDX 58 97 51 98 57 99 59 100 56 101 52 102 53 103 54 104 55 105
REMARK H PARENT 1 25 1 26 79 58 47 69
REMARK Flexibility Score: inf
ROOT
ATOM      1  O   UNL A   1      39.517  22.764  26.631  1.00  0.00    -0.377 OA
ENDROOT
BRANCH   1   2
ATOM      2  C   UNL A   1      38.831  21.798  25.861  1.00  0.00     0.188 C 
BRANCH   2   3
ATOM      3  C   UNL A   1      37.302  21.821  25.731  1.00  0.00     0.188 C 
BRANCH   3   4
ATOM      4  O   UNL A   1      36.824  22.973  25.077  1.00  0.00    -0.376 OA
BRANCH   4   5
ATOM      5  C   UNL A   1      36.861  22.953  23.662  1.00  0.00     0.202 C 
BRANCH   5   6
ATOM      6  C   UNL A   1      35.544  23.031  22.859  1.00  0.00     0.261 C 
BRANCH   6   7
ATOM      7  O   UNL A   1      34.527  23.966  23.305  1.00  0.00    -0.462 OA
BRANCH   7   8
ATOM      8  C   UNL A   1      33.307  23.964  22.707  1.00  0.00     0.324 C 
ATOM      9  O   UNL A   1      33.186  24.316  21.535  1.00  0.00    -0.251 OA
BRANCH   8  10
ATOM     10  C   UNL A   1      32.096  23.589  23.638  1.00  0.00     0.194 C 
BRANCH  10  11
ATOM     11  S   UNL A   1      30.757  24.833  23.731  1.00  0.00    -0.066 SA
BRANCH  11  12
ATOM     12  C   UNL A   1      31.229  26.478  24.180  1.00  0.00     0.191 A 
ATOM     13  N   UNL A   1      30.485  27.644  23.960  1.00  0.00    -0.202 N 
ATOM     14  C   UNL A   1      30.908  28.901  24.419  1.00  0.00     0.280 A 
ATOM     15  N   UNL A   1      32.354  26.518  24.835  1.00  0.00    -0.222 NA
ATOM     16  C   UNL A   1      32.118  28.924  25.240  1.00  0.00     0.069 A 
ATOM     17  O   UNL A   1      30.288  29.944  24.206  1.00  0.00    -0.267 OA
ATOM     18  C   UNL A   1      32.794  27.720  25.411  1.00  0.00     0.079 A 
ATOM     19  C   UNL A   1      32.500  30.096  25.911  1.00  0.00     0.031 A 
ATOM     20  C   UNL A   1      33.896  27.707  26.275  1.00  0.00     0.030 A 
ATOM     21  C   UNL A   1      33.579  30.053  26.785  1.00  0.00     0.018 A 
ATOM     22  C   UNL A   1      34.285  28.864  26.966  1.00  0.00     0.018 A 
ATOM     23  Br  UNL A   1      34.041  31.590  27.780  1.00  0.00    -0.051 Br
BRANCH  13  24
ATOM     24  N   UNL A   1      29.251  27.674  23.289  1.00  0.00    -0.334 N 
ATOM     25  H   UNL A   1      29.058  27.013  22.585  1.00  0.00     0.178 HD
ATOM     26  H   UNL A   1      28.580  28.354  23.523  1.00  0.00     0.178 HD
ENDBRANCH  13  24
ENDBRANCH  11  12
ENDBRANCH  10  11
BRANCH  10  27
ATOM     27  C   UNL A   1      32.411  22.847  24.945  1.00  0.00    -0.023 A 
ATOM     28  C   UNL A   1      32.149  23.452  26.192  1.00  0.00     0.005 A 
ATOM     29  C   UNL A   1      33.049  21.592  24.964  1.00  0.00     0.005 A 
ATOM     30  C   UNL A   1      32.677  22.926  27.374  1.00  0.00     0.000 A 
ATOM     31  C   UNL A   1      33.552  21.053  26.150  1.00  0.00     0.000 A 
ATOM     32  C   UNL A   1      33.403  21.741  27.346  1.00  0.00     0.000 A 
ENDBRANCH  10  27
ENDBRANCH   8  10
ENDBRANCH   7   8
ENDBRANCH   6   7
ENDBRANCH   5   6
ENDBRANCH   4   5
ENDBRANCH   3   4
ENDBRANCH   2   3
ENDBRANCH   1   2
BRANCH   1  33
ATOM     33  C   UNL A   1      40.451  22.310  27.590  1.00  0.00     0.188 C 
BRANCH  33  34
ATOM     34  C   UNL A   1      41.787  21.741  27.081  1.00  0.00     0.188 C 
BRANCH  34  35
ATOM     35  O   UNL A   1      41.938  20.330  27.219  1.00  0.00    -0.376 OA
BRANCH  35  36
ATOM     36  C   UNL A   1      41.841  19.558  26.027  1.00  0.00     0.202 C 
BRANCH  36  37
ATOM     37  C   UNL A   1      43.071  18.721  25.658  1.00  0.00     0.261 C 
BRANCH  37  38
ATOM     38  O   UNL A   1      44.308  19.426  25.574  1.00  0.00    -0.460 OA
BRANCH  38  39
ATOM     39  C   UNL A   1      44.566  20.130  24.454  1.00  0.00     0.338 C 
ATOM     40  O   UNL A   1      44.431  19.764  23.300  1.00  0.00    -0.246 OA
BRANCH  39  41
ATOM     41  C   UNL A   1      44.813  21.505  24.919  1.00  0.00     0.060 A 
ATOM     42  C   UNL A   1      45.284  21.723  26.220  1.00  0.00     0.016 A 
ATOM     43  C   UNL A   1      44.420  22.573  24.107  1.00  0.00     0.016 A 
ATOM     44  C   UNL A   1      45.362  23.021  26.711  1.00  0.00     0.010 A 
ATOM     45  C   UNL A   1      44.473  23.872  24.610  1.00  0.00     0.010 A 
ATOM     46  C   UNL A   1      44.964  24.101  25.906  1.00  0.00    -0.014 A 
BRANCH  46  47
ATOM     47  C   UNL A   1      45.324  25.476  26.303  1.00  0.00     0.031 A 
ATOM     48  C   UNL A   1      46.714  26.010  26.206  1.00  0.00     0.074 A 
ATOM     49  C   UNL A   1      44.328  26.215  26.824  1.00  0.00     0.049 A 
ATOM     50  N   UNL A   1      47.144  27.209  26.499  1.00  0.00    -0.248 NA
ATOM     51  C   UNL A   1      47.758  25.091  25.732  1.00  0.00     0.031 C 
ATOM     52  C   UNL A   1      42.953  25.738  26.991  1.00  0.00     0.029 A 
ATOM     53  N   UNL A   1      44.306  27.488  27.322  1.00  0.00    -0.354 N 
ATOM     54  C   UNL A   1      48.509  27.200  26.242  1.00  0.00     0.074 A 
ATOM     55  C   UNL A   1      48.840  25.860  25.800  1.00  0.00     0.031 C 
ATOM     56  C   UNL A   1      42.221  26.704  27.558  1.00  0.00     0.029 A 
ATOM     57  C   UNL A   1      43.080  27.855  27.821  1.00  0.00     0.049 A 
ATOM     58  H   UNL A   1      45.091  28.083  27.323  1.00  0.00     0.167 HD
ATOM     59  C   UNL A   1      49.385  28.227  26.364  1.00  0.00     0.034 A 
ATOM     60  C   UNL A   1      42.685  28.988  28.430  1.00  0.00     0.034 A 
ATOM     61  C   UNL A   1      49.007  29.544  26.826  1.00  0.00     0.049 A 
ATOM     62  C   UNL A   1      43.672  30.112  28.546  1.00  0.00     0.074 A 
ATOM     63  C   UNL A   1      49.794  30.679  26.905  1.00  0.00     0.029 A 
ATOM     64  N   UNL A   1      47.751  29.899  27.307  1.00  0.00    -0.354 N 
ATOM     65  N   UNL A   1      44.930  30.139  28.174  1.00  0.00    -0.248 NA
ATOM     66  C   UNL A   1      43.193  31.367  29.136  1.00  0.00     0.031 C 
ATOM     67  C   UNL A   1      49.046  31.689  27.514  1.00  0.00     0.029 A 
ATOM     68  C   UNL A   1      47.759  31.220  27.730  1.00  0.00     0.049 A 
ATOM     69  H   UNL A   1      46.971  29.300  27.342  1.00  0.00     0.167 HD
ATOM     70  C   UNL A   1      45.392  31.415  28.469  1.00  0.00     0.074 A 
ATOM     71  C   UNL A   1      44.266  32.140  29.026  1.00  0.00     0.031 C 
ATOM     72  C   UNL A   1      46.634  31.935  28.294  1.00  0.00     0.034 A 
BRANCH  59  73
ATOM     73  C   UNL A   1      50.834  28.008  25.992  1.00  0.00     0.023 A 
ATOM     74  C   UNL A   1      51.224  28.022  24.639  1.00  0.00     0.031 A 
ATOM     75  C   UNL A   1      51.793  27.636  26.952  1.00  0.00     0.131 A 
ATOM     76  C   UNL A   1      52.523  27.637  24.280  1.00  0.00     0.055 A 
ATOM     77  C   UNL A   1      53.099  27.295  26.593  1.00  0.00     0.041 A 
ATOM     78  F   UNL A   1      51.473  27.595  28.255  1.00  0.00    -0.206 F 
ATOM     79  C   UNL A   1      53.465  27.282  25.250  1.00  0.00     0.022 A 
BRANCH  76  80
ATOM     80  S   UNL A   1      53.022  27.509  22.540  1.00  0.00     0.124 S 
ATOM     81  O   UNL A   1      51.731  27.352  21.872  1.00  0.00    -0.237 OA
ATOM     82  O   UNL A   1      53.686  28.790  22.316  1.00  0.00    -0.237 OA
ATOM     83  O   UNL A   1      53.885  26.335  22.507  1.00  0.00    -0.744 OA
ENDBRANCH  76  80
ENDBRANCH  59  73
BRANCH  60  84
ATOM     84  C   UNL A   1      41.266  29.088  28.871  1.00  0.00     0.023 A 
ATOM     85  C   UNL A   1      40.934  28.983  30.236  1.00  0.00     0.031 A 
ATOM     86  C   UNL A   1      40.224  29.082  27.931  1.00  0.00     0.131 A 
ATOM     87  C   UNL A   1      39.601  28.777  30.612  1.00  0.00     0.055 A 
ATOM     88  C   UNL A   1      38.889  28.955  28.318  1.00  0.00     0.041 A 
ATOM     89  F   UNL A   1      40.496  29.155  26.619  1.00  0.00    -0.206 F 
ATOM     90  C   UNL A   1      38.574  28.778  29.662  1.00  0.00     0.022 A 
BRANCH  87  91
ATOM     91  S   UNL A   1      39.177  28.325  32.318  1.00  0.00     0.124 S 
ATOM     92  O   UNL A   1      40.488  28.037  32.891  1.00  0.00    -0.237 OA
ATOM     93  O   UNL A   1      38.533  29.546  32.797  1.00  0.00    -0.237 OA
ATOM     94  O   UNL A   1      38.291  27.177  32.162  1.00  0.00    -0.744 OA
ENDBRANCH  87  91
ENDBRANCH  60  84
BRANCH  72  95
ATOM     95  C   UNL A   1      46.880  33.362  28.723  1.00  0.00     0.023 A 
ATOM     96  C   UNL A   1      46.725  34.412  27.797  1.00  0.00     0.031 A 
ATOM     97  C   UNL A   1      47.413  33.666  29.988  1.00  0.00     0.131 A 
ATOM     98  C   UNL A   1      47.152  35.703  28.129  1.00  0.00     0.055 A 
ATOM     99  C   UNL A   1      47.782  34.966  30.335  1.00  0.00     0.041 A 
ATOM    100  F   UNL A   1      47.587  32.699  30.905  1.00  0.00    -0.206 F 
ATOM    101  C   UNL A   1      47.669  35.988  29.396  1.00  0.00     0.022 A 
BRANCH  98 102
ATOM    102  S   UNL A   1      47.145  37.036  26.898  1.00  0.00     0.124 S 
ATOM    103  O   UNL A   1      47.755  38.136  27.641  1.00  0.00    -0.237 OA
ATOM    104  O   UNL A   1      47.967  36.473  25.831  1.00  0.00    -0.237 OA
ATOM    105  O   UNL A   1      45.733  37.211  26.577  1.00  0.00    -0.744 OA
ENDBRANCH  98 102
ENDBRANCH  72  95
ENDBRANCH  46  47
ENDBRANCH  39  41
ENDBRANCH  38  39
ENDBRANCH  37  38
ENDBRANCH  36  37
ENDBRANCH  35  36
ENDBRANCH  34  35
ENDBRANCH  33  34
ENDBRANCH   1  33
TORSDOF 27
ENDMDL
MODEL 2
REMARK VINA RESULT:      -8.1      8.065     14.588
REMARK SMILES Nn1c(S[C@@H](C(=O)OCCOCCOCCOCCOC(=O)c2ccc(-c3c4nc(c(-c5cc(S(=O)(=O)[O-])ccc5F)c5ccc([nH]5)c(-c5cc(S(=O)(=O)[O-])ccc5F)c5nc(c(-c6cc(S(=O)(=O)[O-])ccc6F)c6ccc3[nH]6)C=C5)C=C4)cc2)c2ccccc2)nc2ccc(Br)cc2c1=O
REMARK SMILES IDX 14 1 13 2 12 3 11 4 10 5 9 6 8 7 6 8 7 9 5 10 4 11 3 12 2 13
REMARK SMILES IDX 100 14 92 15 99 16 101 17 93 18 98 19 94 20 96 21 95 22
REMARK SMILES IDX 97 23 1 24 86 27 87 28 91 29 88 30 90 31 89 32 15 33 16 34
REMARK SMILES IDX 17 35 18 36 19 37 20 38 21 39 22 40 23 41 24 42 85 43 25 44
REMARK SMILES IDX 84 45 26 46 27 47 28 48 78 49 29 50 83 51 77 52 79 53 30 54
REMARK SMILES IDX 82 55 76 56 75 57 31 59 63 60 43 61 62 62 44 63 47 64 61 65
REMARK SMILES IDX 80 66 45 67 46 68 60 70 81 71 48 72 32 73 33 74 41 75 34 76
REMARK SMILES IDX 40 77 42 78 39 79 35 80 36 81 37 82 38 83 64 84 65 85 73 86
REMARK SMILES IDX 66 87 72 88 74 89 71 90 67 91 68 92 69 93 70 94 49 95 50 96
REMARK SMILES IDX 58 97 51 98 57 99 59 100 56 101 52 102 53 103 54 104 55 105
REMARK H PARENT 1 25 1 26 79 58 47 69
REMARK Flexibility Score: inf
ROOT
ATOM      1  O   UNL A   1      50.476  33.633  30.199  1.00  0.00    -0.377 OA
ENDROOT
BRANCH   1   2
ATOM      2  C   UNL A   1      49.392  33.353  31.059  1.00  0.00     0.188 C 
BRANCH   2   3
ATOM      3  C   UNL A   1      48.685  31.990  31.035  1.00  0.00     0.188 C 
BRANCH   3   4
ATOM      4  O   UNL A   1      49.425  30.977  31.676  1.00  0.00    -0.376 OA
BRANCH   4   5
ATOM      5  C   UNL A   1      49.000  29.647  31.445  1.00  0.00     0.202 C 
BRANCH   5   6
ATOM      6  C   UNL A   1      47.635  29.384  30.773  1.00  0.00     0.261 C 
BRANCH   6   7
ATOM      7  O   UNL A   1      46.740  28.425  31.396  1.00  0.00    -0.462 OA
BRANCH   7   8
ATOM      8  C   UNL A   1      46.376  28.594  32.694  1.00  0.00     0.324 C 
ATOM      9  O   UNL A   1      47.229  28.734  33.569  1.00  0.00    -0.251 OA
BRANCH   8  10
ATOM     10  C   UNL A   1      44.833  28.495  32.984  1.00  0.00     0.194 C 
BRANCH  10  11
ATOM     11  S   UNL A   1      44.004  30.073  33.395  1.00  0.00    -0.066 SA
BRANCH  11  12
ATOM     12  C   UNL A   1      42.273  30.176  33.048  1.00  0.00     0.191 A 
ATOM     13  N   UNL A   1      41.267  30.549  33.948  1.00  0.00    -0.202 N 
ATOM     14  C   UNL A   1      39.924  30.675  33.562  1.00  0.00     0.280 A 
ATOM     15  N   UNL A   1      41.994  29.936  31.799  1.00  0.00    -0.222 NA
ATOM     16  C   UNL A   1      39.634  30.503  32.140  1.00  0.00     0.069 A 
ATOM     17  O   UNL A   1      39.018  30.966  34.345  1.00  0.00    -0.267 OA
ATOM     18  C   UNL A   1      40.691  30.136  31.314  1.00  0.00     0.079 A 
ATOM     19  C   UNL A   1      38.363  30.812  31.631  1.00  0.00     0.031 A 
ATOM     20  C   UNL A   1      40.451  30.066  29.937  1.00  0.00     0.030 A 
ATOM     21  C   UNL A   1      38.155  30.763  30.258  1.00  0.00     0.018 A 
ATOM     22  C   UNL A   1      39.192  30.385  29.407  1.00  0.00     0.018 A 
ATOM     23  Br  UNL A   1      36.484  31.280  29.544  1.00  0.00    -0.051 Br
BRANCH  13  24
ATOM     24  N   UNL A   1      41.497  30.852  35.302  1.00  0.00    -0.334 N 
ATOM     25  H   UNL A   1      42.319  30.538  35.743  1.00  0.00     0.178 HD
ATOM     26  H   UNL A   1      40.836  31.377  35.807  1.00  0.00     0.178 HD
ENDBRANCH  13  24
ENDBRANCH  11  12
ENDBRANCH  10  11
BRANCH  10  27
ATOM     27  C   UNL A   1      44.335  27.258  33.746  1.00  0.00    -0.023 A 
ATOM     28  C   UNL A   1      44.628  25.961  33.274  1.00  0.00     0.005 A 
ATOM     29  C   UNL A   1      43.501  27.355  34.876  1.00  0.00     0.005 A 
ATOM     30  C   UNL A   1      43.963  24.843  33.780  1.00  0.00     0.000 A 
ATOM     31  C   UNL A   1      42.856  26.232  35.399  1.00  0.00     0.000 A 
ATOM     32  C   UNL A   1      43.055  24.984  34.824  1.00  0.00     0.000 A 
ENDBRANCH  10  27
ENDBRANCH   8  10
ENDBRANCH   7   8
ENDBRANCH   6   7
ENDBRANCH   5   6
ENDBRANCH   4   5
ENDBRANCH   3   4
ENDBRANCH   2   3
ENDBRANCH   1   2
BRANCH   1  33
ATOM     33  C   UNL A   1      50.243  34.472  29.086  1.00  0.00     0.188 C 
BRANCH  33  34
ATOM     34  C   UNL A   1      48.786  34.695  28.645  1.00  0.00     0.188 C 
BRANCH  34  35
ATOM     35  O   UNL A   1      48.309  33.795  27.647  1.00  0.00    -0.376 OA
BRANCH  35  36
ATOM     36  C   UNL A   1      47.499  34.354  26.619  1.00  0.00     0.202 C 
BRANCH  36  37
ATOM     37  C   UNL A   1      46.481  35.414  27.057  1.00  0.00     0.261 C 
BRANCH  37  38
ATOM     38  O   UNL A   1      45.253  35.443  26.333  1.00  0.00    -0.460 OA
BRANCH  38  39
ATOM     39  C   UNL A   1      44.509  34.320  26.293  1.00  0.00     0.338 C 
ATOM     40  O   UNL A   1      44.513  33.457  25.433  1.00  0.00    -0.246 OA
BRANCH  39  41
ATOM     41  C   UNL A   1      43.872  34.240  27.618  1.00  0.00     0.060 A 
ATOM     42  C   UNL A   1      43.697  32.993  28.230  1.00  0.00     0.016 A 
ATOM     43  C   UNL A   1      43.308  35.397  28.167  1.00  0.00     0.016 A 
ATOM     44  C   UNL A   1      42.953  32.902  29.401  1.00  0.00     0.010 A 
ATOM     45  C   UNL A   1      42.541  35.302  29.326  1.00  0.00     0.010 A 
ATOM     46  C   UNL A   1      42.379  34.057  29.958  1.00  0.00    -0.014 A 
BRANCH  46  47
ATOM     47  C   UNL A   1      41.855  34.016  31.337  1.00  0.00     0.031 A 
ATOM     48  C   UNL A   1      40.398  34.088  31.653  1.00  0.00     0.074 A 
ATOM     49  C   UNL A   1      42.779  33.971  32.314  1.00  0.00     0.049 A 
ATOM     50  N   UNL A   1      39.819  34.033  32.823  1.00  0.00    -0.248 NA
ATOM     51  C   UNL A   1      39.471  34.252  30.525  1.00  0.00     0.031 C 
ATOM     52  C   UNL A   1      44.224  33.945  32.076  1.00  0.00     0.029 A 
ATOM     53  N   UNL A   1      42.661  33.960  33.675  1.00  0.00    -0.354 N 
ATOM     54  C   UNL A   1      38.456  34.149  32.581  1.00  0.00     0.074 A 
ATOM     55  C   UNL A   1      38.299  34.312  31.150  1.00  0.00     0.031 C 
ATOM     56  C   UNL A   1      44.860  33.927  33.252  1.00  0.00     0.029 A 
ATOM     57  C   UNL A   1      43.872  33.970  34.325  1.00  0.00     0.049 A 
ATOM     58  H   UNL A   1      41.795  33.948  34.144  1.00  0.00     0.167 HD
ATOM     59  C   UNL A   1      37.446  34.113  33.484  1.00  0.00     0.034 A 
ATOM     60  C   UNL A   1      44.161  34.016  35.639  1.00  0.00     0.034 A 
ATOM     61  C   UNL A   1      37.656  33.964  34.907  1.00  0.00     0.049 A 
ATOM     62  C   UNL A   1      43.024  33.968  36.618  1.00  0.00     0.074 A 
ATOM     63  C   UNL A   1      36.702  33.830  35.901  1.00  0.00     0.029 A 
ATOM     64  N   UNL A   1      38.893  33.955  35.542  1.00  0.00    -0.354 N 
ATOM     65  N   UNL A   1      41.735  33.940  36.374  1.00  0.00    -0.248 NA
ATOM     66  C   UNL A   1      43.368  33.932  38.043  1.00  0.00     0.031 C 
ATOM     67  C   UNL A   1      37.354  33.830  37.136  1.00  0.00     0.029 A 
ATOM     68  C   UNL A   1      38.723  33.868  36.916  1.00  0.00     0.049 A 
ATOM     69  H   UNL A   1      39.763  34.004  35.083  1.00  0.00     0.167 HD
ATOM     70  C   UNL A   1      41.111  33.868  37.613  1.00  0.00     0.074 A 
ATOM     71  C   UNL A   1      42.169  33.827  38.604  1.00  0.00     0.031 C 
ATOM     72  C   UNL A   1      39.784  33.838  37.900  1.00  0.00     0.034 A 
BRANCH  59  73
ATOM     73  C   UNL A   1      36.018  34.221  32.998  1.00  0.00     0.023 A 
ATOM     74  C   UNL A   1      35.429  35.488  32.820  1.00  0.00     0.031 A 
ATOM     75  C   UNL A   1      35.199  33.086  32.860  1.00  0.00     0.131 A 
ATOM     76  C   UNL A   1      34.057  35.590  32.551  1.00  0.00     0.055 A 
ATOM     77  C   UNL A   1      33.841  33.192  32.549  1.00  0.00     0.041 A 
ATOM     78  F   UNL A   1      35.705  31.855  33.030  1.00  0.00    -0.206 F 
ATOM     79  C   UNL A   1      33.262  34.450  32.407  1.00  0.00     0.022 A 
BRANCH  76  80
ATOM     80  S   UNL A   1      33.234  37.205  32.452  1.00  0.00     0.124 S 
ATOM     81  O   UNL A   1      31.943  36.921  33.076  1.00  0.00    -0.237 OA
ATOM     82  O   UNL A   1      34.130  38.054  33.234  1.00  0.00    -0.237 OA
ATOM     83  O   UNL A   1      33.184  37.488  31.022  1.00  0.00    -0.744 OA
ENDBRANCH  76  80
ENDBRANCH  59  73
BRANCH  60  84
ATOM     84  C   UNL A   1      45.595  34.019  36.041  1.00  0.00     0.023 A 
ATOM     85  C   UNL A   1      46.308  32.808  36.148  1.00  0.00     0.031 A 
ATOM     86  C   UNL A   1      46.201  35.191  36.515  1.00  0.00     0.131 A 
ATOM     87  C   UNL A   1      47.544  32.787  36.806  1.00  0.00     0.055 A 
ATOM     88  C   UNL A   1      47.468  35.177  37.100  1.00  0.00     0.041 A 
ATOM     89  F   UNL A   1      45.548  36.363  36.456  1.00  0.00    -0.206 F 
ATOM     90  C   UNL A   1      48.136  33.967  37.268  1.00  0.00     0.022 A 
BRANCH  87  91
ATOM     91  S   UNL A   1      48.337  31.213  37.239  1.00  0.00     0.124 S 
ATOM     92  O   UNL A   1      48.279  30.485  35.975  1.00  0.00    -0.237 OA
ATOM     93  O   UNL A   1      49.667  31.656  37.651  1.00  0.00    -0.237 OA
ATOM     94  O   UNL A   1      47.499  30.686  38.310  1.00  0.00    -0.744 OA
ENDBRANCH  87  91
ENDBRANCH  60  84
BRANCH  72  95
ATOM     95  C   UNL A   1      39.366  33.777  39.350  1.00  0.00     0.023 A 
ATOM     96  C   UNL A   1      39.187  32.530  39.980  1.00  0.00     0.031 A 
ATOM     97  C   UNL A   1      38.997  34.936  40.055  1.00  0.00     0.131 A 
ATOM     98  C   UNL A   1      38.602  32.468  41.250  1.00  0.00     0.055 A 
ATOM     99  C   UNL A   1      38.468  34.872  41.345  1.00  0.00     0.041 A 
ATOM    100  F   UNL A   1      39.141  36.149  39.497  1.00  0.00    -0.206 F 
ATOM    101  C   UNL A   1      38.252  33.632  41.940  1.00  0.00     0.022 A 
BRANCH  98 102
ATOM    102  S   UNL A   1      38.182  30.875  42.010  1.00  0.00     0.124 S 
ATOM    103  O   UNL A   1      37.510  30.184  40.912  1.00  0.00    -0.237 OA
ATOM    104  O   UNL A   1      39.497  30.349  42.365  1.00  0.00    -0.237 OA
ATOM    105  O   UNL A   1      37.326  31.235  43.134  1.00  0.00    -0.744 OA
ENDBRANCH  98 102
ENDBRANCH  72  95
ENDBRANCH  46  47
ENDBRANCH  39  41
ENDBRANCH  38  39
ENDBRANCH  37  38
ENDBRANCH  36  37
ENDBRANCH  35  36
ENDBRANCH  34  35
ENDBRANCH  33  34
ENDBRANCH   1  33
TORSDOF 27
ENDMDL
MODEL 3
REMARK VINA RESULT:      -7.9      7.394     15.672
REMARK SMILES Nn1c(S[C@@H](C(=O)OCCOCCOCCOCCOC(=O)c2ccc(-c3c4nc(c(-c5cc(S(=O)(=O)[O-])ccc5F)c5ccc([nH]5)c(-c5cc(S(=O)(=O)[O-])ccc5F)c5nc(c(-c6cc(S(=O)(=O)[O-])ccc6F)c6ccc3[nH]6)C=C5)C=C4)cc2)c2ccccc2)nc2ccc(Br)cc2c1=O
REMARK SMILES IDX 14 1 13 2 12 3 11 4 10 5 9 6 8 7 6 8 7 9 5 10 4 11 3 12 2 13
REMARK SMILES IDX 100 14 92 15 99 16 101 17 93 18 98 19 94 20 96 21 95 22
REMARK SMILES IDX 97 23 1 24 86 27 87 28 91 29 88 30 90 31 89 32 15 33 16 34
REMARK SMILES IDX 17 35 18 36 19 37 20 38 21 39 22 40 23 41 24 42 85 43 25 44
REMARK SMILES IDX 84 45 26 46 27 47 28 48 78 49 29 50 83 51 77 52 79 53 30 54
REMARK SMILES IDX 82 55 76 56 75 57 31 59 63 60 43 61 62 62 44 63 47 64 61 65
REMARK SMILES IDX 80 66 45 67 46 68 60 70 81 71 48 72 32 73 33 74 41 75 34 76
REMARK SMILES IDX 40 77 42 78 39 79 35 80 36 81 37 82 38 83 64 84 65 85 73 86
REMARK SMILES IDX 66 87 72 88 74 89 71 90 67 91 68 92 69 93 70 94 49 95 50 96
REMARK SMILES IDX 58 97 51 98 57 99 59 100 56 101 52 102 53 103 54 104 55 105
REMARK H PARENT 1 25 1 26 79 58 47 69
REMARK Flexibility Score: inf
ROOT
ATOM      1  O   UNL A   1      44.203  41.983  27.621  1.00  0.00    -0.377 OA
ENDROOT
BRANCH   1   2
ATOM      2  C   UNL A   1      44.927  43.071  28.157  1.00  0.00     0.188 C 
BRANCH   2   3
ATOM      3  C   UNL A   1      45.499  44.172  27.253  1.00  0.00     0.188 C 
BRANCH   3   4
ATOM      4  O   UNL A   1      45.653  43.759  25.915  1.00  0.00    -0.376 OA
BRANCH   4   5
ATOM      5  C   UNL A   1      45.330  44.715  24.922  1.00  0.00     0.202 C 
BRANCH   5   6
ATOM      6  C   UNL A   1      44.105  44.488  24.009  1.00  0.00     0.261 C 
BRANCH   6   7
ATOM      7  O   UNL A   1      44.342  44.239  22.598  1.00  0.00    -0.462 OA
BRANCH   7   8
ATOM      8  C   UNL A   1      43.793  43.145  22.010  1.00  0.00     0.324 C 
ATOM      9  O   UNL A   1      43.104  42.364  22.665  1.00  0.00    -0.251 OA
BRANCH   8  10
ATOM     10  C   UNL A   1      44.184  42.915  20.504  1.00  0.00     0.194 C 
BRANCH  10  11
ATOM     11  S   UNL A   1      45.964  43.086  20.117  1.00  0.00    -0.066 SA
BRANCH  11  12
ATOM     12  C   UNL A   1      46.723  44.630  20.526  1.00  0.00     0.191 A 
ATOM     13  N   UNL A   1      46.109  45.888  20.505  1.00  0.00    -0.202 N 
ATOM     14  C   UNL A   1      46.772  47.053  20.919  1.00  0.00     0.280 A 
ATOM     15  N   UNL A   1      47.950  44.494  20.944  1.00  0.00    -0.222 NA
ATOM     16  C   UNL A   1      48.111  46.880  21.481  1.00  0.00     0.069 A 
ATOM     17  O   UNL A   1      46.263  48.175  20.875  1.00  0.00    -0.267 OA
ATOM     18  C   UNL A   1      48.646  45.595  21.467  1.00  0.00     0.079 A 
ATOM     19  C   UNL A   1      48.764  47.952  22.107  1.00  0.00     0.031 A 
ATOM     20  C   UNL A   1      49.882  45.396  22.092  1.00  0.00     0.030 A 
ATOM     21  C   UNL A   1      49.977  47.725  22.746  1.00  0.00     0.018 A 
ATOM     22  C   UNL A   1      50.544  46.451  22.736  1.00  0.00     0.018 A 
ATOM     23  Br  UNL A   1      50.819  49.130  23.687  1.00  0.00    -0.051 Br
BRANCH  13  24
ATOM     24  N   UNL A   1      44.783  46.108  20.096  1.00  0.00    -0.334 N 
ATOM     25  H   UNL A   1      44.525  46.975  19.706  1.00  0.00     0.178 HD
ATOM     26  H   UNL A   1      44.111  45.396  20.199  1.00  0.00     0.178 HD
ENDBRANCH  13  24
ENDBRANCH  11  12
ENDBRANCH  10  11
BRANCH  10  27
ATOM     27  C   UNL A   1      43.213  43.434  19.434  1.00  0.00    -0.023 A 
ATOM     28  C   UNL A   1      43.697  43.877  18.185  1.00  0.00     0.005 A 
ATOM     29  C   UNL A   1      41.834  43.579  19.673  1.00  0.00     0.005 A 
ATOM     30  C   UNL A   1      42.884  44.604  17.313  1.00  0.00     0.000 A 
ATOM     31  C   UNL A   1      41.014  44.282  18.789  1.00  0.00     0.000 A 
ATOM     32  C   UNL A   1      41.549  44.831  17.631  1.00  0.00     0.000 A 
ENDBRANCH  10  27
ENDBRANCH   8  10
ENDBRANCH   7   8
ENDBRANCH   6   7
ENDBRANCH   5   6
ENDBRANCH   4   5
ENDBRANCH   3   4
ENDBRANCH   2   3
ENDBRANCH   1   2
BRANCH   1  33
ATOM     33  C   UNL A   1      44.623  40.676  27.955  1.00  0.00     0.188 C 
BRANCH  33  34
ATOM     34  C   UNL A   1      45.868  40.115  27.245  1.00  0.00     0.188 C 
BRANCH  34  35
ATOM     35  O   UNL A   1      46.268  38.811  27.661  1.00  0.00    -0.376 OA
BRANCH  35  36
ATOM     36  C   UNL A   1      46.755  38.688  28.993  1.00  0.00     0.202 C 
BRANCH  36  37
ATOM     37  C   UNL A   1      45.697  38.650  30.101  1.00  0.00     0.261 C 
BRANCH  37  38
ATOM     38  O   UNL A   1      45.183  37.363  30.435  1.00  0.00    -0.460 OA
BRANCH  38  39
ATOM     39  C   UNL A   1      46.011  36.477  31.022  1.00  0.00     0.338 C 
ATOM     40  O   UNL A   1      46.825  36.693  31.902  1.00  0.00    -0.246 OA
BRANCH  39  41
ATOM     41  C   UNL A   1      45.556  35.160  30.547  1.00  0.00     0.060 A 
ATOM     42  C   UNL A   1      45.890  34.008  31.270  1.00  0.00     0.016 A 
ATOM     43  C   UNL A   1      44.936  35.070  29.296  1.00  0.00     0.016 A 
ATOM     44  C   UNL A   1      45.601  32.757  30.737  1.00  0.00     0.010 A 
ATOM     45  C   UNL A   1      44.671  33.816  28.751  1.00  0.00     0.010 A 
ATOM     46  C   UNL A   1      44.983  32.656  29.479  1.00  0.00    -0.014 A 
BRANCH  46  47
ATOM     47  C   UNL A   1      44.409  31.365  29.053  1.00  0.00     0.031 A 
ATOM     48  C   UNL A   1      45.117  30.428  28.132  1.00  0.00     0.074 A 
ATOM     49  C   UNL A   1      43.166  31.101  29.497  1.00  0.00     0.049 A 
ATOM     50  N   UNL A   1      44.724  29.255  27.710  1.00  0.00    -0.248 NA
ATOM     51  C   UNL A   1      46.420  30.855  27.607  1.00  0.00     0.031 C 
ATOM     52  C   UNL A   1      42.398  31.996  30.365  1.00  0.00     0.029 A 
ATOM     53  N   UNL A   1      42.330  30.043  29.278  1.00  0.00    -0.354 N 
ATOM     54  C   UNL A   1      45.731  28.792  26.873  1.00  0.00     0.074 A 
ATOM     55  C   UNL A   1      46.739  29.831  26.820  1.00  0.00     0.031 C 
ATOM     56  C   UNL A   1      41.198  31.452  30.601  1.00  0.00     0.029 A 
ATOM     57  C   UNL A   1      41.103  30.187  29.879  1.00  0.00     0.049 A 
ATOM     58  H   UNL A   1      42.581  29.255  28.743  1.00  0.00     0.167 HD
ATOM     59  C   UNL A   1      45.790  27.605  26.223  1.00  0.00     0.034 A 
ATOM     60  C   UNL A   1      40.014  29.397  29.850  1.00  0.00     0.034 A 
ATOM     61  C   UNL A   1      44.748  26.605  26.294  1.00  0.00     0.049 A 
ATOM     62  C   UNL A   1      40.109  28.084  29.129  1.00  0.00     0.074 A 
ATOM     63  C   UNL A   1      44.745  25.334  25.746  1.00  0.00     0.029 A 
ATOM     64  N   UNL A   1      43.521  26.765  26.927  1.00  0.00    -0.354 N 
ATOM     65  N   UNL A   1      41.120  27.594  28.450  1.00  0.00    -0.248 NA
ATOM     66  C   UNL A   1      38.938  27.202  29.185  1.00  0.00     0.031 C 
ATOM     67  C   UNL A   1      43.491  24.764  25.969  1.00  0.00     0.029 A 
ATOM     68  C   UNL A   1      42.736  25.637  26.740  1.00  0.00     0.049 A 
ATOM     69  H   UNL A   1      43.248  27.564  27.434  1.00  0.00     0.167 HD
ATOM     70  C   UNL A   1      40.716  26.340  28.009  1.00  0.00     0.074 A 
ATOM     71  C   UNL A   1      39.376  26.136  28.525  1.00  0.00     0.031 C 
ATOM     72  C   UNL A   1      41.395  25.444  27.249  1.00  0.00     0.034 A 
BRANCH  59  73
ATOM     73  C   UNL A   1      47.007  27.284  25.384  1.00  0.00     0.023 A 
ATOM     74  C   UNL A   1      47.114  27.794  24.074  1.00  0.00     0.031 A 
ATOM     75  C   UNL A   1      47.977  26.360  25.814  1.00  0.00     0.131 A 
ATOM     76  C   UNL A   1      48.143  27.350  23.233  1.00  0.00     0.055 A 
ATOM     77  C   UNL A   1      49.025  25.954  24.985  1.00  0.00     0.041 A 
ATOM     78  F   UNL A   1      47.917  25.834  27.047  1.00  0.00    -0.206 F 
ATOM     79  C   UNL A   1      49.103  26.440  23.683  1.00  0.00     0.022 A 
BRANCH  76  80
ATOM     80  S   UNL A   1      48.234  27.878  21.498  1.00  0.00     0.124 S 
ATOM     81  O   UNL A   1      46.839  28.209  21.214  1.00  0.00    -0.237 OA
ATOM     82  O   UNL A   1      49.142  29.019  21.572  1.00  0.00    -0.237 OA
ATOM     83  O   UNL A   1      48.748  26.704  20.800  1.00  0.00    -0.744 OA
ENDBRANCH  76  80
ENDBRANCH  59  73
BRANCH  60  84
ATOM     84  C   UNL A   1      38.811  29.833  30.612  1.00  0.00     0.023 A 
ATOM     85  C   UNL A   1      37.831  30.637  29.996  1.00  0.00     0.031 A 
ATOM     86  C   UNL A   1      38.730  29.630  31.997  1.00  0.00     0.131 A 
ATOM     87  C   UNL A   1      36.872  31.286  30.784  1.00  0.00     0.055 A 
ATOM     88  C   UNL A   1      37.725  30.217  32.767  1.00  0.00     0.041 A 
ATOM     89  F   UNL A   1      39.657  28.892  32.628  1.00  0.00    -0.206 F 
ATOM     90  C   UNL A   1      36.803  31.068  32.164  1.00  0.00     0.022 A 
BRANCH  87  91
ATOM     91  S   UNL A   1      35.799  32.567  30.073  1.00  0.00     0.124 S 
ATOM     92  O   UNL A   1      36.558  33.784  30.344  1.00  0.00    -0.237 OA
ATOM     93  O   UNL A   1      35.741  32.159  28.671  1.00  0.00    -0.237 OA
ATOM     94  O   UNL A   1      34.551  32.423  30.813  1.00  0.00    -0.744 OA
ENDBRANCH  87  91
ENDBRANCH  60  84
BRANCH  72  95
ATOM     95  C   UNL A   1      40.711  24.146  26.889  1.00  0.00     0.023 A 
ATOM     96  C   UNL A   1      39.465  24.166  26.233  1.00  0.00     0.031 A 
ATOM     97  C   UNL A   1      41.209  22.908  27.332  1.00  0.00     0.131 A 
ATOM     98  C   UNL A   1      38.735  22.980  26.088  1.00  0.00     0.055 A 
ATOM     99  C   UNL A   1      40.503  21.720  27.132  1.00  0.00     0.041 A 
ATOM    100  F   UNL A   1      42.389  22.836  27.970  1.00  0.00    -0.206 F 
ATOM    101  C   UNL A   1      39.252  21.757  26.524  1.00  0.00     0.022 A 
BRANCH  98 102
ATOM    102  S   UNL A   1      37.048  22.997  25.420  1.00  0.00     0.124 S 
ATOM    103  O   UNL A   1      36.556  21.678  25.809  1.00  0.00    -0.237 OA
ATOM    104  O   UNL A   1      36.447  24.121  26.132  1.00  0.00    -0.237 OA
ATOM    105  O   UNL A   1      37.238  23.192  23.987  1.00  0.00    -0.744 OA
ENDBRANCH  98 102
ENDBRANCH  72  95
ENDBRANCH  46  47
ENDBRANCH  39  41
ENDBRANCH  38  39
ENDBRANCH  37  38
ENDBRANCH  36  37
ENDBRANCH  35  36
ENDBRANCH  34  35
ENDBRANCH  33  34
ENDBRANCH   1  33
TORSDOF 27
ENDMDL
