MODEL 1
REMARK VINA RESULT:     -10.0      0.000      0.000
REMARK SMILES CSc1ccc(C=C2C(C)=C(CC(=O)OCCOCCOCCOCCOC(=O)c3ccc(-c4c5nc(c(-c6cc(S(=O)(=O)[O-])ccc6F)c6ccc([nH]6)c(-c6cc(S(=O)(=O)[O-])ccc6F)c6nc(c(-c7cc(S(=O)(=O)[O-])ccc7F)c7ccc4[nH]7)C=C6)C=C5)cc3)c3cc(F)ccc32)cc1
REMARK SMILES IDX 21 1 20 2 19 3 18 4 17 5 16 6 15 7 13 8 14 9 12 10 11 11
REMARK SMILES IDX 7 12 8 13 9 14 99 15 10 16 93 17 98 18 94 19 97 20 95 21
REMARK SMILES IDX 96 22 6 23 3 24 4 25 101 26 5 27 100 28 2 29 1 30 22 31
REMARK SMILES IDX 23 32 24 33 25 34 26 35 27 36 28 37 29 38 30 39 31 40 92 41
REMARK SMILES IDX 32 42 91 43 33 44 34 45 35 46 85 47 36 48 90 49 84 50 86 51
REMARK SMILES IDX 37 52 89 53 83 54 82 55 38 57 70 58 50 59 69 60 51 61 54 62
REMARK SMILES IDX 68 63 87 64 52 65 53 66 67 68 88 69 55 70 39 71 40 72 48 73
REMARK SMILES IDX 41 74 47 75 49 76 46 77 42 78 43 79 44 80 45 81 71 82 72 83
REMARK SMILES IDX 80 84 73 85 79 86 81 87 78 88 74 89 75 90 76 91 77 92 56 93
REMARK SMILES IDX 57 94 65 95 58 96 64 97 66 98 63 99 59 100 60 101 61 102
REMARK SMILES IDX 62 103
REMARK H PARENT 86 56 54 67
REMARK Flexibility Score: inf
ROOT
ATOM      1  O   UNL A   1      34.147  24.630  22.605  1.00  0.00    -0.377 OA
ENDROOT
BRANCH   1   2
ATOM      2  C   UNL A   1      33.209  25.388  21.881  1.00  0.00     0.188 C 
BRANCH   2   3
ATOM      3  C   UNL A   1      31.700  25.423  22.121  1.00  0.00     0.188 C 
BRANCH   3   4
ATOM      4  O   UNL A   1      31.005  26.646  22.078  1.00  0.00    -0.376 OA
BRANCH   4   5
ATOM      5  C   UNL A   1      30.047  27.018  23.047  1.00  0.00     0.202 C 
BRANCH   5   6
ATOM      6  C   UNL A   1      29.179  28.293  23.023  1.00  0.00     0.261 C 
BRANCH   6   7
ATOM      7  O   UNL A   1      29.509  29.370  23.908  1.00  0.00    -0.463 OA
BRANCH   7   8
ATOM      8  C   UNL A   1      30.774  29.857  23.871  1.00  0.00     0.310 C 
ATOM      9  O   UNL A   1      31.595  29.574  23.005  1.00  0.00    -0.252 OA
BRANCH   8  10
ATOM     10  C   UNL A   1      31.100  30.756  25.066  1.00  0.00     0.159 C 
BRANCH  10  11
ATOM     11  C   UNL A   1      31.720  30.105  26.283  1.00  0.00    -0.025 C 
ATOM     12  C   UNL A   1      33.144  27.415  25.142  1.00  0.00     0.017 C 
ATOM     13  C   UNL A   1      33.023  28.242  26.205  1.00  0.00    -0.014 C 
ATOM     14  C   UNL A   1      31.679  28.770  26.558  1.00  0.00    -0.039 C 
ATOM     15  C   UNL A   1      33.933  29.339  26.621  1.00  0.00    -0.010 A 
ATOM     16  C   UNL A   1      31.531  28.289  28.035  1.00  0.00     0.045 C 
ATOM     17  C   UNL A   1      33.109  30.490  26.666  1.00  0.00    -0.011 A 
ATOM     18  C   UNL A   1      35.051  29.245  27.440  1.00  0.00     0.012 A 
ATOM     19  C   UNL A   1      33.424  31.587  27.460  1.00  0.00     0.048 A 
ATOM     20  C   UNL A   1      35.317  30.310  28.317  1.00  0.00     0.040 A 
ATOM     21  C   UNL A   1      34.512  31.458  28.316  1.00  0.00     0.123 A 
ATOM     22  F   UNL A   1      34.711  32.395  29.257  1.00  0.00    -0.207 F 
BRANCH  12  23
ATOM     23  C   UNL A   1      33.209  25.950  25.459  1.00  0.00    -0.025 A 
ATOM     24  C   UNL A   1      33.266  23.465  26.746  1.00  0.00     0.007 A 
ATOM     25  C   UNL A   1      32.066  23.962  26.262  1.00  0.00     0.015 A 
ATOM     26  C   UNL A   1      34.459  24.086  26.361  1.00  0.00     0.015 A 
ATOM     27  C   UNL A   1      32.059  25.160  25.565  1.00  0.00     0.009 A 
ATOM     28  C   UNL A   1      34.431  25.337  25.725  1.00  0.00     0.009 A 
BRANCH  24  29
ATOM     29  S   UNL A   1      33.169  22.238  28.033  1.00  0.00    -0.130 SA
ATOM     30  C   UNL A   1      33.875  20.806  27.209  1.00  0.00     0.091 C 
ENDBRANCH  24  29
ENDBRANCH  12  23
ENDBRANCH  10  11
ENDBRANCH   8  10
ENDBRANCH   7   8
ENDBRANCH   6   7
ENDBRANCH   5   6
ENDBRANCH   4   5
ENDBRANCH   3   4
ENDBRANCH   2   3
ENDBRANCH   1   2
BRANCH   1  31
ATOM     31  C   UNL A   1      34.275  23.287  22.214  1.00  0.00     0.188 C 
BRANCH  31  32
ATOM     32  C   UNL A   1      33.608  22.399  23.257  1.00  0.00     0.188 C 
BRANCH  32  33
ATOM     33  O   UNL A   1      34.543  21.824  24.153  1.00  0.00    -0.376 OA
BRANCH  33  34
ATOM     34  C   UNL A   1      35.930  21.768  23.831  1.00  0.00     0.202 C 
BRANCH  34  35
ATOM     35  C   UNL A   1      37.093  22.543  24.503  1.00  0.00     0.261 C 
BRANCH  35  36
ATOM     36  O   UNL A   1      37.454  22.256  25.851  1.00  0.00    -0.460 OA
BRANCH  36  37
ATOM     37  C   UNL A   1      38.733  21.894  26.089  1.00  0.00     0.338 C 
ATOM     38  O   UNL A   1      39.289  20.886  25.725  1.00  0.00    -0.246 OA
BRANCH  37  39
ATOM     39  C   UNL A   1      39.382  23.085  26.683  1.00  0.00     0.060 A 
ATOM     40  C   UNL A   1      38.764  24.327  26.499  1.00  0.00     0.016 A 
ATOM     41  C   UNL A   1      40.538  22.971  27.462  1.00  0.00     0.016 A 
ATOM     42  C   UNL A   1      39.299  25.463  27.095  1.00  0.00     0.010 A 
ATOM     43  C   UNL A   1      41.104  24.119  28.020  1.00  0.00     0.010 A 
ATOM     44  C   UNL A   1      40.497  25.370  27.813  1.00  0.00    -0.014 A 
BRANCH  44  45
ATOM     45  C   UNL A   1      41.234  26.620  28.091  1.00  0.00     0.031 A 
ATOM     46  C   UNL A   1      42.644  26.716  27.580  1.00  0.00     0.074 A 
ATOM     47  C   UNL A   1      40.646  27.660  28.705  1.00  0.00     0.049 A 
ATOM     48  N   UNL A   1      43.497  27.700  27.664  1.00  0.00    -0.248 NA
ATOM     49  C   UNL A   1      43.154  25.528  26.875  1.00  0.00     0.031 C 
ATOM     50  C   UNL A   1      39.265  27.687  29.182  1.00  0.00     0.029 A 
ATOM     51  N   UNL A   1      41.140  28.897  29.025  1.00  0.00    -0.354 N 
ATOM     52  C   UNL A   1      44.646  27.251  27.022  1.00  0.00     0.074 A 
ATOM     53  C   UNL A   1      44.393  25.893  26.597  1.00  0.00     0.031 C 
ATOM     54  C   UNL A   1      39.024  28.883  29.747  1.00  0.00     0.029 A 
ATOM     55  C   UNL A   1      40.243  29.690  29.701  1.00  0.00     0.049 A 
ATOM     56  H   UNL A   1      42.051  29.191  28.794  1.00  0.00     0.167 HD
ATOM     57  C   UNL A   1      45.804  27.919  26.801  1.00  0.00     0.034 A 
ATOM     58  C   UNL A   1      40.406  30.914  30.243  1.00  0.00     0.034 A 
ATOM     59  C   UNL A   1      46.039  29.263  27.270  1.00  0.00     0.049 A 
ATOM     60  C   UNL A   1      41.738  31.605  30.080  1.00  0.00     0.074 A 
ATOM     61  C   UNL A   1      47.167  30.045  27.117  1.00  0.00     0.029 A 
ATOM     62  N   UNL A   1      45.131  30.014  28.010  1.00  0.00    -0.354 N 
ATOM     63  N   UNL A   1      42.821  31.181  29.465  1.00  0.00    -0.248 NA
ATOM     64  C   UNL A   1      41.868  32.940  30.673  1.00  0.00     0.031 C 
ATOM     65  C   UNL A   1      46.978  31.229  27.839  1.00  0.00     0.029 A 
ATOM     66  C   UNL A   1      45.692  31.233  28.359  1.00  0.00     0.049 A 
ATOM     67  H   UNL A   1      44.222  29.722  28.252  1.00  0.00     0.167 HD
ATOM     68  C   UNL A   1      43.751  32.213  29.572  1.00  0.00     0.074 A 
ATOM     69  C   UNL A   1      43.095  33.280  30.302  1.00  0.00     0.031 C 
ATOM     70  C   UNL A   1      45.026  32.278  29.104  1.00  0.00     0.034 A 
BRANCH  57  71
ATOM     71  C   UNL A   1      46.910  27.163  26.102  1.00  0.00     0.023 A 
ATOM     72  C   UNL A   1      47.886  26.444  26.816  1.00  0.00     0.031 A 
ATOM     73  C   UNL A   1      47.042  27.236  24.705  1.00  0.00     0.131 A 
ATOM     74  C   UNL A   1      49.000  25.917  26.143  1.00  0.00     0.055 A 
ATOM     75  C   UNL A   1      48.100  26.624  24.030  1.00  0.00     0.041 A 
ATOM     76  F   UNL A   1      46.161  27.933  23.970  1.00  0.00    -0.206 F 
ATOM     77  C   UNL A   1      49.099  25.978  24.752  1.00  0.00     0.022 A 
BRANCH  74  78
ATOM     78  S   UNL A   1      50.408  25.332  27.127  1.00  0.00     0.124 S 
ATOM     79  O   UNL A   1      50.686  26.496  27.965  1.00  0.00    -0.237 OA
ATOM     80  O   UNL A   1      49.854  24.169  27.811  1.00  0.00    -0.237 OA
ATOM     81  O   UNL A   1      51.429  25.039  26.123  1.00  0.00    -0.744 OA
ENDBRANCH  74  78
ENDBRANCH  57  71
BRANCH  58  82
ATOM     82  C   UNL A   1      39.299  31.539  31.022  1.00  0.00     0.023 A 
ATOM     83  C   UNL A   1      39.264  31.487  32.424  1.00  0.00     0.031 A 
ATOM     84  C   UNL A   1      38.239  32.189  30.361  1.00  0.00     0.131 A 
ATOM     85  C   UNL A   1      38.179  32.050  33.117  1.00  0.00     0.055 A 
ATOM     86  C   UNL A   1      37.190  32.791  31.056  1.00  0.00     0.041 A 
ATOM     87  F   UNL A   1      38.220  32.264  29.020  1.00  0.00    -0.206 F 
ATOM     88  C   UNL A   1      37.151  32.715  32.444  1.00  0.00     0.022 A 
BRANCH  85  89
ATOM     89  S   UNL A   1      38.094  31.848  34.918  1.00  0.00     0.124 S 
ATOM     90  O   UNL A   1      36.818  32.482  35.229  1.00  0.00    -0.237 OA
ATOM     91  O   UNL A   1      38.144  30.396  35.063  1.00  0.00    -0.237 OA
ATOM     92  O   UNL A   1      39.279  32.558  35.396  1.00  0.00    -0.744 OA
ENDBRANCH  85  89
ENDBRANCH  58  82
BRANCH  70  93
ATOM     93  C   UNL A   1      45.777  33.570  29.329  1.00  0.00     0.023 A 
ATOM     94  C   UNL A   1      45.789  34.602  28.375  1.00  0.00     0.031 A 
ATOM     95  C   UNL A   1      46.494  33.769  30.524  1.00  0.00     0.131 A 
ATOM     96  C   UNL A   1      46.553  35.756  28.604  1.00  0.00     0.055 A 
ATOM     97  C   UNL A   1      47.190  34.951  30.778  1.00  0.00     0.041 A 
ATOM     98  F   UNL A   1      46.524  32.817  31.470  1.00  0.00    -0.206 F 
ATOM     99  C   UNL A   1      47.235  35.947  29.809  1.00  0.00     0.022 A 
BRANCH  96 100
ATOM    100  S   UNL A   1      46.739  36.957  27.257  1.00  0.00     0.124 S 
ATOM    101  O   UNL A   1      46.665  36.102  26.077  1.00  0.00    -0.237 OA
ATOM    102  O   UNL A   1      45.602  37.847  27.473  1.00  0.00    -0.237 OA
ATOM    103  O   UNL A   1      48.049  37.554  27.509  1.00  0.00    -0.744 OA
ENDBRANCH  96 100
ENDBRANCH  70  93
ENDBRANCH  44  45
ENDBRANCH  37  39
ENDBRANCH  36  37
ENDBRANCH  35  36
ENDBRANCH  34  35
ENDBRANCH  33  34
ENDBRANCH  32  33
ENDBRANCH  31  32
ENDBRANCH   1  31
TORSDOF 26
ENDMDL
MODEL 2
REMARK VINA RESULT:      -9.4      2.033      2.398
REMARK SMILES CSc1ccc(C=C2C(C)=C(CC(=O)OCCOCCOCCOCCOC(=O)c3ccc(-c4c5nc(c(-c6cc(S(=O)(=O)[O-])ccc6F)c6ccc([nH]6)c(-c6cc(S(=O)(=O)[O-])ccc6F)c6nc(c(-c7cc(S(=O)(=O)[O-])ccc7F)c7ccc4[nH]7)C=C6)C=C5)cc3)c3cc(F)ccc32)cc1
REMARK SMILES IDX 21 1 20 2 19 3 18 4 17 5 16 6 15 7 13 8 14 9 12 10 11 11
REMARK SMILES IDX 7 12 8 13 9 14 99 15 10 16 93 17 98 18 94 19 97 20 95 21
REMARK SMILES IDX 96 22 6 23 3 24 4 25 101 26 5 27 100 28 2 29 1 30 22 31
REMARK SMILES IDX 23 32 24 33 25 34 26 35 27 36 28 37 29 38 30 39 31 40 92 41
REMARK SMILES IDX 32 42 91 43 33 44 34 45 35 46 85 47 36 48 90 49 84 50 86 51
REMARK SMILES IDX 37 52 89 53 83 54 82 55 38 57 70 58 50 59 69 60 51 61 54 62
REMARK SMILES IDX 68 63 87 64 52 65 53 66 67 68 88 69 55 70 39 71 40 72 48 73
REMARK SMILES IDX 41 74 47 75 49 76 46 77 42 78 43 79 44 80 45 81 71 82 72 83
REMARK SMILES IDX 80 84 73 85 79 86 81 87 78 88 74 89 75 90 76 91 77 92 56 93
REMARK SMILES IDX 57 94 65 95 58 96 64 97 66 98 63 99 59 100 60 101 61 102
REMARK SMILES IDX 62 103
REMARK H PARENT 86 56 54 67
REMARK Flexibility Score: inf
ROOT
ATOM      1  O   UNL A   1      34.225  24.415  22.388  1.00  0.00    -0.377 OA
ENDROOT
BRANCH   1   2
ATOM      2  C   UNL A   1      33.332  25.280  21.730  1.00  0.00     0.188 C 
BRANCH   2   3
ATOM      3  C   UNL A   1      31.814  25.311  21.902  1.00  0.00     0.188 C 
BRANCH   3   4
ATOM      4  O   UNL A   1      31.127  26.540  21.910  1.00  0.00    -0.376 OA
BRANCH   4   5
ATOM      5  C   UNL A   1      30.154  26.868  22.879  1.00  0.00     0.202 C 
BRANCH   5   6
ATOM      6  C   UNL A   1      29.239  28.109  22.863  1.00  0.00     0.261 C 
BRANCH   6   7
ATOM      7  O   UNL A   1      29.460  29.143  23.829  1.00  0.00    -0.463 OA
BRANCH   7   8
ATOM      8  C   UNL A   1      30.663  29.770  23.824  1.00  0.00     0.310 C 
ATOM      9  O   UNL A   1      31.514  29.618  22.955  1.00  0.00    -0.252 OA
BRANCH   8  10
ATOM     10  C   UNL A   1      30.881  30.649  25.058  1.00  0.00     0.159 C 
BRANCH  10  11
ATOM     11  C   UNL A   1      31.569  30.022  26.251  1.00  0.00    -0.025 C 
ATOM     12  C   UNL A   1      33.088  27.413  25.049  1.00  0.00     0.017 C 
ATOM     13  C   UNL A   1      32.959  28.227  26.121  1.00  0.00    -0.014 C 
ATOM     14  C   UNL A   1      31.602  28.686  26.518  1.00  0.00    -0.039 C 
ATOM     15  C   UNL A   1      33.826  29.365  26.517  1.00  0.00    -0.010 A 
ATOM     16  C   UNL A   1      31.523  28.190  27.996  1.00  0.00     0.045 C 
ATOM     17  C   UNL A   1      32.948  30.474  26.594  1.00  0.00    -0.011 A 
ATOM     18  C   UNL A   1      34.971  29.322  27.301  1.00  0.00     0.012 A 
ATOM     19  C   UNL A   1      33.233  31.580  27.387  1.00  0.00     0.048 A 
ATOM     20  C   UNL A   1      35.212  30.394  28.177  1.00  0.00     0.040 A 
ATOM     21  C   UNL A   1      34.352  31.501  28.208  1.00  0.00     0.123 A 
ATOM     22  F   UNL A   1      34.532  32.441  29.149  1.00  0.00    -0.207 F 
BRANCH  12  23
ATOM     23  C   UNL A   1      33.234  25.951  25.354  1.00  0.00    -0.025 A 
ATOM     24  C   UNL A   1      33.377  23.456  26.613  1.00  0.00     0.007 A 
ATOM     25  C   UNL A   1      32.183  23.875  26.049  1.00  0.00     0.015 A 
ATOM     26  C   UNL A   1      34.547  24.166  26.322  1.00  0.00     0.015 A 
ATOM     27  C   UNL A   1      32.139  25.081  25.366  1.00  0.00     0.009 A 
ATOM     28  C   UNL A   1      34.476  25.422  25.699  1.00  0.00     0.009 A 
BRANCH  24  29
ATOM     29  S   UNL A   1      33.277  22.204  27.875  1.00  0.00    -0.130 SA
ATOM     30  C   UNL A   1      33.312  20.704  26.889  1.00  0.00     0.091 C 
ENDBRANCH  24  29
ENDBRANCH  12  23
ENDBRANCH  10  11
ENDBRANCH   8  10
ENDBRANCH   7   8
ENDBRANCH   6   7
ENDBRANCH   5   6
ENDBRANCH   4   5
ENDBRANCH   3   4
ENDBRANCH   2   3
ENDBRANCH   1   2
BRANCH   1  31
ATOM     31  C   UNL A   1      33.748  23.116  22.627  1.00  0.00     0.188 C 
BRANCH  31  32
ATOM     32  C   UNL A   1      34.766  22.359  23.472  1.00  0.00     0.188 C 
BRANCH  32  33
ATOM     33  O   UNL A   1      36.098  22.760  23.198  1.00  0.00    -0.376 OA
BRANCH  33  34
ATOM     34  C   UNL A   1      36.920  23.323  24.217  1.00  0.00     0.202 C 
BRANCH  34  35
ATOM     35  C   UNL A   1      37.653  22.581  25.364  1.00  0.00     0.261 C 
BRANCH  35  36
ATOM     36  O   UNL A   1      39.068  22.696  25.495  1.00  0.00    -0.460 OA
BRANCH  36  37
ATOM     37  C   UNL A   1      39.587  22.605  26.739  1.00  0.00     0.338 C 
ATOM     38  O   UNL A   1      39.902  21.600  27.329  1.00  0.00    -0.246 OA
BRANCH  37  39
ATOM     39  C   UNL A   1      39.910  23.993  27.139  1.00  0.00     0.060 A 
ATOM     40  C   UNL A   1      40.469  24.840  26.175  1.00  0.00     0.016 A 
ATOM     41  C   UNL A   1      39.605  24.470  28.418  1.00  0.00     0.016 A 
ATOM     42  C   UNL A   1      40.726  26.169  26.485  1.00  0.00     0.010 A 
ATOM     43  C   UNL A   1      39.909  25.793  28.746  1.00  0.00     0.010 A 
ATOM     44  C   UNL A   1      40.495  26.635  27.785  1.00  0.00    -0.014 A 
BRANCH  44  45
ATOM     45  C   UNL A   1      41.130  27.908  28.186  1.00  0.00     0.031 A 
ATOM     46  C   UNL A   1      42.604  28.051  27.933  1.00  0.00     0.074 A 
ATOM     47  C   UNL A   1      40.409  28.927  28.682  1.00  0.00     0.049 A 
ATOM     48  N   UNL A   1      43.396  29.062  28.163  1.00  0.00    -0.248 NA
ATOM     49  C   UNL A   1      43.270  26.882  27.333  1.00  0.00     0.031 C 
ATOM     50  C   UNL A   1      38.965  28.907  28.906  1.00  0.00     0.029 A 
ATOM     51  N   UNL A   1      40.798  30.178  29.080  1.00  0.00    -0.354 N 
ATOM     52  C   UNL A   1      44.655  28.653  27.737  1.00  0.00     0.074 A 
ATOM     53  C   UNL A   1      44.526  27.287  27.278  1.00  0.00     0.031 C 
ATOM     54  C   UNL A   1      38.589  30.094  29.415  1.00  0.00     0.029 A 
ATOM     55  C   UNL A   1      39.770  30.940  29.583  1.00  0.00     0.049 A 
ATOM     56  H   UNL A   1      41.725  30.503  29.013  1.00  0.00     0.167 HD
ATOM     57  C   UNL A   1      45.812  29.358  27.723  1.00  0.00     0.034 A 
ATOM     58  C   UNL A   1      39.793  32.168  30.141  1.00  0.00     0.034 A 
ATOM     59  C   UNL A   1      45.915  30.708  28.221  1.00  0.00     0.049 A 
ATOM     60  C   UNL A   1      41.111  32.902  30.215  1.00  0.00     0.074 A 
ATOM     61  C   UNL A   1      47.027  31.527  28.268  1.00  0.00     0.029 A 
ATOM     62  N   UNL A   1      44.867  31.427  28.786  1.00  0.00    -0.354 N 
ATOM     63  N   UNL A   1      42.299  32.516  29.804  1.00  0.00    -0.248 NA
ATOM     64  C   UNL A   1      41.090  34.239  30.817  1.00  0.00     0.031 C 
ATOM     65  C   UNL A   1      46.674  32.702  28.941  1.00  0.00     0.029 A 
ATOM     66  C   UNL A   1      45.317  32.663  29.224  1.00  0.00     0.049 A 
ATOM     67  H   UNL A   1      43.939  31.105  28.863  1.00  0.00     0.167 HD
ATOM     68  C   UNL A   1      43.161  33.577  30.070  1.00  0.00     0.074 A 
ATOM     69  C   UNL A   1      42.351  34.620  30.668  1.00  0.00     0.031 C 
ATOM     70  C   UNL A   1      44.496  33.684  29.836  1.00  0.00     0.034 A 
BRANCH  57  71
ATOM     71  C   UNL A   1      47.048  28.640  27.234  1.00  0.00     0.023 A 
ATOM     72  C   UNL A   1      47.320  28.477  25.863  1.00  0.00     0.031 A 
ATOM     73  C   UNL A   1      47.921  28.032  28.151  1.00  0.00     0.131 A 
ATOM     74  C   UNL A   1      48.372  27.643  25.452  1.00  0.00     0.055 A 
ATOM     75  C   UNL A   1      49.026  27.285  27.736  1.00  0.00     0.041 A 
ATOM     76  F   UNL A   1      47.699  28.124  29.472  1.00  0.00    -0.206 F 
ATOM     77  C   UNL A   1      49.244  27.069  26.379  1.00  0.00     0.022 A 
BRANCH  74  78
ATOM     78  S   UNL A   1      48.460  27.160  23.705  1.00  0.00     0.124 S 
ATOM     79  O   UNL A   1      49.691  27.822  23.278  1.00  0.00    -0.237 OA
ATOM     80  O   UNL A   1      48.511  25.705  23.782  1.00  0.00    -0.237 OA
ATOM     81  O   UNL A   1      47.234  27.714  23.134  1.00  0.00    -0.744 OA
ENDBRANCH  74  78
ENDBRANCH  57  71
BRANCH  58  82
ATOM     82  C   UNL A   1      38.546  32.754  30.709  1.00  0.00     0.023 A 
ATOM     83  C   UNL A   1      38.277  32.722  32.086  1.00  0.00     0.031 A 
ATOM     84  C   UNL A   1      37.587  33.346  29.865  1.00  0.00     0.131 A 
ATOM     85  C   UNL A   1      37.069  33.247  32.574  1.00  0.00     0.055 A 
ATOM     86  C   UNL A   1      36.412  33.911  30.360  1.00  0.00     0.041 A 
ATOM     87  F   UNL A   1      37.792  33.400  28.538  1.00  0.00    -0.206 F 
ATOM     88  C   UNL A   1      36.143  33.856  31.723  1.00  0.00     0.022 A 
BRANCH  85  89
ATOM     89  S   UNL A   1      36.690  33.069  34.340  1.00  0.00     0.124 S 
ATOM     90  O   UNL A   1      37.326  31.795  34.654  1.00  0.00    -0.237 OA
ATOM     91  O   UNL A   1      37.318  34.259  34.905  1.00  0.00    -0.237 OA
ATOM     92  O   UNL A   1      35.229  33.064  34.375  1.00  0.00    -0.744 OA
ENDBRANCH  85  89
ENDBRANCH  58  82
BRANCH  70  93
ATOM     93  C   UNL A   1      45.153  34.999  30.186  1.00  0.00     0.023 A 
ATOM     94  C   UNL A   1      45.678  35.254  31.464  1.00  0.00     0.031 A 
ATOM     95  C   UNL A   1      45.254  36.016  29.218  1.00  0.00     0.131 A 
ATOM     96  C   UNL A   1      46.221  36.513  31.758  1.00  0.00     0.055 A 
ATOM     97  C   UNL A   1      45.865  37.239  29.494  1.00  0.00     0.041 A 
ATOM     98  F   UNL A   1      44.766  35.833  27.980  1.00  0.00    -0.206 F 
ATOM     99  C   UNL A   1      46.339  37.500  30.775  1.00  0.00     0.022 A 
BRANCH  96 100
ATOM    100  S   UNL A   1      46.670  36.888  33.476  1.00  0.00     0.124 S 
ATOM    101  O   UNL A   1      48.055  36.433  33.532  1.00  0.00    -0.237 OA
ATOM    102  O   UNL A   1      46.470  38.333  33.542  1.00  0.00    -0.237 OA
ATOM    103  O   UNL A   1      45.724  36.095  34.258  1.00  0.00    -0.744 OA
ENDBRANCH  96 100
ENDBRANCH  70  93
ENDBRANCH  44  45
ENDBRANCH  37  39
ENDBRANCH  36  37
ENDBRANCH  35  36
ENDBRANCH  34  35
ENDBRANCH  33  34
ENDBRANCH  32  33
ENDBRANCH  31  32
ENDBRANCH   1  31
TORSDOF 26
ENDMDL
MODEL 3
REMARK VINA RESULT:      -9.4      1.859      2.165
REMARK SMILES CSc1ccc(C=C2C(C)=C(CC(=O)OCCOCCOCCOCCOC(=O)c3ccc(-c4c5nc(c(-c6cc(S(=O)(=O)[O-])ccc6F)c6ccc([nH]6)c(-c6cc(S(=O)(=O)[O-])ccc6F)c6nc(c(-c7cc(S(=O)(=O)[O-])ccc7F)c7ccc4[nH]7)C=C6)C=C5)cc3)c3cc(F)ccc32)cc1
REMARK SMILES IDX 21 1 20 2 19 3 18 4 17 5 16 6 15 7 13 8 14 9 12 10 11 11
REMARK SMILES IDX 7 12 8 13 9 14 99 15 10 16 93 17 98 18 94 19 97 20 95 21
REMARK SMILES IDX 96 22 6 23 3 24 4 25 101 26 5 27 100 28 2 29 1 30 22 31
REMARK SMILES IDX 23 32 24 33 25 34 26 35 27 36 28 37 29 38 30 39 31 40 92 41
REMARK SMILES IDX 32 42 91 43 33 44 34 45 35 46 85 47 36 48 90 49 84 50 86 51
REMARK SMILES IDX 37 52 89 53 83 54 82 55 38 57 70 58 50 59 69 60 51 61 54 62
REMARK SMILES IDX 68 63 87 64 52 65 53 66 67 68 88 69 55 70 39 71 40 72 48 73
REMARK SMILES IDX 41 74 47 75 49 76 46 77 42 78 43 79 44 80 45 81 71 82 72 83
REMARK SMILES IDX 80 84 73 85 79 86 81 87 78 88 74 89 75 90 76 91 77 92 56 93
REMARK SMILES IDX 57 94 65 95 58 96 64 97 66 98 63 99 59 100 60 101 61 102
REMARK SMILES IDX 62 103
REMARK H PARENT 86 56 54 67
REMARK Flexibility Score: inf
ROOT
ATOM      1  O   UNL A   1      34.090  24.303  22.405  1.00  0.00    -0.377 OA
ENDROOT
BRANCH   1   2
ATOM      2  C   UNL A   1      33.274  25.255  21.767  1.00  0.00     0.188 C 
BRANCH   2   3
ATOM      3  C   UNL A   1      31.758  25.382  21.909  1.00  0.00     0.188 C 
BRANCH   3   4
ATOM      4  O   UNL A   1      31.174  26.637  22.166  1.00  0.00    -0.376 OA
BRANCH   4   5
ATOM      5  C   UNL A   1      30.028  26.799  22.975  1.00  0.00     0.202 C 
BRANCH   5   6
ATOM      6  C   UNL A   1      29.168  28.074  23.087  1.00  0.00     0.261 C 
BRANCH   6   7
ATOM      7  O   UNL A   1      29.513  29.057  24.070  1.00  0.00    -0.463 OA
BRANCH   7   8
ATOM      8  C   UNL A   1      30.665  29.752  23.895  1.00  0.00     0.310 C 
ATOM      9  O   UNL A   1      31.396  29.636  22.917  1.00  0.00    -0.252 OA
BRANCH   8  10
ATOM     10  C   UNL A   1      30.997  30.660  25.081  1.00  0.00     0.159 C 
BRANCH  10  11
ATOM     11  C   UNL A   1      31.688  30.031  26.272  1.00  0.00    -0.025 C 
ATOM     12  C   UNL A   1      33.176  27.404  25.068  1.00  0.00     0.017 C 
ATOM     13  C   UNL A   1      33.061  28.223  26.138  1.00  0.00    -0.014 C 
ATOM     14  C   UNL A   1      31.711  28.695  26.543  1.00  0.00    -0.039 C 
ATOM     15  C   UNL A   1      33.941  29.355  26.524  1.00  0.00    -0.010 A 
ATOM     16  C   UNL A   1      31.638  28.205  28.022  1.00  0.00     0.045 C 
ATOM     17  C   UNL A   1      33.073  30.471  26.604  1.00  0.00    -0.011 A 
ATOM     18  C   UNL A   1      35.091  29.304  27.300  1.00  0.00     0.012 A 
ATOM     19  C   UNL A   1      33.373  31.577  27.390  1.00  0.00     0.048 A 
ATOM     20  C   UNL A   1      35.347  30.376  28.171  1.00  0.00     0.040 A 
ATOM     21  C   UNL A   1      34.497  31.491  28.205  1.00  0.00     0.123 A 
ATOM     22  F   UNL A   1      34.693  32.432  29.141  1.00  0.00    -0.207 F 
BRANCH  12  23
ATOM     23  C   UNL A   1      33.311  25.942  25.376  1.00  0.00    -0.025 A 
ATOM     24  C   UNL A   1      33.498  23.456  26.648  1.00  0.00     0.007 A 
ATOM     25  C   UNL A   1      32.271  23.900  26.181  1.00  0.00     0.015 A 
ATOM     26  C   UNL A   1      34.656  24.133  26.252  1.00  0.00     0.015 A 
ATOM     27  C   UNL A   1      32.200  25.100  25.491  1.00  0.00     0.009 A 
ATOM     28  C   UNL A   1      34.564  25.385  25.623  1.00  0.00     0.009 A 
BRANCH  24  29
ATOM     29  S   UNL A   1      33.473  22.219  27.929  1.00  0.00    -0.130 SA
ATOM     30  C   UNL A   1      33.440  20.708  26.961  1.00  0.00     0.091 C 
ENDBRANCH  24  29
ENDBRANCH  12  23
ENDBRANCH  10  11
ENDBRANCH   8  10
ENDBRANCH   7   8
ENDBRANCH   6   7
ENDBRANCH   5   6
ENDBRANCH   4   5
ENDBRANCH   3   4
ENDBRANCH   2   3
ENDBRANCH   1   2
BRANCH   1  31
ATOM     31  C   UNL A   1      33.730  22.961  22.204  1.00  0.00     0.188 C 
BRANCH  31  32
ATOM     32  C   UNL A   1      33.753  22.233  23.543  1.00  0.00     0.188 C 
BRANCH  32  33
ATOM     33  O   UNL A   1      35.017  21.656  23.822  1.00  0.00    -0.376 OA
BRANCH  33  34
ATOM     34  C   UNL A   1      36.223  22.304  23.429  1.00  0.00     0.202 C 
BRANCH  34  35
ATOM     35  C   UNL A   1      37.351  22.849  24.344  1.00  0.00     0.261 C 
BRANCH  35  36
ATOM     36  O   UNL A   1      37.506  22.334  25.664  1.00  0.00    -0.460 OA
BRANCH  36  37
ATOM     37  C   UNL A   1      38.731  21.892  26.019  1.00  0.00     0.338 C 
ATOM     38  O   UNL A   1      39.272  20.873  25.664  1.00  0.00    -0.246 OA
BRANCH  37  39
ATOM     39  C   UNL A   1      39.370  23.016  26.740  1.00  0.00     0.060 A 
ATOM     40  C   UNL A   1      38.820  24.293  26.580  1.00  0.00     0.016 A 
ATOM     41  C   UNL A   1      40.445  22.805  27.609  1.00  0.00     0.016 A 
ATOM     42  C   UNL A   1      39.343  25.367  27.290  1.00  0.00     0.010 A 
ATOM     43  C   UNL A   1      41.003  23.892  28.285  1.00  0.00     0.010 A 
ATOM     44  C   UNL A   1      40.466  25.179  28.103  1.00  0.00    -0.014 A 
BRANCH  44  45
ATOM     45  C   UNL A   1      41.224  26.377  28.523  1.00  0.00     0.031 A 
ATOM     46  C   UNL A   1      42.611  26.541  27.971  1.00  0.00     0.074 A 
ATOM     47  C   UNL A   1      40.669  27.321  29.301  1.00  0.00     0.049 A 
ATOM     48  N   UNL A   1      43.474  27.503  28.155  1.00  0.00    -0.248 NA
ATOM     49  C   UNL A   1      43.083  25.464  27.085  1.00  0.00     0.031 C 
ATOM     50  C   UNL A   1      39.309  27.282  29.834  1.00  0.00     0.029 A 
ATOM     51  N   UNL A   1      41.185  28.500  29.770  1.00  0.00    -0.354 N 
ATOM     52  C   UNL A   1      44.592  27.148  27.409  1.00  0.00     0.074 A 
ATOM     53  C   UNL A   1      44.312  25.862  26.809  1.00  0.00     0.031 C 
ATOM     54  C   UNL A   1      39.101  28.388  30.571  1.00  0.00     0.029 A 
ATOM     55  C   UNL A   1      40.323  29.192  30.588  1.00  0.00     0.049 A 
ATOM     56  H   UNL A   1      42.087  28.823  29.544  1.00  0.00     0.167 HD
ATOM     57  C   UNL A   1      45.745  27.838  27.235  1.00  0.00     0.034 A 
ATOM     58  C   UNL A   1      40.516  30.328  31.288  1.00  0.00     0.034 A 
ATOM     59  C   UNL A   1      46.008  29.103  27.877  1.00  0.00     0.049 A 
ATOM     60  C   UNL A   1      41.846  31.033  31.167  1.00  0.00     0.074 A 
ATOM     61  C   UNL A   1      47.135  29.898  27.787  1.00  0.00     0.029 A 
ATOM     62  N   UNL A   1      45.137  29.744  28.753  1.00  0.00    -0.354 N 
ATOM     63  N   UNL A   1      42.899  30.698  30.454  1.00  0.00    -0.248 NA
ATOM     64  C   UNL A   1      42.010  32.271  31.936  1.00  0.00     0.031 C 
ATOM     65  C   UNL A   1      46.985  30.968  28.676  1.00  0.00     0.029 A 
ATOM     66  C   UNL A   1      45.721  30.901  29.245  1.00  0.00     0.049 A 
ATOM     67  H   UNL A   1      44.238  29.422  28.990  1.00  0.00     0.167 HD
ATOM     68  C   UNL A   1      43.840  31.704  30.665  1.00  0.00     0.074 A 
ATOM     69  C   UNL A   1      43.222  32.659  31.564  1.00  0.00     0.031 C 
ATOM     70  C   UNL A   1      45.095  31.832  30.157  1.00  0.00     0.034 A 
BRANCH  57  71
ATOM     71  C   UNL A   1      46.815  27.187  26.391  1.00  0.00     0.023 A 
ATOM     72  C   UNL A   1      47.870  26.453  26.963  1.00  0.00     0.031 A 
ATOM     73  C   UNL A   1      46.829  27.376  24.999  1.00  0.00     0.131 A 
ATOM     74  C   UNL A   1      48.943  26.028  26.163  1.00  0.00     0.055 A 
ATOM     75  C   UNL A   1      47.849  26.865  24.194  1.00  0.00     0.041 A 
ATOM     76  F   UNL A   1      45.868  28.094  24.395  1.00  0.00    -0.206 F 
ATOM     77  C   UNL A   1      48.925  26.204  24.778  1.00  0.00     0.022 A 
BRANCH  74  78
ATOM     78  S   UNL A   1      50.446  25.424  26.981  1.00  0.00     0.124 S 
ATOM     79  O   UNL A   1      49.939  24.266  27.713  1.00  0.00    -0.237 OA
ATOM     80  O   UNL A   1      51.324  25.134  25.854  1.00  0.00    -0.237 OA
ATOM     81  O   UNL A   1      50.855  26.550  27.820  1.00  0.00    -0.744 OA
ENDBRANCH  74  78
ENDBRANCH  57  71
BRANCH  58  82
ATOM     82  C   UNL A   1      39.447  30.838  32.193  1.00  0.00     0.023 A 
ATOM     83  C   UNL A   1      38.606  31.896  31.817  1.00  0.00     0.031 A 
ATOM     84  C   UNL A   1      39.267  30.275  33.472  1.00  0.00     0.131 A 
ATOM     85  C   UNL A   1      37.641  32.376  32.719  1.00  0.00     0.055 A 
ATOM     86  C   UNL A   1      38.273  30.722  34.344  1.00  0.00     0.041 A 
ATOM     87  F   UNL A   1      40.047  29.263  33.884  1.00  0.00    -0.206 F 
ATOM     88  C   UNL A   1      37.458  31.785  33.972  1.00  0.00     0.022 A 
BRANCH  85  89
ATOM     89  S   UNL A   1      36.661  33.831  32.257  1.00  0.00     0.124 S 
ATOM     90  O   UNL A   1      36.788  34.666  33.446  1.00  0.00    -0.237 OA
ATOM     91  O   UNL A   1      37.360  34.300  31.064  1.00  0.00    -0.237 OA
ATOM     92  O   UNL A   1      35.328  33.281  32.017  1.00  0.00    -0.744 OA
ENDBRANCH  85  89
ENDBRANCH  58  82
BRANCH  70  93
ATOM     93  C   UNL A   1      45.864  33.079  30.529  1.00  0.00     0.023 A 
ATOM     94  C   UNL A   1      46.638  33.157  31.699  1.00  0.00     0.031 A 
ATOM     95  C   UNL A   1      45.819  34.210  29.692  1.00  0.00     0.131 A 
ATOM     96  C   UNL A   1      47.283  34.357  32.032  1.00  0.00     0.055 A 
ATOM     97  C   UNL A   1      46.524  35.376  29.990  1.00  0.00     0.041 A 
ATOM     98  F   UNL A   1      45.092  34.197  28.563  1.00  0.00    -0.206 F 
ATOM     99  C   UNL A   1      47.250  35.460  31.173  1.00  0.00     0.022 A 
BRANCH  96 100
ATOM    100  S   UNL A   1      48.072  34.499  33.659  1.00  0.00     0.124 S 
ATOM    101  O   UNL A   1      47.861  35.908  33.975  1.00  0.00    -0.237 OA
ATOM    102  O   UNL A   1      47.312  33.545  34.459  1.00  0.00    -0.237 OA
ATOM    103  O   UNL A   1      49.461  34.124  33.399  1.00  0.00    -0.744 OA
ENDBRANCH  96 100
ENDBRANCH  70  93
ENDBRANCH  44  45
ENDBRANCH  37  39
ENDBRANCH  36  37
ENDBRANCH  35  36
ENDBRANCH  34  35
ENDBRANCH  33  34
ENDBRANCH  32  33
ENDBRANCH  31  32
ENDBRANCH   1  31
TORSDOF 26
ENDMDL
