MODEL 1
REMARK VINA RESULT:      -9.5      0.000      0.000
REMARK SMILES Cc1ncccc1C(=O)NCCOCC(=O)OCCOCCOCCOCCOC(=O)c1ccc(-c2c3nc(c(-c4cc(S(=O)(=O)[O-])ccc4F)c4ccc([nH]4)c(-c4cc(S(=O)(=O)[O-])ccc4F)c4nc(c(-c5cc(S(=O)(=O)[O-])ccc5F)c5ccc2[nH]5)C=C4)C=C3)cc1
REMARK SMILES IDX 22 1 21 2 20 3 19 4 18 5 17 6 15 7 16 8 14 9 13 10 12 11
REMARK SMILES IDX 11 12 10 13 8 14 9 15 7 17 1 18 2 19 3 20 4 21 6 22 5 23
REMARK SMILES IDX 23 24 24 25 25 26 26 27 27 28 28 29 29 30 30 31 31 32 32 33
REMARK SMILES IDX 33 34 94 35 34 36 93 37 35 38 36 39 37 40 87 41 38 42 92 43
REMARK SMILES IDX 86 44 88 45 39 46 91 47 85 48 84 49 40 51 72 52 52 53 71 54
REMARK SMILES IDX 53 55 56 56 70 57 89 58 54 59 55 60 69 62 90 63 57 64 41 65
REMARK SMILES IDX 42 66 50 67 43 68 49 69 51 70 48 71 44 72 45 73 46 74 47 75
REMARK SMILES IDX 73 76 74 77 82 78 75 79 81 80 83 81 80 82 76 83 77 84 78 85
REMARK SMILES IDX 79 86 58 87 59 88 67 89 60 90 66 91 68 92 65 93 61 94 62 95
REMARK SMILES IDX 63 96 64 97
REMARK H PARENT 10 16 88 50 56 61
REMARK Flexibility Score: inf
ROOT
ATOM      1  C   UNL A   1      38.998  22.298  26.121  1.00  0.00     0.188 C 
ENDROOT
BRANCH   1   2
ATOM      2  C   UNL A   1      38.465  23.699  26.408  1.00  0.00     0.188 C 
BRANCH   2   3
ATOM      3  O   UNL A   1      37.126  23.957  25.997  1.00  0.00    -0.376 OA
BRANCH   3   4
ATOM      4  C   UNL A   1      36.683  23.355  24.783  1.00  0.00     0.202 C 
BRANCH   4   5
ATOM      5  C   UNL A   1      36.082  21.937  24.859  1.00  0.00     0.261 C 
BRANCH   5   6
ATOM      6  O   UNL A   1      35.536  21.534  26.137  1.00  0.00    -0.462 OA
BRANCH   6   7
ATOM      7  C   UNL A   1      34.243  21.891  26.353  1.00  0.00     0.332 C 
ATOM      8  O   UNL A   1      33.892  22.918  26.930  1.00  0.00    -0.250 OA
BRANCH   7   9
ATOM      9  C   UNL A   1      33.185  20.904  25.797  1.00  0.00     0.282 C 
BRANCH   9  10
ATOM     10  O   UNL A   1      32.096  21.092  24.925  1.00  0.00    -0.368 OA
BRANCH  10  11
ATOM     11  C   UNL A   1      32.121  22.213  24.059  1.00  0.00     0.182 C 
BRANCH  11  12
ATOM     12  C   UNL A   1      31.109  23.345  24.328  1.00  0.00     0.144 C 
BRANCH  12  13
ATOM     13  N   UNL A   1      31.343  24.203  25.478  1.00  0.00    -0.350 N 
ATOM     14  C   UNL A   1      31.461  25.556  25.685  1.00  0.00     0.253 C 
ATOM     15  O   UNL A   1      31.502  25.898  26.873  1.00  0.00    -0.269 OA
ATOM     16  H   UNL A   1      31.439  23.689  26.313  1.00  0.00     0.163 HD
BRANCH  14  17
ATOM     17  C   UNL A   1      31.655  26.635  24.666  1.00  0.00     0.061 A 
ATOM     18  C   UNL A   1      33.812  25.878  23.486  1.00  0.00     0.067 C 
ATOM     19  C   UNL A   1      32.665  26.803  23.716  1.00  0.00     0.050 A 
ATOM     20  N   UNL A   1      32.679  27.855  22.836  1.00  0.00    -0.261 NA
ATOM     21  C   UNL A   1      31.642  28.717  22.827  1.00  0.00     0.111 A 
ATOM     22  C   UNL A   1      30.586  27.559  24.600  1.00  0.00     0.017 A 
ATOM     23  C   UNL A   1      30.567  28.600  23.674  1.00  0.00     0.021 A 
ENDBRANCH  14  17
ENDBRANCH  12  13
ENDBRANCH  11  12
ENDBRANCH  10  11
ENDBRANCH   9  10
ENDBRANCH   7   9
ENDBRANCH   6   7
ENDBRANCH   5   6
ENDBRANCH   4   5
ENDBRANCH   3   4
ENDBRANCH   2   3
ENDBRANCH   1   2
BRANCH   1  24
ATOM     24  O   UNL A   1      40.343  22.154  26.547  1.00  0.00    -0.377 OA
BRANCH  24  25
ATOM     25  C   UNL A   1      40.788  20.877  26.997  1.00  0.00     0.188 C 
BRANCH  25  26
ATOM     26  C   UNL A   1      42.246  20.498  26.710  1.00  0.00     0.188 C 
BRANCH  26  27
ATOM     27  O   UNL A   1      42.810  20.793  25.429  1.00  0.00    -0.376 OA
BRANCH  27  28
ATOM     28  C   UNL A   1      44.190  20.573  25.179  1.00  0.00     0.202 C 
BRANCH  28  29
ATOM     29  C   UNL A   1      45.149  21.760  25.302  1.00  0.00     0.261 C 
BRANCH  29  30
ATOM     30  O   UNL A   1      44.662  22.804  26.146  1.00  0.00    -0.460 OA
BRANCH  30  31
ATOM     31  C   UNL A   1      44.620  24.020  25.552  1.00  0.00     0.338 C 
ATOM     32  O   UNL A   1      45.091  24.332  24.468  1.00  0.00    -0.246 OA
BRANCH  31  33
ATOM     33  C   UNL A   1      43.756  24.896  26.356  1.00  0.00     0.060 A 
ATOM     34  C   UNL A   1      44.020  26.271  26.364  1.00  0.00     0.016 A 
ATOM     35  C   UNL A   1      42.720  24.359  27.125  1.00  0.00     0.016 A 
ATOM     36  C   UNL A   1      43.258  27.119  27.155  1.00  0.00     0.010 A 
ATOM     37  C   UNL A   1      41.983  25.203  27.951  1.00  0.00     0.010 A 
ATOM     38  C   UNL A   1      42.277  26.577  27.990  1.00  0.00    -0.014 A 
BRANCH  38  39
ATOM     39  C   UNL A   1      41.741  27.412  29.083  1.00  0.00     0.031 A 
ATOM     40  C   UNL A   1      42.482  27.408  30.389  1.00  0.00     0.074 A 
ATOM     41  C   UNL A   1      40.656  28.177  28.893  1.00  0.00     0.049 A 
ATOM     42  N   UNL A   1      42.187  28.000  31.513  1.00  0.00    -0.248 NA
ATOM     43  C   UNL A   1      43.727  26.622  30.428  1.00  0.00     0.031 C 
ATOM     44  C   UNL A   1      39.919  28.297  27.636  1.00  0.00     0.029 A 
ATOM     45  N   UNL A   1      39.984  28.994  29.761  1.00  0.00    -0.354 N 
ATOM     46  C   UNL A   1      43.203  27.654  32.397  1.00  0.00     0.074 A 
ATOM     47  C   UNL A   1      44.100  26.769  31.688  1.00  0.00     0.031 C 
ATOM     48  C   UNL A   1      38.883  29.133  27.820  1.00  0.00     0.029 A 
ATOM     49  C   UNL A   1      38.860  29.566  29.216  1.00  0.00     0.049 A 
ATOM     50  H   UNL A   1      40.278  29.156  30.687  1.00  0.00     0.167 HD
ATOM     51  C   UNL A   1      43.368  28.049  33.682  1.00  0.00     0.034 A 
ATOM     52  C   UNL A   1      37.910  30.325  29.797  1.00  0.00     0.034 A 
ATOM     53  C   UNL A   1      42.441  28.917  34.364  1.00  0.00     0.049 A 
ATOM     54  C   UNL A   1      38.057  30.662  31.262  1.00  0.00     0.074 A 
ATOM     55  C   UNL A   1      42.495  29.385  35.664  1.00  0.00     0.029 A 
ATOM     56  N   UNL A   1      41.280  29.436  33.800  1.00  0.00    -0.354 N 
ATOM     57  N   UNL A   1      39.016  30.328  32.097  1.00  0.00    -0.248 NA
ATOM     58  C   UNL A   1      37.000  31.485  31.860  1.00  0.00     0.031 C 
ATOM     59  C   UNL A   1      41.327  30.113  35.911  1.00  0.00     0.029 A 
ATOM     60  C   UNL A   1      40.591  30.186  34.738  1.00  0.00     0.049 A 
ATOM     61  H   UNL A   1      40.991  29.290  32.871  1.00  0.00     0.167 HD
ATOM     62  C   UNL A   1      38.694  30.931  33.310  1.00  0.00     0.074 A 
ATOM     63  C   UNL A   1      37.460  31.660  33.091  1.00  0.00     0.031 C 
ATOM     64  C   UNL A   1      39.356  30.896  34.496  1.00  0.00     0.034 A 
BRANCH  51  65
ATOM     65  C   UNL A   1      44.550  27.487  34.434  1.00  0.00     0.023 A 
ATOM     66  C   UNL A   1      44.457  26.306  35.192  1.00  0.00     0.031 A 
ATOM     67  C   UNL A   1      45.780  28.168  34.429  1.00  0.00     0.131 A 
ATOM     68  C   UNL A   1      45.546  25.885  35.969  1.00  0.00     0.055 A 
ATOM     69  C   UNL A   1      46.888  27.696  35.135  1.00  0.00     0.041 A 
ATOM     70  F   UNL A   1      45.921  29.319  33.752  1.00  0.00    -0.206 F 
ATOM     71  C   UNL A   1      46.770  26.556  35.923  1.00  0.00     0.022 A 
BRANCH  68  72
ATOM     72  S   UNL A   1      45.293  24.541  37.162  1.00  0.00     0.124 S 
ATOM     73  O   UNL A   1      44.277  25.116  38.041  1.00  0.00    -0.237 OA
ATOM     74  O   UNL A   1      44.854  23.442  36.311  1.00  0.00    -0.237 OA
ATOM     75  O   UNL A   1      46.611  24.372  37.772  1.00  0.00    -0.744 OA
ENDBRANCH  68  72
ENDBRANCH  51  65
BRANCH  52  76
ATOM     76  C   UNL A   1      36.722  30.778  29.018  1.00  0.00     0.023 A 
ATOM     77  C   UNL A   1      35.792  29.857  28.515  1.00  0.00     0.031 A 
ATOM     78  C   UNL A   1      36.528  32.140  28.721  1.00  0.00     0.131 A 
ATOM     79  C   UNL A   1      34.740  30.299  27.697  1.00  0.00     0.055 A 
ATOM     80  C   UNL A   1      35.444  32.581  27.959  1.00  0.00     0.041 A 
ATOM     81  F   UNL A   1      37.388  33.065  29.173  1.00  0.00    -0.206 F 
ATOM     82  C   UNL A   1      34.551  31.657  27.430  1.00  0.00     0.022 A 
BRANCH  79  83
ATOM     83  S   UNL A   1      33.680  29.061  26.904  1.00  0.00     0.124 S 
ATOM     84  O   UNL A   1      32.773  28.708  27.990  1.00  0.00    -0.237 OA
ATOM     85  O   UNL A   1      33.099  29.823  25.803  1.00  0.00    -0.237 OA
ATOM     86  O   UNL A   1      34.620  28.014  26.507  1.00  0.00    -0.744 OA
ENDBRANCH  79  83
ENDBRANCH  52  76
BRANCH  64  87
ATOM     87  C   UNL A   1      38.783  31.715  35.628  1.00  0.00     0.023 A 
ATOM     88  C   UNL A   1      38.190  31.116  36.753  1.00  0.00     0.031 A 
ATOM     89  C   UNL A   1      38.829  33.120  35.575  1.00  0.00     0.131 A 
ATOM     90  C   UNL A   1      37.613  31.919  37.748  1.00  0.00     0.055 A 
ATOM     91  C   UNL A   1      38.321  33.913  36.604  1.00  0.00     0.041 A 
ATOM     92  F   UNL A   1      39.379  33.747  34.522  1.00  0.00    -0.206 F 
ATOM     93  C   UNL A   1      37.694  33.313  37.691  1.00  0.00     0.022 A 
BRANCH  90  94
ATOM     94  S   UNL A   1      36.657  31.118  39.064  1.00  0.00     0.124 S 
ATOM     95  O   UNL A   1      35.527  32.029  39.213  1.00  0.00    -0.237 OA
ATOM     96  O   UNL A   1      36.353  29.815  38.482  1.00  0.00    -0.237 OA
ATOM     97  O   UNL A   1      37.585  31.091  40.193  1.00  0.00    -0.744 OA
ENDBRANCH  90  94
ENDBRANCH  64  87
ENDBRANCH  38  39
ENDBRANCH  31  33
ENDBRANCH  30  31
ENDBRANCH  29  30
ENDBRANCH  28  29
ENDBRANCH  27  28
ENDBRANCH  26  27
ENDBRANCH  25  26
ENDBRANCH  24  25
ENDBRANCH   1  24
TORSDOF 28
ENDMDL
MODEL 2
REMARK VINA RESULT:      -8.2      5.299     10.529
REMARK SMILES Cc1ncccc1C(=O)NCCOCC(=O)OCCOCCOCCOCCOC(=O)c1ccc(-c2c3nc(c(-c4cc(S(=O)(=O)[O-])ccc4F)c4ccc([nH]4)c(-c4cc(S(=O)(=O)[O-])ccc4F)c4nc(c(-c5cc(S(=O)(=O)[O-])ccc5F)c5ccc2[nH]5)C=C4)C=C3)cc1
REMARK SMILES IDX 22 1 21 2 20 3 19 4 18 5 17 6 15 7 16 8 14 9 13 10 12 11
REMARK SMILES IDX 11 12 10 13 8 14 9 15 7 17 1 18 2 19 3 20 4 21 6 22 5 23
REMARK SMILES IDX 23 24 24 25 25 26 26 27 27 28 28 29 29 30 30 31 31 32 32 33
REMARK SMILES IDX 33 34 94 35 34 36 93 37 35 38 36 39 37 40 87 41 38 42 92 43
REMARK SMILES IDX 86 44 88 45 39 46 91 47 85 48 84 49 40 51 72 52 52 53 71 54
REMARK SMILES IDX 53 55 56 56 70 57 89 58 54 59 55 60 69 62 90 63 57 64 41 65
REMARK SMILES IDX 42 66 50 67 43 68 49 69 51 70 48 71 44 72 45 73 46 74 47 75
REMARK SMILES IDX 73 76 74 77 82 78 75 79 81 80 83 81 80 82 76 83 77 84 78 85
REMARK SMILES IDX 79 86 58 87 59 88 67 89 60 90 66 91 68 92 65 93 61 94 62 95
REMARK SMILES IDX 63 96 64 97
REMARK H PARENT 10 16 88 50 56 61
REMARK Flexibility Score: inf
ROOT
ATOM      1  C   UNL A   1      34.602  32.309  27.667  1.00  0.00     0.188 C 
ENDROOT
BRANCH   1   2
ATOM      2  C   UNL A   1      35.285  31.101  28.303  1.00  0.00     0.188 C 
BRANCH   2   3
ATOM      3  O   UNL A   1      35.541  29.998  27.439  1.00  0.00    -0.376 OA
BRANCH   3   4
ATOM      4  C   UNL A   1      34.435  29.454  26.721  1.00  0.00     0.202 C 
BRANCH   4   5
ATOM      5  C   UNL A   1      33.500  28.482  27.467  1.00  0.00     0.261 C 
BRANCH   5   6
ATOM      6  O   UNL A   1      32.855  27.463  26.666  1.00  0.00    -0.462 OA
BRANCH   6   7
ATOM      7  C   UNL A   1      31.523  27.312  26.885  1.00  0.00     0.332 C 
ATOM      8  O   UNL A   1      30.896  27.879  27.778  1.00  0.00    -0.250 OA
BRANCH   7   9
ATOM      9  C   UNL A   1      30.797  26.360  25.902  1.00  0.00     0.282 C 
BRANCH   9  10
ATOM     10  O   UNL A   1      31.283  25.384  25.011  1.00  0.00    -0.368 OA
BRANCH  10  11
ATOM     11  C   UNL A   1      30.813  24.055  25.156  1.00  0.00     0.182 C 
BRANCH  11  12
ATOM     12  C   UNL A   1      31.364  23.227  26.333  1.00  0.00     0.144 C 
BRANCH  12  13
ATOM     13  N   UNL A   1      31.822  21.875  26.055  1.00  0.00    -0.350 N 
ATOM     14  C   UNL A   1      32.951  21.314  25.510  1.00  0.00     0.253 C 
ATOM     15  O   UNL A   1      33.014  20.083  25.599  1.00  0.00    -0.269 OA
ATOM     16  H   UNL A   1      31.162  21.196  26.324  1.00  0.00     0.163 HD
BRANCH  14  17
ATOM     17  C   UNL A   1      34.039  21.991  24.736  1.00  0.00     0.061 A 
ATOM     18  C   UNL A   1      32.849  22.577  22.532  1.00  0.00     0.067 C 
ATOM     19  C   UNL A   1      34.025  22.532  23.449  1.00  0.00     0.050 A 
ATOM     20  N   UNL A   1      35.122  23.140  22.894  1.00  0.00    -0.261 NA
ATOM     21  C   UNL A   1      36.233  23.297  23.641  1.00  0.00     0.111 A 
ATOM     22  C   UNL A   1      35.225  22.199  25.479  1.00  0.00     0.017 A 
ATOM     23  C   UNL A   1      36.327  22.862  24.941  1.00  0.00     0.021 A 
ENDBRANCH  14  17
ENDBRANCH  12  13
ENDBRANCH  11  12
ENDBRANCH  10  11
ENDBRANCH   9  10
ENDBRANCH   7   9
ENDBRANCH   6   7
ENDBRANCH   5   6
ENDBRANCH   4   5
ENDBRANCH   3   4
ENDBRANCH   2   3
ENDBRANCH   1   2
BRANCH   1  24
ATOM     24  O   UNL A   1      33.969  33.123  28.641  1.00  0.00    -0.377 OA
BRANCH  24  25
ATOM     25  C   UNL A   1      34.083  34.540  28.530  1.00  0.00     0.188 C 
BRANCH  25  26
ATOM     26  C   UNL A   1      32.954  35.386  29.131  1.00  0.00     0.188 C 
BRANCH  26  27
ATOM     27  O   UNL A   1      33.237  36.255  30.232  1.00  0.00    -0.376 OA
BRANCH  27  28
ATOM     28  C   UNL A   1      32.408  36.251  31.386  1.00  0.00     0.202 C 
BRANCH  28  29
ATOM     29  C   UNL A   1      32.970  35.656  32.681  1.00  0.00     0.261 C 
BRANCH  29  30
ATOM     30  O   UNL A   1      34.255  35.053  32.524  1.00  0.00    -0.460 OA
BRANCH  30  31
ATOM     31  C   UNL A   1      34.261  33.711  32.701  1.00  0.00     0.338 C 
ATOM     32  O   UNL A   1      33.339  33.011  33.091  1.00  0.00    -0.246 OA
BRANCH  31  33
ATOM     33  C   UNL A   1      35.532  33.183  32.184  1.00  0.00     0.060 A 
ATOM     34  C   UNL A   1      36.179  32.173  32.905  1.00  0.00     0.016 A 
ATOM     35  C   UNL A   1      36.096  33.710  31.019  1.00  0.00     0.016 A 
ATOM     36  C   UNL A   1      37.407  31.692  32.474  1.00  0.00     0.010 A 
ATOM     37  C   UNL A   1      37.348  33.257  30.610  1.00  0.00     0.010 A 
ATOM     38  C   UNL A   1      38.017  32.273  31.359  1.00  0.00    -0.014 A 
BRANCH  38  39
ATOM     39  C   UNL A   1      39.454  32.029  31.133  1.00  0.00     0.031 A 
ATOM     40  C   UNL A   1      40.430  32.969  31.779  1.00  0.00     0.074 A 
ATOM     41  C   UNL A   1      39.866  30.976  30.411  1.00  0.00     0.049 A 
ATOM     42  N   UNL A   1      41.730  33.009  31.687  1.00  0.00    -0.248 NA
ATOM     43  C   UNL A   1      39.853  34.010  32.646  1.00  0.00     0.031 C 
ATOM     44  C   UNL A   1      38.990  29.972  29.809  1.00  0.00     0.029 A 
ATOM     45  N   UNL A   1      41.128  30.580  30.059  1.00  0.00    -0.354 N 
ATOM     46  C   UNL A   1      42.129  34.082  32.476  1.00  0.00     0.074 A 
ATOM     47  C   UNL A   1      40.929  34.688  33.008  1.00  0.00     0.031 C 
ATOM     48  C   UNL A   1      39.745  29.079  29.148  1.00  0.00     0.029 A 
ATOM     49  C   UNL A   1      41.149  29.477  29.242  1.00  0.00     0.049 A 
ATOM     50  H   UNL A   1      41.943  31.043  30.362  1.00  0.00     0.167 HD
ATOM     51  C   UNL A   1      43.387  34.512  32.734  1.00  0.00     0.034 A 
ATOM     52  C   UNL A   1      42.186  28.884  28.619  1.00  0.00     0.034 A 
ATOM     53  C   UNL A   1      44.561  33.896  32.170  1.00  0.00     0.049 A 
ATOM     54  C   UNL A   1      43.571  29.450  28.833  1.00  0.00     0.074 A 
ATOM     55  C   UNL A   1      45.888  34.240  32.351  1.00  0.00     0.029 A 
ATOM     56  N   UNL A   1      44.545  32.811  31.299  1.00  0.00    -0.354 N 
ATOM     57  N   UNL A   1      43.943  30.468  29.575  1.00  0.00    -0.248 NA
ATOM     58  C   UNL A   1      44.673  28.781  28.133  1.00  0.00     0.031 C 
ATOM     59  C   UNL A   1      46.665  33.423  31.525  1.00  0.00     0.029 A 
ATOM     60  C   UNL A   1      45.836  32.501  30.904  1.00  0.00     0.049 A 
ATOM     61  H   UNL A   1      43.735  32.336  31.006  1.00  0.00     0.167 HD
ATOM     62  C   UNL A   1      45.330  30.539  29.459  1.00  0.00     0.074 A 
ATOM     63  C   UNL A   1      45.724  29.450  28.586  1.00  0.00     0.031 C 
ATOM     64  C   UNL A   1      46.201  31.414  30.024  1.00  0.00     0.034 A 
BRANCH  51  65
ATOM     65  C   UNL A   1      43.537  35.738  33.603  1.00  0.00     0.023 A 
ATOM     66  C   UNL A   1      43.496  37.039  33.069  1.00  0.00     0.031 A 
ATOM     67  C   UNL A   1      43.769  35.602  34.983  1.00  0.00     0.131 A 
ATOM     68  C   UNL A   1      43.757  38.142  33.894  1.00  0.00     0.055 A 
ATOM     69  C   UNL A   1      43.941  36.709  35.815  1.00  0.00     0.041 A 
ATOM     70  F   UNL A   1      43.852  34.386  35.546  1.00  0.00    -0.206 F 
ATOM     71  C   UNL A   1      43.951  37.989  35.269  1.00  0.00     0.022 A 
BRANCH  68  72
ATOM     72  S   UNL A   1      43.998  39.766  33.120  1.00  0.00     0.124 S 
ATOM     73  O   UNL A   1      44.967  40.381  34.023  1.00  0.00    -0.237 OA
ATOM     74  O   UNL A   1      44.493  39.414  31.795  1.00  0.00    -0.237 OA
ATOM     75  O   UNL A   1      42.663  40.361  33.151  1.00  0.00    -0.744 OA
ENDBRANCH  68  72
ENDBRANCH  51  65
BRANCH  52  76
ATOM     76  C   UNL A   1      41.960  27.727  27.705  1.00  0.00     0.023 A 
ATOM     77  C   UNL A   1      42.014  26.409  28.179  1.00  0.00     0.031 A 
ATOM     78  C   UNL A   1      41.740  27.924  26.329  1.00  0.00     0.131 A 
ATOM     79  C   UNL A   1      41.902  25.336  27.280  1.00  0.00     0.055 A 
ATOM     80  C   UNL A   1      41.567  26.854  25.449  1.00  0.00     0.041 A 
ATOM     81  F   UNL A   1      41.683  29.164  25.820  1.00  0.00    -0.206 F 
ATOM     82  C   UNL A   1      41.663  25.550  25.921  1.00  0.00     0.022 A 
BRANCH  79  83
ATOM     83  S   UNL A   1      42.177  23.654  27.900  1.00  0.00     0.124 S 
ATOM     84  O   UNL A   1      43.088  23.115  26.897  1.00  0.00    -0.237 OA
ATOM     85  O   UNL A   1      42.750  23.909  29.217  1.00  0.00    -0.237 OA
ATOM     86  O   UNL A   1      40.837  23.071  27.907  1.00  0.00    -0.744 OA
ENDBRANCH  79  83
ENDBRANCH  52  76
BRANCH  64  87
ATOM     87  C   UNL A   1      47.671  31.190  29.757  1.00  0.00     0.023 A 
ATOM     88  C   UNL A   1      48.311  31.731  28.628  1.00  0.00     0.031 A 
ATOM     89  C   UNL A   1      48.440  30.419  30.647  1.00  0.00     0.131 A 
ATOM     90  C   UNL A   1      49.663  31.442  28.388  1.00  0.00     0.055 A 
ATOM     91  C   UNL A   1      49.801  30.197  30.442  1.00  0.00     0.041 A 
ATOM     92  F   UNL A   1      47.880  29.873  31.738  1.00  0.00    -0.206 F 
ATOM     93  C   UNL A   1      50.417  30.697  29.299  1.00  0.00     0.022 A 
BRANCH  90  94
ATOM     94  S   UNL A   1      50.395  31.960  26.812  1.00  0.00     0.124 S 
ATOM     95  O   UNL A   1      50.685  30.678  26.178  1.00  0.00    -0.237 OA
ATOM     96  O   UNL A   1      49.319  32.741  26.209  1.00  0.00    -0.237 OA
ATOM     97  O   UNL A   1      51.568  32.731  27.218  1.00  0.00    -0.744 OA
ENDBRANCH  90  94
ENDBRANCH  64  87
ENDBRANCH  38  39
ENDBRANCH  31  33
ENDBRANCH  30  31
ENDBRANCH  29  30
ENDBRANCH  28  29
ENDBRANCH  27  28
ENDBRANCH  26  27
ENDBRANCH  25  26
ENDBRANCH  24  25
ENDBRANCH   1  24
TORSDOF 28
ENDMDL
MODEL 3
REMARK VINA RESULT:      -8.1      4.726      5.447
REMARK SMILES Cc1ncccc1C(=O)NCCOCC(=O)OCCOCCOCCOCCOC(=O)c1ccc(-c2c3nc(c(-c4cc(S(=O)(=O)[O-])ccc4F)c4ccc([nH]4)c(-c4cc(S(=O)(=O)[O-])ccc4F)c4nc(c(-c5cc(S(=O)(=O)[O-])ccc5F)c5ccc2[nH]5)C=C4)C=C3)cc1
REMARK SMILES IDX 22 1 21 2 20 3 19 4 18 5 17 6 15 7 16 8 14 9 13 10 12 11
REMARK SMILES IDX 11 12 10 13 8 14 9 15 7 17 1 18 2 19 3 20 4 21 6 22 5 23
REMARK SMILES IDX 23 24 24 25 25 26 26 27 27 28 28 29 29 30 30 31 31 32 32 33
REMARK SMILES IDX 33 34 94 35 34 36 93 37 35 38 36 39 37 40 87 41 38 42 92 43
REMARK SMILES IDX 86 44 88 45 39 46 91 47 85 48 84 49 40 51 72 52 52 53 71 54
REMARK SMILES IDX 53 55 56 56 70 57 89 58 54 59 55 60 69 62 90 63 57 64 41 65
REMARK SMILES IDX 42 66 50 67 43 68 49 69 51 70 48 71 44 72 45 73 46 74 47 75
REMARK SMILES IDX 73 76 74 77 82 78 75 79 81 80 83 81 80 82 76 83 77 84 78 85
REMARK SMILES IDX 79 86 58 87 59 88 67 89 60 90 66 91 68 92 65 93 61 94 62 95
REMARK SMILES IDX 63 96 64 97
REMARK H PARENT 10 16 88 50 56 61
REMARK Flexibility Score: inf
ROOT
ATOM      1  C   UNL A   1      39.423  21.970  26.087  1.00  0.00     0.188 C 
ENDROOT
BRANCH   1   2
ATOM      2  C   UNL A   1      39.234  23.399  26.587  1.00  0.00     0.188 C 
BRANCH   2   3
ATOM      3  O   UNL A   1      37.896  23.889  26.600  1.00  0.00    -0.376 OA
BRANCH   3   4
ATOM      4  C   UNL A   1      37.114  23.694  25.424  1.00  0.00     0.202 C 
BRANCH   4   5
ATOM      5  C   UNL A   1      35.828  22.853  25.544  1.00  0.00     0.261 C 
BRANCH   5   6
ATOM      6  O   UNL A   1      34.830  23.328  26.479  1.00  0.00    -0.462 OA
BRANCH   6   7
ATOM      7  C   UNL A   1      33.714  23.859  25.915  1.00  0.00     0.332 C 
ATOM      8  O   UNL A   1      32.993  24.696  26.455  1.00  0.00    -0.250 OA
BRANCH   7   9
ATOM      9  C   UNL A   1      33.389  23.348  24.489  1.00  0.00     0.282 C 
BRANCH   9  10
ATOM     10  O   UNL A   1      33.317  24.012  23.250  1.00  0.00    -0.368 OA
BRANCH  10  11
ATOM     11  C   UNL A   1      33.534  25.412  23.230  1.00  0.00     0.182 C 
BRANCH  11  12
ATOM     12  C   UNL A   1      33.243  26.161  21.914  1.00  0.00     0.144 C 
BRANCH  12  13
ATOM     13  N   UNL A   1      31.963  26.840  21.790  1.00  0.00    -0.350 N 
ATOM     14  C   UNL A   1      31.231  27.705  22.567  1.00  0.00     0.253 C 
ATOM     15  O   UNL A   1      30.236  28.185  22.013  1.00  0.00    -0.269 OA
ATOM     16  H   UNL A   1      31.510  26.628  20.941  1.00  0.00     0.163 HD
BRANCH  14  17
ATOM     17  C   UNL A   1      31.426  28.041  24.013  1.00  0.00     0.061 A 
ATOM     18  C   UNL A   1      30.214  26.100  25.186  1.00  0.00     0.067 C 
ATOM     19  C   UNL A   1      30.989  27.374  25.158  1.00  0.00     0.050 A 
ATOM     20  N   UNL A   1      31.277  27.818  26.424  1.00  0.00    -0.261 NA
ATOM     21  C   UNL A   1      32.079  28.891  26.576  1.00  0.00     0.111 A 
ATOM     22  C   UNL A   1      32.278  29.150  24.232  1.00  0.00     0.017 A 
ATOM     23  C   UNL A   1      32.618  29.577  25.514  1.00  0.00     0.021 A 
ENDBRANCH  14  17
ENDBRANCH  12  13
ENDBRANCH  11  12
ENDBRANCH  10  11
ENDBRANCH   9  10
ENDBRANCH   7   9
ENDBRANCH   6   7
ENDBRANCH   5   6
ENDBRANCH   4   5
ENDBRANCH   3   4
ENDBRANCH   2   3
ENDBRANCH   1   2
BRANCH   1  24
ATOM     24  O   UNL A   1      40.681  21.442  26.475  1.00  0.00    -0.377 OA
BRANCH  24  25
ATOM     25  C   UNL A   1      40.784  20.048  26.753  1.00  0.00     0.188 C 
BRANCH  25  26
ATOM     26  C   UNL A   1      42.143  19.381  26.510  1.00  0.00     0.188 C 
BRANCH  26  27
ATOM     27  O   UNL A   1      42.804  19.570  25.255  1.00  0.00    -0.376 OA
BRANCH  27  28
ATOM     28  C   UNL A   1      44.219  19.495  25.165  1.00  0.00     0.202 C 
BRANCH  28  29
ATOM     29  C   UNL A   1      45.012  20.803  25.085  1.00  0.00     0.261 C 
BRANCH  29  30
ATOM     30  O   UNL A   1      44.368  21.904  25.728  1.00  0.00    -0.460 OA
BRANCH  30  31
ATOM     31  C   UNL A   1      43.837  22.809  24.872  1.00  0.00     0.338 C 
ATOM     32  O   UNL A   1      43.553  22.639  23.696  1.00  0.00    -0.246 OA
BRANCH  31  33
ATOM     33  C   UNL A   1      43.492  24.017  25.635  1.00  0.00     0.060 A 
ATOM     34  C   UNL A   1      43.140  25.175  24.930  1.00  0.00     0.016 A 
ATOM     35  C   UNL A   1      43.553  24.016  27.031  1.00  0.00     0.016 A 
ATOM     36  C   UNL A   1      42.863  26.347  25.618  1.00  0.00     0.010 A 
ATOM     37  C   UNL A   1      43.316  25.203  27.719  1.00  0.00     0.010 A 
ATOM     38  C   UNL A   1      43.005  26.375  27.008  1.00  0.00    -0.014 A 
BRANCH  38  39
ATOM     39  C   UNL A   1      43.078  27.685  27.684  1.00  0.00     0.031 A 
ATOM     40  C   UNL A   1      44.433  28.313  27.840  1.00  0.00     0.074 A 
ATOM     41  C   UNL A   1      41.964  28.305  28.100  1.00  0.00     0.049 A 
ATOM     42  N   UNL A   1      44.772  29.417  28.445  1.00  0.00    -0.248 NA
ATOM     43  C   UNL A   1      45.560  27.587  27.231  1.00  0.00     0.031 C 
ATOM     44  C   UNL A   1      40.602  27.802  27.923  1.00  0.00     0.029 A 
ATOM     45  N   UNL A   1      41.804  29.493  28.762  1.00  0.00    -0.354 N 
ATOM     46  C   UNL A   1      46.150  29.517  28.297  1.00  0.00     0.074 A 
ATOM     47  C   UNL A   1      46.588  28.342  27.579  1.00  0.00     0.031 C 
ATOM     48  C   UNL A   1      39.744  28.674  28.478  1.00  0.00     0.029 A 
ATOM     49  C   UNL A   1      40.498  29.767  29.088  1.00  0.00     0.049 A 
ATOM     50  H   UNL A   1      42.554  30.092  28.983  1.00  0.00     0.167 HD
ATOM     51  C   UNL A   1      46.970  30.509  28.721  1.00  0.00     0.034 A 
ATOM     52  C   UNL A   1      39.986  30.772  29.824  1.00  0.00     0.034 A 
ATOM     53  C   UNL A   1      46.501  31.658  29.454  1.00  0.00     0.049 A 
ATOM     54  C   UNL A   1      40.933  31.809  30.382  1.00  0.00     0.074 A 
ATOM     55  C   UNL A   1      47.231  32.727  29.941  1.00  0.00     0.029 A 
ATOM     56  N   UNL A   1      45.177  31.880  29.818  1.00  0.00    -0.354 N 
ATOM     57  N   UNL A   1      42.238  31.897  30.246  1.00  0.00    -0.248 NA
ATOM     58  C   UNL A   1      40.339  32.884  31.184  1.00  0.00     0.031 C 
ATOM     59  C   UNL A   1      46.365  33.547  30.671  1.00  0.00     0.029 A 
ATOM     60  C   UNL A   1      45.077  33.047  30.557  1.00  0.00     0.049 A 
ATOM     61  H   UNL A   1      44.423  31.293  29.585  1.00  0.00     0.167 HD
ATOM     62  C   UNL A   1      42.614  33.059  30.916  1.00  0.00     0.074 A 
ATOM     63  C   UNL A   1      41.395  33.642  31.441  1.00  0.00     0.031 C 
ATOM     64  C   UNL A   1      43.848  33.602  31.078  1.00  0.00     0.034 A 
BRANCH  51  65
ATOM     65  C   UNL A   1      48.448  30.347  28.460  1.00  0.00     0.023 A 
ATOM     66  C   UNL A   1      49.264  29.540  29.274  1.00  0.00     0.031 A 
ATOM     67  C   UNL A   1      49.061  31.047  27.406  1.00  0.00     0.131 A 
ATOM     68  C   UNL A   1      50.650  29.512  29.066  1.00  0.00     0.055 A 
ATOM     69  C   UNL A   1      50.429  30.946  27.150  1.00  0.00     0.041 A 
ATOM     70  F   UNL A   1      48.341  31.860  26.616  1.00  0.00    -0.206 F 
ATOM     71  C   UNL A   1      51.235  30.187  27.993  1.00  0.00     0.022 A 
BRANCH  68  72
ATOM     72  S   UNL A   1      51.698  28.711  30.312  1.00  0.00     0.124 S 
ATOM     73  O   UNL A   1      50.781  28.604  31.444  1.00  0.00    -0.237 OA
ATOM     74  O   UNL A   1      52.059  27.457  29.662  1.00  0.00    -0.237 OA
ATOM     75  O   UNL A   1      52.797  29.658  30.497  1.00  0.00    -0.744 OA
ENDBRANCH  68  72
ENDBRANCH  51  65
BRANCH  52  76
ATOM     76  C   UNL A   1      38.525  30.828  30.117  1.00  0.00     0.023 A 
ATOM     77  C   UNL A   1      37.672  31.668  29.387  1.00  0.00     0.031 A 
ATOM     78  C   UNL A   1      37.969  30.080  31.171  1.00  0.00     0.131 A 
ATOM     79  C   UNL A   1      36.321  31.781  29.751  1.00  0.00     0.055 A 
ATOM     80  C   UNL A   1      36.611  30.148  31.489  1.00  0.00     0.041 A 
ATOM     81  F   UNL A   1      38.739  29.263  31.906  1.00  0.00    -0.206 F 
ATOM     82  C   UNL A   1      35.781  31.015  30.786  1.00  0.00     0.022 A 
BRANCH  79  83
ATOM     83  S   UNL A   1      35.299  33.024  28.914  1.00  0.00     0.124 S 
ATOM     84  O   UNL A   1      35.224  32.483  27.562  1.00  0.00    -0.237 OA
ATOM     85  O   UNL A   1      34.068  32.977  29.695  1.00  0.00    -0.237 OA
ATOM     86  O   UNL A   1      36.078  34.253  29.055  1.00  0.00    -0.744 OA
ENDBRANCH  79  83
ENDBRANCH  52  76
BRANCH  64  87
ATOM     87  C   UNL A   1      43.928  34.922  31.808  1.00  0.00     0.023 A 
ATOM     88  C   UNL A   1      44.068  34.990  33.205  1.00  0.00     0.031 A 
ATOM     89  C   UNL A   1      43.859  36.130  31.091  1.00  0.00     0.131 A 
ATOM     90  C   UNL A   1      44.072  36.238  33.846  1.00  0.00     0.055 A 
ATOM     91  C   UNL A   1      43.939  37.368  31.727  1.00  0.00     0.041 A 
ATOM     92  F   UNL A   1      43.720  36.125  29.756  1.00  0.00    -0.206 F 
ATOM     93  C   UNL A   1      44.031  37.428  33.114  1.00  0.00     0.022 A 
BRANCH  90  94
ATOM     94  S   UNL A   1      44.021  36.285  35.658  1.00  0.00     0.124 S 
ATOM     95  O   UNL A   1      45.085  35.352  36.013  1.00  0.00    -0.237 OA
ATOM     96  O   UNL A   1      44.286  37.692  35.942  1.00  0.00    -0.237 OA
ATOM     97  O   UNL A   1      42.668  35.834  35.974  1.00  0.00    -0.744 OA
ENDBRANCH  90  94
ENDBRANCH  64  87
ENDBRANCH  38  39
ENDBRANCH  31  33
ENDBRANCH  30  31
ENDBRANCH  29  30
ENDBRANCH  28  29
ENDBRANCH  27  28
ENDBRANCH  26  27
ENDBRANCH  25  26
ENDBRANCH  24  25
ENDBRANCH   1  24
TORSDOF 28
ENDMDL
