MODEL 1
REMARK VINA RESULT:      -9.0      0.000      0.000
REMARK SMILES CCc1ccc(OCC(=O)Nc2cc(C)c(O)c(C(=O)OCCOCCOCCOCCOC(=O)c3ccc(-c4c5nc(c(-c6cc(S(=O)(=O)[O-])ccc6F)c6ccc([nH]6)c(-c6cc(S(=O)(=O)[O-])ccc6F)c6nc(c(-c7cc(S(=O)(=O)[O-])ccc7F)c7ccc4[nH]7)C=C6)C=C5)cc3)c2)cc1
REMARK SMILES IDX 26 1 25 2 24 3 23 4 22 5 21 6 19 7 20 8 18 9 12 10 13 11
REMARK SMILES IDX 99 12 14 13 15 14 16 15 11 16 9 17 10 18 8 20 7 21 6 22 3 23
REMARK SMILES IDX 4 24 101 25 5 26 100 27 2 28 1 29 17 30 27 32 28 33 29 34
REMARK SMILES IDX 30 35 31 36 32 37 33 38 34 39 35 40 36 41 37 42 98 43 38 44
REMARK SMILES IDX 97 45 39 46 40 47 41 48 91 49 42 50 96 51 90 52 92 53 43 54
REMARK SMILES IDX 95 55 89 56 88 57 44 59 76 60 56 61 75 62 57 63 60 64 74 65
REMARK SMILES IDX 93 66 58 67 59 68 73 70 94 71 61 72 45 73 46 74 54 75 47 76
REMARK SMILES IDX 53 77 55 78 52 79 48 80 49 81 50 82 51 83 77 84 78 85 86 86
REMARK SMILES IDX 79 87 85 88 87 89 84 90 80 91 81 92 82 93 83 94 62 95 63 96
REMARK SMILES IDX 71 97 64 98 70 99 72 100 69 101 65 102 66 103 67 104 68 105
REMARK H PARENT 11 19 17 31 92 58 60 69
REMARK Flexibility Score: inf
ROOT
ATOM      1  C   UNL A   1      33.448  25.161  23.215  1.00  0.00     0.188 C 
ENDROOT
BRANCH   1   2
ATOM      2  C   UNL A   1      34.363  23.916  23.105  1.00  0.00     0.188 C 
BRANCH   2   3
ATOM      3  O   UNL A   1      34.552  23.223  24.325  1.00  0.00    -0.376 OA
BRANCH   3   4
ATOM      4  C   UNL A   1      35.435  22.128  24.431  1.00  0.00     0.202 C 
BRANCH   4   5
ATOM      5  C   UNL A   1      36.118  21.860  25.774  1.00  0.00     0.261 C 
BRANCH   5   6
ATOM      6  O   UNL A   1      37.544  21.760  25.744  1.00  0.00    -0.460 OA
BRANCH   6   7
ATOM      7  C   UNL A   1      38.280  22.859  26.017  1.00  0.00     0.342 C 
ATOM      8  O   UNL A   1      37.898  24.016  26.054  1.00  0.00    -0.246 OA
BRANCH   7   9
ATOM      9  C   UNL A   1      39.597  22.413  26.531  1.00  0.00     0.104 A 
ATOM     10  C   UNL A   1      41.148  20.585  26.929  1.00  0.00     0.042 A 
ATOM     11  C   UNL A   1      41.906  21.445  27.734  1.00  0.00     0.033 A 
ATOM     12  C   UNL A   1      39.982  21.077  26.364  1.00  0.00     0.045 A 
ATOM     13  C   UNL A   1      41.539  22.792  27.924  1.00  0.00    -0.006 A 
ATOM     14  C   UNL A   1      42.413  23.674  28.770  1.00  0.00     0.048 C 
ATOM     15  C   UNL A   1      40.394  23.280  27.283  1.00  0.00     0.133 A 
BRANCH  10  16
ATOM     16  N   UNL A   1      41.610  19.268  26.775  1.00  0.00    -0.323 N 
ATOM     17  C   UNL A   1      42.563  18.694  25.982  1.00  0.00     0.262 C 
ATOM     18  O   UNL A   1      42.740  17.476  26.115  1.00  0.00    -0.271 OA
ATOM     19  H   UNL A   1      41.152  18.624  27.361  1.00  0.00     0.170 HD
BRANCH  17  20
ATOM     20  C   UNL A   1      43.486  19.506  25.052  1.00  0.00     0.329 C 
BRANCH  20  21
ATOM     21  O   UNL A   1      44.622  20.193  25.552  1.00  0.00    -0.484 OA
BRANCH  21  22
ATOM     22  C   UNL A   1      44.565  21.555  25.509  1.00  0.00     0.120 A 
ATOM     23  C   UNL A   1      44.299  24.329  25.296  1.00  0.00    -0.048 A 
ATOM     24  C   UNL A   1      43.397  23.482  24.640  1.00  0.00     0.007 A 
ATOM     25  C   UNL A   1      45.323  23.772  26.067  1.00  0.00     0.007 A 
ATOM     26  C   UNL A   1      43.522  22.100  24.761  1.00  0.00     0.047 A 
ATOM     27  C   UNL A   1      45.450  22.391  26.183  1.00  0.00     0.047 A 
BRANCH  23  28
ATOM     28  C   UNL A   1      44.130  25.823  25.244  1.00  0.00     0.032 C 
ATOM     29  C   UNL A   1      42.734  26.202  25.691  1.00  0.00     0.009 C 
ENDBRANCH  23  28
ENDBRANCH  21  22
ENDBRANCH  20  21
ENDBRANCH  17  20
ENDBRANCH  10  16
BRANCH  15  30
ATOM     30  O   UNL A   1      40.060  24.596  27.465  1.00  0.00    -0.507 OA
ATOM     31  H   UNL A   1      40.448  25.085  28.163  1.00  0.00     0.293 HD
ENDBRANCH  15  30
ENDBRANCH   7   9
ENDBRANCH   6   7
ENDBRANCH   5   6
ENDBRANCH   4   5
ENDBRANCH   3   4
ENDBRANCH   2   3
ENDBRANCH   1   2
BRANCH   1  32
ATOM     32  O   UNL A   1      33.106  25.758  24.465  1.00  0.00    -0.377 OA
BRANCH  32  33
ATOM     33  C   UNL A   1      32.497  27.042  24.463  1.00  0.00     0.188 C 
BRANCH  33  34
ATOM     34  C   UNL A   1      32.567  27.750  25.830  1.00  0.00     0.188 C 
BRANCH  34  35
ATOM     35  O   UNL A   1      32.909  29.125  25.719  1.00  0.00    -0.376 OA
BRANCH  35  36
ATOM     36  C   UNL A   1      33.634  29.735  26.773  1.00  0.00     0.202 C 
BRANCH  36  37
ATOM     37  C   UNL A   1      33.270  31.136  27.304  1.00  0.00     0.261 C 
BRANCH  37  38
ATOM     38  O   UNL A   1      34.338  32.062  27.543  1.00  0.00    -0.460 OA
BRANCH  38  39
ATOM     39  C   UNL A   1      34.081  33.122  28.329  1.00  0.00     0.338 C 
ATOM     40  O   UNL A   1      33.126  33.884  28.238  1.00  0.00    -0.246 OA
BRANCH  39  41
ATOM     41  C   UNL A   1      35.038  33.096  29.455  1.00  0.00     0.060 A 
ATOM     42  C   UNL A   1      36.016  34.097  29.545  1.00  0.00     0.016 A 
ATOM     43  C   UNL A   1      34.979  32.081  30.410  1.00  0.00     0.016 A 
ATOM     44  C   UNL A   1      36.980  34.051  30.553  1.00  0.00     0.010 A 
ATOM     45  C   UNL A   1      35.962  32.024  31.404  1.00  0.00     0.010 A 
ATOM     46  C   UNL A   1      36.997  32.982  31.452  1.00  0.00    -0.014 A 
BRANCH  46  47
ATOM     47  C   UNL A   1      38.213  32.712  32.265  1.00  0.00     0.031 A 
ATOM     48  C   UNL A   1      39.386  32.069  31.568  1.00  0.00     0.074 A 
ATOM     49  C   UNL A   1      38.302  33.031  33.570  1.00  0.00     0.049 A 
ATOM     50  N   UNL A   1      40.531  31.670  32.056  1.00  0.00    -0.248 NA
ATOM     51  C   UNL A   1      39.245  31.860  30.117  1.00  0.00     0.031 C 
ATOM     52  C   UNL A   1      37.288  33.738  34.349  1.00  0.00     0.029 A 
ATOM     53  N   UNL A   1      39.285  32.749  34.488  1.00  0.00    -0.354 N 
ATOM     54  C   UNL A   1      41.256  31.195  30.968  1.00  0.00     0.074 A 
ATOM     55  C   UNL A   1      40.385  31.264  29.815  1.00  0.00     0.031 C 
ATOM     56  C   UNL A   1      37.648  33.737  35.645  1.00  0.00     0.029 A 
ATOM     57  C   UNL A   1      38.933  33.059  35.782  1.00  0.00     0.049 A 
ATOM     58  H   UNL A   1      40.158  32.364  34.244  1.00  0.00     0.167 HD
ATOM     59  C   UNL A   1      42.546  30.783  30.923  1.00  0.00     0.034 A 
ATOM     60  C   UNL A   1      39.568  32.810  36.943  1.00  0.00     0.034 A 
ATOM     61  C   UNL A   1      43.396  30.701  32.085  1.00  0.00     0.049 A 
ATOM     62  C   UNL A   1      40.946  32.201  36.903  1.00  0.00     0.074 A 
ATOM     63  C   UNL A   1      44.723  30.318  32.157  1.00  0.00     0.029 A 
ATOM     64  N   UNL A   1      42.995  30.991  33.383  1.00  0.00    -0.354 N 
ATOM     65  N   UNL A   1      41.641  31.794  35.865  1.00  0.00    -0.248 NA
ATOM     66  C   UNL A   1      41.650  32.076  38.184  1.00  0.00     0.031 C 
ATOM     67  C   UNL A   1      45.098  30.294  33.504  1.00  0.00     0.029 A 
ATOM     68  C   UNL A   1      44.038  30.758  34.267  1.00  0.00     0.049 A 
ATOM     69  H   UNL A   1      42.100  31.314  33.638  1.00  0.00     0.167 HD
ATOM     70  C   UNL A   1      42.892  31.437  36.363  1.00  0.00     0.074 A 
ATOM     71  C   UNL A   1      42.847  31.667  37.792  1.00  0.00     0.031 C 
ATOM     72  C   UNL A   1      43.985  30.988  35.692  1.00  0.00     0.034 A 
BRANCH  59  73
ATOM     73  C   UNL A   1      43.090  30.368  29.576  1.00  0.00     0.023 A 
ATOM     74  C   UNL A   1      43.903  31.226  28.811  1.00  0.00     0.031 A 
ATOM     75  C   UNL A   1      42.759  29.118  29.028  1.00  0.00     0.131 A 
ATOM     76  C   UNL A   1      44.285  30.859  27.513  1.00  0.00     0.055 A 
ATOM     77  C   UNL A   1      43.218  28.721  27.770  1.00  0.00     0.041 A 
ATOM     78  F   UNL A   1      41.965  28.267  29.696  1.00  0.00    -0.206 F 
ATOM     79  C   UNL A   1      43.973  29.600  26.998  1.00  0.00     0.022 A 
BRANCH  76  80
ATOM     80  S   UNL A   1      45.055  32.110  26.448  1.00  0.00     0.124 S 
ATOM     81  O   UNL A   1      43.924  32.536  25.628  1.00  0.00    -0.237 OA
ATOM     82  O   UNL A   1      45.548  33.086  27.413  1.00  0.00    -0.237 OA
ATOM     83  O   UNL A   1      46.087  31.362  25.733  1.00  0.00    -0.744 OA
ENDBRANCH  76  80
ENDBRANCH  59  73
BRANCH  60  84
ATOM     84  C   UNL A   1      38.925  33.148  38.246  1.00  0.00     0.023 A 
ATOM     85  C   UNL A   1      37.887  32.364  38.769  1.00  0.00     0.031 A 
ATOM     86  C   UNL A   1      39.308  34.299  38.959  1.00  0.00     0.131 A 
ATOM     87  C   UNL A   1      37.227  32.767  39.941  1.00  0.00     0.055 A 
ATOM     88  C   UNL A   1      38.680  34.670  40.149  1.00  0.00     0.041 A 
ATOM     89  F   UNL A   1      40.298  35.083  38.502  1.00  0.00    -0.206 F 
ATOM     90  C   UNL A   1      37.623  33.909  40.640  1.00  0.00     0.022 A 
BRANCH  87  91
ATOM     91  S   UNL A   1      35.783  31.816  40.490  1.00  0.00     0.124 S 
ATOM     92  O   UNL A   1      35.725  30.759  39.488  1.00  0.00    -0.237 OA
ATOM     93  O   UNL A   1      36.185  31.407  41.832  1.00  0.00    -0.237 OA
ATOM     94  O   UNL A   1      34.695  32.791  40.439  1.00  0.00    -0.744 OA
ENDBRANCH  87  91
ENDBRANCH  60  84
BRANCH  72  95
ATOM     95  C   UNL A   1      45.252  30.796  36.494  1.00  0.00     0.023 A 
ATOM     96  C   UNL A   1      46.253  31.780  36.560  1.00  0.00     0.031 A 
ATOM     97  C   UNL A   1      45.477  29.584  37.173  1.00  0.00     0.131 A 
ATOM     98  C   UNL A   1      47.464  31.504  37.212  1.00  0.00     0.055 A 
ATOM     99  C   UNL A   1      46.648  29.346  37.893  1.00  0.00     0.041 A 
ATOM    100  F   UNL A   1      44.560  28.602  37.144  1.00  0.00    -0.206 F 
ATOM    101  C   UNL A   1      47.659  30.302  37.897  1.00  0.00     0.022 A 
BRANCH  98 102
ATOM    102  S   UNL A   1      48.834  32.678  37.031  1.00  0.00     0.124 S 
ATOM    103  O   UNL A   1      48.128  33.952  36.925  1.00  0.00    -0.237 OA
ATOM    104  O   UNL A   1      49.588  32.469  38.262  1.00  0.00    -0.237 OA
ATOM    105  O   UNL A   1      49.504  32.237  35.809  1.00  0.00    -0.744 OA
ENDBRANCH  98 102
ENDBRANCH  72  95
ENDBRANCH  46  47
ENDBRANCH  39  41
ENDBRANCH  38  39
ENDBRANCH  37  38
ENDBRANCH  36  37
ENDBRANCH  35  36
ENDBRANCH  34  35
ENDBRANCH  33  34
ENDBRANCH  32  33
ENDBRANCH   1  32
TORSDOF 29
ENDMDL
MODEL 2
REMARK VINA RESULT:      -8.2      2.223      2.497
REMARK SMILES CCc1ccc(OCC(=O)Nc2cc(C)c(O)c(C(=O)OCCOCCOCCOCCOC(=O)c3ccc(-c4c5nc(c(-c6cc(S(=O)(=O)[O-])ccc6F)c6ccc([nH]6)c(-c6cc(S(=O)(=O)[O-])ccc6F)c6nc(c(-c7cc(S(=O)(=O)[O-])ccc7F)c7ccc4[nH]7)C=C6)C=C5)cc3)c2)cc1
REMARK SMILES IDX 26 1 25 2 24 3 23 4 22 5 21 6 19 7 20 8 18 9 12 10 13 11
REMARK SMILES IDX 99 12 14 13 15 14 16 15 11 16 9 17 10 18 8 20 7 21 6 22 3 23
REMARK SMILES IDX 4 24 101 25 5 26 100 27 2 28 1 29 17 30 27 32 28 33 29 34
REMARK SMILES IDX 30 35 31 36 32 37 33 38 34 39 35 40 36 41 37 42 98 43 38 44
REMARK SMILES IDX 97 45 39 46 40 47 41 48 91 49 42 50 96 51 90 52 92 53 43 54
REMARK SMILES IDX 95 55 89 56 88 57 44 59 76 60 56 61 75 62 57 63 60 64 74 65
REMARK SMILES IDX 93 66 58 67 59 68 73 70 94 71 61 72 45 73 46 74 54 75 47 76
REMARK SMILES IDX 53 77 55 78 52 79 48 80 49 81 50 82 51 83 77 84 78 85 86 86
REMARK SMILES IDX 79 87 85 88 87 89 84 90 80 91 81 92 82 93 83 94 62 95 63 96
REMARK SMILES IDX 71 97 64 98 70 99 72 100 69 101 65 102 66 103 67 104 68 105
REMARK H PARENT 11 19 17 31 92 58 60 69
REMARK Flexibility Score: inf
ROOT
ATOM      1  C   UNL A   1      33.810  25.849  24.272  1.00  0.00     0.188 C 
ENDROOT
BRANCH   1   2
ATOM      2  C   UNL A   1      34.363  24.502  23.741  1.00  0.00     0.188 C 
BRANCH   2   3
ATOM      3  O   UNL A   1      35.156  23.790  24.673  1.00  0.00    -0.376 OA
BRANCH   3   4
ATOM      4  C   UNL A   1      35.432  22.415  24.519  1.00  0.00     0.202 C 
BRANCH   4   5
ATOM      5  C   UNL A   1      36.312  21.721  25.561  1.00  0.00     0.261 C 
BRANCH   5   6
ATOM      6  O   UNL A   1      37.719  21.940  25.439  1.00  0.00    -0.460 OA
BRANCH   6   7
ATOM      7  C   UNL A   1      38.291  22.925  26.163  1.00  0.00     0.342 C 
ATOM      8  O   UNL A   1      37.758  23.935  26.592  1.00  0.00    -0.246 OA
BRANCH   7   9
ATOM      9  C   UNL A   1      39.634  22.462  26.589  1.00  0.00     0.104 A 
ATOM     10  C   UNL A   1      41.192  20.618  26.864  1.00  0.00     0.042 A 
ATOM     11  C   UNL A   1      42.003  21.458  27.637  1.00  0.00     0.033 A 
ATOM     12  C   UNL A   1      39.998  21.127  26.377  1.00  0.00     0.045 A 
ATOM     13  C   UNL A   1      41.657  22.804  27.872  1.00  0.00    -0.006 A 
ATOM     14  C   UNL A   1      42.586  23.666  28.679  1.00  0.00     0.048 C 
ATOM     15  C   UNL A   1      40.480  23.311  27.308  1.00  0.00     0.133 A 
BRANCH  10  16
ATOM     16  N   UNL A   1      41.635  19.301  26.659  1.00  0.00    -0.323 N 
ATOM     17  C   UNL A   1      42.567  18.742  25.832  1.00  0.00     0.262 C 
ATOM     18  O   UNL A   1      42.730  17.517  25.923  1.00  0.00    -0.271 OA
ATOM     19  H   UNL A   1      41.178  18.644  27.232  1.00  0.00     0.170 HD
BRANCH  17  20
ATOM     20  C   UNL A   1      43.485  19.572  24.913  1.00  0.00     0.329 C 
BRANCH  20  21
ATOM     21  O   UNL A   1      44.731  20.074  25.371  1.00  0.00    -0.484 OA
BRANCH  21  22
ATOM     22  C   UNL A   1      44.869  21.431  25.358  1.00  0.00     0.120 A 
ATOM     23  C   UNL A   1      45.220  24.200  25.512  1.00  0.00    -0.048 A 
ATOM     24  C   UNL A   1      45.621  23.378  26.573  1.00  0.00     0.007 A 
ATOM     25  C   UNL A   1      44.655  23.619  24.373  1.00  0.00     0.007 A 
ATOM     26  C   UNL A   1      45.460  21.997  26.487  1.00  0.00     0.047 A 
ATOM     27  C   UNL A   1      44.490  22.240  24.291  1.00  0.00     0.047 A 
BRANCH  23  28
ATOM     28  C   UNL A   1      45.463  25.684  25.553  1.00  0.00     0.032 C 
ATOM     29  C   UNL A   1      46.484  26.013  26.622  1.00  0.00     0.009 C 
ENDBRANCH  23  28
ENDBRANCH  21  22
ENDBRANCH  20  21
ENDBRANCH  17  20
ENDBRANCH  10  16
BRANCH  15  30
ATOM     30  O   UNL A   1      40.167  24.625  27.532  1.00  0.00    -0.507 OA
ATOM     31  H   UNL A   1      39.881  24.901  28.381  1.00  0.00     0.293 HD
ENDBRANCH  15  30
ENDBRANCH   7   9
ENDBRANCH   6   7
ENDBRANCH   5   6
ENDBRANCH   4   5
ENDBRANCH   3   4
ENDBRANCH   2   3
ENDBRANCH   1   2
BRANCH   1  32
ATOM     32  O   UNL A   1      33.541  26.080  25.654  1.00  0.00    -0.377 OA
BRANCH  32  33
ATOM     33  C   UNL A   1      33.271  27.407  26.082  1.00  0.00     0.188 C 
BRANCH  33  34
ATOM     34  C   UNL A   1      34.453  28.058  26.827  1.00  0.00     0.188 C 
BRANCH  34  35
ATOM     35  O   UNL A   1      34.519  29.464  26.628  1.00  0.00    -0.376 OA
BRANCH  35  36
ATOM     36  C   UNL A   1      35.411  30.225  27.426  1.00  0.00     0.202 C 
BRANCH  36  37
ATOM     37  C   UNL A   1      34.904  31.298  28.410  1.00  0.00     0.261 C 
BRANCH  37  38
ATOM     38  O   UNL A   1      34.023  32.310  27.905  1.00  0.00    -0.460 OA
BRANCH  38  39
ATOM     39  C   UNL A   1      33.898  33.442  28.620  1.00  0.00     0.338 C 
ATOM     40  O   UNL A   1      33.000  34.270  28.528  1.00  0.00    -0.246 OA
BRANCH  39  41
ATOM     41  C   UNL A   1      34.923  33.421  29.686  1.00  0.00     0.060 A 
ATOM     42  C   UNL A   1      36.144  34.078  29.474  1.00  0.00     0.016 A 
ATOM     43  C   UNL A   1      34.686  32.745  30.882  1.00  0.00     0.016 A 
ATOM     44  C   UNL A   1      37.157  34.008  30.430  1.00  0.00     0.010 A 
ATOM     45  C   UNL A   1      35.713  32.655  31.827  1.00  0.00     0.010 A 
ATOM     46  C   UNL A   1      36.971  33.245  31.586  1.00  0.00    -0.014 A 
BRANCH  46  47
ATOM     47  C   UNL A   1      38.143  32.844  32.410  1.00  0.00     0.031 A 
ATOM     48  C   UNL A   1      39.141  31.901  31.786  1.00  0.00     0.074 A 
ATOM     49  C   UNL A   1      38.344  33.300  33.661  1.00  0.00     0.049 A 
ATOM     50  N   UNL A   1      40.205  31.348  32.305  1.00  0.00    -0.248 NA
ATOM     51  C   UNL A   1      38.904  31.544  30.376  1.00  0.00     0.031 C 
ATOM     52  C   UNL A   1      37.517  34.284  34.356  1.00  0.00     0.029 A 
ATOM     53  N   UNL A   1      39.289  32.946  34.594  1.00  0.00    -0.354 N 
ATOM     54  C   UNL A   1      40.781  30.608  31.278  1.00  0.00     0.074 A 
ATOM     55  C   UNL A   1      39.895  30.702  30.139  1.00  0.00     0.031 C 
ATOM     56  C   UNL A   1      37.921  34.374  35.635  1.00  0.00     0.029 A 
ATOM     57  C   UNL A   1      39.055  33.479  35.841  1.00  0.00     0.049 A 
ATOM     58  H   UNL A   1      40.060  32.369  34.389  1.00  0.00     0.167 HD
ATOM     59  C   UNL A   1      41.965  29.947  31.269  1.00  0.00     0.034 A 
ATOM     60  C   UNL A   1      39.675  33.256  37.016  1.00  0.00     0.034 A 
ATOM     61  C   UNL A   1      42.827  29.845  32.419  1.00  0.00     0.049 A 
ATOM     62  C   UNL A   1      40.907  32.388  37.035  1.00  0.00     0.074 A 
ATOM     63  C   UNL A   1      44.057  29.219  32.521  1.00  0.00     0.029 A 
ATOM     64  N   UNL A   1      42.541  30.368  33.674  1.00  0.00    -0.354 N 
ATOM     65  N   UNL A   1      41.468  31.725  36.049  1.00  0.00    -0.248 NA
ATOM     66  C   UNL A   1      41.623  32.287  38.312  1.00  0.00     0.031 C 
ATOM     67  C   UNL A   1      44.473  29.290  33.855  1.00  0.00     0.029 A 
ATOM     68  C   UNL A   1      43.554  30.046  34.565  1.00  0.00     0.049 A 
ATOM     69  H   UNL A   1      41.737  30.890  33.898  1.00  0.00     0.167 HD
ATOM     70  C   UNL A   1      42.645  31.193  36.572  1.00  0.00     0.074 A 
ATOM     71  C   UNL A   1      42.702  31.605  37.959  1.00  0.00     0.031 C 
ATOM     72  C   UNL A   1      43.603  30.458  35.950  1.00  0.00     0.034 A 
BRANCH  59  73
ATOM     73  C   UNL A   1      42.364  29.268  29.980  1.00  0.00     0.023 A 
ATOM     74  C   UNL A   1      43.322  29.830  29.115  1.00  0.00     0.031 A 
ATOM     75  C   UNL A   1      41.749  28.068  29.586  1.00  0.00     0.131 A 
ATOM     76  C   UNL A   1      43.576  29.238  27.870  1.00  0.00     0.055 A 
ATOM     77  C   UNL A   1      42.073  27.435  28.383  1.00  0.00     0.041 A 
ATOM     78  F   UNL A   1      40.807  27.497  30.353  1.00  0.00    -0.206 F 
ATOM     79  C   UNL A   1      42.980  28.029  27.510  1.00  0.00     0.022 A 
BRANCH  76  80
ATOM     80  S   UNL A   1      44.571  30.155  26.660  1.00  0.00     0.124 S 
ATOM     81  O   UNL A   1      43.554  30.966  25.996  1.00  0.00    -0.237 OA
ATOM     82  O   UNL A   1      45.512  30.878  27.509  1.00  0.00    -0.237 OA
ATOM     83  O   UNL A   1      45.158  29.103  25.832  1.00  0.00    -0.744 OA
ENDBRANCH  76  80
ENDBRANCH  59  73
BRANCH  60  84
ATOM     84  C   UNL A   1      39.162  33.875  38.272  1.00  0.00     0.023 A 
ATOM     85  C   UNL A   1      39.597  35.141  38.688  1.00  0.00     0.031 A 
ATOM     86  C   UNL A   1      38.267  33.177  39.104  1.00  0.00     0.131 A 
ATOM     87  C   UNL A   1      39.182  35.652  39.928  1.00  0.00     0.055 A 
ATOM     88  C   UNL A   1      37.820  33.709  40.314  1.00  0.00     0.041 A 
ATOM     89  F   UNL A   1      37.819  31.962  38.750  1.00  0.00    -0.206 F 
ATOM     90  C   UNL A   1      38.289  34.949  40.739  1.00  0.00     0.022 A 
BRANCH  87  91
ATOM     91  S   UNL A   1      39.898  37.216  40.503  1.00  0.00     0.124 S 
ATOM     92  O   UNL A   1      40.653  37.644  39.332  1.00  0.00    -0.237 OA
ATOM     93  O   UNL A   1      38.705  37.996  40.818  1.00  0.00    -0.237 OA
ATOM     94  O   UNL A   1      40.702  36.818  41.657  1.00  0.00    -0.744 OA
ENDBRANCH  87  91
ENDBRANCH  60  84
BRANCH  72  95
ATOM     95  C   UNL A   1      44.840  30.121  36.751  1.00  0.00     0.023 A 
ATOM     96  C   UNL A   1      44.926  28.966  37.545  1.00  0.00     0.031 A 
ATOM     97  C   UNL A   1      45.938  31.001  36.750  1.00  0.00     0.131 A 
ATOM     98  C   UNL A   1      46.044  28.764  38.368  1.00  0.00     0.055 A 
ATOM     99  C   UNL A   1      47.085  30.753  37.505  1.00  0.00     0.041 A 
ATOM    100  F   UNL A   1      45.914  32.126  36.015  1.00  0.00    -0.206 F 
ATOM    101  C   UNL A   1      47.133  29.639  38.337  1.00  0.00     0.022 A 
BRANCH  98 102
ATOM    102  S   UNL A   1      45.993  27.422  39.586  1.00  0.00     0.124 S 
ATOM    103  O   UNL A   1      45.749  28.150  40.828  1.00  0.00    -0.237 OA
ATOM    104  O   UNL A   1      44.887  26.603  39.101  1.00  0.00    -0.237 OA
ATOM    105  O   UNL A   1      47.315  26.808  39.477  1.00  0.00    -0.744 OA
ENDBRANCH  98 102
ENDBRANCH  72  95
ENDBRANCH  46  47
ENDBRANCH  39  41
ENDBRANCH  38  39
ENDBRANCH  37  38
ENDBRANCH  36  37
ENDBRANCH  35  36
ENDBRANCH  34  35
ENDBRANCH  33  34
ENDBRANCH  32  33
ENDBRANCH   1  32
TORSDOF 29
ENDMDL
MODEL 3
REMARK VINA RESULT:      -8.2      2.544      3.081
REMARK SMILES CCc1ccc(OCC(=O)Nc2cc(C)c(O)c(C(=O)OCCOCCOCCOCCOC(=O)c3ccc(-c4c5nc(c(-c6cc(S(=O)(=O)[O-])ccc6F)c6ccc([nH]6)c(-c6cc(S(=O)(=O)[O-])ccc6F)c6nc(c(-c7cc(S(=O)(=O)[O-])ccc7F)c7ccc4[nH]7)C=C6)C=C5)cc3)c2)cc1
REMARK SMILES IDX 26 1 25 2 24 3 23 4 22 5 21 6 19 7 20 8 18 9 12 10 13 11
REMARK SMILES IDX 99 12 14 13 15 14 16 15 11 16 9 17 10 18 8 20 7 21 6 22 3 23
REMARK SMILES IDX 4 24 101 25 5 26 100 27 2 28 1 29 17 30 27 32 28 33 29 34
REMARK SMILES IDX 30 35 31 36 32 37 33 38 34 39 35 40 36 41 37 42 98 43 38 44
REMARK SMILES IDX 97 45 39 46 40 47 41 48 91 49 42 50 96 51 90 52 92 53 43 54
REMARK SMILES IDX 95 55 89 56 88 57 44 59 76 60 56 61 75 62 57 63 60 64 74 65
REMARK SMILES IDX 93 66 58 67 59 68 73 70 94 71 61 72 45 73 46 74 54 75 47 76
REMARK SMILES IDX 53 77 55 78 52 79 48 80 49 81 50 82 51 83 77 84 78 85 86 86
REMARK SMILES IDX 79 87 85 88 87 89 84 90 80 91 81 92 82 93 83 94 62 95 63 96
REMARK SMILES IDX 71 97 64 98 70 99 72 100 69 101 65 102 66 103 67 104 68 105
REMARK H PARENT 11 19 17 31 92 58 60 69
REMARK Flexibility Score: inf
ROOT
ATOM      1  C   UNL A   1      33.608  25.295  23.482  1.00  0.00     0.188 C 
ENDROOT
BRANCH   1   2
ATOM      2  C   UNL A   1      34.327  23.954  23.190  1.00  0.00     0.188 C 
BRANCH   2   3
ATOM      3  O   UNL A   1      34.660  23.208  24.346  1.00  0.00    -0.376 OA
BRANCH   3   4
ATOM      4  C   UNL A   1      35.673  22.226  24.333  1.00  0.00     0.202 C 
BRANCH   4   5
ATOM      5  C   UNL A   1      36.244  21.740  25.667  1.00  0.00     0.261 C 
BRANCH   5   6
ATOM      6  O   UNL A   1      37.670  21.694  25.758  1.00  0.00    -0.460 OA
BRANCH   6   7
ATOM      7  C   UNL A   1      38.334  22.804  26.145  1.00  0.00     0.342 C 
ATOM      8  O   UNL A   1      37.882  23.928  26.281  1.00  0.00    -0.246 OA
BRANCH   7   9
ATOM      9  C   UNL A   1      39.670  22.391  26.639  1.00  0.00     0.104 A 
ATOM     10  C   UNL A   1      41.330  20.634  26.883  1.00  0.00     0.042 A 
ATOM     11  C   UNL A   1      42.018  21.451  27.789  1.00  0.00     0.033 A 
ATOM     12  C   UNL A   1      40.143  21.107  26.345  1.00  0.00     0.045 A 
ATOM     13  C   UNL A   1      41.560  22.745  28.108  1.00  0.00    -0.006 A 
ATOM     14  C   UNL A   1      42.360  23.589  29.060  1.00  0.00     0.048 C 
ATOM     15  C   UNL A   1      40.396  23.224  27.495  1.00  0.00     0.133 A 
BRANCH  10  16
ATOM     16  N   UNL A   1      41.880  19.373  26.604  1.00  0.00    -0.323 N 
ATOM     17  C   UNL A   1      42.852  18.940  25.747  1.00  0.00     0.262 C 
ATOM     18  O   UNL A   1      43.117  17.730  25.768  1.00  0.00    -0.271 OA
ATOM     19  H   UNL A   1      41.482  18.648  27.139  1.00  0.00     0.170 HD
BRANCH  17  20
ATOM     20  C   UNL A   1      43.695  19.895  24.878  1.00  0.00     0.329 C 
BRANCH  20  21
ATOM     21  O   UNL A   1      44.802  20.601  25.415  1.00  0.00    -0.484 OA
BRANCH  21  22
ATOM     22  C   UNL A   1      44.615  21.936  25.624  1.00  0.00     0.120 A 
ATOM     23  C   UNL A   1      44.359  24.659  26.199  1.00  0.00    -0.048 A 
ATOM     24  C   UNL A   1      45.281  23.874  26.902  1.00  0.00     0.007 A 
ATOM     25  C   UNL A   1      43.580  24.069  25.199  1.00  0.00     0.007 A 
ATOM     26  C   UNL A   1      45.418  22.520  26.603  1.00  0.00     0.047 A 
ATOM     27  C   UNL A   1      43.714  22.715  24.905  1.00  0.00     0.047 A 
BRANCH  23  28
ATOM     28  C   UNL A   1      44.257  26.139  26.451  1.00  0.00     0.032 C 
ATOM     29  C   UNL A   1      44.333  26.894  25.141  1.00  0.00     0.009 C 
ENDBRANCH  23  28
ENDBRANCH  21  22
ENDBRANCH  20  21
ENDBRANCH  17  20
ENDBRANCH  10  16
BRANCH  15  30
ATOM     30  O   UNL A   1      39.974  24.490  27.803  1.00  0.00    -0.507 OA
ATOM     31  H   UNL A   1      39.177  24.821  27.436  1.00  0.00     0.293 HD
ENDBRANCH  15  30
ENDBRANCH   7   9
ENDBRANCH   6   7
ENDBRANCH   5   6
ENDBRANCH   4   5
ENDBRANCH   3   4
ENDBRANCH   2   3
ENDBRANCH   1   2
BRANCH   1  32
ATOM     32  O   UNL A   1      33.409  25.790  24.806  1.00  0.00    -0.377 OA
BRANCH  32  33
ATOM     33  C   UNL A   1      33.081  27.161  24.978  1.00  0.00     0.188 C 
BRANCH  33  34
ATOM     34  C   UNL A   1      33.709  27.783  26.240  1.00  0.00     0.188 C 
BRANCH  34  35
ATOM     35  O   UNL A   1      33.867  29.192  26.138  1.00  0.00    -0.376 OA
BRANCH  35  36
ATOM     36  C   UNL A   1      34.793  29.839  26.995  1.00  0.00     0.202 C 
BRANCH  36  37
ATOM     37  C   UNL A   1      34.356  30.950  27.969  1.00  0.00     0.261 C 
BRANCH  37  38
ATOM     38  O   UNL A   1      34.268  32.290  27.464  1.00  0.00    -0.460 OA
BRANCH  38  39
ATOM     39  C   UNL A   1      33.699  33.218  28.254  1.00  0.00     0.338 C 
ATOM     40  O   UNL A   1      32.592  33.723  28.108  1.00  0.00    -0.246 OA
BRANCH  39  41
ATOM     41  C   UNL A   1      34.552  33.380  29.451  1.00  0.00     0.060 A 
ATOM     42  C   UNL A   1      34.989  34.663  29.810  1.00  0.00     0.016 A 
ATOM     43  C   UNL A   1      34.929  32.270  30.206  1.00  0.00     0.016 A 
ATOM     44  C   UNL A   1      35.859  34.835  30.888  1.00  0.00     0.010 A 
ATOM     45  C   UNL A   1      35.820  32.443  31.270  1.00  0.00     0.010 A 
ATOM     46  C   UNL A   1      36.329  33.720  31.587  1.00  0.00    -0.014 A 
BRANCH  46  47
ATOM     47  C   UNL A   1      37.526  33.840  32.461  1.00  0.00     0.031 A 
ATOM     48  C   UNL A   1      38.857  34.066  31.789  1.00  0.00     0.074 A 
ATOM     49  C   UNL A   1      37.458  33.771  33.804  1.00  0.00     0.049 A 
ATOM     50  N   UNL A   1      40.054  34.140  32.309  1.00  0.00    -0.248 NA
ATOM     51  C   UNL A   1      38.825  34.244  30.327  1.00  0.00     0.031 C 
ATOM     52  C   UNL A   1      36.233  33.650  34.593  1.00  0.00     0.029 A 
ATOM     53  N   UNL A   1      38.460  33.741  34.744  1.00  0.00    -0.354 N 
ATOM     54  C   UNL A   1      40.909  34.405  31.244  1.00  0.00     0.074 A 
ATOM     55  C   UNL A   1      40.108  34.379  30.040  1.00  0.00     0.031 C 
ATOM     56  C   UNL A   1      36.558  33.448  35.882  1.00  0.00     0.029 A 
ATOM     57  C   UNL A   1      38.012  33.457  36.014  1.00  0.00     0.049 A 
ATOM     58  H   UNL A   1      39.406  33.907  34.530  1.00  0.00     0.167 HD
ATOM     59  C   UNL A   1      42.234  34.690  31.271  1.00  0.00     0.034 A 
ATOM     60  C   UNL A   1      38.697  33.217  37.149  1.00  0.00     0.034 A 
ATOM     61  C   UNL A   1      43.023  34.691  32.477  1.00  0.00     0.049 A 
ATOM     62  C   UNL A   1      40.196  33.380  37.141  1.00  0.00     0.074 A 
ATOM     63  C   UNL A   1      44.366  34.984  32.628  1.00  0.00     0.029 A 
ATOM     64  N   UNL A   1      42.543  34.367  33.740  1.00  0.00    -0.354 N 
ATOM     65  N   UNL A   1      40.992  33.672  36.137  1.00  0.00    -0.248 NA
ATOM     66  C   UNL A   1      40.881  33.242  38.431  1.00  0.00     0.031 C 
ATOM     67  C   UNL A   1      44.716  34.755  33.963  1.00  0.00     0.029 A 
ATOM     68  C   UNL A   1      43.573  34.415  34.668  1.00  0.00     0.049 A 
ATOM     69  H   UNL A   1      41.608  34.135  33.946  1.00  0.00     0.167 HD
ATOM     70  C   UNL A   1      42.260  33.828  36.692  1.00  0.00     0.074 A 
ATOM     71  C   UNL A   1      42.119  33.586  38.113  1.00  0.00     0.031 C 
ATOM     72  C   UNL A   1      43.426  34.169  36.084  1.00  0.00     0.034 A 
BRANCH  59  73
ATOM     73  C   UNL A   1      42.899  34.993  29.949  1.00  0.00     0.023 A 
ATOM     74  C   UNL A   1      43.030  36.311  29.473  1.00  0.00     0.031 A 
ATOM     75  C   UNL A   1      43.371  33.951  29.133  1.00  0.00     0.131 A 
ATOM     76  C   UNL A   1      43.538  36.546  28.187  1.00  0.00     0.055 A 
ATOM     77  C   UNL A   1      43.960  34.198  27.891  1.00  0.00     0.041 A 
ATOM     78  F   UNL A   1      43.250  32.671  29.518  1.00  0.00    -0.206 F 
ATOM     79  C   UNL A   1      44.031  35.501  27.404  1.00  0.00     0.022 A 
BRANCH  76  80
ATOM     80  S   UNL A   1      43.397  38.215  27.489  1.00  0.00     0.124 S 
ATOM     81  O   UNL A   1      43.391  39.039  28.695  1.00  0.00    -0.237 OA
ATOM     82  O   UNL A   1      44.590  38.310  26.655  1.00  0.00    -0.237 OA
ATOM     83  O   UNL A   1      42.129  38.176  26.764  1.00  0.00    -0.744 OA
ENDBRANCH  76  80
ENDBRANCH  59  73
BRANCH  60  84
ATOM     84  C   UNL A   1      37.983  32.817  38.395  1.00  0.00     0.023 A 
ATOM     85  C   UNL A   1      37.894  33.685  39.492  1.00  0.00     0.031 A 
ATOM     86  C   UNL A   1      37.426  31.531  38.522  1.00  0.00     0.131 A 
ATOM     87  C   UNL A   1      37.312  33.243  40.691  1.00  0.00     0.055 A 
ATOM     88  C   UNL A   1      36.806  31.111  39.701  1.00  0.00     0.041 A 
ATOM     89  F   UNL A   1      37.482  30.662  37.501  1.00  0.00    -0.206 F 
ATOM     90  C   UNL A   1      36.758  31.965  40.799  1.00  0.00     0.022 A 
BRANCH  87  91
ATOM     91  S   UNL A   1      37.366  34.338  42.135  1.00  0.00     0.124 S 
ATOM     92  O   UNL A   1      36.016  34.197  42.665  1.00  0.00    -0.237 OA
ATOM     93  O   UNL A   1      38.433  33.737  42.928  1.00  0.00    -0.237 OA
ATOM     94  O   UNL A   1      37.681  35.644  41.559  1.00  0.00    -0.744 OA
ENDBRANCH  87  91
ENDBRANCH  60  84
BRANCH  72  95
ATOM     95  C   UNL A   1      44.629  34.382  36.974  1.00  0.00     0.023 A 
ATOM     96  C   UNL A   1      45.508  33.338  37.307  1.00  0.00     0.031 A 
ATOM     97  C   UNL A   1      44.874  35.651  37.532  1.00  0.00     0.131 A 
ATOM     98  C   UNL A   1      46.535  33.558  38.237  1.00  0.00     0.055 A 
ATOM     99  C   UNL A   1      45.948  35.885  38.391  1.00  0.00     0.041 A 
ATOM    100  F   UNL A   1      44.066  36.688  37.256  1.00  0.00    -0.206 F 
ATOM    101  C   UNL A   1      46.774  34.830  38.764  1.00  0.00     0.022 A 
BRANCH  98 102
ATOM    102  S   UNL A   1      47.463  32.129  38.858  1.00  0.00     0.124 S 
ATOM    103  O   UNL A   1      47.375  31.201  37.735  1.00  0.00    -0.237 OA
ATOM    104  O   UNL A   1      48.781  32.701  39.110  1.00  0.00    -0.237 OA
ATOM    105  O   UNL A   1      46.720  31.731  40.052  1.00  0.00    -0.744 OA
ENDBRANCH  98 102
ENDBRANCH  72  95
ENDBRANCH  46  47
ENDBRANCH  39  41
ENDBRANCH  38  39
ENDBRANCH  37  38
ENDBRANCH  36  37
ENDBRANCH  35  36
ENDBRANCH  34  35
ENDBRANCH  33  34
ENDBRANCH  32  33
ENDBRANCH   1  32
TORSDOF 29
ENDMDL
