MODEL 1
REMARK VINA RESULT:     -10.5      0.000      0.000
REMARK SMILES CCOc1ccc(-n2nnc(-c3nc(C)c(C(=O)OCCOCCOCCOCCOC(=O)c4ccc(-c5c6nc(c(-c7cc(S(=O)(=O)[O-])ccc7F)c7ccc([nH]7)c(-c7cc(S(=O)(=O)[O-])ccc7F)c7nc(c(-c8cc(S(=O)(=O)[O-])ccc8F)c8ccc5[nH]8)C=C7)C=C6)cc4)s3)c2C)cc1
REMARK SMILES IDX 24 1 23 2 22 3 21 4 20 5 19 6 17 7 18 8 16 9 12 10 13 11
REMARK SMILES IDX 97 12 14 13 15 14 11 15 8 16 9 17 98 18 10 19 99 20 7 21
REMARK SMILES IDX 4 22 5 23 101 24 6 25 100 26 3 27 2 28 1 29 25 30 26 31
REMARK SMILES IDX 27 32 28 33 29 34 30 35 31 36 32 37 33 38 34 39 35 40 96 41
REMARK SMILES IDX 36 42 95 43 37 44 38 45 39 46 89 47 40 48 94 49 88 50 90 51
REMARK SMILES IDX 41 52 93 53 87 54 86 55 42 57 74 58 54 59 73 60 55 61 58 62
REMARK SMILES IDX 72 63 91 64 56 65 57 66 71 68 92 69 59 70 43 71 44 72 52 73
REMARK SMILES IDX 45 74 51 75 53 76 50 77 46 78 47 79 48 80 49 81 75 82 76 83
REMARK SMILES IDX 84 84 77 85 83 86 85 87 82 88 78 89 79 90 80 91 81 92 60 93
REMARK SMILES IDX 61 94 69 95 62 96 68 97 70 98 67 99 63 100 64 101 65 102
REMARK SMILES IDX 66 103
REMARK H PARENT 90 56 58 67
REMARK Flexibility Score: inf
ROOT
ATOM      1  C   UNL A   1      31.568  26.262  26.671  1.00  0.00     0.188 C 
ENDROOT
BRANCH   1   2
ATOM      2  C   UNL A   1      32.350  24.927  26.654  1.00  0.00     0.188 C 
BRANCH   2   3
ATOM      3  O   UNL A   1      32.055  23.829  27.517  1.00  0.00    -0.376 OA
BRANCH   3   4
ATOM      4  C   UNL A   1      32.367  22.490  27.172  1.00  0.00     0.202 C 
BRANCH   4   5
ATOM      5  C   UNL A   1      33.829  22.095  26.960  1.00  0.00     0.261 C 
BRANCH   5   6
ATOM      6  O   UNL A   1      33.996  20.816  26.357  1.00  0.00    -0.459 OA
BRANCH   6   7
ATOM      7  C   UNL A   1      34.633  20.780  25.154  1.00  0.00     0.350 C 
ATOM      8  O   UNL A   1      35.380  19.886  24.778  1.00  0.00    -0.245 OA
BRANCH   7   9
ATOM      9  C   UNL A   1      34.203  21.901  24.352  1.00  0.00     0.135 A 
ATOM     10  C   UNL A   1      32.877  23.584  23.256  1.00  0.00     0.146 A 
ATOM     11  N   UNL A   1      34.147  23.906  23.136  1.00  0.00    -0.239 NA
ATOM     12  S   UNL A   1      32.578  22.007  23.852  1.00  0.00    -0.105 S 
ATOM     13  C   UNL A   1      34.925  22.947  23.791  1.00  0.00     0.064 A 
ATOM     14  C   UNL A   1      36.402  23.134  23.796  1.00  0.00     0.068 C 
BRANCH  10  15
ATOM     15  C   UNL A   1      31.733  24.524  23.120  1.00  0.00     0.145 A 
ATOM     16  N   UNL A   1      30.636  26.388  23.067  1.00  0.00    -0.217 N 
ATOM     17  N   UNL A   1      29.739  25.383  23.184  1.00  0.00    -0.061 NA
ATOM     18  C   UNL A   1      31.922  25.893  23.075  1.00  0.00     0.072 A 
ATOM     19  N   UNL A   1      30.404  24.229  23.100  1.00  0.00    -0.127 NA
ATOM     20  C   UNL A   1      33.180  26.691  23.113  1.00  0.00     0.069 C 
BRANCH  16  21
ATOM     21  C   UNL A   1      30.275  27.744  22.997  1.00  0.00     0.067 A 
ATOM     22  C   UNL A   1      29.330  30.259  22.323  1.00  0.00     0.119 A 
ATOM     23  C   UNL A   1      30.681  29.949  22.134  1.00  0.00     0.048 A 
ATOM     24  C   UNL A   1      28.461  29.318  22.868  1.00  0.00     0.048 A 
ATOM     25  C   UNL A   1      31.171  28.687  22.490  1.00  0.00     0.032 A 
ATOM     26  C   UNL A   1      28.940  28.076  23.244  1.00  0.00     0.032 A 
BRANCH  22  27
ATOM     27  O   UNL A   1      28.853  31.445  21.838  1.00  0.00    -0.494 OA
BRANCH  27  28
ATOM     28  C   UNL A   1      28.114  31.301  20.619  1.00  0.00     0.226 C 
ATOM     29  C   UNL A   1      27.630  32.630  20.056  1.00  0.00     0.049 C 
ENDBRANCH  27  28
ENDBRANCH  22  27
ENDBRANCH  16  21
ENDBRANCH  10  15
ENDBRANCH   7   9
ENDBRANCH   6   7
ENDBRANCH   5   6
ENDBRANCH   4   5
ENDBRANCH   3   4
ENDBRANCH   2   3
ENDBRANCH   1   2
BRANCH   1  30
ATOM     30  O   UNL A   1      32.232  27.329  27.322  1.00  0.00    -0.377 OA
BRANCH  30  31
ATOM     31  C   UNL A   1      32.612  28.390  26.442  1.00  0.00     0.188 C 
BRANCH  31  32
ATOM     32  C   UNL A   1      32.143  29.818  26.829  1.00  0.00     0.188 C 
BRANCH  32  33
ATOM     33  O   UNL A   1      33.096  30.568  27.583  1.00  0.00    -0.376 OA
BRANCH  33  34
ATOM     34  C   UNL A   1      34.490  30.458  27.332  1.00  0.00     0.202 C 
BRANCH  34  35
ATOM     35  C   UNL A   1      35.376  31.440  28.094  1.00  0.00     0.261 C 
BRANCH  35  36
ATOM     36  O   UNL A   1      36.739  31.066  28.081  1.00  0.00    -0.460 OA
BRANCH  36  37
ATOM     37  C   UNL A   1      37.119  30.273  29.102  1.00  0.00     0.338 C 
ATOM     38  O   UNL A   1      36.940  30.462  30.292  1.00  0.00    -0.246 OA
BRANCH  37  39
ATOM     39  C   UNL A   1      37.869  29.147  28.549  1.00  0.00     0.060 A 
ATOM     40  C   UNL A   1      38.219  28.169  29.478  1.00  0.00     0.016 A 
ATOM     41  C   UNL A   1      38.582  29.378  27.365  1.00  0.00     0.016 A 
ATOM     42  C   UNL A   1      39.496  27.685  29.411  1.00  0.00     0.010 A 
ATOM     43  C   UNL A   1      39.870  28.942  27.332  1.00  0.00     0.010 A 
ATOM     44  C   UNL A   1      40.330  28.191  28.412  1.00  0.00    -0.014 A 
BRANCH  44  45
ATOM     45  C   UNL A   1      41.728  27.853  28.464  1.00  0.00     0.031 A 
ATOM     46  C   UNL A   1      41.972  26.572  27.789  1.00  0.00     0.074 A 
ATOM     47  C   UNL A   1      42.643  28.708  28.949  1.00  0.00     0.049 A 
ATOM     48  N   UNL A   1      42.112  25.409  28.334  1.00  0.00    -0.248 NA
ATOM     49  C   UNL A   1      41.711  26.526  26.337  1.00  0.00     0.031 C 
ATOM     50  C   UNL A   1      42.438  30.116  29.312  1.00  0.00     0.029 A 
ATOM     51  N   UNL A   1      43.981  28.539  29.103  1.00  0.00    -0.354 N 
ATOM     52  C   UNL A   1      42.279  24.556  27.252  1.00  0.00     0.074 A 
ATOM     53  C   UNL A   1      41.656  25.210  26.142  1.00  0.00     0.031 C 
ATOM     54  C   UNL A   1      43.641  30.723  29.419  1.00  0.00     0.029 A 
ATOM     55  C   UNL A   1      44.688  29.725  29.261  1.00  0.00     0.049 A 
ATOM     56  H   UNL A   1      44.413  27.654  29.103  1.00  0.00     0.167 HD
ATOM     57  C   UNL A   1      43.294  23.651  27.251  1.00  0.00     0.034 A 
ATOM     58  C   UNL A   1      46.035  29.875  29.174  1.00  0.00     0.034 A 
ATOM     59  C   UNL A   1      43.809  23.481  28.595  1.00  0.00     0.049 A 
ATOM     60  C   UNL A   1      46.639  28.533  29.379  1.00  0.00     0.074 A 
ATOM     61  C   UNL A   1      43.342  22.938  29.773  1.00  0.00     0.029 A 
ATOM     62  N   UNL A   1      44.864  24.306  28.916  1.00  0.00    -0.354 N 
ATOM     63  N   UNL A   1      46.533  27.865  30.496  1.00  0.00    -0.248 NA
ATOM     64  C   UNL A   1      47.007  27.726  28.219  1.00  0.00     0.031 C 
ATOM     65  C   UNL A   1      44.020  23.627  30.821  1.00  0.00     0.029 A 
ATOM     66  C   UNL A   1      44.916  24.542  30.266  1.00  0.00     0.049 A 
ATOM     67  H   UNL A   1      45.497  24.678  28.262  1.00  0.00     0.167 HD
ATOM     68  C   UNL A   1      46.402  26.542  30.113  1.00  0.00     0.074 A 
ATOM     69  C   UNL A   1      46.867  26.499  28.733  1.00  0.00     0.031 C 
ATOM     70  C   UNL A   1      45.632  25.676  30.834  1.00  0.00     0.034 A 
BRANCH  57  71
ATOM     71  C   UNL A   1      44.153  23.321  26.036  1.00  0.00     0.023 A 
ATOM     72  C   UNL A   1      44.142  21.978  25.616  1.00  0.00     0.031 A 
ATOM     73  C   UNL A   1      45.159  24.128  25.449  1.00  0.00     0.131 A 
ATOM     74  C   UNL A   1      45.141  21.473  24.766  1.00  0.00     0.055 A 
ATOM     75  C   UNL A   1      46.129  23.630  24.577  1.00  0.00     0.041 A 
ATOM     76  F   UNL A   1      45.328  25.425  25.721  1.00  0.00    -0.206 F 
ATOM     77  C   UNL A   1      46.145  22.289  24.253  1.00  0.00     0.022 A 
BRANCH  74  78
ATOM     78  S   UNL A   1      45.185  19.695  24.450  1.00  0.00     0.124 S 
ATOM     79  O   UNL A   1      46.613  19.412  24.542  1.00  0.00    -0.237 OA
ATOM     80  O   UNL A   1      44.351  19.181  25.530  1.00  0.00    -0.237 OA
ATOM     81  O   UNL A   1      44.612  19.578  23.111  1.00  0.00    -0.744 OA
ENDBRANCH  74  78
ENDBRANCH  57  71
BRANCH  58  82
ATOM     82  C   UNL A   1      46.760  31.035  28.587  1.00  0.00     0.023 A 
ATOM     83  C   UNL A   1      46.221  31.841  27.565  1.00  0.00     0.031 A 
ATOM     84  C   UNL A   1      47.943  31.500  29.207  1.00  0.00     0.131 A 
ATOM     85  C   UNL A   1      46.861  33.051  27.204  1.00  0.00     0.055 A 
ATOM     86  C   UNL A   1      48.575  32.690  28.839  1.00  0.00     0.041 A 
ATOM     87  F   UNL A   1      48.483  30.850  30.249  1.00  0.00    -0.206 F 
ATOM     88  C   UNL A   1      48.030  33.477  27.839  1.00  0.00     0.022 A 
BRANCH  85  89
ATOM     89  S   UNL A   1      46.132  34.137  25.934  1.00  0.00     0.124 S 
ATOM     90  O   UNL A   1      47.304  34.575  25.186  1.00  0.00    -0.237 OA
ATOM     91  O   UNL A   1      45.219  33.235  25.243  1.00  0.00    -0.237 OA
ATOM     92  O   UNL A   1      45.478  35.188  26.716  1.00  0.00    -0.744 OA
ENDBRANCH  85  89
ENDBRANCH  58  82
BRANCH  70  93
ATOM     93  C   UNL A   1      45.418  25.983  32.297  1.00  0.00     0.023 A 
ATOM     94  C   UNL A   1      46.321  25.686  33.341  1.00  0.00     0.031 A 
ATOM     95  C   UNL A   1      44.242  26.681  32.626  1.00  0.00     0.131 A 
ATOM     96  C   UNL A   1      46.023  26.092  34.658  1.00  0.00     0.055 A 
ATOM     97  C   UNL A   1      43.962  27.099  33.924  1.00  0.00     0.041 A 
ATOM     98  F   UNL A   1      43.352  27.001  31.672  1.00  0.00    -0.206 F 
ATOM     99  C   UNL A   1      44.851  26.801  34.948  1.00  0.00     0.022 A 
BRANCH  96 100
ATOM    100  S   UNL A   1      47.147  25.689  36.034  1.00  0.00     0.124 S 
ATOM    101  O   UNL A   1      48.304  25.101  35.368  1.00  0.00    -0.237 OA
ATOM    102  O   UNL A   1      47.361  26.992  36.657  1.00  0.00    -0.237 OA
ATOM    103  O   UNL A   1      46.370  24.749  36.845  1.00  0.00    -0.744 OA
ENDBRANCH  96 100
ENDBRANCH  70  93
ENDBRANCH  44  45
ENDBRANCH  37  39
ENDBRANCH  36  37
ENDBRANCH  35  36
ENDBRANCH  34  35
ENDBRANCH  33  34
ENDBRANCH  32  33
ENDBRANCH  31  32
ENDBRANCH  30  31
ENDBRANCH   1  30
TORSDOF 27
ENDMDL
MODEL 2
REMARK VINA RESULT:      -9.1      1.956      2.266
REMARK SMILES CCOc1ccc(-n2nnc(-c3nc(C)c(C(=O)OCCOCCOCCOCCOC(=O)c4ccc(-c5c6nc(c(-c7cc(S(=O)(=O)[O-])ccc7F)c7ccc([nH]7)c(-c7cc(S(=O)(=O)[O-])ccc7F)c7nc(c(-c8cc(S(=O)(=O)[O-])ccc8F)c8ccc5[nH]8)C=C7)C=C6)cc4)s3)c2C)cc1
REMARK SMILES IDX 24 1 23 2 22 3 21 4 20 5 19 6 17 7 18 8 16 9 12 10 13 11
REMARK SMILES IDX 97 12 14 13 15 14 11 15 8 16 9 17 98 18 10 19 99 20 7 21
REMARK SMILES IDX 4 22 5 23 101 24 6 25 100 26 3 27 2 28 1 29 25 30 26 31
REMARK SMILES IDX 27 32 28 33 29 34 30 35 31 36 32 37 33 38 34 39 35 40 96 41
REMARK SMILES IDX 36 42 95 43 37 44 38 45 39 46 89 47 40 48 94 49 88 50 90 51
REMARK SMILES IDX 41 52 93 53 87 54 86 55 42 57 74 58 54 59 73 60 55 61 58 62
REMARK SMILES IDX 72 63 91 64 56 65 57 66 71 68 92 69 59 70 43 71 44 72 52 73
REMARK SMILES IDX 45 74 51 75 53 76 50 77 46 78 47 79 48 80 49 81 75 82 76 83
REMARK SMILES IDX 84 84 77 85 83 86 85 87 82 88 78 89 79 90 80 91 81 92 60 93
REMARK SMILES IDX 61 94 69 95 62 96 68 97 70 98 67 99 63 100 64 101 65 102
REMARK SMILES IDX 66 103
REMARK H PARENT 90 56 58 67
REMARK Flexibility Score: inf
ROOT
ATOM      1  C   UNL A   1      31.738  26.772  26.512  1.00  0.00     0.188 C 
ENDROOT
BRANCH   1   2
ATOM      2  C   UNL A   1      32.290  25.361  26.829  1.00  0.00     0.188 C 
BRANCH   2   3
ATOM      3  O   UNL A   1      31.517  24.332  27.445  1.00  0.00    -0.376 OA
BRANCH   3   4
ATOM      4  C   UNL A   1      31.372  23.045  26.866  1.00  0.00     0.202 C 
BRANCH   4   5
ATOM      5  C   UNL A   1      32.612  22.174  26.665  1.00  0.00     0.261 C 
BRANCH   5   6
ATOM      6  O   UNL A   1      32.436  21.138  25.704  1.00  0.00    -0.459 OA
BRANCH   6   7
ATOM      7  C   UNL A   1      33.104  21.271  24.525  1.00  0.00     0.350 C 
ATOM      8  O   UNL A   1      33.715  20.374  23.956  1.00  0.00    -0.245 OA
BRANCH   7   9
ATOM      9  C   UNL A   1      32.886  22.597  23.998  1.00  0.00     0.135 A 
ATOM     10  C   UNL A   1      31.873  24.641  23.232  1.00  0.00     0.146 A 
ATOM     11  N   UNL A   1      33.169  24.834  23.350  1.00  0.00    -0.239 NA
ATOM     12  S   UNL A   1      31.364  23.011  23.356  1.00  0.00    -0.105 S 
ATOM     13  C   UNL A   1      33.764  23.659  23.819  1.00  0.00     0.064 A 
ATOM     14  C   UNL A   1      35.236  23.667  24.047  1.00  0.00     0.068 C 
BRANCH  10  15
ATOM     15  C   UNL A   1      30.841  25.711  23.212  1.00  0.00     0.145 A 
ATOM     16  N   UNL A   1      29.970  27.685  23.052  1.00  0.00    -0.217 N 
ATOM     17  N   UNL A   1      29.056  26.875  23.631  1.00  0.00    -0.061 NA
ATOM     18  C   UNL A   1      31.142  27.001  22.815  1.00  0.00     0.072 A 
ATOM     19  N   UNL A   1      29.546  25.634  23.624  1.00  0.00    -0.127 NA
ATOM     20  C   UNL A   1      32.426  27.581  22.327  1.00  0.00     0.069 C 
BRANCH  16  21
ATOM     21  C   UNL A   1      29.742  29.046  22.786  1.00  0.00     0.067 A 
ATOM     22  C   UNL A   1      28.772  31.630  22.558  1.00  0.00     0.119 A 
ATOM     23  C   UNL A   1      28.647  30.743  21.484  1.00  0.00     0.048 A 
ATOM     24  C   UNL A   1      29.401  31.230  23.733  1.00  0.00     0.048 A 
ATOM     25  C   UNL A   1      29.152  29.440  21.585  1.00  0.00     0.032 A 
ATOM     26  C   UNL A   1      29.924  29.954  23.834  1.00  0.00     0.032 A 
BRANCH  22  27
ATOM     27  O   UNL A   1      28.148  32.844  22.483  1.00  0.00    -0.494 OA
BRANCH  27  28
ATOM     28  C   UNL A   1      27.566  33.103  21.200  1.00  0.00     0.226 C 
ATOM     29  C   UNL A   1      28.375  32.517  20.050  1.00  0.00     0.049 C 
ENDBRANCH  27  28
ENDBRANCH  22  27
ENDBRANCH  16  21
ENDBRANCH  10  15
ENDBRANCH   7   9
ENDBRANCH   6   7
ENDBRANCH   5   6
ENDBRANCH   4   5
ENDBRANCH   3   4
ENDBRANCH   2   3
ENDBRANCH   1   2
BRANCH   1  30
ATOM     30  O   UNL A   1      32.321  27.818  27.265  1.00  0.00    -0.377 OA
BRANCH  30  31
ATOM     31  C   UNL A   1      32.770  28.917  26.468  1.00  0.00     0.188 C 
BRANCH  31  32
ATOM     32  C   UNL A   1      32.418  30.339  26.979  1.00  0.00     0.188 C 
BRANCH  32  33
ATOM     33  O   UNL A   1      33.460  30.977  27.717  1.00  0.00    -0.376 OA
BRANCH  33  34
ATOM     34  C   UNL A   1      34.829  30.740  27.418  1.00  0.00     0.202 C 
BRANCH  34  35
ATOM     35  C   UNL A   1      35.827  31.630  28.154  1.00  0.00     0.261 C 
BRANCH  35  36
ATOM     36  O   UNL A   1      37.097  31.026  28.292  1.00  0.00    -0.460 OA
BRANCH  36  37
ATOM     37  C   UNL A   1      37.170  30.069  29.239  1.00  0.00     0.338 C 
ATOM     38  O   UNL A   1      36.701  30.103  30.362  1.00  0.00    -0.246 OA
BRANCH  37  39
ATOM     39  C   UNL A   1      37.989  28.976  28.718  1.00  0.00     0.060 A 
ATOM     40  C   UNL A   1      38.352  28.021  29.666  1.00  0.00     0.016 A 
ATOM     41  C   UNL A   1      38.729  29.232  27.557  1.00  0.00     0.016 A 
ATOM     42  C   UNL A   1      39.652  27.596  29.644  1.00  0.00     0.010 A 
ATOM     43  C   UNL A   1      40.037  28.856  27.570  1.00  0.00     0.010 A 
ATOM     44  C   UNL A   1      40.494  28.134  28.669  1.00  0.00    -0.014 A 
BRANCH  44  45
ATOM     45  C   UNL A   1      41.904  27.861  28.770  1.00  0.00     0.031 A 
ATOM     46  C   UNL A   1      42.214  26.544  28.198  1.00  0.00     0.074 A 
ATOM     47  C   UNL A   1      42.773  28.788  29.202  1.00  0.00     0.049 A 
ATOM     48  N   UNL A   1      42.391  25.433  28.833  1.00  0.00    -0.248 NA
ATOM     49  C   UNL A   1      41.983  26.378  26.750  1.00  0.00     0.031 C 
ATOM     50  C   UNL A   1      42.503  30.209  29.454  1.00  0.00     0.029 A 
ATOM     51  N   UNL A   1      44.113  28.689  29.390  1.00  0.00    -0.354 N 
ATOM     52  C   UNL A   1      42.615  24.508  27.821  1.00  0.00     0.074 A 
ATOM     53  C   UNL A   1      41.987  25.050  26.655  1.00  0.00     0.031 C 
ATOM     54  C   UNL A   1      43.677  30.874  29.534  1.00  0.00     0.029 A 
ATOM     55  C   UNL A   1      44.768  29.913  29.469  1.00  0.00     0.049 A 
ATOM     56  H   UNL A   1      44.582  27.826  29.465  1.00  0.00     0.167 HD
ATOM     57  C   UNL A   1      43.667  23.650  27.906  1.00  0.00     0.034 A 
ATOM     58  C   UNL A   1      46.109  30.114  29.393  1.00  0.00     0.034 A 
ATOM     59  C   UNL A   1      44.162  23.605  29.267  1.00  0.00     0.049 A 
ATOM     60  C   UNL A   1      46.763  28.818  29.709  1.00  0.00     0.074 A 
ATOM     61  C   UNL A   1      43.695  23.132  30.475  1.00  0.00     0.029 A 
ATOM     62  N   UNL A   1      45.175  24.496  29.542  1.00  0.00    -0.354 N 
ATOM     63  N   UNL A   1      46.664  28.233  30.873  1.00  0.00    -0.248 NA
ATOM     64  C   UNL A   1      47.187  27.942  28.620  1.00  0.00     0.031 C 
ATOM     65  C   UNL A   1      44.324  23.927  31.479  1.00  0.00     0.029 A 
ATOM     66  C   UNL A   1      45.191  24.835  30.870  1.00  0.00     0.049 A 
ATOM     67  H   UNL A   1      45.805  24.845  28.871  1.00  0.00     0.167 HD
ATOM     68  C   UNL A   1      46.596  26.880  30.589  1.00  0.00     0.074 A 
ATOM     69  C   UNL A   1      47.089  26.753  29.224  1.00  0.00     0.031 C 
ATOM     70  C   UNL A   1      45.848  26.039  31.362  1.00  0.00     0.034 A 
BRANCH  57  71
ATOM     71  C   UNL A   1      44.561  23.267  26.734  1.00  0.00     0.023 A 
ATOM     72  C   UNL A   1      45.563  24.195  26.390  1.00  0.00     0.031 A 
ATOM     73  C   UNL A   1      44.344  22.237  25.786  1.00  0.00     0.131 A 
ATOM     74  C   UNL A   1      46.201  24.146  25.139  1.00  0.00     0.055 A 
ATOM     75  C   UNL A   1      45.007  22.172  24.558  1.00  0.00     0.041 A 
ATOM     76  F   UNL A   1      43.439  21.266  25.935  1.00  0.00    -0.206 F 
ATOM     77  C   UNL A   1      45.919  23.147  24.213  1.00  0.00     0.022 A 
BRANCH  74  78
ATOM     78  S   UNL A   1      47.312  25.498  24.686  1.00  0.00     0.124 S 
ATOM     79  O   UNL A   1      46.383  26.613  24.547  1.00  0.00    -0.237 OA
ATOM     80  O   UNL A   1      48.210  25.540  25.834  1.00  0.00    -0.237 OA
ATOM     81  O   UNL A   1      47.917  25.031  23.440  1.00  0.00    -0.744 OA
ENDBRANCH  74  78
ENDBRANCH  57  71
BRANCH  58  82
ATOM     82  C   UNL A   1      46.796  31.256  28.731  1.00  0.00     0.023 A 
ATOM     83  C   UNL A   1      46.226  31.985  27.668  1.00  0.00     0.031 A 
ATOM     84  C   UNL A   1      47.970  31.790  29.311  1.00  0.00     0.131 A 
ATOM     85  C   UNL A   1      46.829  33.188  27.230  1.00  0.00     0.055 A 
ATOM     86  C   UNL A   1      48.566  32.973  28.867  1.00  0.00     0.041 A 
ATOM     87  F   UNL A   1      48.537  31.219  30.385  1.00  0.00    -0.206 F 
ATOM     88  C   UNL A   1      47.991  33.683  27.828  1.00  0.00     0.022 A 
BRANCH  85  89
ATOM     89  S   UNL A   1      46.060  34.176  25.905  1.00  0.00     0.124 S 
ATOM     90  O   UNL A   1      45.341  33.166  25.138  1.00  0.00    -0.237 OA
ATOM     91  O   UNL A   1      45.246  35.122  26.658  1.00  0.00    -0.237 OA
ATOM     92  O   UNL A   1      47.205  34.770  25.212  1.00  0.00    -0.744 OA
ENDBRANCH  85  89
ENDBRANCH  58  82
BRANCH  70  93
ATOM     93  C   UNL A   1      45.593  26.445  32.794  1.00  0.00     0.023 A 
ATOM     94  C   UNL A   1      44.458  27.141  33.263  1.00  0.00     0.031 A 
ATOM     95  C   UNL A   1      46.548  26.033  33.741  1.00  0.00     0.131 A 
ATOM     96  C   UNL A   1      44.317  27.396  34.643  1.00  0.00     0.055 A 
ATOM     97  C   UNL A   1      46.394  26.268  35.104  1.00  0.00     0.041 A 
ATOM     98  F   UNL A   1      47.642  25.357  33.353  1.00  0.00    -0.206 F 
ATOM     99  C   UNL A   1      45.278  26.957  35.560  1.00  0.00     0.022 A 
BRANCH  96 100
ATOM    100  S   UNL A   1      42.885  28.327  35.275  1.00  0.00     0.124 S 
ATOM    101  O   UNL A   1      42.318  28.937  34.078  1.00  0.00    -0.237 OA
ATOM    102  O   UNL A   1      42.082  27.280  35.902  1.00  0.00    -0.237 OA
ATOM    103  O   UNL A   1      43.484  29.276  36.217  1.00  0.00    -0.744 OA
ENDBRANCH  96 100
ENDBRANCH  70  93
ENDBRANCH  44  45
ENDBRANCH  37  39
ENDBRANCH  36  37
ENDBRANCH  35  36
ENDBRANCH  34  35
ENDBRANCH  33  34
ENDBRANCH  32  33
ENDBRANCH  31  32
ENDBRANCH  30  31
ENDBRANCH   1  30
TORSDOF 27
ENDMDL
MODEL 3
REMARK VINA RESULT:      -8.5      4.770     10.566
REMARK SMILES CCOc1ccc(-n2nnc(-c3nc(C)c(C(=O)OCCOCCOCCOCCOC(=O)c4ccc(-c5c6nc(c(-c7cc(S(=O)(=O)[O-])ccc7F)c7ccc([nH]7)c(-c7cc(S(=O)(=O)[O-])ccc7F)c7nc(c(-c8cc(S(=O)(=O)[O-])ccc8F)c8ccc5[nH]8)C=C7)C=C6)cc4)s3)c2C)cc1
REMARK SMILES IDX 24 1 23 2 22 3 21 4 20 5 19 6 17 7 18 8 16 9 12 10 13 11
REMARK SMILES IDX 97 12 14 13 15 14 11 15 8 16 9 17 98 18 10 19 99 20 7 21
REMARK SMILES IDX 4 22 5 23 101 24 6 25 100 26 3 27 2 28 1 29 25 30 26 31
REMARK SMILES IDX 27 32 28 33 29 34 30 35 31 36 32 37 33 38 34 39 35 40 96 41
REMARK SMILES IDX 36 42 95 43 37 44 38 45 39 46 89 47 40 48 94 49 88 50 90 51
REMARK SMILES IDX 41 52 93 53 87 54 86 55 42 57 74 58 54 59 73 60 55 61 58 62
REMARK SMILES IDX 72 63 91 64 56 65 57 66 71 68 92 69 59 70 43 71 44 72 52 73
REMARK SMILES IDX 45 74 51 75 53 76 50 77 46 78 47 79 48 80 49 81 75 82 76 83
REMARK SMILES IDX 84 84 77 85 83 86 85 87 82 88 78 89 79 90 80 91 81 92 60 93
REMARK SMILES IDX 61 94 69 95 62 96 68 97 70 98 67 99 63 100 64 101 65 102
REMARK SMILES IDX 66 103
REMARK H PARENT 90 56 58 67
REMARK Flexibility Score: inf
ROOT
ATOM      1  C   UNL A   1      43.498  22.548  24.685  1.00  0.00     0.188 C 
ENDROOT
BRANCH   1   2
ATOM      2  C   UNL A   1      44.467  21.670  25.513  1.00  0.00     0.188 C 
BRANCH   2   3
ATOM      3  O   UNL A   1      45.135  20.523  24.987  1.00  0.00    -0.376 OA
BRANCH   3   4
ATOM      4  C   UNL A   1      44.437  19.347  24.612  1.00  0.00     0.202 C 
BRANCH   4   5
ATOM      5  C   UNL A   1      43.692  18.548  25.681  1.00  0.00     0.261 C 
BRANCH   5   6
ATOM      6  O   UNL A   1      42.295  18.819  25.730  1.00  0.00    -0.459 OA
BRANCH   6   7
ATOM      7  C   UNL A   1      41.814  19.378  26.874  1.00  0.00     0.350 C 
ATOM      8  O   UNL A   1      42.254  19.173  27.998  1.00  0.00    -0.245 OA
BRANCH   7   9
ATOM      9  C   UNL A   1      40.781  20.331  26.543  1.00  0.00     0.135 A 
ATOM     10  C   UNL A   1      38.749  21.360  25.768  1.00  0.00     0.146 A 
ATOM     11  N   UNL A   1      39.414  22.238  26.487  1.00  0.00    -0.239 NA
ATOM     12  S   UNL A   1      39.614  19.937  25.367  1.00  0.00    -0.105 S 
ATOM     13  C   UNL A   1      40.586  21.642  26.963  1.00  0.00     0.064 A 
ATOM     14  C   UNL A   1      41.482  22.460  27.825  1.00  0.00     0.068 C 
BRANCH  10  15
ATOM     15  C   UNL A   1      37.293  21.416  25.470  1.00  0.00     0.145 A 
ATOM     16  N   UNL A   1      35.266  22.169  25.401  1.00  0.00    -0.217 N 
ATOM     17  N   UNL A   1      35.226  20.846  25.124  1.00  0.00    -0.061 NA
ATOM     18  C   UNL A   1      36.555  22.567  25.679  1.00  0.00     0.072 A 
ATOM     19  N   UNL A   1      36.483  20.405  25.052  1.00  0.00    -0.127 NA
ATOM     20  C   UNL A   1      36.984  23.907  26.170  1.00  0.00     0.069 C 
BRANCH  16  21
ATOM     21  C   UNL A   1      34.124  22.987  25.438  1.00  0.00     0.067 A 
ATOM     22  C   UNL A   1      32.107  24.788  26.037  1.00  0.00     0.119 A 
ATOM     23  C   UNL A   1      31.921  23.425  26.290  1.00  0.00     0.048 A 
ATOM     24  C   UNL A   1      33.291  25.243  25.466  1.00  0.00     0.048 A 
ATOM     25  C   UNL A   1      32.928  22.506  25.972  1.00  0.00     0.032 A 
ATOM     26  C   UNL A   1      34.283  24.341  25.127  1.00  0.00     0.032 A 
BRANCH  22  27
ATOM     27  O   UNL A   1      31.168  25.674  26.487  1.00  0.00    -0.494 OA
BRANCH  27  28
ATOM     28  C   UNL A   1      29.951  25.640  25.730  1.00  0.00     0.226 C 
ATOM     29  C   UNL A   1      29.970  26.579  24.530  1.00  0.00     0.049 C 
ENDBRANCH  27  28
ENDBRANCH  22  27
ENDBRANCH  16  21
ENDBRANCH  10  15
ENDBRANCH   7   9
ENDBRANCH   6   7
ENDBRANCH   5   6
ENDBRANCH   4   5
ENDBRANCH   3   4
ENDBRANCH   2   3
ENDBRANCH   1   2
BRANCH   1  30
ATOM     30  O   UNL A   1      43.854  23.916  24.612  1.00  0.00    -0.377 OA
BRANCH  30  31
ATOM     31  C   UNL A   1      45.226  24.167  24.926  1.00  0.00     0.188 C 
BRANCH  31  32
ATOM     32  C   UNL A   1      45.563  25.566  25.507  1.00  0.00     0.188 C 
BRANCH  32  33
ATOM     33  O   UNL A   1      45.623  25.615  26.933  1.00  0.00    -0.376 OA
BRANCH  33  34
ATOM     34  C   UNL A   1      44.633  24.990  27.737  1.00  0.00     0.202 C 
BRANCH  34  35
ATOM     35  C   UNL A   1      43.910  25.904  28.722  1.00  0.00     0.261 C 
BRANCH  35  36
ATOM     36  O   UNL A   1      43.525  25.234  29.905  1.00  0.00    -0.460 OA
BRANCH  36  37
ATOM     37  C   UNL A   1      44.534  24.967  30.758  1.00  0.00     0.338 C 
ATOM     38  O   UNL A   1      45.272  23.999  30.751  1.00  0.00    -0.246 OA
BRANCH  37  39
ATOM     39  C   UNL A   1      44.561  26.018  31.774  1.00  0.00     0.060 A 
ATOM     40  C   UNL A   1      43.377  26.160  32.495  1.00  0.00     0.016 A 
ATOM     41  C   UNL A   1      45.483  27.056  31.590  1.00  0.00     0.016 A 
ATOM     42  C   UNL A   1      42.933  27.436  32.702  1.00  0.00     0.010 A 
ATOM     43  C   UNL A   1      45.014  28.324  31.744  1.00  0.00     0.010 A 
ATOM     44  C   UNL A   1      43.707  28.483  32.198  1.00  0.00    -0.014 A 
BRANCH  44  45
ATOM     45  C   UNL A   1      43.146  29.809  32.220  1.00  0.00     0.031 A 
ATOM     46  C   UNL A   1      42.805  30.199  33.595  1.00  0.00     0.074 A 
ATOM     47  C   UNL A   1      43.108  30.578  31.120  1.00  0.00     0.049 A 
ATOM     48  N   UNL A   1      41.642  30.163  34.157  1.00  0.00    -0.248 NA
ATOM     49  C   UNL A   1      43.927  30.336  34.544  1.00  0.00     0.031 C 
ATOM     50  C   UNL A   1      43.754  30.312  29.829  1.00  0.00     0.029 A 
ATOM     51  N   UNL A   1      42.590  31.821  30.958  1.00  0.00    -0.354 N 
ATOM     52  C   UNL A   1      41.889  30.597  35.452  1.00  0.00     0.074 A 
ATOM     53  C   UNL A   1      43.269  30.308  35.701  1.00  0.00     0.031 C 
ATOM     54  C   UNL A   1      43.782  31.454  29.106  1.00  0.00     0.029 A 
ATOM     55  C   UNL A   1      43.050  32.484  29.826  1.00  0.00     0.049 A 
ATOM     56  H   UNL A   1      41.945  32.219  31.587  1.00  0.00     0.167 HD
ATOM     57  C   UNL A   1      41.102  31.556  36.009  1.00  0.00     0.034 A 
ATOM     58  C   UNL A   1      42.908  33.808  29.557  1.00  0.00     0.034 A 
ATOM     59  C   UNL A   1      39.872  31.688  35.255  1.00  0.00     0.049 A 
ATOM     60  C   UNL A   1      41.787  34.307  30.395  1.00  0.00     0.074 A 
ATOM     61  C   UNL A   1      38.753  30.911  35.042  1.00  0.00     0.029 A 
ATOM     62  N   UNL A   1      39.907  32.635  34.255  1.00  0.00    -0.354 N 
ATOM     63  N   UNL A   1      40.555  33.892  30.262  1.00  0.00    -0.248 NA
ATOM     64  C   UNL A   1      42.076  34.956  31.671  1.00  0.00     0.031 C 
ATOM     65  C   UNL A   1      38.241  31.297  33.768  1.00  0.00     0.029 A 
ATOM     66  C   UNL A   1      39.027  32.328  33.250  1.00  0.00     0.049 A 
ATOM     67  H   UNL A   1      40.489  33.428  34.262  1.00  0.00     0.167 HD
ATOM     68  C   UNL A   1      40.052  33.841  31.550  1.00  0.00     0.074 A 
ATOM     69  C   UNL A   1      40.960  34.658  32.344  1.00  0.00     0.031 C 
ATOM     70  C   UNL A   1      39.144  32.888  31.911  1.00  0.00     0.034 A 
BRANCH  57  71
ATOM     71  C   UNL A   1      41.620  32.702  36.869  1.00  0.00     0.023 A 
ATOM     72  C   UNL A   1      40.892  32.975  38.042  1.00  0.00     0.031 A 
ATOM     73  C   UNL A   1      42.569  33.691  36.506  1.00  0.00     0.131 A 
ATOM     74  C   UNL A   1      41.031  34.200  38.717  1.00  0.00     0.055 A 
ATOM     75  C   UNL A   1      42.730  34.892  37.200  1.00  0.00     0.041 A 
ATOM     76  F   UNL A   1      43.354  33.610  35.428  1.00  0.00    -0.206 F 
ATOM     77  C   UNL A   1      41.938  35.168  38.296  1.00  0.00     0.022 A 
BRANCH  74  78
ATOM     78  S   UNL A   1      39.905  34.563  40.083  1.00  0.00     0.124 S 
ATOM     79  O   UNL A   1      39.414  33.234  40.425  1.00  0.00    -0.237 OA
ATOM     80  O   UNL A   1      40.802  35.192  41.047  1.00  0.00    -0.237 OA
ATOM     81  O   UNL A   1      38.920  35.455  39.476  1.00  0.00    -0.744 OA
ENDBRANCH  74  78
ENDBRANCH  57  71
BRANCH  58  82
ATOM     82  C   UNL A   1      43.907  34.687  28.892  1.00  0.00     0.023 A 
ATOM     83  C   UNL A   1      45.242  34.804  29.330  1.00  0.00     0.031 A 
ATOM     84  C   UNL A   1      43.595  35.273  27.643  1.00  0.00     0.131 A 
ATOM     85  C   UNL A   1      46.194  35.481  28.532  1.00  0.00     0.055 A 
ATOM     86  C   UNL A   1      44.537  35.949  26.864  1.00  0.00     0.041 A 
ATOM     87  F   UNL A   1      42.376  35.139  27.098  1.00  0.00    -0.206 F 
ATOM     88  C   UNL A   1      45.846  36.048  27.303  1.00  0.00     0.022 A 
BRANCH  85  89
ATOM     89  S   UNL A   1      47.938  35.574  29.054  1.00  0.00     0.124 S 
ATOM     90  O   UNL A   1      48.652  35.402  27.795  1.00  0.00    -0.237 OA
ATOM     91  O   UNL A   1      48.007  36.896  29.665  1.00  0.00    -0.237 OA
ATOM     92  O   UNL A   1      48.074  34.458  29.993  1.00  0.00    -0.744 OA
ENDBRANCH  85  89
ENDBRANCH  58  82
BRANCH  70  93
ATOM     93  C   UNL A   1      38.281  32.296  30.822  1.00  0.00     0.023 A 
ATOM     94  C   UNL A   1      37.104  32.873  30.299  1.00  0.00     0.031 A 
ATOM     95  C   UNL A   1      38.738  31.097  30.243  1.00  0.00     0.131 A 
ATOM     96  C   UNL A   1      36.432  32.242  29.232  1.00  0.00     0.055 A 
ATOM     97  C   UNL A   1      38.083  30.489  29.175  1.00  0.00     0.041 A 
ATOM     98  F   UNL A   1      39.859  30.510  30.692  1.00  0.00    -0.206 F 
ATOM     99  C   UNL A   1      36.922  31.059  28.668  1.00  0.00     0.022 A 
BRANCH  96 100
ATOM    100  S   UNL A   1      34.887  32.939  28.562  1.00  0.00     0.124 S 
ATOM    101  O   UNL A   1      33.995  31.788  28.492  1.00  0.00    -0.237 OA
ATOM    102  O   UNL A   1      34.545  33.954  29.554  1.00  0.00    -0.237 OA
ATOM    103  O   UNL A   1      35.292  33.475  27.260  1.00  0.00    -0.744 OA
ENDBRANCH  96 100
ENDBRANCH  70  93
ENDBRANCH  44  45
ENDBRANCH  37  39
ENDBRANCH  36  37
ENDBRANCH  35  36
ENDBRANCH  34  35
ENDBRANCH  33  34
ENDBRANCH  32  33
ENDBRANCH  31  32
ENDBRANCH  30  31
ENDBRANCH   1  30
TORSDOF 27
ENDMDL
