MODEL 1
REMARK VINA RESULT:      -8.4      0.000      0.000
REMARK SMILES C[C@H]1c2ccc(O)cc2OC(=O)[C@@H]1CC(=O)N[C@@H](CC1=c2ccccc2=NC1)C(=O)OCCOCCOCCOCCOC(=O)c1ccc(-c2c3nc(c(-c4cc(S(=O)(=O)[O-])ccc4F)c4ccc([nH]4)c(-c4cc(S(=O)(=O)[O-])ccc4F)c4nc(c(-c5cc(S(=O)(=O)[O-])ccc5F)c5ccc2[nH]5)C=C4)C=C3)cc1
REMARK SMILES IDX 36 1 35 2 34 3 33 4 32 5 31 6 29 7 30 8 18 9 17 10 15 11
REMARK SMILES IDX 16 12 14 14 13 15 1 16 2 17 3 18 4 19 9 20 11 21 5 22 8 23
REMARK SMILES IDX 10 24 12 25 6 26 7 27 19 29 20 30 21 31 28 32 22 33 26 34
REMARK SMILES IDX 27 35 23 36 25 37 24 38 37 39 38 40 39 41 40 42 41 43 42 44
REMARK SMILES IDX 43 45 44 46 45 47 46 48 47 49 108 50 48 51 107 52 49 53
REMARK SMILES IDX 50 54 51 55 101 56 52 57 106 58 100 59 102 60 53 61 105 62
REMARK SMILES IDX 99 63 98 64 54 66 86 67 66 68 85 69 67 70 70 71 84 72 103 73
REMARK SMILES IDX 68 74 69 75 83 77 104 78 71 79 55 80 56 81 64 82 57 83 63 84
REMARK SMILES IDX 65 85 62 86 58 87 59 88 60 89 61 90 87 91 88 92 96 93 89 94
REMARK SMILES IDX 95 95 97 96 94 97 90 98 91 99 92 100 93 101 72 102 73 103
REMARK SMILES IDX 81 104 74 105 80 106 82 107 79 108 75 109 76 110 77 111
REMARK SMILES IDX 78 112
REMARK H PARENT 17 13 7 28 102 65 70 76
REMARK Flexibility Score: inf
ROOT
ATOM      1  C   UNL A   1      51.494  25.144  41.469  1.00  0.00     0.188 C 
ENDROOT
BRANCH   1   2
ATOM      2  C   UNL A   1      52.350  24.186  42.308  1.00  0.00     0.188 C 
BRANCH   2   3
ATOM      3  O   UNL A   1      52.945  23.041  41.707  1.00  0.00    -0.376 OA
BRANCH   3   4
ATOM      4  C   UNL A   1      52.339  22.422  40.572  1.00  0.00     0.202 C 
BRANCH   4   5
ATOM      5  C   UNL A   1      51.298  21.314  40.755  1.00  0.00     0.261 C 
BRANCH   5   6
ATOM      6  O   UNL A   1      49.985  21.666  40.285  1.00  0.00    -0.462 OA
BRANCH   6   7
ATOM      7  C   UNL A   1      49.782  21.463  38.970  1.00  0.00     0.329 C 
ATOM      8  O   UNL A   1      50.605  20.956  38.209  1.00  0.00    -0.250 OA
BRANCH   7   9
ATOM      9  C   UNL A   1      48.445  21.972  38.436  1.00  0.00     0.196 C 
BRANCH   9  10
ATOM     10  N   UNL A   1      47.324  22.507  39.226  1.00  0.00    -0.342 N 
ATOM     11  C   UNL A   1      46.192  21.868  39.663  1.00  0.00     0.221 C 
ATOM     12  O   UNL A   1      45.194  22.531  39.948  1.00  0.00    -0.275 OA
ATOM     13  H   UNL A   1      47.398  23.457  39.475  1.00  0.00     0.164 HD
BRANCH  11  14
ATOM     14  C   UNL A   1      46.212  20.368  39.950  1.00  0.00     0.116 C 
BRANCH  14  15
ATOM     15  C   UNL A   1      46.338  19.928  41.424  1.00  0.00     0.116 C 
ATOM     16  C   UNL A   1      47.150  18.134  43.062  1.00  0.00     0.014 C 
ATOM     17  C   UNL A   1      46.909  18.496  41.590  1.00  0.00     0.034 C 
ATOM     18  C   UNL A   1      45.946  17.511  40.969  1.00  0.00    -0.001 A 
ATOM     19  C   UNL A   1      46.365  16.304  40.403  1.00  0.00     0.011 A 
ATOM     20  C   UNL A   1      44.586  17.834  40.926  1.00  0.00     0.138 A 
ATOM     21  C   UNL A   1      44.993  19.906  42.104  1.00  0.00     0.315 C 
ATOM     22  C   UNL A   1      45.441  15.480  39.751  1.00  0.00     0.047 A 
ATOM     23  C   UNL A   1      43.664  17.049  40.246  1.00  0.00     0.093 A 
ATOM     24  O   UNL A   1      44.100  18.961  41.612  1.00  0.00    -0.426 OA
ATOM     25  O   UNL A   1      44.678  20.694  42.987  1.00  0.00    -0.251 OA
ATOM     26  C   UNL A   1      44.107  15.873  39.654  1.00  0.00     0.119 A 
BRANCH  26  27
ATOM     27  O   UNL A   1      43.189  15.115  38.989  1.00  0.00    -0.508 OA
ATOM     28  H   UNL A   1      42.282  15.169  39.219  1.00  0.00     0.293 HD
ENDBRANCH  26  27
ENDBRANCH  14  15
ENDBRANCH  11  14
ENDBRANCH   9  10
BRANCH   9  29
ATOM     29  C   UNL A   1      48.761  22.863  37.218  1.00  0.00     0.070 C 
BRANCH  29  30
ATOM     30  C   UNL A   1      48.380  22.462  35.791  1.00  0.00    -0.037 C 
ATOM     31  C   UNL A   1      47.232  22.800  35.198  1.00  0.00     0.001 A 
ATOM     32  C   UNL A   1      48.545  20.967  35.598  1.00  0.00     0.174 C 
ATOM     33  C   UNL A   1      46.830  23.818  34.273  1.00  0.00     0.010 A 
ATOM     34  C   UNL A   1      46.502  21.515  35.188  1.00  0.00     0.065 A 
ATOM     35  N   UNL A   1      47.168  20.441  35.473  1.00  0.00    -0.280 NA
ATOM     36  C   UNL A   1      45.588  23.730  33.759  1.00  0.00     0.001 A 
ATOM     37  C   UNL A   1      45.059  21.626  34.902  1.00  0.00     0.028 A 
ATOM     38  C   UNL A   1      44.652  22.715  34.225  1.00  0.00     0.002 A 
ENDBRANCH  29  30
ENDBRANCH   9  29
ENDBRANCH   7   9
ENDBRANCH   6   7
ENDBRANCH   5   6
ENDBRANCH   4   5
ENDBRANCH   3   4
ENDBRANCH   2   3
ENDBRANCH   1   2
BRANCH   1  39
ATOM     39  O   UNL A   1      51.954  26.477  41.474  1.00  0.00    -0.377 OA
BRANCH  39  40
ATOM     40  C   UNL A   1      51.569  27.294  40.376  1.00  0.00     0.188 C 
BRANCH  40  41
ATOM     41  C   UNL A   1      50.173  27.054  39.765  1.00  0.00     0.188 C 
BRANCH  41  42
ATOM     42  O   UNL A   1      49.554  28.248  39.289  1.00  0.00    -0.376 OA
BRANCH  42  43
ATOM     43  C   UNL A   1      48.653  28.113  38.196  1.00  0.00     0.202 C 
BRANCH  43  44
ATOM     44  C   UNL A   1      48.940  26.953  37.229  1.00  0.00     0.261 C 
BRANCH  44  45
ATOM     45  O   UNL A   1      47.817  26.421  36.501  1.00  0.00    -0.460 OA
BRANCH  45  46
ATOM     46  C   UNL A   1      46.603  26.370  37.091  1.00  0.00     0.338 C 
ATOM     47  O   UNL A   1      46.369  26.185  38.272  1.00  0.00    -0.246 OA
BRANCH  46  48
ATOM     48  C   UNL A   1      45.613  26.820  36.086  1.00  0.00     0.060 A 
ATOM     49  C   UNL A   1      44.410  26.130  35.909  1.00  0.00     0.016 A 
ATOM     50  C   UNL A   1      45.919  27.923  35.278  1.00  0.00     0.016 A 
ATOM     51  C   UNL A   1      43.498  26.567  34.946  1.00  0.00     0.010 A 
ATOM     52  C   UNL A   1      45.014  28.347  34.301  1.00  0.00     0.010 A 
ATOM     53  C   UNL A   1      43.785  27.688  34.148  1.00  0.00    -0.014 A 
BRANCH  53  54
ATOM     54  C   UNL A   1      42.707  28.305  33.337  1.00  0.00     0.031 A 
ATOM     55  C   UNL A   1      42.482  27.971  31.897  1.00  0.00     0.074 A 
ATOM     56  C   UNL A   1      41.920  29.210  33.952  1.00  0.00     0.049 A 
ATOM     57  N   UNL A   1      41.497  28.339  31.120  1.00  0.00    -0.248 NA
ATOM     58  C   UNL A   1      43.485  27.122  31.240  1.00  0.00     0.031 C 
ATOM     59  C   UNL A   1      42.085  29.640  35.341  1.00  0.00     0.029 A 
ATOM     60  N   UNL A   1      40.841  29.926  33.503  1.00  0.00    -0.354 N 
ATOM     61  C   UNL A   1      41.734  27.743  29.889  1.00  0.00     0.074 A 
ATOM     62  C   UNL A   1      42.987  27.025  30.011  1.00  0.00     0.031 C 
ATOM     63  C   UNL A   1      41.134  30.536  35.637  1.00  0.00     0.029 A 
ATOM     64  C   UNL A   1      40.304  30.760  34.455  1.00  0.00     0.049 A 
ATOM     65  H   UNL A   1      40.484  29.850  32.588  1.00  0.00     0.167 HD
ATOM     66  C   UNL A   1      40.961  27.782  28.775  1.00  0.00     0.034 A 
ATOM     67  C   UNL A   1      39.257  31.606  34.395  1.00  0.00     0.034 A 
ATOM     68  C   UNL A   1      39.733  28.535  28.673  1.00  0.00     0.049 A 
ATOM     69  C   UNL A   1      38.436  31.660  33.135  1.00  0.00     0.074 A 
ATOM     70  C   UNL A   1      38.847  28.581  27.609  1.00  0.00     0.029 A 
ATOM     71  N   UNL A   1      39.227  29.389  29.643  1.00  0.00    -0.354 N 
ATOM     72  N   UNL A   1      38.589  30.974  32.026  1.00  0.00    -0.248 NA
ATOM     73  C   UNL A   1      37.292  32.581  33.117  1.00  0.00     0.031 C 
ATOM     74  C   UNL A   1      37.854  29.517  27.903  1.00  0.00     0.029 A 
ATOM     75  C   UNL A   1      38.069  30.000  29.183  1.00  0.00     0.049 A 
ATOM     76  H   UNL A   1      39.631  29.539  30.528  1.00  0.00     0.167 HD
ATOM     77  C   UNL A   1      37.550  31.365  31.187  1.00  0.00     0.074 A 
ATOM     78  C   UNL A   1      36.759  32.327  31.928  1.00  0.00     0.031 C 
ATOM     79  C   UNL A   1      37.282  30.964  29.919  1.00  0.00     0.034 A 
BRANCH  66  80
ATOM     80  C   UNL A   1      41.376  26.971  27.570  1.00  0.00     0.023 A 
ATOM     81  C   UNL A   1      41.244  25.569  27.577  1.00  0.00     0.031 A 
ATOM     82  C   UNL A   1      42.059  27.568  26.495  1.00  0.00     0.131 A 
ATOM     83  C   UNL A   1      41.824  24.809  26.552  1.00  0.00     0.055 A 
ATOM     84  C   UNL A   1      42.604  26.810  25.458  1.00  0.00     0.041 A 
ATOM     85  F   UNL A   1      42.216  28.901  26.445  1.00  0.00    -0.206 F 
ATOM     86  C   UNL A   1      42.500  25.423  25.492  1.00  0.00     0.022 A 
BRANCH  83  87
ATOM     87  S   UNL A   1      41.789  22.995  26.591  1.00  0.00     0.124 S 
ATOM     88  O   UNL A   1      42.290  22.717  27.935  1.00  0.00    -0.237 OA
ATOM     89  O   UNL A   1      40.371  22.713  26.382  1.00  0.00    -0.237 OA
ATOM     90  O   UNL A   1      42.677  22.603  25.503  1.00  0.00    -0.744 OA
ENDBRANCH  83  87
ENDBRANCH  66  80
BRANCH  67  91
ATOM     91  C   UNL A   1      38.904  32.394  35.610  1.00  0.00     0.023 A 
ATOM     92  C   UNL A   1      39.476  33.661  35.837  1.00  0.00     0.031 A 
ATOM     93  C   UNL A   1      38.109  31.835  36.623  1.00  0.00     0.131 A 
ATOM     94  C   UNL A   1      39.307  34.287  37.078  1.00  0.00     0.055 A 
ATOM     95  C   UNL A   1      37.883  32.497  37.831  1.00  0.00     0.041 A 
ATOM     96  F   UNL A   1      37.559  30.622  36.459  1.00  0.00    -0.206 F 
ATOM     97  C   UNL A   1      38.500  33.722  38.070  1.00  0.00     0.022 A 
BRANCH  94  98
ATOM     98  S   UNL A   1      40.250  35.779  37.499  1.00  0.00     0.124 S 
ATOM     99  O   UNL A   1      40.791  36.174  36.202  1.00  0.00    -0.237 OA
ATOM    100  O   UNL A   1      39.207  36.648  38.041  1.00  0.00    -0.237 OA
ATOM    101  O   UNL A   1      41.229  35.306  38.474  1.00  0.00    -0.744 OA
ENDBRANCH  94  98
ENDBRANCH  67  91
BRANCH  79 102
ATOM    102  C   UNL A   1      36.090  31.565  29.208  1.00  0.00     0.023 A 
ATOM    103  C   UNL A   1      35.745  32.914  29.420  1.00  0.00     0.031 A 
ATOM    104  C   UNL A   1      35.217  30.768  28.447  1.00  0.00     0.131 A 
ATOM    105  C   UNL A   1      34.537  33.413  28.913  1.00  0.00     0.055 A 
ATOM    106  C   UNL A   1      34.041  31.283  27.902  1.00  0.00     0.041 A 
ATOM    107  F   UNL A   1      35.496  29.474  28.223  1.00  0.00    -0.206 F 
ATOM    108  C   UNL A   1      33.687  32.608  28.148  1.00  0.00     0.022 A 
BRANCH 105 109
ATOM    109  S   UNL A   1      33.981  35.096  29.302  1.00  0.00     0.124 S 
ATOM    110  O   UNL A   1      34.341  35.215  30.712  1.00  0.00    -0.237 OA
ATOM    111  O   UNL A   1      34.781  35.901  28.384  1.00  0.00    -0.237 OA
ATOM    112  O   UNL A   1      32.549  35.066  29.026  1.00  0.00    -0.744 OA
ENDBRANCH 105 109
ENDBRANCH  79 102
ENDBRANCH  53  54
ENDBRANCH  46  48
ENDBRANCH  45  46
ENDBRANCH  44  45
ENDBRANCH  43  44
ENDBRANCH  42  43
ENDBRANCH  41  42
ENDBRANCH  40  41
ENDBRANCH  39  40
ENDBRANCH   1  39
TORSDOF 29
ENDMDL
MODEL 2
REMARK VINA RESULT:      -8.4      8.263     13.903
REMARK SMILES C[C@H]1c2ccc(O)cc2OC(=O)[C@@H]1CC(=O)N[C@@H](CC1=c2ccccc2=NC1)C(=O)OCCOCCOCCOCCOC(=O)c1ccc(-c2c3nc(c(-c4cc(S(=O)(=O)[O-])ccc4F)c4ccc([nH]4)c(-c4cc(S(=O)(=O)[O-])ccc4F)c4nc(c(-c5cc(S(=O)(=O)[O-])ccc5F)c5ccc2[nH]5)C=C4)C=C3)cc1
REMARK SMILES IDX 36 1 35 2 34 3 33 4 32 5 31 6 29 7 30 8 18 9 17 10 15 11
REMARK SMILES IDX 16 12 14 14 13 15 1 16 2 17 3 18 4 19 9 20 11 21 5 22 8 23
REMARK SMILES IDX 10 24 12 25 6 26 7 27 19 29 20 30 21 31 28 32 22 33 26 34
REMARK SMILES IDX 27 35 23 36 25 37 24 38 37 39 38 40 39 41 40 42 41 43 42 44
REMARK SMILES IDX 43 45 44 46 45 47 46 48 47 49 108 50 48 51 107 52 49 53
REMARK SMILES IDX 50 54 51 55 101 56 52 57 106 58 100 59 102 60 53 61 105 62
REMARK SMILES IDX 99 63 98 64 54 66 86 67 66 68 85 69 67 70 70 71 84 72 103 73
REMARK SMILES IDX 68 74 69 75 83 77 104 78 71 79 55 80 56 81 64 82 57 83 63 84
REMARK SMILES IDX 65 85 62 86 58 87 59 88 60 89 61 90 87 91 88 92 96 93 89 94
REMARK SMILES IDX 95 95 97 96 94 97 90 98 91 99 92 100 93 101 72 102 73 103
REMARK SMILES IDX 81 104 74 105 80 106 82 107 79 108 75 109 76 110 77 111
REMARK SMILES IDX 78 112
REMARK H PARENT 17 13 7 28 102 65 70 76
REMARK Flexibility Score: inf
ROOT
ATOM      1  C   UNL A   1      39.472  29.549  29.882  1.00  0.00     0.188 C 
ENDROOT
BRANCH   1   2
ATOM      2  C   UNL A   1      40.182  28.594  28.913  1.00  0.00     0.188 C 
BRANCH   2   3
ATOM      3  O   UNL A   1      40.918  29.108  27.809  1.00  0.00    -0.376 OA
BRANCH   3   4
ATOM      4  C   UNL A   1      42.343  29.183  27.860  1.00  0.00     0.202 C 
BRANCH   4   5
ATOM      5  C   UNL A   1      43.121  28.453  28.959  1.00  0.00     0.261 C 
BRANCH   5   6
ATOM      6  O   UNL A   1      43.844  27.301  28.492  1.00  0.00    -0.462 OA
BRANCH   6   7
ATOM      7  C   UNL A   1      43.358  26.119  28.916  1.00  0.00     0.329 C 
ATOM      8  O   UNL A   1      42.161  25.842  28.980  1.00  0.00    -0.250 OA
BRANCH   7   9
ATOM      9  C   UNL A   1      44.410  25.120  29.391  1.00  0.00     0.196 C 
BRANCH   9  10
ATOM     10  N   UNL A   1      45.409  25.327  30.452  1.00  0.00    -0.342 N 
ATOM     11  C   UNL A   1      45.347  26.146  31.550  1.00  0.00     0.221 C 
ATOM     12  O   UNL A   1      46.390  26.503  32.099  1.00  0.00    -0.275 OA
ATOM     13  H   UNL A   1      46.239  24.805  30.359  1.00  0.00     0.164 HD
BRANCH  11  14
ATOM     14  C   UNL A   1      44.001  26.484  32.188  1.00  0.00     0.116 C 
BRANCH  14  15
ATOM     15  C   UNL A   1      43.866  27.860  32.876  1.00  0.00     0.116 C 
ATOM     16  C   UNL A   1      44.373  29.279  34.946  1.00  0.00     0.014 C 
ATOM     17  C   UNL A   1      44.395  27.872  34.333  1.00  0.00     0.034 C 
ATOM     18  C   UNL A   1      43.555  26.933  35.167  1.00  0.00    -0.001 A 
ATOM     19  C   UNL A   1      44.065  26.249  36.273  1.00  0.00     0.011 A 
ATOM     20  C   UNL A   1      42.225  26.712  34.798  1.00  0.00     0.138 A 
ATOM     21  C   UNL A   1      42.422  28.282  32.969  1.00  0.00     0.315 C 
ATOM     22  C   UNL A   1      43.268  25.314  36.945  1.00  0.00     0.047 A 
ATOM     23  C   UNL A   1      41.435  25.758  35.427  1.00  0.00     0.093 A 
ATOM     24  O   UNL A   1      41.628  27.487  33.789  1.00  0.00    -0.426 OA
ATOM     25  O   UNL A   1      41.957  29.219  32.332  1.00  0.00    -0.251 OA
ATOM     26  C   UNL A   1      41.973  25.057  36.498  1.00  0.00     0.119 A 
BRANCH  26  27
ATOM     27  O   UNL A   1      41.185  24.124  37.104  1.00  0.00    -0.508 OA
ATOM     28  H   UNL A   1      40.257  24.137  36.972  1.00  0.00     0.293 HD
ENDBRANCH  26  27
ENDBRANCH  14  15
ENDBRANCH  11  14
ENDBRANCH   9  10
BRANCH   9  29
ATOM     29  C   UNL A   1      43.702  23.758  29.531  1.00  0.00     0.070 C 
BRANCH  29  30
ATOM     30  C   UNL A   1      43.609  22.762  28.374  1.00  0.00    -0.037 C 
ATOM     31  C   UNL A   1      44.170  22.949  27.176  1.00  0.00     0.001 A 
ATOM     32  C   UNL A   1      42.165  22.374  28.121  1.00  0.00     0.174 C 
ATOM     33  C   UNL A   1      45.376  22.505  26.540  1.00  0.00     0.010 A 
ATOM     34  C   UNL A   1      42.995  23.233  26.327  1.00  0.00     0.065 A 
ATOM     35  N   UNL A   1      41.821  22.996  26.824  1.00  0.00    -0.280 NA
ATOM     36  C   UNL A   1      45.516  22.771  25.227  1.00  0.00     0.001 A 
ATOM     37  C   UNL A   1      43.310  23.818  25.010  1.00  0.00     0.028 A 
ATOM     38  C   UNL A   1      44.540  23.588  24.518  1.00  0.00     0.002 A 
ENDBRANCH  29  30
ENDBRANCH   9  29
ENDBRANCH   7   9
ENDBRANCH   6   7
ENDBRANCH   5   6
ENDBRANCH   4   5
ENDBRANCH   3   4
ENDBRANCH   2   3
ENDBRANCH   1   2
BRANCH   1  39
ATOM     39  O   UNL A   1      39.556  30.907  29.512  1.00  0.00    -0.377 OA
BRANCH  39  40
ATOM     40  C   UNL A   1      38.345  31.651  29.520  1.00  0.00     0.188 C 
BRANCH  40  41
ATOM     41  C   UNL A   1      37.127  31.021  30.226  1.00  0.00     0.188 C 
BRANCH  41  42
ATOM     42  O   UNL A   1      36.356  31.965  30.968  1.00  0.00    -0.376 OA
BRANCH  42  43
ATOM     43  C   UNL A   1      36.206  31.717  32.361  1.00  0.00     0.202 C 
BRANCH  43  44
ATOM     44  C   UNL A   1      37.107  32.545  33.292  1.00  0.00     0.261 C 
BRANCH  44  45
ATOM     45  O   UNL A   1      38.395  32.927  32.776  1.00  0.00    -0.460 OA
BRANCH  45  46
ATOM     46  C   UNL A   1      38.699  34.237  32.641  1.00  0.00     0.338 C 
ATOM     47  O   UNL A   1      38.166  35.175  33.208  1.00  0.00    -0.246 OA
BRANCH  46  48
ATOM     48  C   UNL A   1      39.958  34.312  31.865  1.00  0.00     0.060 A 
ATOM     49  C   UNL A   1      39.933  34.360  30.469  1.00  0.00     0.016 A 
ATOM     50  C   UNL A   1      41.180  34.286  32.549  1.00  0.00     0.016 A 
ATOM     51  C   UNL A   1      41.135  34.417  29.758  1.00  0.00     0.010 A 
ATOM     52  C   UNL A   1      42.381  34.324  31.837  1.00  0.00     0.010 A 
ATOM     53  C   UNL A   1      42.366  34.419  30.437  1.00  0.00    -0.014 A 
BRANCH  53  54
ATOM     54  C   UNL A   1      43.607  34.762  29.701  1.00  0.00     0.031 A 
ATOM     55  C   UNL A   1      44.035  36.172  29.445  1.00  0.00     0.074 A 
ATOM     56  C   UNL A   1      44.353  33.736  29.246  1.00  0.00     0.049 A 
ATOM     57  N   UNL A   1      45.161  36.601  28.935  1.00  0.00    -0.248 NA
ATOM     58  C   UNL A   1      43.089  37.237  29.801  1.00  0.00     0.031 C 
ATOM     59  C   UNL A   1      44.000  32.325  29.403  1.00  0.00     0.029 A 
ATOM     60  N   UNL A   1      45.545  33.712  28.570  1.00  0.00    -0.354 N 
ATOM     61  C   UNL A   1      45.080  37.987  28.936  1.00  0.00     0.074 A 
ATOM     62  C   UNL A   1      43.770  38.325  29.456  1.00  0.00     0.031 C 
ATOM     63  C   UNL A   1      44.958  31.570  28.850  1.00  0.00     0.029 A 
ATOM     64  C   UNL A   1      45.985  32.442  28.282  1.00  0.00     0.049 A 
ATOM     65  H   UNL A   1      46.038  34.525  28.315  1.00  0.00     0.167 HD
ATOM     66  C   UNL A   1      46.024  38.883  28.554  1.00  0.00     0.034 A 
ATOM     67  C   UNL A   1      47.092  32.017  27.642  1.00  0.00     0.034 A 
ATOM     68  C   UNL A   1      47.308  38.515  28.006  1.00  0.00     0.049 A 
ATOM     69  C   UNL A   1      48.108  33.032  27.195  1.00  0.00     0.074 A 
ATOM     70  C   UNL A   1      48.357  39.350  27.656  1.00  0.00     0.029 A 
ATOM     71  N   UNL A   1      47.717  37.223  27.704  1.00  0.00    -0.354 N 
ATOM     72  N   UNL A   1      48.084  34.337  27.339  1.00  0.00    -0.248 NA
ATOM     73  C   UNL A   1      49.310  32.527  26.518  1.00  0.00     0.031 C 
ATOM     74  C   UNL A   1      49.360  38.575  27.071  1.00  0.00     0.029 A 
ATOM     75  C   UNL A   1      48.979  37.245  27.129  1.00  0.00     0.049 A 
ATOM     76  H   UNL A   1      47.187  36.411  27.874  1.00  0.00     0.167 HD
ATOM     77  C   UNL A   1      49.273  34.806  26.789  1.00  0.00     0.074 A 
ATOM     78  C   UNL A   1      50.007  33.642  26.336  1.00  0.00     0.031 C 
ATOM     79  C   UNL A   1      49.711  36.085  26.671  1.00  0.00     0.034 A 
BRANCH  66  80
ATOM     80  C   UNL A   1      45.747  40.357  28.735  1.00  0.00     0.023 A 
ATOM     81  C   UNL A   1      45.623  41.199  27.613  1.00  0.00     0.031 A 
ATOM     82  C   UNL A   1      45.783  40.950  30.009  1.00  0.00     0.131 A 
ATOM     83  C   UNL A   1      45.581  42.590  27.786  1.00  0.00     0.055 A 
ATOM     84  C   UNL A   1      45.706  42.333  30.179  1.00  0.00     0.041 A 
ATOM     85  F   UNL A   1      45.906  40.190  31.110  1.00  0.00    -0.206 F 
ATOM     86  C   UNL A   1      45.619  43.160  29.063  1.00  0.00     0.022 A 
BRANCH  83  87
ATOM     87  S   UNL A   1      45.552  43.714  26.362  1.00  0.00     0.124 S 
ATOM     88  O   UNL A   1      44.172  43.576  25.903  1.00  0.00    -0.237 OA
ATOM     89  O   UNL A   1      45.879  44.997  26.979  1.00  0.00    -0.237 OA
ATOM     90  O   UNL A   1      46.562  43.169  25.464  1.00  0.00    -0.744 OA
ENDBRANCH  83  87
ENDBRANCH  66  80
BRANCH  67  91
ATOM     91  C   UNL A   1      47.305  30.551  27.478  1.00  0.00     0.023 A 
ATOM     92  C   UNL A   1      46.876  29.889  26.312  1.00  0.00     0.031 A 
ATOM     93  C   UNL A   1      47.804  29.775  28.536  1.00  0.00     0.131 A 
ATOM     94  C   UNL A   1      46.883  28.489  26.265  1.00  0.00     0.055 A 
ATOM     95  C   UNL A   1      47.877  28.383  28.455  1.00  0.00     0.041 A 
ATOM     96  F   UNL A   1      48.206  30.361  29.673  1.00  0.00    -0.206 F 
ATOM     97  C   UNL A   1      47.397  27.733  27.322  1.00  0.00     0.022 A 
BRANCH  94  98
ATOM     98  S   UNL A   1      46.086  27.603  24.896  1.00  0.00     0.124 S 
ATOM     99  O   UNL A   1      46.553  26.236  25.105  1.00  0.00    -0.237 OA
ATOM    100  O   UNL A   1      44.671  27.838  25.173  1.00  0.00    -0.237 OA
ATOM    101  O   UNL A   1      46.603  28.271  23.705  1.00  0.00    -0.744 OA
ENDBRANCH  94  98
ENDBRANCH  67  91
BRANCH  79 102
ATOM    102  C   UNL A   1      51.046  36.332  26.006  1.00  0.00     0.023 A 
ATOM    103  C   UNL A   1      52.213  36.459  26.785  1.00  0.00     0.031 A 
ATOM    104  C   UNL A   1      51.138  36.590  24.628  1.00  0.00     0.131 A 
ATOM    105  C   UNL A   1      53.410  36.877  26.187  1.00  0.00     0.055 A 
ATOM    106  C   UNL A   1      52.344  36.956  24.028  1.00  0.00     0.041 A 
ATOM    107  F   UNL A   1      50.053  36.492  23.842  1.00  0.00    -0.206 F 
ATOM    108  C   UNL A   1      53.484  37.117  24.812  1.00  0.00     0.022 A 
BRANCH 105 109
ATOM    109  S   UNL A   1      54.890  37.208  27.182  1.00  0.00     0.124 S 
ATOM    110  O   UNL A   1      54.541  36.592  28.459  1.00  0.00    -0.237 OA
ATOM    111  O   UNL A   1      55.930  36.520  26.422  1.00  0.00    -0.237 OA
ATOM    112  O   UNL A   1      54.985  38.664  27.199  1.00  0.00    -0.744 OA
ENDBRANCH 105 109
ENDBRANCH  79 102
ENDBRANCH  53  54
ENDBRANCH  46  48
ENDBRANCH  45  46
ENDBRANCH  44  45
ENDBRANCH  43  44
ENDBRANCH  42  43
ENDBRANCH  41  42
ENDBRANCH  40  41
ENDBRANCH  39  40
ENDBRANCH   1  39
TORSDOF 29
ENDMDL
MODEL 3
REMARK VINA RESULT:      -8.2      8.241     13.640
REMARK SMILES C[C@H]1c2ccc(O)cc2OC(=O)[C@@H]1CC(=O)N[C@@H](CC1=c2ccccc2=NC1)C(=O)OCCOCCOCCOCCOC(=O)c1ccc(-c2c3nc(c(-c4cc(S(=O)(=O)[O-])ccc4F)c4ccc([nH]4)c(-c4cc(S(=O)(=O)[O-])ccc4F)c4nc(c(-c5cc(S(=O)(=O)[O-])ccc5F)c5ccc2[nH]5)C=C4)C=C3)cc1
REMARK SMILES IDX 36 1 35 2 34 3 33 4 32 5 31 6 29 7 30 8 18 9 17 10 15 11
REMARK SMILES IDX 16 12 14 14 13 15 1 16 2 17 3 18 4 19 9 20 11 21 5 22 8 23
REMARK SMILES IDX 10 24 12 25 6 26 7 27 19 29 20 30 21 31 28 32 22 33 26 34
REMARK SMILES IDX 27 35 23 36 25 37 24 38 37 39 38 40 39 41 40 42 41 43 42 44
REMARK SMILES IDX 43 45 44 46 45 47 46 48 47 49 108 50 48 51 107 52 49 53
REMARK SMILES IDX 50 54 51 55 101 56 52 57 106 58 100 59 102 60 53 61 105 62
REMARK SMILES IDX 99 63 98 64 54 66 86 67 66 68 85 69 67 70 70 71 84 72 103 73
REMARK SMILES IDX 68 74 69 75 83 77 104 78 71 79 55 80 56 81 64 82 57 83 63 84
REMARK SMILES IDX 65 85 62 86 58 87 59 88 60 89 61 90 87 91 88 92 96 93 89 94
REMARK SMILES IDX 95 95 97 96 94 97 90 98 91 99 92 100 93 101 72 102 73 103
REMARK SMILES IDX 81 104 74 105 80 106 82 107 79 108 75 109 76 110 77 111
REMARK SMILES IDX 78 112
REMARK H PARENT 17 13 7 28 102 65 70 76
REMARK Flexibility Score: inf
ROOT
ATOM      1  C   UNL A   1      39.416  29.476  29.874  1.00  0.00     0.188 C 
ENDROOT
BRANCH   1   2
ATOM      2  C   UNL A   1      40.138  28.471  28.965  1.00  0.00     0.188 C 
BRANCH   2   3
ATOM      3  O   UNL A   1      40.736  28.905  27.749  1.00  0.00    -0.376 OA
BRANCH   3   4
ATOM      4  C   UNL A   1      42.144  29.125  27.672  1.00  0.00     0.202 C 
BRANCH   4   5
ATOM      5  C   UNL A   1      43.074  28.594  28.767  1.00  0.00     0.261 C 
BRANCH   5   6
ATOM      6  O   UNL A   1      43.912  27.505  28.341  1.00  0.00    -0.462 OA
BRANCH   6   7
ATOM      7  C   UNL A   1      43.648  26.324  28.930  1.00  0.00     0.329 C 
ATOM      8  O   UNL A   1      42.519  25.929  29.220  1.00  0.00    -0.250 OA
BRANCH   7   9
ATOM      9  C   UNL A   1      44.876  25.493  29.293  1.00  0.00     0.196 C 
BRANCH   9  10
ATOM     10  N   UNL A   1      45.990  25.898  30.166  1.00  0.00    -0.342 N 
ATOM     11  C   UNL A   1      46.073  25.863  31.535  1.00  0.00     0.221 C 
ATOM     12  O   UNL A   1      46.880  26.593  32.111  1.00  0.00    -0.275 OA
ATOM     13  H   UNL A   1      46.787  26.244  29.702  1.00  0.00     0.164 HD
BRANCH  11  14
ATOM     14  C   UNL A   1      45.293  24.820  32.331  1.00  0.00     0.116 C 
BRANCH  14  15
ATOM     15  C   UNL A   1      44.960  25.150  33.802  1.00  0.00     0.116 C 
ATOM     16  C   UNL A   1      45.847  25.434  36.187  1.00  0.00     0.014 C 
ATOM     17  C   UNL A   1      46.166  24.971  34.759  1.00  0.00     0.034 C 
ATOM     18  C   UNL A   1      46.573  23.517  34.767  1.00  0.00    -0.001 A 
ATOM     19  C   UNL A   1      47.890  23.104  34.988  1.00  0.00     0.011 A 
ATOM     20  C   UNL A   1      45.602  22.545  34.510  1.00  0.00     0.138 A 
ATOM     21  C   UNL A   1      43.885  24.238  34.335  1.00  0.00     0.315 C 
ATOM     22  C   UNL A   1      48.225  21.750  34.882  1.00  0.00     0.047 A 
ATOM     23  C   UNL A   1      45.925  21.202  34.359  1.00  0.00     0.093 A 
ATOM     24  O   UNL A   1      44.244  22.898  34.430  1.00  0.00    -0.426 OA
ATOM     25  O   UNL A   1      42.757  24.627  34.615  1.00  0.00    -0.251 OA
ATOM     26  C   UNL A   1      47.247  20.817  34.541  1.00  0.00     0.119 A 
BRANCH  26  27
ATOM     27  O   UNL A   1      47.548  19.496  34.388  1.00  0.00    -0.508 OA
ATOM     28  H   UNL A   1      47.689  19.143  33.531  1.00  0.00     0.293 HD
ENDBRANCH  26  27
ENDBRANCH  14  15
ENDBRANCH  11  14
ENDBRANCH   9  10
BRANCH   9  29
ATOM     29  C   UNL A   1      44.373  24.076  29.631  1.00  0.00     0.070 C 
BRANCH  29  30
ATOM     30  C   UNL A   1      44.191  22.997  28.562  1.00  0.00    -0.037 C 
ATOM     31  C   UNL A   1      44.528  23.148  27.278  1.00  0.00     0.001 A 
ATOM     32  C   UNL A   1      42.771  22.466  28.579  1.00  0.00     0.174 C 
ATOM     33  C   UNL A   1      45.651  22.769  26.473  1.00  0.00     0.010 A 
ATOM     34  C   UNL A   1      43.207  23.268  26.626  1.00  0.00     0.065 A 
ATOM     35  N   UNL A   1      42.160  22.963  27.326  1.00  0.00    -0.280 NA
ATOM     36  C   UNL A   1      45.549  22.954  25.143  1.00  0.00     0.001 A 
ATOM     37  C   UNL A   1      43.244  23.784  25.245  1.00  0.00     0.028 A 
ATOM     38  C   UNL A   1      44.394  23.630  24.565  1.00  0.00     0.002 A 
ENDBRANCH  29  30
ENDBRANCH   9  29
ENDBRANCH   7   9
ENDBRANCH   6   7
ENDBRANCH   5   6
ENDBRANCH   4   5
ENDBRANCH   3   4
ENDBRANCH   2   3
ENDBRANCH   1   2
BRANCH   1  39
ATOM     39  O   UNL A   1      39.408  30.796  29.376  1.00  0.00    -0.377 OA
BRANCH  39  40
ATOM     40  C   UNL A   1      38.145  31.440  29.284  1.00  0.00     0.188 C 
BRANCH  40  41
ATOM     41  C   UNL A   1      36.961  30.795  30.032  1.00  0.00     0.188 C 
BRANCH  41  42
ATOM     42  O   UNL A   1      36.124  31.746  30.689  1.00  0.00    -0.376 OA
BRANCH  42  43
ATOM     43  C   UNL A   1      35.980  31.610  32.098  1.00  0.00     0.202 C 
BRANCH  43  44
ATOM     44  C   UNL A   1      36.835  32.557  32.956  1.00  0.00     0.261 C 
BRANCH  44  45
ATOM     45  O   UNL A   1      38.104  32.961  32.409  1.00  0.00    -0.460 OA
BRANCH  45  46
ATOM     46  C   UNL A   1      38.366  34.273  32.229  1.00  0.00     0.338 C 
ATOM     47  O   UNL A   1      37.784  35.214  32.740  1.00  0.00    -0.246 OA
BRANCH  46  48
ATOM     48  C   UNL A   1      39.644  34.363  31.487  1.00  0.00     0.060 A 
ATOM     49  C   UNL A   1      39.654  34.498  30.096  1.00  0.00     0.016 A 
ATOM     50  C   UNL A   1      40.849  34.261  32.195  1.00  0.00     0.016 A 
ATOM     51  C   UNL A   1      40.873  34.566  29.417  1.00  0.00     0.010 A 
ATOM     52  C   UNL A   1      42.067  34.311  31.513  1.00  0.00     0.010 A 
ATOM     53  C   UNL A   1      42.087  34.492  30.121  1.00  0.00    -0.014 A 
BRANCH  53  54
ATOM     54  C   UNL A   1      43.355  34.846  29.436  1.00  0.00     0.031 A 
ATOM     55  C   UNL A   1      43.770  36.260  29.179  1.00  0.00     0.074 A 
ATOM     56  C   UNL A   1      44.137  33.827  29.031  1.00  0.00     0.049 A 
ATOM     57  N   UNL A   1      44.909  36.702  28.713  1.00  0.00    -0.248 NA
ATOM     58  C   UNL A   1      42.790  37.314  29.477  1.00  0.00     0.031 C 
ATOM     59  C   UNL A   1      43.800  32.413  29.193  1.00  0.00     0.029 A 
ATOM     60  N   UNL A   1      45.358  33.814  28.408  1.00  0.00    -0.354 N 
ATOM     61  C   UNL A   1      44.806  38.086  28.689  1.00  0.00     0.074 A 
ATOM     62  C   UNL A   1      43.468  38.408  29.146  1.00  0.00     0.031 C 
ATOM     63  C   UNL A   1      44.796  31.667  28.694  1.00  0.00     0.029 A 
ATOM     64  C   UNL A   1      45.831  32.548  28.160  1.00  0.00     0.049 A 
ATOM     65  H   UNL A   1      45.849  34.632  28.163  1.00  0.00     0.167 HD
ATOM     66  C   UNL A   1      45.750  38.992  28.336  1.00  0.00     0.034 A 
ATOM     67  C   UNL A   1      46.973  32.133  27.575  1.00  0.00     0.034 A 
ATOM     68  C   UNL A   1      47.064  38.639  27.851  1.00  0.00     0.049 A 
ATOM     69  C   UNL A   1      47.991  33.160  27.158  1.00  0.00     0.074 A 
ATOM     70  C   UNL A   1      48.113  39.487  27.535  1.00  0.00     0.029 A 
ATOM     71  N   UNL A   1      47.507  37.350  27.587  1.00  0.00    -0.354 N 
ATOM     72  N   UNL A   1      47.938  34.466  27.281  1.00  0.00    -0.248 NA
ATOM     73  C   UNL A   1      49.230  32.666  26.543  1.00  0.00     0.031 C 
ATOM     74  C   UNL A   1      49.154  38.722  27.007  1.00  0.00     0.029 A 
ATOM     75  C   UNL A   1      48.793  37.386  27.068  1.00  0.00     0.049 A 
ATOM     76  H   UNL A   1      46.984  36.531  27.745  1.00  0.00     0.167 HD
ATOM     77  C   UNL A   1      49.143  34.948  26.778  1.00  0.00     0.074 A 
ATOM     78  C   UNL A   1      49.916  33.790  26.375  1.00  0.00     0.031 C 
ATOM     79  C   UNL A   1      49.564  36.232  26.660  1.00  0.00     0.034 A 
BRANCH  66  80
ATOM     80  C   UNL A   1      45.441  40.463  28.482  1.00  0.00     0.023 A 
ATOM     81  C   UNL A   1      45.345  41.286  27.343  1.00  0.00     0.031 A 
ATOM     82  C   UNL A   1      45.418  41.077  29.747  1.00  0.00     0.131 A 
ATOM     83  C   UNL A   1      45.272  42.678  27.492  1.00  0.00     0.055 A 
ATOM     84  C   UNL A   1      45.311  42.461  29.891  1.00  0.00     0.041 A 
ATOM     85  F   UNL A   1      45.513  40.337  30.864  1.00  0.00    -0.206 F 
ATOM     86  C   UNL A   1      45.252  43.268  28.760  1.00  0.00     0.022 A 
BRANCH  83  87
ATOM     87  S   UNL A   1      45.277  43.779  26.050  1.00  0.00     0.124 S 
ATOM     88  O   UNL A   1      43.961  43.518  25.472  1.00  0.00    -0.237 OA
ATOM     89  O   UNL A   1      45.439  45.092  26.668  1.00  0.00    -0.237 OA
ATOM     90  O   UNL A   1      46.407  43.312  25.256  1.00  0.00    -0.744 OA
ENDBRANCH  83  87
ENDBRANCH  66  80
BRANCH  67  91
ATOM     91  C   UNL A   1      47.217  30.669  27.443  1.00  0.00     0.023 A 
ATOM     92  C   UNL A   1      46.836  29.980  26.276  1.00  0.00     0.031 A 
ATOM     93  C   UNL A   1      47.699  29.920  28.528  1.00  0.00     0.131 A 
ATOM     94  C   UNL A   1      46.870  28.579  26.254  1.00  0.00     0.055 A 
ATOM     95  C   UNL A   1      47.801  28.529  28.473  1.00  0.00     0.041 A 
ATOM     96  F   UNL A   1      48.057  30.533  29.667  1.00  0.00    -0.206 F 
ATOM     97  C   UNL A   1      47.366  27.851  27.339  1.00  0.00     0.022 A 
BRANCH  94  98
ATOM     98  S   UNL A   1      46.130  27.656  24.877  1.00  0.00     0.124 S 
ATOM     99  O   UNL A   1      46.627  26.305  25.116  1.00  0.00    -0.237 OA
ATOM    100  O   UNL A   1      44.703  27.857  25.117  1.00  0.00    -0.237 OA
ATOM    101  O   UNL A   1      46.658  28.323  23.691  1.00  0.00    -0.744 OA
ENDBRANCH  94  98
ENDBRANCH  67  91
BRANCH  79 102
ATOM    102  C   UNL A   1      50.923  36.493  26.052  1.00  0.00     0.023 A 
ATOM    103  C   UNL A   1      52.045  36.690  26.881  1.00  0.00     0.031 A 
ATOM    104  C   UNL A   1      51.077  36.696  24.669  1.00  0.00     0.131 A 
ATOM    105  C   UNL A   1      53.258  37.119  26.324  1.00  0.00     0.055 A 
ATOM    106  C   UNL A   1      52.300  37.074  24.114  1.00  0.00     0.041 A 
ATOM    107  F   UNL A   1      50.036  36.530  23.836  1.00  0.00    -0.206 F 
ATOM    108  C   UNL A   1      53.393  37.304  24.945  1.00  0.00     0.022 A 
BRANCH 105 109
ATOM    109  S   UNL A   1      54.676  37.539  27.375  1.00  0.00     0.124 S 
ATOM    110  O   UNL A   1      54.281  36.965  28.659  1.00  0.00    -0.237 OA
ATOM    111  O   UNL A   1      55.772  36.853  26.697  1.00  0.00    -0.237 OA
ATOM    112  O   UNL A   1      54.726  38.996  27.334  1.00  0.00    -0.744 OA
ENDBRANCH 105 109
ENDBRANCH  79 102
ENDBRANCH  53  54
ENDBRANCH  46  48
ENDBRANCH  45  46
ENDBRANCH  44  45
ENDBRANCH  43  44
ENDBRANCH  42  43
ENDBRANCH  41  42
ENDBRANCH  40  41
ENDBRANCH  39  40
ENDBRANCH   1  39
TORSDOF 29
ENDMDL
