MODEL 1
REMARK VINA RESULT:      -6.9      0.000      0.000
REMARK SMILES CC[NH2+][C@@]1(C(=O)OCCOCCOCCOCCOC(=O)c2ccc(-c3c4nc(c(-c5cc(S(=O)(=O)[O-])ccc5F)c5ccc([nH]5)c(-c5cc(S(=O)(=O)[O-])ccc5F)c5nc(c(-c6cc(S(=O)(=O)[O-])ccc6F)c6ccc3[nH]6)C=C5)C=C4)cc2)CC[C@@H]([NH+]2CCC(C)(CC)CC2)C1
REMARK SMILES IDX 14 1 13 2 12 3 11 4 10 5 9 6 8 7 7 8 5 9 6 10 4 11 85 12
REMARK SMILES IDX 97 13 86 14 87 15 3 16 2 19 1 20 88 21 89 22 96 23 90 25
REMARK SMILES IDX 95 26 91 27 92 28 93 29 94 30 15 31 16 32 17 33 18 34 19 35
REMARK SMILES IDX 20 36 21 37 22 38 23 39 84 40 24 41 83 42 25 43 26 44 27 45
REMARK SMILES IDX 77 46 28 47 82 48 76 49 78 50 29 51 81 52 75 53 74 54 30 56
REMARK SMILES IDX 62 57 42 58 61 59 43 60 46 61 60 62 79 63 44 64 45 65 59 67
REMARK SMILES IDX 80 68 47 69 31 70 32 71 40 72 33 73 39 74 41 75 38 76 34 77
REMARK SMILES IDX 35 78 36 79 37 80 63 81 64 82 72 83 65 84 71 85 73 86 70 87
REMARK SMILES IDX 66 88 67 89 68 90 69 91 48 92 49 93 57 94 50 95 56 96 58 97
REMARK SMILES IDX 55 98 51 99 52 100 53 101 54 102
REMARK H PARENT 3 17 3 18 88 24 78 55 46 66
REMARK Flexibility Score: inf
ROOT
ATOM      1  C   UNL A   1      32.629  35.703  31.312  1.00  0.00     0.188 C 
ENDROOT
BRANCH   1   2
ATOM      2  O   UNL A   1      32.833  34.827  30.209  1.00  0.00    -0.377 OA
BRANCH   2   3
ATOM      3  C   UNL A   1      34.174  34.592  29.847  1.00  0.00     0.188 C 
BRANCH   3   4
ATOM      4  C   UNL A   1      34.704  33.195  30.196  1.00  0.00     0.188 C 
BRANCH   4   5
ATOM      5  O   UNL A   1      35.940  32.736  29.669  1.00  0.00    -0.376 OA
BRANCH   5   6
ATOM      6  C   UNL A   1      37.161  33.085  30.315  1.00  0.00     0.202 C 
BRANCH   6   7
ATOM      7  C   UNL A   1      38.469  32.356  29.958  1.00  0.00     0.261 C 
BRANCH   7   8
ATOM      8  O   UNL A   1      38.447  30.925  30.118  1.00  0.00    -0.459 OA
BRANCH   8   9
ATOM      9  C   UNL A   1      38.465  30.185  28.982  1.00  0.00     0.368 C 
ATOM     10  O   UNL A   1      37.807  30.450  27.975  1.00  0.00    -0.245 OA
BRANCH   9  11
ATOM     11  C   UNL A   1      39.470  28.984  29.009  1.00  0.00     0.200 C 
ATOM     12  C   UNL A   1      40.850  29.498  28.557  1.00  0.00     0.087 C 
ATOM     13  C   UNL A   1      39.178  27.857  27.995  1.00  0.00     0.146 C 
ATOM     14  C   UNL A   1      40.872  29.298  27.048  1.00  0.00     0.072 C 
ATOM     15  C   UNL A   1      40.113  27.990  26.794  1.00  0.00     0.191 C 
BRANCH  11  16
ATOM     16  N   UNL A   1      39.627  28.599  30.456  1.00  0.00    -0.332 N 
ATOM     17  H   UNL A   1      40.616  28.404  30.614  1.00  0.00     0.347 HD
ATOM     18  H   UNL A   1      39.247  29.390  30.976  1.00  0.00     0.347 HD
BRANCH  16  19
ATOM     19  C   UNL A   1      38.876  27.450  30.932  1.00  0.00     0.257 C 
ATOM     20  C   UNL A   1      38.155  27.726  32.242  1.00  0.00     0.071 C 
ENDBRANCH  16  19
ENDBRANCH  11  16
BRANCH  15  21
ATOM     21  N   UNL A   1      40.897  26.792  26.469  1.00  0.00    -0.332 N 
ATOM     22  C   UNL A   1      40.521  25.571  27.190  1.00  0.00     0.263 C 
ATOM     23  C   UNL A   1      42.333  26.909  26.289  1.00  0.00     0.263 C 
ATOM     24  H   UNL A   1      40.574  26.686  25.507  1.00  0.00     0.348 HD
ATOM     25  C   UNL A   1      41.298  25.263  28.483  1.00  0.00     0.068 C 
ATOM     26  C   UNL A   1      43.156  26.762  27.568  1.00  0.00     0.068 C 
ATOM     27  C   UNL A   1      42.826  25.522  28.438  1.00  0.00    -0.022 C 
ATOM     28  C   UNL A   1      43.312  25.814  29.886  1.00  0.00     0.012 C 
BRANCH  27  29
ATOM     29  C   UNL A   1      43.634  24.264  28.004  1.00  0.00     0.004 C 
ATOM     30  C   UNL A   1      44.971  23.993  28.668  1.00  0.00     0.004 C 
ENDBRANCH  27  29
ENDBRANCH  15  21
ENDBRANCH   9  11
ENDBRANCH   8   9
ENDBRANCH   7   8
ENDBRANCH   6   7
ENDBRANCH   5   6
ENDBRANCH   4   5
ENDBRANCH   3   4
ENDBRANCH   2   3
ENDBRANCH   1   2
BRANCH   1  31
ATOM     31  C   UNL A   1      33.805  36.613  31.717  1.00  0.00     0.188 C 
BRANCH  31  32
ATOM     32  O   UNL A   1      34.443  36.238  32.937  1.00  0.00    -0.376 OA
BRANCH  32  33
ATOM     33  C   UNL A   1      35.536  35.327  32.877  1.00  0.00     0.202 C 
BRANCH  33  34
ATOM     34  C   UNL A   1      35.863  34.528  34.153  1.00  0.00     0.261 C 
BRANCH  34  35
ATOM     35  O   UNL A   1      37.255  34.366  34.475  1.00  0.00    -0.460 OA
BRANCH  35  36
ATOM     36  C   UNL A   1      37.583  33.449  35.411  1.00  0.00     0.338 C 
ATOM     37  O   UNL A   1      36.997  33.228  36.452  1.00  0.00    -0.246 OA
BRANCH  36  38
ATOM     38  C   UNL A   1      38.652  32.592  34.854  1.00  0.00     0.060 A 
ATOM     39  C   UNL A   1      39.970  32.819  35.271  1.00  0.00     0.016 A 
ATOM     40  C   UNL A   1      38.366  31.584  33.928  1.00  0.00     0.016 A 
ATOM     41  C   UNL A   1      41.012  32.074  34.727  1.00  0.00     0.010 A 
ATOM     42  C   UNL A   1      39.416  30.856  33.362  1.00  0.00     0.010 A 
ATOM     43  C   UNL A   1      40.747  31.128  33.729  1.00  0.00    -0.014 A 
BRANCH  43  44
ATOM     44  C   UNL A   1      41.874  30.626  32.905  1.00  0.00     0.031 A 
ATOM     45  C   UNL A   1      42.527  29.334  33.322  1.00  0.00     0.074 A 
ATOM     46  C   UNL A   1      42.270  31.257  31.786  1.00  0.00     0.049 A 
ATOM     47  N   UNL A   1      43.519  28.684  32.773  1.00  0.00    -0.248 NA
ATOM     48  C   UNL A   1      41.978  28.690  34.527  1.00  0.00     0.031 C 
ATOM     49  C   UNL A   1      41.678  32.483  31.253  1.00  0.00     0.029 A 
ATOM     50  N   UNL A   1      43.266  30.948  30.894  1.00  0.00    -0.354 N 
ATOM     51  C   UNL A   1      43.712  27.553  33.561  1.00  0.00     0.074 A 
ATOM     52  C   UNL A   1      42.762  27.631  34.649  1.00  0.00     0.031 C 
ATOM     53  C   UNL A   1      42.330  32.826  30.127  1.00  0.00     0.029 A 
ATOM     54  C   UNL A   1      43.404  31.864  29.878  1.00  0.00     0.049 A 
ATOM     55  H   UNL A   1      43.830  30.145  30.975  1.00  0.00     0.167 HD
ATOM     56  C   UNL A   1      44.592  26.538  33.387  1.00  0.00     0.034 A 
ATOM     57  C   UNL A   1      44.306  31.927  28.877  1.00  0.00     0.034 A 
ATOM     58  C   UNL A   1      45.547  26.486  32.308  1.00  0.00     0.049 A 
ATOM     59  C   UNL A   1      45.345  30.834  28.759  1.00  0.00     0.074 A 
ATOM     60  C   UNL A   1      46.488  25.507  32.037  1.00  0.00     0.029 A 
ATOM     61  N   UNL A   1      45.697  27.463  31.331  1.00  0.00    -0.354 N 
ATOM     62  N   UNL A   1      45.514  29.766  29.506  1.00  0.00    -0.248 NA
ATOM     63  C   UNL A   1      46.307  30.951  27.656  1.00  0.00     0.031 C 
ATOM     64  C   UNL A   1      47.254  25.929  30.945  1.00  0.00     0.029 A 
ATOM     65  C   UNL A   1      46.736  27.127  30.478  1.00  0.00     0.049 A 
ATOM     66  H   UNL A   1      45.146  28.274  31.256  1.00  0.00     0.167 HD
ATOM     67  C   UNL A   1      46.580  29.069  28.938  1.00  0.00     0.074 A 
ATOM     68  C   UNL A   1      47.001  29.830  27.781  1.00  0.00     0.031 C 
ATOM     69  C   UNL A   1      47.154  27.902  29.332  1.00  0.00     0.034 A 
BRANCH  56  70
ATOM     70  C   UNL A   1      44.593  25.441  34.424  1.00  0.00     0.023 A 
ATOM     71  C   UNL A   1      45.203  25.608  35.680  1.00  0.00     0.031 A 
ATOM     72  C   UNL A   1      44.012  24.193  34.134  1.00  0.00     0.131 A 
ATOM     73  C   UNL A   1      45.283  24.524  36.569  1.00  0.00     0.055 A 
ATOM     74  C   UNL A   1      44.023  23.145  35.056  1.00  0.00     0.041 A 
ATOM     75  F   UNL A   1      43.441  23.966  32.941  1.00  0.00    -0.206 F 
ATOM     76  C   UNL A   1      44.674  23.302  36.276  1.00  0.00     0.022 A 
BRANCH  73  77
ATOM     77  S   UNL A   1      46.324  24.687  38.045  1.00  0.00     0.124 S 
ATOM     78  O   UNL A   1      47.646  24.368  37.510  1.00  0.00    -0.237 OA
ATOM     79  O   UNL A   1      46.109  26.076  38.431  1.00  0.00    -0.237 OA
ATOM     80  O   UNL A   1      45.776  23.691  38.963  1.00  0.00    -0.744 OA
ENDBRANCH  73  77
ENDBRANCH  56  70
BRANCH  57  81
ATOM     81  C   UNL A   1      44.308  33.077  27.926  1.00  0.00     0.023 A 
ATOM     82  C   UNL A   1      44.701  34.362  28.335  1.00  0.00     0.031 A 
ATOM     83  C   UNL A   1      43.848  32.919  26.606  1.00  0.00     0.131 A 
ATOM     84  C   UNL A   1      44.579  35.446  27.449  1.00  0.00     0.055 A 
ATOM     85  C   UNL A   1      43.782  33.990  25.713  1.00  0.00     0.041 A 
ATOM     86  F   UNL A   1      43.455  31.714  26.165  1.00  0.00    -0.206 F 
ATOM     87  C   UNL A   1      44.135  35.266  26.138  1.00  0.00     0.022 A 
BRANCH  84  88
ATOM     88  S   UNL A   1      44.921  37.117  28.068  1.00  0.00     0.124 S 
ATOM     89  O   UNL A   1      43.708  37.409  28.822  1.00  0.00    -0.237 OA
ATOM     90  O   UNL A   1      46.132  36.906  28.854  1.00  0.00    -0.237 OA
ATOM     91  O   UNL A   1      45.101  37.901  26.848  1.00  0.00    -0.744 OA
ENDBRANCH  84  88
ENDBRANCH  57  81
BRANCH  69  92
ATOM     92  C   UNL A   1      48.268  27.356  28.470  1.00  0.00     0.023 A 
ATOM     93  C   UNL A   1      49.621  27.617  28.747  1.00  0.00     0.031 A 
ATOM     94  C   UNL A   1      47.968  26.571  27.341  1.00  0.00     0.131 A 
ATOM     95  C   UNL A   1      50.618  27.154  27.875  1.00  0.00     0.055 A 
ATOM     96  C   UNL A   1      48.967  26.055  26.515  1.00  0.00     0.041 A 
ATOM     97  F   UNL A   1      46.694  26.289  27.025  1.00  0.00    -0.206 F 
ATOM     98  C   UNL A   1      50.300  26.359  26.770  1.00  0.00     0.022 A 
BRANCH  95  99
ATOM     99  S   UNL A   1      52.329  27.694  28.140  1.00  0.00     0.124 S 
ATOM    100  O   UNL A   1      52.185  28.618  29.260  1.00  0.00    -0.237 OA
ATOM    101  O   UNL A   1      53.011  26.438  28.434  1.00  0.00    -0.237 OA
ATOM    102  O   UNL A   1      52.695  28.314  26.868  1.00  0.00    -0.744 OA
ENDBRANCH  95  99
ENDBRANCH  69  92
ENDBRANCH  43  44
ENDBRANCH  36  38
ENDBRANCH  35  36
ENDBRANCH  34  35
ENDBRANCH  33  34
ENDBRANCH  32  33
ENDBRANCH  31  32
ENDBRANCH   1  31
TORSDOF 27
ENDMDL
MODEL 2
REMARK VINA RESULT:      -6.4      5.294     10.502
REMARK SMILES CC[NH2+][C@@]1(C(=O)OCCOCCOCCOCCOC(=O)c2ccc(-c3c4nc(c(-c5cc(S(=O)(=O)[O-])ccc5F)c5ccc([nH]5)c(-c5cc(S(=O)(=O)[O-])ccc5F)c5nc(c(-c6cc(S(=O)(=O)[O-])ccc6F)c6ccc3[nH]6)C=C5)C=C4)cc2)CC[C@@H]([NH+]2CCC(C)(CC)CC2)C1
REMARK SMILES IDX 14 1 13 2 12 3 11 4 10 5 9 6 8 7 7 8 5 9 6 10 4 11 85 12
REMARK SMILES IDX 97 13 86 14 87 15 3 16 2 19 1 20 88 21 89 22 96 23 90 25
REMARK SMILES IDX 95 26 91 27 92 28 93 29 94 30 15 31 16 32 17 33 18 34 19 35
REMARK SMILES IDX 20 36 21 37 22 38 23 39 84 40 24 41 83 42 25 43 26 44 27 45
REMARK SMILES IDX 77 46 28 47 82 48 76 49 78 50 29 51 81 52 75 53 74 54 30 56
REMARK SMILES IDX 62 57 42 58 61 59 43 60 46 61 60 62 79 63 44 64 45 65 59 67
REMARK SMILES IDX 80 68 47 69 31 70 32 71 40 72 33 73 39 74 41 75 38 76 34 77
REMARK SMILES IDX 35 78 36 79 37 80 63 81 64 82 72 83 65 84 71 85 73 86 70 87
REMARK SMILES IDX 66 88 67 89 68 90 69 91 48 92 49 93 57 94 50 95 56 96 58 97
REMARK SMILES IDX 55 98 51 99 52 100 53 101 54 102
REMARK H PARENT 3 17 3 18 88 24 78 55 46 66
REMARK Flexibility Score: inf
ROOT
ATOM      1  C   UNL A   1      36.775  30.391  27.952  1.00  0.00     0.188 C 
ENDROOT
BRANCH   1   2
ATOM      2  O   UNL A   1      35.536  29.697  28.041  1.00  0.00    -0.377 OA
BRANCH   2   3
ATOM      3  C   UNL A   1      34.461  30.259  27.324  1.00  0.00     0.188 C 
BRANCH   3   4
ATOM      4  C   UNL A   1      33.215  29.369  27.224  1.00  0.00     0.188 C 
BRANCH   4   5
ATOM      5  O   UNL A   1      31.922  29.944  27.101  1.00  0.00    -0.376 OA
BRANCH   5   6
ATOM      6  C   UNL A   1      31.554  30.616  25.901  1.00  0.00     0.202 C 
BRANCH   6   7
ATOM      7  C   UNL A   1      30.996  29.827  24.703  1.00  0.00     0.261 C 
BRANCH   7   8
ATOM      8  O   UNL A   1      31.934  28.959  24.040  1.00  0.00    -0.459 OA
BRANCH   8   9
ATOM      9  C   UNL A   1      31.434  27.817  23.506  1.00  0.00     0.368 C 
ATOM     10  O   UNL A   1      30.805  27.767  22.449  1.00  0.00    -0.245 OA
BRANCH   9  11
ATOM     11  C   UNL A   1      31.792  26.519  24.305  1.00  0.00     0.200 C 
ATOM     12  C   UNL A   1      33.254  26.629  24.778  1.00  0.00     0.087 C 
ATOM     13  C   UNL A   1      31.799  25.215  23.478  1.00  0.00     0.146 C 
ATOM     14  C   UNL A   1      34.078  26.000  23.664  1.00  0.00     0.072 C 
ATOM     15  C   UNL A   1      33.238  24.828  23.140  1.00  0.00     0.191 C 
BRANCH  11  16
ATOM     16  N   UNL A   1      30.952  26.548  25.555  1.00  0.00    -0.332 N 
ATOM     17  H   UNL A   1      31.555  26.287  26.335  1.00  0.00     0.347 HD
ATOM     18  H   UNL A   1      30.574  27.495  25.590  1.00  0.00     0.347 HD
BRANCH  16  19
ATOM     19  C   UNL A   1      29.783  25.685  25.601  1.00  0.00     0.257 C 
ATOM     20  C   UNL A   1      29.933  24.555  26.608  1.00  0.00     0.071 C 
ENDBRANCH  16  19
ENDBRANCH  11  16
BRANCH  15  21
ATOM     21  N   UNL A   1      33.634  23.469  23.530  1.00  0.00    -0.332 N 
ATOM     22  C   UNL A   1      33.539  23.166  24.963  1.00  0.00     0.263 C 
ATOM     23  C   UNL A   1      34.799  22.863  22.912  1.00  0.00     0.263 C 
ATOM     24  H   UNL A   1      32.870  22.977  23.067  1.00  0.00     0.348 HD
ATOM     25  C   UNL A   1      34.816  23.368  25.799  1.00  0.00     0.068 C 
ATOM     26  C   UNL A   1      36.125  23.152  23.613  1.00  0.00     0.068 C 
ATOM     27  C   UNL A   1      36.141  22.902  25.143  1.00  0.00    -0.022 C 
ATOM     28  C   UNL A   1      37.304  23.738  25.749  1.00  0.00     0.012 C 
BRANCH  27  29
ATOM     29  C   UNL A   1      36.498  21.428  25.497  1.00  0.00     0.004 C 
ATOM     30  C   UNL A   1      37.874  20.904  25.131  1.00  0.00     0.004 C 
ENDBRANCH  27  29
ENDBRANCH  15  21
ENDBRANCH   9  11
ENDBRANCH   8   9
ENDBRANCH   7   8
ENDBRANCH   6   7
ENDBRANCH   5   6
ENDBRANCH   4   5
ENDBRANCH   3   4
ENDBRANCH   2   3
ENDBRANCH   1   2
BRANCH   1  31
ATOM     31  C   UNL A   1      37.917  29.915  28.871  1.00  0.00     0.188 C 
BRANCH  31  32
ATOM     32  O   UNL A   1      37.936  28.506  29.103  1.00  0.00    -0.376 OA
BRANCH  32  33
ATOM     33  C   UNL A   1      39.190  27.833  29.073  1.00  0.00     0.202 C 
BRANCH  33  34
ATOM     34  C   UNL A   1      39.781  27.497  27.690  1.00  0.00     0.261 C 
BRANCH  34  35
ATOM     35  O   UNL A   1      40.614  26.329  27.609  1.00  0.00    -0.460 OA
BRANCH  35  36
ATOM     36  C   UNL A   1      41.327  26.139  26.478  1.00  0.00     0.338 C 
ATOM     37  O   UNL A   1      40.895  26.090  25.344  1.00  0.00    -0.246 OA
BRANCH  36  38
ATOM     38  C   UNL A   1      42.762  26.229  26.824  1.00  0.00     0.060 A 
ATOM     39  C   UNL A   1      43.513  25.047  26.854  1.00  0.00     0.016 A 
ATOM     40  C   UNL A   1      43.361  27.456  27.123  1.00  0.00     0.016 A 
ATOM     41  C   UNL A   1      44.853  25.081  27.233  1.00  0.00     0.010 A 
ATOM     42  C   UNL A   1      44.699  27.485  27.530  1.00  0.00     0.010 A 
ATOM     43  C   UNL A   1      45.436  26.291  27.626  1.00  0.00    -0.014 A 
BRANCH  43  44
ATOM     44  C   UNL A   1      46.718  26.255  28.373  1.00  0.00     0.031 A 
ATOM     45  C   UNL A   1      47.987  26.511  27.603  1.00  0.00     0.074 A 
ATOM     46  C   UNL A   1      46.757  26.063  29.703  1.00  0.00     0.049 A 
ATOM     47  N   UNL A   1      49.225  26.540  28.020  1.00  0.00    -0.248 NA
ATOM     48  C   UNL A   1      47.829  26.771  26.162  1.00  0.00     0.031 C 
ATOM     49  C   UNL A   1      45.592  25.861  30.562  1.00  0.00     0.029 A 
ATOM     50  N   UNL A   1      47.824  26.012  30.565  1.00  0.00    -0.354 N 
ATOM     51  C   UNL A   1      49.995  26.825  26.896  1.00  0.00     0.074 A 
ATOM     52  C   UNL A   1      49.086  26.915  25.774  1.00  0.00     0.031 C 
ATOM     53  C   UNL A   1      46.010  25.700  31.831  1.00  0.00     0.029 A 
ATOM     54  C   UNL A   1      47.472  25.756  31.869  1.00  0.00     0.049 A 
ATOM     55  H   UNL A   1      48.755  26.147  30.275  1.00  0.00     0.167 HD
ATOM     56  C   UNL A   1      51.335  27.006  26.809  1.00  0.00     0.034 A 
ATOM     57  C   UNL A   1      48.243  25.567  32.959  1.00  0.00     0.034 A 
ATOM     58  C   UNL A   1      52.230  26.891  27.933  1.00  0.00     0.049 A 
ATOM     59  C   UNL A   1      49.745  25.674  32.820  1.00  0.00     0.074 A 
ATOM     60  C   UNL A   1      53.605  27.050  27.959  1.00  0.00     0.029 A 
ATOM     61  N   UNL A   1      51.843  26.570  29.228  1.00  0.00    -0.354 N 
ATOM     62  N   UNL A   1      50.462  25.951  31.754  1.00  0.00    -0.248 NA
ATOM     63  C   UNL A   1      50.540  25.455  34.036  1.00  0.00     0.031 C 
ATOM     64  C   UNL A   1      54.055  26.752  29.250  1.00  0.00     0.029 A 
ATOM     65  C   UNL A   1      52.955  26.493  30.052  1.00  0.00     0.049 A 
ATOM     66  H   UNL A   1      50.915  26.420  29.519  1.00  0.00     0.167 HD
ATOM     67  C   UNL A   1      51.789  25.972  32.183  1.00  0.00     0.074 A 
ATOM     68  C   UNL A   1      51.768  25.696  33.603  1.00  0.00     0.031 C 
ATOM     69  C   UNL A   1      52.921  26.205  31.469  1.00  0.00     0.034 A 
BRANCH  56  70
ATOM     70  C   UNL A   1      51.905  27.285  25.440  1.00  0.00     0.023 A 
ATOM     71  C   UNL A   1      51.939  28.583  24.900  1.00  0.00     0.031 A 
ATOM     72  C   UNL A   1      52.383  26.228  24.643  1.00  0.00     0.131 A 
ATOM     73  C   UNL A   1      52.369  28.781  23.578  1.00  0.00     0.055 A 
ATOM     74  C   UNL A   1      52.887  26.444  23.360  1.00  0.00     0.041 A 
ATOM     75  F   UNL A   1      52.349  24.965  25.094  1.00  0.00    -0.206 F 
ATOM     76  C   UNL A   1      52.868  27.724  22.814  1.00  0.00     0.022 A 
BRANCH  73  77
ATOM     77  S   UNL A   1      52.125  30.411  22.821  1.00  0.00     0.124 S 
ATOM     78  O   UNL A   1      51.678  31.204  23.964  1.00  0.00    -0.237 OA
ATOM     79  O   UNL A   1      53.454  30.722  22.308  1.00  0.00    -0.237 OA
ATOM     80  O   UNL A   1      51.104  30.167  21.805  1.00  0.00    -0.744 OA
ENDBRANCH  73  77
ENDBRANCH  56  70
BRANCH  57  81
ATOM     81  C   UNL A   1      47.629  25.214  34.273  1.00  0.00     0.023 A 
ATOM     82  C   UNL A   1      47.274  23.891  34.583  1.00  0.00     0.031 A 
ATOM     83  C   UNL A   1      47.323  26.215  35.214  1.00  0.00     0.131 A 
ATOM     84  C   UNL A   1      46.591  23.611  35.778  1.00  0.00     0.055 A 
ATOM     85  C   UNL A   1      46.694  25.922  36.425  1.00  0.00     0.041 A 
ATOM     86  F   UNL A   1      47.634  27.496  34.967  1.00  0.00    -0.206 F 
ATOM     87  C   UNL A   1      46.311  24.615  36.707  1.00  0.00     0.022 A 
BRANCH  84  88
ATOM     88  S   UNL A   1      45.988  21.923  36.060  1.00  0.00     0.124 S 
ATOM     89  O   UNL A   1      47.133  21.125  35.636  1.00  0.00    -0.237 OA
ATOM     90  O   UNL A   1      45.710  21.937  37.493  1.00  0.00    -0.237 OA
ATOM     91  O   UNL A   1      44.812  21.833  35.199  1.00  0.00    -0.744 OA
ENDBRANCH  84  88
ENDBRANCH  57  81
BRANCH  69  92
ATOM     92  C   UNL A   1      54.226  26.222  32.230  1.00  0.00     0.023 A 
ATOM     93  C   UNL A   1      54.893  25.038  32.591  1.00  0.00     0.031 A 
ATOM     94  C   UNL A   1      54.805  27.446  32.613  1.00  0.00     0.131 A 
ATOM     95  C   UNL A   1      56.062  25.100  33.366  1.00  0.00     0.055 A 
ATOM     96  C   UNL A   1      56.004  27.504  33.324  1.00  0.00     0.041 A 
ATOM     97  F   UNL A   1      54.214  28.610  32.298  1.00  0.00    -0.206 F 
ATOM     98  C   UNL A   1      56.631  26.327  33.719  1.00  0.00     0.022 A 
BRANCH  95  99
ATOM     99  S   UNL A   1      56.771  23.555  33.999  1.00  0.00     0.124 S 
ATOM    100  O   UNL A   1      57.203  23.947  35.337  1.00  0.00    -0.237 OA
ATOM    101  O   UNL A   1      55.634  22.642  33.939  1.00  0.00    -0.237 OA
ATOM    102  O   UNL A   1      57.851  23.263  33.060  1.00  0.00    -0.744 OA
ENDBRANCH  95  99
ENDBRANCH  69  92
ENDBRANCH  43  44
ENDBRANCH  36  38
ENDBRANCH  35  36
ENDBRANCH  34  35
ENDBRANCH  33  34
ENDBRANCH  32  33
ENDBRANCH  31  32
ENDBRANCH   1  31
TORSDOF 27
ENDMDL
MODEL 3
REMARK VINA RESULT:      -6.0      5.843     10.950
REMARK SMILES CC[NH2+][C@@]1(C(=O)OCCOCCOCCOCCOC(=O)c2ccc(-c3c4nc(c(-c5cc(S(=O)(=O)[O-])ccc5F)c5ccc([nH]5)c(-c5cc(S(=O)(=O)[O-])ccc5F)c5nc(c(-c6cc(S(=O)(=O)[O-])ccc6F)c6ccc3[nH]6)C=C5)C=C4)cc2)CC[C@@H]([NH+]2CCC(C)(CC)CC2)C1
REMARK SMILES IDX 14 1 13 2 12 3 11 4 10 5 9 6 8 7 7 8 5 9 6 10 4 11 85 12
REMARK SMILES IDX 97 13 86 14 87 15 3 16 2 19 1 20 88 21 89 22 96 23 90 25
REMARK SMILES IDX 95 26 91 27 92 28 93 29 94 30 15 31 16 32 17 33 18 34 19 35
REMARK SMILES IDX 20 36 21 37 22 38 23 39 84 40 24 41 83 42 25 43 26 44 27 45
REMARK SMILES IDX 77 46 28 47 82 48 76 49 78 50 29 51 81 52 75 53 74 54 30 56
REMARK SMILES IDX 62 57 42 58 61 59 43 60 46 61 60 62 79 63 44 64 45 65 59 67
REMARK SMILES IDX 80 68 47 69 31 70 32 71 40 72 33 73 39 74 41 75 38 76 34 77
REMARK SMILES IDX 35 78 36 79 37 80 63 81 64 82 72 83 65 84 71 85 73 86 70 87
REMARK SMILES IDX 66 88 67 89 68 90 69 91 48 92 49 93 57 94 50 95 56 96 58 97
REMARK SMILES IDX 55 98 51 99 52 100 53 101 54 102
REMARK H PARENT 3 17 3 18 88 24 78 55 46 66
REMARK Flexibility Score: inf
ROOT
ATOM      1  C   UNL A   1      35.045  33.914  33.585  1.00  0.00     0.188 C 
ENDROOT
BRANCH   1   2
ATOM      2  O   UNL A   1      36.443  33.648  33.617  1.00  0.00    -0.377 OA
BRANCH   2   3
ATOM      3  C   UNL A   1      36.839  32.518  34.357  1.00  0.00     0.188 C 
BRANCH   3   4
ATOM      4  C   UNL A   1      37.564  32.828  35.673  1.00  0.00     0.188 C 
BRANCH   4   5
ATOM      5  O   UNL A   1      36.831  33.140  36.849  1.00  0.00    -0.376 OA
BRANCH   5   6
ATOM      6  C   UNL A   1      37.431  32.967  38.129  1.00  0.00     0.202 C 
BRANCH   6   7
ATOM      7  C   UNL A   1      36.568  32.625  39.356  1.00  0.00     0.261 C 
BRANCH   7   8
ATOM      8  O   UNL A   1      37.279  32.508  40.603  1.00  0.00    -0.459 OA
BRANCH   8   9
ATOM      9  C   UNL A   1      36.988  33.425  41.559  1.00  0.00     0.368 C 
ATOM     10  O   UNL A   1      36.495  34.529  41.329  1.00  0.00    -0.245 OA
BRANCH   9  11
ATOM     11  C   UNL A   1      37.252  32.937  43.024  1.00  0.00     0.200 C 
ATOM     12  C   UNL A   1      37.272  31.397  43.025  1.00  0.00     0.087 C 
ATOM     13  C   UNL A   1      36.136  33.264  44.039  1.00  0.00     0.146 C 
ATOM     14  C   UNL A   1      35.833  30.983  43.298  1.00  0.00     0.072 C 
ATOM     15  C   UNL A   1      35.286  32.018  44.288  1.00  0.00     0.191 C 
BRANCH  11  16
ATOM     16  N   UNL A   1      38.655  33.367  43.364  1.00  0.00    -0.332 N 
ATOM     17  H   UNL A   1      38.873  34.180  42.788  1.00  0.00     0.347 HD
ATOM     18  H   UNL A   1      38.636  33.534  44.370  1.00  0.00     0.347 HD
BRANCH  16  19
ATOM     19  C   UNL A   1      39.721  32.399  43.171  1.00  0.00     0.257 C 
ATOM     20  C   UNL A   1      40.500  32.637  41.886  1.00  0.00     0.071 C 
ENDBRANCH  16  19
ENDBRANCH  11  16
BRANCH  15  21
ATOM     21  N   UNL A   1      35.149  31.619  45.694  1.00  0.00    -0.332 N 
ATOM     22  C   UNL A   1      35.805  30.360  46.065  1.00  0.00     0.263 C 
ATOM     23  C   UNL A   1      33.873  31.796  46.363  1.00  0.00     0.263 C 
ATOM     24  H   UNL A   1      35.702  32.377  46.095  1.00  0.00     0.348 HD
ATOM     25  C   UNL A   1      34.939  29.088  46.016  1.00  0.00     0.068 C 
ATOM     26  C   UNL A   1      32.904  30.623  46.224  1.00  0.00     0.068 C 
ATOM     27  C   UNL A   1      33.492  29.228  46.557  1.00  0.00    -0.022 C 
ATOM     28  C   UNL A   1      32.606  28.159  45.855  1.00  0.00     0.012 C 
BRANCH  27  29
ATOM     29  C   UNL A   1      33.383  28.886  48.072  1.00  0.00     0.004 C 
ATOM     30  C   UNL A   1      32.555  27.687  48.490  1.00  0.00     0.004 C 
ENDBRANCH  27  29
ENDBRANCH  15  21
ENDBRANCH   9  11
ENDBRANCH   8   9
ENDBRANCH   7   8
ENDBRANCH   6   7
ENDBRANCH   5   6
ENDBRANCH   4   5
ENDBRANCH   3   4
ENDBRANCH   2   3
ENDBRANCH   1   2
BRANCH   1  31
ATOM     31  C   UNL A   1      34.600  35.284  33.037  1.00  0.00     0.188 C 
BRANCH  31  32
ATOM     32  O   UNL A   1      33.969  35.227  31.757  1.00  0.00    -0.376 OA
BRANCH  32  33
ATOM     33  C   UNL A   1      34.187  34.077  30.946  1.00  0.00     0.202 C 
BRANCH  33  34
ATOM     34  C   UNL A   1      33.947  34.224  29.431  1.00  0.00     0.261 C 
BRANCH  34  35
ATOM     35  O   UNL A   1      34.827  33.490  28.563  1.00  0.00    -0.460 OA
BRANCH  35  36
ATOM     36  C   UNL A   1      34.581  32.174  28.380  1.00  0.00     0.338 C 
ATOM     37  O   UNL A   1      33.546  31.674  27.988  1.00  0.00    -0.246 OA
BRANCH  36  38
ATOM     38  C   UNL A   1      35.863  31.449  28.519  1.00  0.00     0.060 A 
ATOM     39  C   UNL A   1      35.824  30.055  28.653  1.00  0.00     0.016 A 
ATOM     40  C   UNL A   1      37.085  32.127  28.526  1.00  0.00     0.016 A 
ATOM     41  C   UNL A   1      37.003  29.340  28.845  1.00  0.00     0.010 A 
ATOM     42  C   UNL A   1      38.265  31.411  28.747  1.00  0.00     0.010 A 
ATOM     43  C   UNL A   1      38.223  30.020  28.950  1.00  0.00    -0.014 A 
BRANCH  43  44
ATOM     44  C   UNL A   1      39.391  29.305  29.521  1.00  0.00     0.031 A 
ATOM     45  C   UNL A   1      39.959  29.815  30.820  1.00  0.00     0.074 A 
ATOM     46  C   UNL A   1      39.897  28.202  28.944  1.00  0.00     0.049 A 
ATOM     47  N   UNL A   1      40.965  29.367  31.524  1.00  0.00    -0.248 NA
ATOM     48  C   UNL A   1      39.293  30.992  31.401  1.00  0.00     0.031 C 
ATOM     49  C   UNL A   1      39.396  27.584  27.717  1.00  0.00     0.029 A 
ATOM     50  N   UNL A   1      40.947  27.402  29.319  1.00  0.00    -0.354 N 
ATOM     51  C   UNL A   1      41.052  30.204  32.632  1.00  0.00     0.074 A 
ATOM     52  C   UNL A   1      40.024  31.210  32.482  1.00  0.00     0.031 C 
ATOM     53  C   UNL A   1      40.146  26.503  27.438  1.00  0.00     0.029 A 
ATOM     54  C   UNL A   1      41.198  26.370  28.446  1.00  0.00     0.049 A 
ATOM     55  H   UNL A   1      41.471  27.553  30.139  1.00  0.00     0.167 HD
ATOM     56  C   UNL A   1      41.904  30.133  33.684  1.00  0.00     0.034 A 
ATOM     57  C   UNL A   1      42.178  25.443  28.450  1.00  0.00     0.034 A 
ATOM     58  C   UNL A   1      42.938  29.136  33.808  1.00  0.00     0.049 A 
ATOM     59  C   UNL A   1      43.180  25.443  29.583  1.00  0.00     0.074 A 
ATOM     60  C   UNL A   1      43.858  28.971  34.828  1.00  0.00     0.029 A 
ATOM     61  N   UNL A   1      43.200  28.143  32.872  1.00  0.00    -0.354 N 
ATOM     62  N   UNL A   1      43.249  26.235  30.630  1.00  0.00    -0.248 NA
ATOM     63  C   UNL A   1      44.229  24.416  29.539  1.00  0.00     0.031 C 
ATOM     64  C   UNL A   1      44.723  27.930  34.474  1.00  0.00     0.029 A 
ATOM     65  C   UNL A   1      44.289  27.386  33.275  1.00  0.00     0.049 A 
ATOM     66  H   UNL A   1      42.688  27.998  32.044  1.00  0.00     0.167 HD
ATOM     67  C   UNL A   1      44.328  25.776  31.384  1.00  0.00     0.074 A 
ATOM     68  C   UNL A   1      44.867  24.632  30.680  1.00  0.00     0.031 C 
ATOM     69  C   UNL A   1      44.825  26.252  32.556  1.00  0.00     0.034 A 
BRANCH  56  70
ATOM     70  C   UNL A   1      41.782  31.201  34.743  1.00  0.00     0.023 A 
ATOM     71  C   UNL A   1      42.503  32.407  34.668  1.00  0.00     0.031 A 
ATOM     72  C   UNL A   1      40.964  30.993  35.868  1.00  0.00     0.131 A 
ATOM     73  C   UNL A   1      42.449  33.322  35.731  1.00  0.00     0.055 A 
ATOM     74  C   UNL A   1      40.852  31.944  36.883  1.00  0.00     0.041 A 
ATOM     75  F   UNL A   1      40.276  29.849  36.008  1.00  0.00    -0.206 F 
ATOM     76  C   UNL A   1      41.608  33.110  36.825  1.00  0.00     0.022 A 
BRANCH  73  77
ATOM     77  S   UNL A   1      43.608  34.717  35.734  1.00  0.00     0.124 S 
ATOM     78  O   UNL A   1      44.897  34.030  35.792  1.00  0.00    -0.237 OA
ATOM     79  O   UNL A   1      43.297  35.388  34.478  1.00  0.00    -0.237 OA
ATOM     80  O   UNL A   1      43.251  35.456  36.943  1.00  0.00    -0.744 OA
ENDBRANCH  73  77
ENDBRANCH  56  70
BRANCH  57  81
ATOM     81  C   UNL A   1      42.299  24.459  27.335  1.00  0.00     0.023 A 
ATOM     82  C   UNL A   1      41.634  23.222  27.375  1.00  0.00     0.031 A 
ATOM     83  C   UNL A   1      43.143  24.716  26.239  1.00  0.00     0.131 A 
ATOM     84  C   UNL A   1      41.863  22.271  26.367  1.00  0.00     0.055 A 
ATOM     85  C   UNL A   1      43.323  23.789  25.211  1.00  0.00     0.041 A 
ATOM     86  F   UNL A   1      43.807  25.880  26.152  1.00  0.00    -0.206 F 
ATOM     87  C   UNL A   1      42.691  22.552  25.279  1.00  0.00     0.022 A 
BRANCH  84  88
ATOM     88  S   UNL A   1      41.132  20.620  26.546  1.00  0.00     0.124 S 
ATOM     89  O   UNL A   1      39.761  20.854  26.106  1.00  0.00    -0.237 OA
ATOM     90  O   UNL A   1      41.966  19.822  25.655  1.00  0.00    -0.237 OA
ATOM     91  O   UNL A   1      41.289  20.332  27.970  1.00  0.00    -0.744 OA
ENDBRANCH  84  88
ENDBRANCH  57  81
BRANCH  69  92
ATOM     92  C   UNL A   1      45.981  25.499  33.172  1.00  0.00     0.023 A 
ATOM     93  C   UNL A   1      45.783  24.402  34.029  1.00  0.00     0.031 A 
ATOM     94  C   UNL A   1      47.304  25.896  32.906  1.00  0.00     0.131 A 
ATOM     95  C   UNL A   1      46.885  23.782  34.639  1.00  0.00     0.055 A 
ATOM     96  C   UNL A   1      48.399  25.232  33.462  1.00  0.00     0.041 A 
ATOM     97  F   UNL A   1      47.555  26.937  32.096  1.00  0.00    -0.206 F 
ATOM     98  C   UNL A   1      48.192  24.179  34.346  1.00  0.00     0.022 A 
BRANCH  95  99
ATOM     99  S   UNL A   1      46.583  22.519  35.906  1.00  0.00     0.124 S 
ATOM    100  O   UNL A   1      45.442  23.077  36.624  1.00  0.00    -0.237 OA
ATOM    101  O   UNL A   1      46.312  21.331  35.104  1.00  0.00    -0.237 OA
ATOM    102  O   UNL A   1      47.834  22.484  36.660  1.00  0.00    -0.744 OA
ENDBRANCH  95  99
ENDBRANCH  69  92
ENDBRANCH  43  44
ENDBRANCH  36  38
ENDBRANCH  35  36
ENDBRANCH  34  35
ENDBRANCH  33  34
ENDBRANCH  32  33
ENDBRANCH  31  32
ENDBRANCH   1  31
TORSDOF 27
ENDMDL
