MODEL 1
REMARK VINA RESULT:      -8.1      0.000      0.000
REMARK SMILES CC(C)(O)C#Cc1ccc(C(=O)N[C@@H](CC2=c3ccccc3=NC2)C(=O)OCCOCCOCCOCCOC(=O)c2ccc(-c3c4nc(c(-c5cc(S(=O)(=O)[O-])ccc5F)c5ccc([nH]5)c(-c5cc(S(=O)(=O)[O-])ccc5F)c5nc(c(-c6cc(S(=O)(=O)[O-])ccc6F)c6ccc3[nH]6)C=C5)C=C4)cc2)s1
REMARK SMILES IDX 32 1 31 2 30 3 29 4 28 5 27 6 25 7 26 8 14 9 13 10 11 11
REMARK SMILES IDX 12 12 10 14 7 15 8 16 105 17 9 18 6 19 5 20 2 21 1 22 3 23
REMARK SMILES IDX 4 24 15 26 16 27 17 28 24 29 18 30 22 31 23 32 19 33 21 34
REMARK SMILES IDX 20 35 33 36 34 37 35 38 36 39 37 40 38 41 39 42 40 43 41 44
REMARK SMILES IDX 42 45 43 46 104 47 44 48 103 49 45 50 46 51 47 52 97 53
REMARK SMILES IDX 48 54 102 55 96 56 98 57 49 58 101 59 95 60 94 61 50 63
REMARK SMILES IDX 82 64 62 65 81 66 63 67 66 68 80 69 99 70 64 71 65 72 79 74
REMARK SMILES IDX 100 75 67 76 51 77 52 78 60 79 53 80 59 81 61 82 58 83 54 84
REMARK SMILES IDX 55 85 56 86 57 87 83 88 84 89 92 90 85 91 91 92 93 93 90 94
REMARK SMILES IDX 86 95 87 96 88 97 89 98 68 99 69 100 77 101 70 102 76 103
REMARK SMILES IDX 78 104 75 105 71 106 72 107 73 108 74 109
REMARK H PARENT 13 13 4 25 98 62 66 73
REMARK Flexibility Score: inf
ROOT
ATOM      1  C   UNL A   1      41.089  26.791  27.667  1.00  0.00     0.188 C 
ENDROOT
BRANCH   1   2
ATOM      2  C   UNL A   1      39.921  25.995  28.262  1.00  0.00     0.188 C 
BRANCH   2   3
ATOM      3  O   UNL A   1      38.856  25.594  27.420  1.00  0.00    -0.376 OA
BRANCH   3   4
ATOM      4  C   UNL A   1      38.693  24.203  27.138  1.00  0.00     0.202 C 
BRANCH   4   5
ATOM      5  C   UNL A   1      37.921  23.726  25.893  1.00  0.00     0.261 C 
BRANCH   5   6
ATOM      6  O   UNL A   1      36.488  23.605  26.047  1.00  0.00    -0.462 OA
BRANCH   6   7
ATOM      7  C   UNL A   1      35.846  22.709  25.255  1.00  0.00     0.329 C 
ATOM      8  O   UNL A   1      36.352  21.683  24.812  1.00  0.00    -0.250 OA
BRANCH   7   9
ATOM      9  C   UNL A   1      34.414  23.151  24.864  1.00  0.00     0.196 C 
BRANCH   9  10
ATOM     10  N   UNL A   1      33.397  22.086  24.641  1.00  0.00    -0.338 N 
ATOM     11  C   UNL A   1      32.072  21.989  25.030  1.00  0.00     0.262 C 
ATOM     12  O   UNL A   1      31.559  20.874  25.120  1.00  0.00    -0.268 OA
ATOM     13  H   UNL A   1      33.724  21.316  24.124  1.00  0.00     0.164 HD
BRANCH  11  14
ATOM     14  C   UNL A   1      31.316  23.199  25.268  1.00  0.00     0.093 A 
ATOM     15  C   UNL A   1      30.252  25.331  24.854  1.00  0.00     0.078 A 
ATOM     16  C   UNL A   1      30.241  25.055  26.197  1.00  0.00     0.030 A 
ATOM     17  S   UNL A   1      30.648  24.013  23.938  1.00  0.00    -0.121 S 
ATOM     18  C   UNL A   1      30.846  23.771  26.441  1.00  0.00     0.027 A 
BRANCH  15  19
ATOM     19  C   UNL A   1      30.015  26.503  24.137  1.00  0.00    -0.053 C 
ATOM     20  C   UNL A   1      29.734  27.627  23.540  1.00  0.00    -0.063 C 
BRANCH  20  21
ATOM     21  C   UNL A   1      29.406  28.937  22.843  1.00  0.00     0.120 C 
ATOM     22  C   UNL A   1      29.934  30.108  23.668  1.00  0.00     0.056 C 
ATOM     23  C   UNL A   1      27.897  29.044  22.630  1.00  0.00     0.056 C 
BRANCH  21  24
ATOM     24  O   UNL A   1      30.073  28.944  21.585  1.00  0.00    -0.378 OA
ATOM     25  H   UNL A   1      30.858  29.511  21.639  1.00  0.00     0.212 HD
ENDBRANCH  21  24
ENDBRANCH  20  21
ENDBRANCH  15  19
ENDBRANCH  11  14
ENDBRANCH   9  10
BRANCH   9  26
ATOM     26  C   UNL A   1      33.910  24.179  25.903  1.00  0.00     0.070 C 
BRANCH  26  27
ATOM     27  C   UNL A   1      33.974  25.585  25.402  1.00  0.00    -0.037 C 
ATOM     28  C   UNL A   1      33.885  26.000  24.140  1.00  0.00     0.001 A 
ATOM     29  C   UNL A   1      33.985  26.754  26.347  1.00  0.00     0.174 C 
ATOM     30  C   UNL A   1      33.774  25.352  22.872  1.00  0.00     0.010 A 
ATOM     31  C   UNL A   1      33.652  27.441  24.299  1.00  0.00     0.065 A 
ATOM     32  N   UNL A   1      33.707  27.929  25.495  1.00  0.00    -0.280 NA
ATOM     33  C   UNL A   1      33.390  26.077  21.810  1.00  0.00     0.001 A 
ATOM     34  C   UNL A   1      33.293  28.182  23.073  1.00  0.00     0.028 A 
ATOM     35  C   UNL A   1      33.153  27.506  21.919  1.00  0.00     0.002 A 
ENDBRANCH  26  27
ENDBRANCH   9  26
ENDBRANCH   7   9
ENDBRANCH   6   7
ENDBRANCH   5   6
ENDBRANCH   4   5
ENDBRANCH   3   4
ENDBRANCH   2   3
ENDBRANCH   1   2
BRANCH   1  36
ATOM     36  O   UNL A   1      41.546  26.356  26.418  1.00  0.00    -0.377 OA
BRANCH  36  37
ATOM     37  C   UNL A   1      42.476  25.298  26.426  1.00  0.00     0.188 C 
BRANCH  37  38
ATOM     38  C   UNL A   1      43.411  25.132  25.220  1.00  0.00     0.188 C 
BRANCH  38  39
ATOM     39  O   UNL A   1      44.699  25.708  25.427  1.00  0.00    -0.376 OA
BRANCH  39  40
ATOM     40  C   UNL A   1      44.975  26.275  26.703  1.00  0.00     0.202 C 
BRANCH  40  41
ATOM     41  C   UNL A   1      46.310  25.899  27.367  1.00  0.00     0.261 C 
BRANCH  41  42
ATOM     42  O   UNL A   1      47.149  27.022  27.690  1.00  0.00    -0.460 OA
BRANCH  42  43
ATOM     43  C   UNL A   1      47.633  27.784  26.670  1.00  0.00     0.338 C 
ATOM     44  O   UNL A   1      47.719  27.463  25.519  1.00  0.00    -0.246 OA
BRANCH  43  45
ATOM     45  C   UNL A   1      47.661  29.181  27.207  1.00  0.00     0.060 A 
ATOM     46  C   UNL A   1      47.899  29.445  28.560  1.00  0.00     0.016 A 
ATOM     47  C   UNL A   1      47.116  30.174  26.379  1.00  0.00     0.016 A 
ATOM     48  C   UNL A   1      47.461  30.655  29.100  1.00  0.00     0.010 A 
ATOM     49  C   UNL A   1      46.656  31.373  26.930  1.00  0.00     0.010 A 
ATOM     50  C   UNL A   1      46.777  31.597  28.302  1.00  0.00    -0.014 A 
BRANCH  50  51
ATOM     51  C   UNL A   1      46.425  32.884  28.925  1.00  0.00     0.031 A 
ATOM     52  C   UNL A   1      44.967  32.978  29.200  1.00  0.00     0.074 A 
ATOM     53  C   UNL A   1      47.236  33.847  29.420  1.00  0.00     0.049 A 
ATOM     54  N   UNL A   1      44.098  33.799  28.712  1.00  0.00    -0.248 NA
ATOM     55  C   UNL A   1      44.396  31.893  30.014  1.00  0.00     0.031 C 
ATOM     56  C   UNL A   1      48.685  33.779  29.616  1.00  0.00     0.029 A 
ATOM     57  N   UNL A   1      46.906  35.066  29.967  1.00  0.00    -0.354 N 
ATOM     58  C   UNL A   1      42.890  33.447  29.314  1.00  0.00     0.074 A 
ATOM     59  C   UNL A   1      43.097  32.163  29.929  1.00  0.00     0.031 C 
ATOM     60  C   UNL A   1      49.070  34.788  30.433  1.00  0.00     0.029 A 
ATOM     61  C   UNL A   1      47.930  35.653  30.698  1.00  0.00     0.049 A 
ATOM     62  H   UNL A   1      46.022  35.484  29.851  1.00  0.00     0.167 HD
ATOM     63  C   UNL A   1      41.885  34.346  29.495  1.00  0.00     0.034 A 
ATOM     64  C   UNL A   1      47.853  36.733  31.517  1.00  0.00     0.034 A 
ATOM     65  C   UNL A   1      42.079  35.538  28.721  1.00  0.00     0.049 A 
ATOM     66  C   UNL A   1      46.648  37.530  31.202  1.00  0.00     0.074 A 
ATOM     67  C   UNL A   1      41.851  35.948  27.429  1.00  0.00     0.029 A 
ATOM     68  N   UNL A   1      42.893  36.464  29.311  1.00  0.00    -0.354 N 
ATOM     69  N   UNL A   1      46.484  38.211  30.104  1.00  0.00    -0.248 NA
ATOM     70  C   UNL A   1      45.459  37.400  32.042  1.00  0.00     0.031 C 
ATOM     71  C   UNL A   1      42.671  37.094  27.219  1.00  0.00     0.029 A 
ATOM     72  C   UNL A   1      43.380  37.354  28.390  1.00  0.00     0.049 A 
ATOM     73  H   UNL A   1      43.101  36.490  30.272  1.00  0.00     0.167 HD
ATOM     74  C   UNL A   1      45.119  38.208  29.911  1.00  0.00     0.074 A 
ATOM     75  C   UNL A   1      44.540  37.882  31.205  1.00  0.00     0.031 C 
ATOM     76  C   UNL A   1      44.586  38.108  28.662  1.00  0.00     0.034 A 
BRANCH  63  77
ATOM     77  C   UNL A   1      40.968  34.335  30.700  1.00  0.00     0.023 A 
ATOM     78  C   UNL A   1      39.684  33.758  30.674  1.00  0.00     0.031 A 
ATOM     79  C   UNL A   1      41.457  34.678  31.976  1.00  0.00     0.131 A 
ATOM     80  C   UNL A   1      38.930  33.570  31.837  1.00  0.00     0.055 A 
ATOM     81  C   UNL A   1      40.734  34.423  33.150  1.00  0.00     0.041 A 
ATOM     82  F   UNL A   1      42.674  35.222  32.126  1.00  0.00    -0.206 F 
ATOM     83  C   UNL A   1      39.461  33.869  33.085  1.00  0.00     0.022 A 
BRANCH  80  84
ATOM     84  S   UNL A   1      37.240  32.920  31.727  1.00  0.00     0.124 S 
ATOM     85  O   UNL A   1      36.551  33.996  31.026  1.00  0.00    -0.237 OA
ATOM     86  O   UNL A   1      37.445  31.692  30.964  1.00  0.00    -0.237 OA
ATOM     87  O   UNL A   1      36.862  32.721  33.124  1.00  0.00    -0.744 OA
ENDBRANCH  80  84
ENDBRANCH  63  77
BRANCH  64  88
ATOM     88  C   UNL A   1      48.599  36.974  32.776  1.00  0.00     0.023 A 
ATOM     89  C   UNL A   1      49.698  37.850  32.764  1.00  0.00     0.031 A 
ATOM     90  C   UNL A   1      48.457  36.129  33.892  1.00  0.00     0.131 A 
ATOM     91  C   UNL A   1      50.636  37.828  33.804  1.00  0.00     0.055 A 
ATOM     92  C   UNL A   1      49.386  36.120  34.939  1.00  0.00     0.041 A 
ATOM     93  F   UNL A   1      47.449  35.244  33.955  1.00  0.00    -0.206 F 
ATOM     94  C   UNL A   1      50.492  36.962  34.891  1.00  0.00     0.022 A 
BRANCH  91  95
ATOM     95  S   UNL A   1      52.115  38.874  33.724  1.00  0.00     0.124 S 
ATOM     96  O   UNL A   1      51.546  40.194  33.464  1.00  0.00    -0.237 OA
ATOM     97  O   UNL A   1      52.683  38.684  35.054  1.00  0.00    -0.237 OA
ATOM     98  O   UNL A   1      52.875  38.301  32.616  1.00  0.00    -0.744 OA
ENDBRANCH  91  95
ENDBRANCH  64  88
BRANCH  76  99
ATOM     99  C   UNL A   1      45.385  38.604  27.493  1.00  0.00     0.023 A 
ATOM    100  C   UNL A   1      45.114  39.909  27.046  1.00  0.00     0.031 A 
ATOM    101  C   UNL A   1      46.280  37.824  26.741  1.00  0.00     0.131 A 
ATOM    102  C   UNL A   1      45.688  40.387  25.865  1.00  0.00     0.055 A 
ATOM    103  C   UNL A   1      46.910  38.333  25.602  1.00  0.00     0.041 A 
ATOM    104  F   UNL A   1      46.522  36.541  27.049  1.00  0.00    -0.206 F 
ATOM    105  C   UNL A   1      46.601  39.612  25.148  1.00  0.00     0.022 A 
BRANCH 102 106
ATOM    106  S   UNL A   1      45.184  41.986  25.182  1.00  0.00     0.124 S 
ATOM    107  O   UNL A   1      46.357  42.375  24.404  1.00  0.00    -0.237 OA
ATOM    108  O   UNL A   1      44.004  41.636  24.395  1.00  0.00    -0.237 OA
ATOM    109  O   UNL A   1      44.920  42.807  26.361  1.00  0.00    -0.744 OA
ENDBRANCH 102 106
ENDBRANCH  76  99
ENDBRANCH  50  51
ENDBRANCH  43  45
ENDBRANCH  42  43
ENDBRANCH  41  42
ENDBRANCH  40  41
ENDBRANCH  39  40
ENDBRANCH  38  39
ENDBRANCH  37  38
ENDBRANCH  36  37
ENDBRANCH   1  36
TORSDOF 30
ENDMDL
MODEL 2
REMARK VINA RESULT:      -7.8      8.203     16.874
REMARK SMILES CC(C)(O)C#Cc1ccc(C(=O)N[C@@H](CC2=c3ccccc3=NC2)C(=O)OCCOCCOCCOCCOC(=O)c2ccc(-c3c4nc(c(-c5cc(S(=O)(=O)[O-])ccc5F)c5ccc([nH]5)c(-c5cc(S(=O)(=O)[O-])ccc5F)c5nc(c(-c6cc(S(=O)(=O)[O-])ccc6F)c6ccc3[nH]6)C=C5)C=C4)cc2)s1
REMARK SMILES IDX 32 1 31 2 30 3 29 4 28 5 27 6 25 7 26 8 14 9 13 10 11 11
REMARK SMILES IDX 12 12 10 14 7 15 8 16 105 17 9 18 6 19 5 20 2 21 1 22 3 23
REMARK SMILES IDX 4 24 15 26 16 27 17 28 24 29 18 30 22 31 23 32 19 33 21 34
REMARK SMILES IDX 20 35 33 36 34 37 35 38 36 39 37 40 38 41 39 42 40 43 41 44
REMARK SMILES IDX 42 45 43 46 104 47 44 48 103 49 45 50 46 51 47 52 97 53
REMARK SMILES IDX 48 54 102 55 96 56 98 57 49 58 101 59 95 60 94 61 50 63
REMARK SMILES IDX 82 64 62 65 81 66 63 67 66 68 80 69 99 70 64 71 65 72 79 74
REMARK SMILES IDX 100 75 67 76 51 77 52 78 60 79 53 80 59 81 61 82 58 83 54 84
REMARK SMILES IDX 55 85 56 86 57 87 83 88 84 89 92 90 85 91 91 92 93 93 90 94
REMARK SMILES IDX 86 95 87 96 88 97 89 98 68 99 69 100 77 101 70 102 76 103
REMARK SMILES IDX 78 104 75 105 71 106 72 107 73 108 74 109
REMARK H PARENT 13 13 4 25 98 62 66 73
REMARK Flexibility Score: inf
ROOT
ATOM      1  C   UNL A   1      55.369  26.707  38.333  1.00  0.00     0.188 C 
ENDROOT
BRANCH   1   2
ATOM      2  C   UNL A   1      56.434  27.297  37.401  1.00  0.00     0.188 C 
BRANCH   2   3
ATOM      3  O   UNL A   1      56.751  26.621  36.198  1.00  0.00    -0.376 OA
BRANCH   3   4
ATOM      4  C   UNL A   1      57.411  25.357  36.276  1.00  0.00     0.202 C 
BRANCH   4   5
ATOM      5  C   UNL A   1      56.971  24.171  35.394  1.00  0.00     0.261 C 
BRANCH   5   6
ATOM      6  O   UNL A   1      57.214  24.316  33.976  1.00  0.00    -0.462 OA
BRANCH   6   7
ATOM      7  C   UNL A   1      56.168  24.108  33.136  1.00  0.00     0.329 C 
ATOM      8  O   UNL A   1      55.857  23.017  32.668  1.00  0.00    -0.250 OA
BRANCH   7   9
ATOM      9  C   UNL A   1      55.440  25.412  32.728  1.00  0.00     0.196 C 
BRANCH   9  10
ATOM     10  N   UNL A   1      54.970  26.313  33.817  1.00  0.00    -0.338 N 
ATOM     11  C   UNL A   1      53.725  26.856  34.084  1.00  0.00     0.262 C 
ATOM     12  O   UNL A   1      53.656  27.886  34.753  1.00  0.00    -0.268 OA
ATOM     13  H   UNL A   1      55.669  26.568  34.462  1.00  0.00     0.164 HD
BRANCH  11  14
ATOM     14  C   UNL A   1      52.542  26.168  33.618  1.00  0.00     0.093 A 
ATOM     15  C   UNL A   1      50.823  24.477  33.430  1.00  0.00     0.078 A 
ATOM     16  C   UNL A   1      50.721  25.365  32.391  1.00  0.00     0.030 A 
ATOM     17  S   UNL A   1      51.817  25.019  34.634  1.00  0.00    -0.121 S 
ATOM     18  C   UNL A   1      51.725  26.391  32.520  1.00  0.00     0.027 A 
BRANCH  15  19
ATOM     19  C   UNL A   1      50.268  23.216  33.641  1.00  0.00    -0.053 C 
ATOM     20  C   UNL A   1      49.816  22.024  33.911  1.00  0.00    -0.063 C 
BRANCH  20  21
ATOM     21  C   UNL A   1      49.288  20.633  34.224  1.00  0.00     0.120 C 
ATOM     22  C   UNL A   1      47.891  20.734  34.832  1.00  0.00     0.056 C 
ATOM     23  C   UNL A   1      50.253  19.916  35.167  1.00  0.00     0.056 C 
BRANCH  21  24
ATOM     24  O   UNL A   1      49.188  19.915  32.999  1.00  0.00    -0.378 OA
ATOM     25  H   UNL A   1      48.445  19.293  33.048  1.00  0.00     0.212 HD
ENDBRANCH  21  24
ENDBRANCH  20  21
ENDBRANCH  15  19
ENDBRANCH  11  14
ENDBRANCH   9  10
BRANCH   9  26
ATOM     26  C   UNL A   1      56.328  26.184  31.725  1.00  0.00     0.070 C 
BRANCH  26  27
ATOM     27  C   UNL A   1      55.635  27.367  31.131  1.00  0.00    -0.037 C 
ATOM     28  C   UNL A   1      54.650  27.363  30.236  1.00  0.00     0.001 A 
ATOM     29  C   UNL A   1      55.888  28.760  31.637  1.00  0.00     0.174 C 
ATOM     30  C   UNL A   1      53.965  26.351  29.496  1.00  0.00     0.010 A 
ATOM     31  C   UNL A   1      54.150  28.742  30.311  1.00  0.00     0.065 A 
ATOM     32  N   UNL A   1      54.798  29.574  31.060  1.00  0.00    -0.280 NA
ATOM     33  C   UNL A   1      52.802  26.662  28.903  1.00  0.00     0.001 A 
ATOM     34  C   UNL A   1      52.897  29.022  29.582  1.00  0.00     0.028 A 
ATOM     35  C   UNL A   1      52.272  28.014  28.949  1.00  0.00     0.002 A 
ENDBRANCH  26  27
ENDBRANCH   9  26
ENDBRANCH   7   9
ENDBRANCH   6   7
ENDBRANCH   5   6
ENDBRANCH   4   5
ENDBRANCH   3   4
ENDBRANCH   2   3
ENDBRANCH   1   2
BRANCH   1  36
ATOM     36  O   UNL A   1      54.046  26.828  37.896  1.00  0.00    -0.377 OA
BRANCH  36  37
ATOM     37  C   UNL A   1      53.351  27.979  38.317  1.00  0.00     0.188 C 
BRANCH  37  38
ATOM     38  C   UNL A   1      51.946  28.237  37.753  1.00  0.00     0.188 C 
BRANCH  38  39
ATOM     39  O   UNL A   1      51.058  27.137  37.937  1.00  0.00    -0.376 OA
BRANCH  39  40
ATOM     40  C   UNL A   1      49.955  27.314  38.819  1.00  0.00     0.202 C 
BRANCH  40  41
ATOM     41  C   UNL A   1      48.555  27.402  38.188  1.00  0.00     0.261 C 
BRANCH  41  42
ATOM     42  O   UNL A   1      48.457  26.811  36.881  1.00  0.00    -0.460 OA
BRANCH  42  43
ATOM     43  C   UNL A   1      47.328  26.118  36.565  1.00  0.00     0.338 C 
ATOM     44  O   UNL A   1      46.409  25.882  37.296  1.00  0.00    -0.246 OA
BRANCH  43  45
ATOM     45  C   UNL A   1      47.310  26.064  35.069  1.00  0.00     0.060 A 
ATOM     46  C   UNL A   1      47.128  27.214  34.293  1.00  0.00     0.016 A 
ATOM     47  C   UNL A   1      47.149  24.793  34.495  1.00  0.00     0.016 A 
ATOM     48  C   UNL A   1      46.652  27.081  32.988  1.00  0.00     0.010 A 
ATOM     49  C   UNL A   1      46.649  24.667  33.197  1.00  0.00     0.010 A 
ATOM     50  C   UNL A   1      46.347  25.810  32.457  1.00  0.00    -0.014 A 
BRANCH  50  51
ATOM     51  C   UNL A   1      45.933  25.748  31.044  1.00  0.00     0.031 A 
ATOM     52  C   UNL A   1      46.915  26.423  30.156  1.00  0.00     0.074 A 
ATOM     53  C   UNL A   1      44.934  25.036  30.475  1.00  0.00     0.049 A 
ATOM     54  N   UNL A   1      46.756  27.463  29.408  1.00  0.00    -0.248 NA
ATOM     55  C   UNL A   1      48.304  25.947  30.256  1.00  0.00     0.031 C 
ATOM     56  C   UNL A   1      44.107  24.002  31.100  1.00  0.00     0.029 A 
ATOM     57  N   UNL A   1      44.524  25.009  29.162  1.00  0.00    -0.354 N 
ATOM     58  C   UNL A   1      47.991  27.658  28.790  1.00  0.00     0.074 A 
ATOM     59  C   UNL A   1      48.937  26.837  29.499  1.00  0.00     0.031 C 
ATOM     60  C   UNL A   1      43.468  23.301  30.134  1.00  0.00     0.029 A 
ATOM     61  C   UNL A   1      43.722  23.921  28.842  1.00  0.00     0.049 A 
ATOM     62  H   UNL A   1      44.776  25.700  28.507  1.00  0.00     0.167 HD
ATOM     63  C   UNL A   1      48.105  28.268  27.580  1.00  0.00     0.034 A 
ATOM     64  C   UNL A   1      43.338  23.506  27.608  1.00  0.00     0.034 A 
ATOM     65  C   UNL A   1      46.904  28.958  27.206  1.00  0.00     0.049 A 
ATOM     66  C   UNL A   1      43.474  24.609  26.632  1.00  0.00     0.074 A 
ATOM     67  C   UNL A   1      46.318  30.174  27.464  1.00  0.00     0.029 A 
ATOM     68  N   UNL A   1      45.961  28.162  26.616  1.00  0.00    -0.354 N 
ATOM     69  N   UNL A   1      42.734  25.680  26.625  1.00  0.00    -0.248 NA
ATOM     70  C   UNL A   1      44.632  24.642  25.742  1.00  0.00     0.031 C 
ATOM     71  C   UNL A   1      44.940  30.038  27.128  1.00  0.00     0.029 A 
ATOM     72  C   UNL A   1      44.720  28.740  26.672  1.00  0.00     0.049 A 
ATOM     73  H   UNL A   1      46.149  27.289  26.202  1.00  0.00     0.167 HD
ATOM     74  C   UNL A   1      43.554  26.649  26.089  1.00  0.00     0.074 A 
ATOM     75  C   UNL A   1      44.609  25.929  25.392  1.00  0.00     0.031 C 
ATOM     76  C   UNL A   1      43.525  27.929  26.551  1.00  0.00     0.034 A 
BRANCH  63  77
ATOM     77  C   UNL A   1      49.136  27.873  26.544  1.00  0.00     0.023 A 
ATOM     78  C   UNL A   1      50.189  28.723  26.155  1.00  0.00     0.031 A 
ATOM     79  C   UNL A   1      49.236  26.539  26.105  1.00  0.00     0.131 A 
ATOM     80  C   UNL A   1      51.247  28.278  25.357  1.00  0.00     0.055 A 
ATOM     81  C   UNL A   1      50.332  26.072  25.366  1.00  0.00     0.041 A 
ATOM     82  F   UNL A   1      48.299  25.633  26.425  1.00  0.00    -0.206 F 
ATOM     83  C   UNL A   1      51.345  26.943  24.985  1.00  0.00     0.022 A 
BRANCH  80  84
ATOM     84  S   UNL A   1      52.518  29.446  24.801  1.00  0.00     0.124 S 
ATOM     85  O   UNL A   1      53.604  28.550  24.422  1.00  0.00    -0.237 OA
ATOM     86  O   UNL A   1      51.838  30.124  23.701  1.00  0.00    -0.237 OA
ATOM     87  O   UNL A   1      52.756  30.276  25.981  1.00  0.00    -0.744 OA
ENDBRANCH  80  84
ENDBRANCH  63  77
BRANCH  64  88
ATOM     88  C   UNL A   1      43.137  22.115  27.138  1.00  0.00     0.023 A 
ATOM     89  C   UNL A   1      44.146  21.494  26.381  1.00  0.00     0.031 A 
ATOM     90  C   UNL A   1      41.866  21.510  27.142  1.00  0.00     0.131 A 
ATOM     91  C   UNL A   1      43.863  20.352  25.622  1.00  0.00     0.055 A 
ATOM     92  C   UNL A   1      41.590  20.358  26.395  1.00  0.00     0.041 A 
ATOM     93  F   UNL A   1      40.847  22.066  27.816  1.00  0.00    -0.206 F 
ATOM     94  C   UNL A   1      42.588  19.782  25.617  1.00  0.00     0.022 A 
BRANCH  91  95
ATOM     95  S   UNL A   1      45.136  19.627  24.553  1.00  0.00     0.124 S 
ATOM     96  O   UNL A   1      46.326  20.385  24.932  1.00  0.00    -0.237 OA
ATOM     97  O   UNL A   1      45.118  18.231  24.976  1.00  0.00    -0.237 OA
ATOM     98  O   UNL A   1      44.640  19.893  23.206  1.00  0.00    -0.744 OA
ENDBRANCH  91  95
ENDBRANCH  64  88
BRANCH  76  99
ATOM     99  C   UNL A   1      42.258  28.448  27.164  1.00  0.00     0.023 A 
ATOM    100  C   UNL A   1      42.190  28.461  28.568  1.00  0.00     0.031 A 
ATOM    101  C   UNL A   1      41.100  28.795  26.446  1.00  0.00     0.131 A 
ATOM    102  C   UNL A   1      40.991  28.768  29.217  1.00  0.00     0.055 A 
ATOM    103  C   UNL A   1      39.925  29.174  27.101  1.00  0.00     0.041 A 
ATOM    104  F   UNL A   1      41.056  28.721  25.108  1.00  0.00    -0.206 F 
ATOM    105  C   UNL A   1      39.860  29.143  28.490  1.00  0.00     0.022 A 
BRANCH 102 106
ATOM    106  S   UNL A   1      40.848  28.587  31.012  1.00  0.00     0.124 S 
ATOM    107  O   UNL A   1      40.782  29.976  31.459  1.00  0.00    -0.237 OA
ATOM    108  O   UNL A   1      39.607  27.828  31.156  1.00  0.00    -0.237 OA
ATOM    109  O   UNL A   1      42.061  27.868  31.394  1.00  0.00    -0.744 OA
ENDBRANCH 102 106
ENDBRANCH  76  99
ENDBRANCH  50  51
ENDBRANCH  43  45
ENDBRANCH  42  43
ENDBRANCH  41  42
ENDBRANCH  40  41
ENDBRANCH  39  40
ENDBRANCH  38  39
ENDBRANCH  37  38
ENDBRANCH  36  37
ENDBRANCH   1  36
TORSDOF 30
ENDMDL
MODEL 3
REMARK VINA RESULT:      -7.4      7.478     14.256
REMARK SMILES CC(C)(O)C#Cc1ccc(C(=O)N[C@@H](CC2=c3ccccc3=NC2)C(=O)OCCOCCOCCOCCOC(=O)c2ccc(-c3c4nc(c(-c5cc(S(=O)(=O)[O-])ccc5F)c5ccc([nH]5)c(-c5cc(S(=O)(=O)[O-])ccc5F)c5nc(c(-c6cc(S(=O)(=O)[O-])ccc6F)c6ccc3[nH]6)C=C5)C=C4)cc2)s1
REMARK SMILES IDX 32 1 31 2 30 3 29 4 28 5 27 6 25 7 26 8 14 9 13 10 11 11
REMARK SMILES IDX 12 12 10 14 7 15 8 16 105 17 9 18 6 19 5 20 2 21 1 22 3 23
REMARK SMILES IDX 4 24 15 26 16 27 17 28 24 29 18 30 22 31 23 32 19 33 21 34
REMARK SMILES IDX 20 35 33 36 34 37 35 38 36 39 37 40 38 41 39 42 40 43 41 44
REMARK SMILES IDX 42 45 43 46 104 47 44 48 103 49 45 50 46 51 47 52 97 53
REMARK SMILES IDX 48 54 102 55 96 56 98 57 49 58 101 59 95 60 94 61 50 63
REMARK SMILES IDX 82 64 62 65 81 66 63 67 66 68 80 69 99 70 64 71 65 72 79 74
REMARK SMILES IDX 100 75 67 76 51 77 52 78 60 79 53 80 59 81 61 82 58 83 54 84
REMARK SMILES IDX 55 85 56 86 57 87 83 88 84 89 92 90 85 91 91 92 93 93 90 94
REMARK SMILES IDX 86 95 87 96 88 97 89 98 68 99 69 100 77 101 70 102 76 103
REMARK SMILES IDX 78 104 75 105 71 106 72 107 73 108 74 109
REMARK H PARENT 13 13 4 25 98 62 66 73
REMARK Flexibility Score: inf
ROOT
ATOM      1  C   UNL A   1      43.607  29.832  36.811  1.00  0.00     0.188 C 
ENDROOT
BRANCH   1   2
ATOM      2  C   UNL A   1      43.805  29.383  35.359  1.00  0.00     0.188 C 
BRANCH   2   3
ATOM      3  O   UNL A   1      43.855  27.999  35.063  1.00  0.00    -0.376 OA
BRANCH   3   4
ATOM      4  C   UNL A   1      44.790  27.182  35.769  1.00  0.00     0.202 C 
BRANCH   4   5
ATOM      5  C   UNL A   1      44.331  25.937  36.553  1.00  0.00     0.261 C 
BRANCH   5   6
ATOM      6  O   UNL A   1      44.823  24.667  36.067  1.00  0.00    -0.462 OA
BRANCH   6   7
ATOM      7  C   UNL A   1      45.576  23.921  36.915  1.00  0.00     0.329 C 
ATOM      8  O   UNL A   1      45.354  23.793  38.114  1.00  0.00    -0.250 OA
BRANCH   7   9
ATOM      9  C   UNL A   1      46.830  23.308  36.243  1.00  0.00     0.196 C 
BRANCH   9  10
ATOM     10  N   UNL A   1      46.621  22.222  35.245  1.00  0.00    -0.338 N 
ATOM     11  C   UNL A   1      47.071  20.914  35.208  1.00  0.00     0.262 C 
ATOM     12  O   UNL A   1      47.147  20.342  34.121  1.00  0.00    -0.268 OA
ATOM     13  H   UNL A   1      46.062  22.480  34.477  1.00  0.00     0.164 HD
BRANCH  11  14
ATOM     14  C   UNL A   1      47.386  20.241  36.448  1.00  0.00     0.093 A 
ATOM     15  C   UNL A   1      47.074  19.146  38.582  1.00  0.00     0.078 A 
ATOM     16  C   UNL A   1      48.404  19.407  38.380  1.00  0.00     0.030 A 
ATOM     17  S   UNL A   1      46.175  19.326  37.206  1.00  0.00    -0.121 S 
ATOM     18  C   UNL A   1      48.595  20.030  37.096  1.00  0.00     0.027 A 
BRANCH  15  19
ATOM     19  C   UNL A   1      46.352  18.784  39.718  1.00  0.00    -0.053 C 
ATOM     20  C   UNL A   1      45.641  18.369  40.729  1.00  0.00    -0.063 C 
BRANCH  20  21
ATOM     21  C   UNL A   1      44.811  17.886  41.908  1.00  0.00     0.120 C 
ATOM     22  C   UNL A   1      45.256  18.603  43.180  1.00  0.00     0.056 C 
ATOM     23  C   UNL A   1      44.946  16.372  42.047  1.00  0.00     0.056 C 
BRANCH  21  24
ATOM     24  O   UNL A   1      43.452  18.229  41.658  1.00  0.00    -0.378 OA
ATOM     25  H   UNL A   1      42.887  17.828  42.336  1.00  0.00     0.212 HD
ENDBRANCH  21  24
ENDBRANCH  20  21
ENDBRANCH  15  19
ENDBRANCH  11  14
ENDBRANCH   9  10
BRANCH   9  26
ATOM     26  C   UNL A   1      47.678  24.450  35.637  1.00  0.00     0.070 C 
BRANCH  26  27
ATOM     27  C   UNL A   1      49.140  24.283  35.893  1.00  0.00    -0.037 C 
ATOM     28  C   UNL A   1      50.025  23.632  35.141  1.00  0.00     0.001 A 
ATOM     29  C   UNL A   1      49.828  25.014  37.012  1.00  0.00     0.174 C 
ATOM     30  C   UNL A   1      49.951  22.850  33.948  1.00  0.00     0.010 A 
ATOM     31  C   UNL A   1      51.305  24.106  35.681  1.00  0.00     0.065 A 
ATOM     32  N   UNL A   1      51.271  24.865  36.727  1.00  0.00    -0.280 NA
ATOM     33  C   UNL A   1      51.084  22.593  33.276  1.00  0.00     0.001 A 
ATOM     34  C   UNL A   1      52.513  23.731  34.919  1.00  0.00     0.028 A 
ATOM     35  C   UNL A   1      52.373  23.038  33.775  1.00  0.00     0.002 A 
ENDBRANCH  26  27
ENDBRANCH   9  26
ENDBRANCH   7   9
ENDBRANCH   6   7
ENDBRANCH   5   6
ENDBRANCH   4   5
ENDBRANCH   3   4
ENDBRANCH   2   3
ENDBRANCH   1   2
BRANCH   1  36
ATOM     36  O   UNL A   1      42.334  30.318  37.128  1.00  0.00    -0.377 OA
BRANCH  36  37
ATOM     37  C   UNL A   1      41.482  30.594  36.041  1.00  0.00     0.188 C 
BRANCH  37  38
ATOM     38  C   UNL A   1      40.829  31.981  35.953  1.00  0.00     0.188 C 
BRANCH  38  39
ATOM     39  O   UNL A   1      39.422  31.954  36.184  1.00  0.00    -0.376 OA
BRANCH  39  40
ATOM     40  C   UNL A   1      38.629  32.960  35.564  1.00  0.00     0.202 C 
BRANCH  40  41
ATOM     41  C   UNL A   1      37.323  32.509  34.887  1.00  0.00     0.261 C 
BRANCH  41  42
ATOM     42  O   UNL A   1      37.299  32.701  33.462  1.00  0.00    -0.460 OA
BRANCH  42  43
ATOM     43  C   UNL A   1      36.730  31.736  32.687  1.00  0.00     0.338 C 
ATOM     44  O   UNL A   1      35.567  31.633  32.416  1.00  0.00    -0.246 OA
BRANCH  43  45
ATOM     45  C   UNL A   1      37.871  31.100  31.957  1.00  0.00     0.060 A 
ATOM     46  C   UNL A   1      38.800  30.284  32.611  1.00  0.00     0.016 A 
ATOM     47  C   UNL A   1      38.158  31.617  30.684  1.00  0.00     0.016 A 
ATOM     48  C   UNL A   1      40.063  30.107  32.044  1.00  0.00     0.010 A 
ATOM     49  C   UNL A   1      39.432  31.457  30.132  1.00  0.00     0.010 A 
ATOM     50  C   UNL A   1      40.407  30.747  30.833  1.00  0.00    -0.014 A 
BRANCH  50  51
ATOM     51  C   UNL A   1      41.727  30.440  30.257  1.00  0.00     0.031 A 
ATOM     52  C   UNL A   1      41.810  29.027  29.801  1.00  0.00     0.074 A 
ATOM     53  C   UNL A   1      42.739  31.279  29.937  1.00  0.00     0.049 A 
ATOM     54  N   UNL A   1      42.577  28.079  30.226  1.00  0.00    -0.248 NA
ATOM     55  C   UNL A   1      40.773  28.597  28.850  1.00  0.00     0.031 C 
ATOM     56  C   UNL A   1      42.714  32.743  29.927  1.00  0.00     0.029 A 
ATOM     57  N   UNL A   1      43.986  30.986  29.434  1.00  0.00    -0.354 N 
ATOM     58  C   UNL A   1      42.244  26.969  29.451  1.00  0.00     0.074 A 
ATOM     59  C   UNL A   1      41.010  27.291  28.783  1.00  0.00     0.031 C 
ATOM     60  C   UNL A   1      43.786  33.200  29.237  1.00  0.00     0.029 A 
ATOM     61  C   UNL A   1      44.644  32.078  28.883  1.00  0.00     0.049 A 
ATOM     62  H   UNL A   1      44.377  30.083  29.462  1.00  0.00     0.167 HD
ATOM     63  C   UNL A   1      43.132  25.970  29.200  1.00  0.00     0.034 A 
ATOM     64  C   UNL A   1      45.776  32.075  28.135  1.00  0.00     0.034 A 
ATOM     65  C   UNL A   1      44.270  26.027  30.071  1.00  0.00     0.049 A 
ATOM     66  C   UNL A   1      46.524  30.817  28.344  1.00  0.00     0.074 A 
ATOM     67  C   UNL A   1      44.584  25.623  31.347  1.00  0.00     0.029 A 
ATOM     68  N   UNL A   1      45.252  26.883  29.655  1.00  0.00    -0.354 N 
ATOM     69  N   UNL A   1      47.123  30.493  29.454  1.00  0.00    -0.248 NA
ATOM     70  C   UNL A   1      46.429  29.750  27.350  1.00  0.00     0.031 C 
ATOM     71  C   UNL A   1      45.729  26.377  31.738  1.00  0.00     0.029 A 
ATOM     72  C   UNL A   1      46.085  27.222  30.689  1.00  0.00     0.049 A 
ATOM     73  H   UNL A   1      45.350  27.212  28.733  1.00  0.00     0.167 HD
ATOM     74  C   UNL A   1      47.079  29.116  29.468  1.00  0.00     0.074 A 
ATOM     75  C   UNL A   1      46.833  28.717  28.090  1.00  0.00     0.031 C 
ATOM     76  C   UNL A   1      46.882  28.430  30.627  1.00  0.00     0.034 A 
BRANCH  63  77
ATOM     77  C   UNL A   1      43.187  25.215  27.889  1.00  0.00     0.023 A 
ATOM     78  C   UNL A   1      42.680  23.911  27.739  1.00  0.00     0.031 A 
ATOM     79  C   UNL A   1      43.520  25.881  26.693  1.00  0.00     0.131 A 
ATOM     80  C   UNL A   1      42.548  23.303  26.486  1.00  0.00     0.055 A 
ATOM     81  C   UNL A   1      43.320  25.303  25.431  1.00  0.00     0.041 A 
ATOM     82  F   UNL A   1      43.999  27.134  26.709  1.00  0.00    -0.206 F 
ATOM     83  C   UNL A   1      42.835  24.005  25.322  1.00  0.00     0.022 A 
BRANCH  80  84
ATOM     84  S   UNL A   1      41.989  21.582  26.367  1.00  0.00     0.124 S 
ATOM     85  O   UNL A   1      42.228  21.095  27.720  1.00  0.00    -0.237 OA
ATOM     86  O   UNL A   1      40.589  21.751  25.989  1.00  0.00    -0.237 OA
ATOM     87  O   UNL A   1      42.843  21.019  25.323  1.00  0.00    -0.744 OA
ENDBRANCH  80  84
ENDBRANCH  63  77
BRANCH  64  88
ATOM     88  C   UNL A   1      46.120  32.969  27.004  1.00  0.00     0.023 A 
ATOM     89  C   UNL A   1      47.317  33.704  27.049  1.00  0.00     0.031 A 
ATOM     90  C   UNL A   1      45.160  33.354  26.049  1.00  0.00     0.131 A 
ATOM     91  C   UNL A   1      47.506  34.809  26.209  1.00  0.00     0.055 A 
ATOM     92  C   UNL A   1      45.357  34.449  25.198  1.00  0.00     0.041 A 
ATOM     93  F   UNL A   1      43.981  32.718  25.971  1.00  0.00    -0.206 F 
ATOM     94  C   UNL A   1      46.530  35.192  25.287  1.00  0.00     0.022 A 
BRANCH  91  95
ATOM     95  S   UNL A   1      49.000  35.825  26.358  1.00  0.00     0.124 S 
ATOM     96  O   UNL A   1      48.697  36.951  25.478  1.00  0.00    -0.237 OA
ATOM     97  O   UNL A   1      49.011  36.126  27.785  1.00  0.00    -0.237 OA
ATOM     98  O   UNL A   1      50.060  34.940  25.884  1.00  0.00    -0.744 OA
ENDBRANCH  91  95
ENDBRANCH  64  88
BRANCH  76  99
ATOM     99  C   UNL A   1      47.311  29.058  31.921  1.00  0.00     0.023 A 
ATOM    100  C   UNL A   1      48.594  28.729  32.391  1.00  0.00     0.031 A 
ATOM    101  C   UNL A   1      46.485  29.836  32.750  1.00  0.00     0.131 A 
ATOM    102  C   UNL A   1      49.007  29.132  33.664  1.00  0.00     0.055 A 
ATOM    103  C   UNL A   1      46.931  30.300  33.991  1.00  0.00     0.041 A 
ATOM    104  F   UNL A   1      45.217  30.116  32.414  1.00  0.00    -0.206 F 
ATOM    105  C   UNL A   1      48.188  29.933  34.461  1.00  0.00     0.022 A 
BRANCH 102 106
ATOM    106  S   UNL A   1      50.574  28.541  34.350  1.00  0.00     0.124 S 
ATOM    107  O   UNL A   1      51.556  29.218  33.508  1.00  0.00    -0.237 OA
ATOM    108  O   UNL A   1      50.511  29.009  35.732  1.00  0.00    -0.237 OA
ATOM    109  O   UNL A   1      50.508  27.091  34.184  1.00  0.00    -0.744 OA
ENDBRANCH 102 106
ENDBRANCH  76  99
ENDBRANCH  50  51
ENDBRANCH  43  45
ENDBRANCH  42  43
ENDBRANCH  41  42
ENDBRANCH  40  41
ENDBRANCH  39  40
ENDBRANCH  38  39
ENDBRANCH  37  38
ENDBRANCH  36  37
ENDBRANCH   1  36
TORSDOF 30
ENDMDL
