MODEL 1
REMARK VINA RESULT:      -7.7      0.000      0.000
REMARK SMILES O=C(OCCOCCOCCOCCOC(=O)c1cc(NC(=S)NC(=O)c2ccccc2F)ccc1Cl)c1ccc(-c2c3nc(c(-c4cc(S(=O)(=O)[O-])ccc4F)c4ccc([nH]4)c(-c4cc(S(=O)(=O)[O-])ccc4F)c4nc(c(-c5cc(S(=O)(=O)[O-])ccc5F)c5ccc2[nH]5)C=C4)C=C3)cc1
REMARK SMILES IDX 10 1 9 2 8 3 7 4 6 5 5 6 4 7 3 8 2 9 1 10 38 11 39 12 100 13
REMARK SMILES IDX 40 14 99 15 41 16 42 17 43 18 93 19 44 20 98 21 92 22 94 23
REMARK SMILES IDX 45 24 97 25 91 26 90 27 46 29 78 30 58 31 77 32 59 33 62 34
REMARK SMILES IDX 76 35 95 36 60 37 61 38 75 40 96 41 63 42 47 43 48 44 56 45
REMARK SMILES IDX 49 46 55 47 57 48 54 49 50 50 51 51 52 52 53 53 79 54 80 55
REMARK SMILES IDX 88 56 81 57 87 58 89 59 86 60 82 61 83 62 84 63 85 64 64 65
REMARK SMILES IDX 65 66 73 67 66 68 72 69 74 70 71 71 67 72 68 73 69 74 70 75
REMARK SMILES IDX 11 76 12 77 13 78 14 79 15 80 16 81 17 82 18 83 19 84 36 85
REMARK SMILES IDX 20 86 35 87 37 88 34 89 21 90 22 92 23 93 24 94 25 95 26 97
REMARK SMILES IDX 27 98 28 99 32 100 29 101 31 102 33 103 30 104
REMARK H PARENT 94 28 62 39 21 91 24 96
REMARK Flexibility Score: inf
ROOT
ATOM      1  C   UNL A   1      34.414  34.347  31.974  1.00  0.00     0.188 C 
ENDROOT
BRANCH   1   2
ATOM      2  O   UNL A   1      34.150  33.781  30.692  1.00  0.00    -0.377 OA
BRANCH   2   3
ATOM      3  C   UNL A   1      34.622  34.539  29.582  1.00  0.00     0.188 C 
BRANCH   3   4
ATOM      4  C   UNL A   1      35.671  33.800  28.759  1.00  0.00     0.188 C 
BRANCH   4   5
ATOM      5  O   UNL A   1      36.704  33.313  29.617  1.00  0.00    -0.376 OA
BRANCH   5   6
ATOM      6  C   UNL A   1      37.679  34.276  30.016  1.00  0.00     0.202 C 
BRANCH   6   7
ATOM      7  C   UNL A   1      38.717  33.705  30.980  1.00  0.00     0.261 C 
BRANCH   7   8
ATOM      8  O   UNL A   1      39.819  34.604  31.175  1.00  0.00    -0.460 OA
BRANCH   8   9
ATOM      9  C   UNL A   1      41.009  34.340  31.773  1.00  0.00     0.338 C 
ATOM     10  O   UNL A   1      41.207  34.834  32.883  1.00  0.00    -0.246 OA
BRANCH   9  11
ATOM     11  C   UNL A   1      42.099  33.487  31.187  1.00  0.00     0.060 A 
ATOM     12  C   UNL A   1      43.132  32.864  31.893  1.00  0.00     0.016 A 
ATOM     13  C   UNL A   1      42.031  33.252  29.801  1.00  0.00     0.016 A 
ATOM     14  C   UNL A   1      44.079  32.069  31.263  1.00  0.00     0.010 A 
ATOM     15  C   UNL A   1      42.980  32.457  29.152  1.00  0.00     0.010 A 
ATOM     16  C   UNL A   1      44.019  31.882  29.889  1.00  0.00    -0.014 A 
BRANCH  16  17
ATOM     17  C   UNL A   1      45.184  31.259  29.243  1.00  0.00     0.031 A 
ATOM     18  C   UNL A   1      45.125  29.782  29.000  1.00  0.00     0.074 A 
ATOM     19  C   UNL A   1      46.161  32.027  28.729  1.00  0.00     0.049 A 
ATOM     20  N   UNL A   1      46.030  28.984  28.509  1.00  0.00    -0.248 NA
ATOM     21  C   UNL A   1      43.853  29.120  29.340  1.00  0.00     0.031 C 
ATOM     22  C   UNL A   1      46.176  33.493  28.751  1.00  0.00     0.029 A 
ATOM     23  N   UNL A   1      47.296  31.689  28.049  1.00  0.00    -0.354 N 
ATOM     24  C   UNL A   1      45.447  27.723  28.500  1.00  0.00     0.074 A 
ATOM     25  C   UNL A   1      44.114  27.859  29.041  1.00  0.00     0.031 C 
ATOM     26  C   UNL A   1      47.259  33.925  28.085  1.00  0.00     0.029 A 
ATOM     27  C   UNL A   1      48.050  32.772  27.666  1.00  0.00     0.049 A 
ATOM     28  H   UNL A   1      47.552  30.758  27.854  1.00  0.00     0.167 HD
ATOM     29  C   UNL A   1      45.994  26.557  28.085  1.00  0.00     0.034 A 
ATOM     30  C   UNL A   1      49.262  32.812  27.079  1.00  0.00     0.034 A 
ATOM     31  C   UNL A   1      47.339  26.478  27.579  1.00  0.00     0.049 A 
ATOM     32  C   UNL A   1      49.928  31.496  26.780  1.00  0.00     0.074 A 
ATOM     33  C   UNL A   1      48.083  25.363  27.248  1.00  0.00     0.029 A 
ATOM     34  N   UNL A   1      48.145  27.587  27.331  1.00  0.00    -0.354 N 
ATOM     35  N   UNL A   1      49.451  30.279  26.935  1.00  0.00    -0.248 NA
ATOM     36  C   UNL A   1      51.297  31.547  26.258  1.00  0.00     0.031 C 
ATOM     37  C   UNL A   1      49.356  25.794  26.857  1.00  0.00     0.029 A 
ATOM     38  C   UNL A   1      49.384  27.183  26.870  1.00  0.00     0.049 A 
ATOM     39  H   UNL A   1      47.872  28.523  27.466  1.00  0.00     0.167 HD
ATOM     40  C   UNL A   1      50.457  29.417  26.518  1.00  0.00     0.074 A 
ATOM     41  C   UNL A   1      51.568  30.256  26.102  1.00  0.00     0.031 C 
ATOM     42  C   UNL A   1      50.465  28.060  26.476  1.00  0.00     0.034 A 
BRANCH  29  43
ATOM     43  C   UNL A   1      45.172  25.311  28.292  1.00  0.00     0.023 A 
ATOM     44  C   UNL A   1      44.326  24.803  27.290  1.00  0.00     0.031 A 
ATOM     45  C   UNL A   1      45.148  24.690  29.553  1.00  0.00     0.131 A 
ATOM     46  C   UNL A   1      43.432  23.761  27.592  1.00  0.00     0.055 A 
ATOM     47  C   UNL A   1      44.312  23.605  29.825  1.00  0.00     0.041 A 
ATOM     48  F   UNL A   1      45.909  25.155  30.558  1.00  0.00    -0.206 F 
ATOM     49  C   UNL A   1      43.436  23.145  28.847  1.00  0.00     0.022 A 
BRANCH  46  50
ATOM     50  S   UNL A   1      42.162  23.316  26.374  1.00  0.00     0.124 S 
ATOM     51  O   UNL A   1      41.652  24.630  25.989  1.00  0.00    -0.237 OA
ATOM     52  O   UNL A   1      42.931  22.608  25.357  1.00  0.00    -0.237 OA
ATOM     53  O   UNL A   1      41.229  22.490  27.137  1.00  0.00    -0.744 OA
ENDBRANCH  46  50
ENDBRANCH  29  43
BRANCH  30  54
ATOM     54  C   UNL A   1      49.924  34.121  26.824  1.00  0.00     0.023 A 
ATOM     55  C   UNL A   1      50.967  34.589  27.639  1.00  0.00     0.031 A 
ATOM     56  C   UNL A   1      49.547  34.911  25.720  1.00  0.00     0.131 A 
ATOM     57  C   UNL A   1      51.599  35.808  27.335  1.00  0.00     0.055 A 
ATOM     58  C   UNL A   1      50.199  36.102  25.402  1.00  0.00     0.041 A 
ATOM     59  F   UNL A   1      48.556  34.509  24.907  1.00  0.00    -0.206 F 
ATOM     60  C   UNL A   1      51.231  36.559  26.214  1.00  0.00     0.022 A 
BRANCH  57  61
ATOM     61  S   UNL A   1      52.917  36.413  28.426  1.00  0.00     0.124 S 
ATOM     62  O   UNL A   1      52.219  37.432  29.201  1.00  0.00    -0.237 OA
ATOM     63  O   UNL A   1      53.296  35.203  29.149  1.00  0.00    -0.237 OA
ATOM     64  O   UNL A   1      53.925  36.917  27.496  1.00  0.00    -0.744 OA
ENDBRANCH  57  61
ENDBRANCH  30  54
BRANCH  42  65
ATOM     65  C   UNL A   1      51.697  27.403  25.925  1.00  0.00     0.023 A 
ATOM     66  C   UNL A   1      52.770  27.042  26.754  1.00  0.00     0.031 A 
ATOM     67  C   UNL A   1      51.761  27.075  24.559  1.00  0.00     0.131 A 
ATOM     68  C   UNL A   1      53.880  26.390  26.202  1.00  0.00     0.055 A 
ATOM     69  C   UNL A   1      52.846  26.381  24.026  1.00  0.00     0.041 A 
ATOM     70  F   UNL A   1      50.753  27.396  23.733  1.00  0.00    -0.206 F 
ATOM     71  C   UNL A   1      53.916  26.039  24.848  1.00  0.00     0.022 A 
BRANCH  68  72
ATOM     72  S   UNL A   1      55.297  26.025  27.272  1.00  0.00     0.124 S 
ATOM     73  O   UNL A   1      55.300  24.565  27.278  1.00  0.00    -0.237 OA
ATOM     74  O   UNL A   1      56.403  26.661  26.561  1.00  0.00    -0.237 OA
ATOM     75  O   UNL A   1      54.938  26.651  28.542  1.00  0.00    -0.744 OA
ENDBRANCH  68  72
ENDBRANCH  42  65
ENDBRANCH  16  17
ENDBRANCH   9  11
ENDBRANCH   8   9
ENDBRANCH   7   8
ENDBRANCH   6   7
ENDBRANCH   5   6
ENDBRANCH   4   5
ENDBRANCH   3   4
ENDBRANCH   2   3
ENDBRANCH   1   2
BRANCH   1  76
ATOM     76  C   UNL A   1      34.353  33.431  33.214  1.00  0.00     0.188 C 
BRANCH  76  77
ATOM     77  O   UNL A   1      35.088  32.228  33.026  1.00  0.00    -0.376 OA
BRANCH  77  78
ATOM     78  C   UNL A   1      36.504  32.366  33.084  1.00  0.00     0.202 C 
BRANCH  78  79
ATOM     79  C   UNL A   1      37.301  31.069  33.304  1.00  0.00     0.261 C 
BRANCH  79  80
ATOM     80  O   UNL A   1      36.824  29.991  32.466  1.00  0.00    -0.460 OA
BRANCH  80  81
ATOM     81  C   UNL A   1      37.686  29.243  31.730  1.00  0.00     0.339 C 
ATOM     82  O   UNL A   1      38.484  28.440  32.186  1.00  0.00    -0.246 OA
BRANCH  81  83
ATOM     83  C   UNL A   1      37.607  29.807  30.025  1.00  0.00     0.080 A 
ATOM     84  C   UNL A   1      36.193  29.387  28.586  1.00  0.00     0.043 A 
ATOM     85  C   UNL A   1      38.665  30.514  30.237  1.00  0.00     0.055 A 
ATOM     86  C   UNL A   1      35.589  29.396  27.424  1.00  0.00     0.041 A 
ATOM     87  C   UNL A   1      38.261  30.184  29.079  1.00  0.00     0.023 A 
ATOM     88  Cl  UNL A   1      40.190  30.390  30.937  1.00  0.00    -0.083 Cl
ATOM     89  C   UNL A   1      36.787  29.697  27.756  1.00  0.00     0.028 A 
BRANCH  86  90
ATOM     90  N   UNL A   1      34.530  30.244  27.087  1.00  0.00    -0.332 N 
ATOM     91  H   UNL A   1      34.852  31.073  26.666  1.00  0.00     0.169 HD
BRANCH  90  92
ATOM     92  C   UNL A   1      33.180  30.230  27.184  1.00  0.00     0.177 C 
ATOM     93  S   UNL A   1      32.370  31.539  26.512  1.00  0.00    -0.040 S 
BRANCH  92  94
ATOM     94  N   UNL A   1      32.417  29.212  27.686  1.00  0.00    -0.299 N 
ATOM     95  C   UNL A   1      31.491  28.287  27.216  1.00  0.00     0.260 C 
ATOM     96  H   UNL A   1      32.568  29.101  28.653  1.00  0.00     0.172 HD
ATOM     97  O   UNL A   1      30.610  27.832  27.928  1.00  0.00    -0.269 OA
BRANCH  95  98
ATOM     98  C   UNL A   1      31.577  27.924  25.797  1.00  0.00     0.075 A 
ATOM     99  C   UNL A   1      30.650  29.095  24.470  1.00  0.00     0.017 A 
ATOM    100  C   UNL A   1      33.281  27.065  25.315  1.00  0.00     0.135 A 
ATOM    101  C   UNL A   1      31.636  29.215  22.756  1.00  0.00     0.001 A 
ATOM    102  C   UNL A   1      34.280  27.217  23.621  1.00  0.00     0.040 A 
ATOM    103  F   UNL A   1      33.923  26.415  26.307  1.00  0.00    -0.206 F 
ATOM    104  C   UNL A   1      33.351  28.378  22.277  1.00  0.00     0.003 A 
ENDBRANCH  95  98
ENDBRANCH  92  94
ENDBRANCH  90  92
ENDBRANCH  86  90
ENDBRANCH  81  83
ENDBRANCH  80  81
ENDBRANCH  79  80
ENDBRANCH  78  79
ENDBRANCH  77  78
ENDBRANCH  76  77
ENDBRANCH   1  76
TORSDOF 27
ENDMDL
MODEL 2
REMARK VINA RESULT:      -7.7      7.647     12.144
REMARK SMILES O=C(OCCOCCOCCOCCOC(=O)c1cc(NC(=S)NC(=O)c2ccccc2F)ccc1Cl)c1ccc(-c2c3nc(c(-c4cc(S(=O)(=O)[O-])ccc4F)c4ccc([nH]4)c(-c4cc(S(=O)(=O)[O-])ccc4F)c4nc(c(-c5cc(S(=O)(=O)[O-])ccc5F)c5ccc2[nH]5)C=C4)C=C3)cc1
REMARK SMILES IDX 10 1 9 2 8 3 7 4 6 5 5 6 4 7 3 8 2 9 1 10 38 11 39 12 100 13
REMARK SMILES IDX 40 14 99 15 41 16 42 17 43 18 93 19 44 20 98 21 92 22 94 23
REMARK SMILES IDX 45 24 97 25 91 26 90 27 46 29 78 30 58 31 77 32 59 33 62 34
REMARK SMILES IDX 76 35 95 36 60 37 61 38 75 40 96 41 63 42 47 43 48 44 56 45
REMARK SMILES IDX 49 46 55 47 57 48 54 49 50 50 51 51 52 52 53 53 79 54 80 55
REMARK SMILES IDX 88 56 81 57 87 58 89 59 86 60 82 61 83 62 84 63 85 64 64 65
REMARK SMILES IDX 65 66 73 67 66 68 72 69 74 70 71 71 67 72 68 73 69 74 70 75
REMARK SMILES IDX 11 76 12 77 13 78 14 79 15 80 16 81 17 82 18 83 19 84 36 85
REMARK SMILES IDX 20 86 35 87 37 88 34 89 21 90 22 92 23 93 24 94 25 95 26 97
REMARK SMILES IDX 27 98 28 99 32 100 29 101 31 102 33 103 30 104
REMARK H PARENT 94 28 62 39 21 91 24 96
REMARK Flexibility Score: inf
ROOT
ATOM      1  C   UNL A   1      46.512  43.407  36.858  1.00  0.00     0.188 C 
ENDROOT
BRANCH   1   2
ATOM      2  O   UNL A   1      45.862  44.307  35.962  1.00  0.00    -0.377 OA
BRANCH   2   3
ATOM      3  C   UNL A   1      45.404  43.727  34.743  1.00  0.00     0.188 C 
BRANCH   3   4
ATOM      4  C   UNL A   1      44.785  44.747  33.795  1.00  0.00     0.188 C 
BRANCH   4   5
ATOM      5  O   UNL A   1      43.389  44.877  34.068  1.00  0.00    -0.376 OA
BRANCH   5   6
ATOM      6  C   UNL A   1      42.670  43.652  34.202  1.00  0.00     0.202 C 
BRANCH   6   7
ATOM      7  C   UNL A   1      42.437  42.952  32.865  1.00  0.00     0.261 C 
BRANCH   7   8
ATOM      8  O   UNL A   1      42.548  41.525  32.980  1.00  0.00    -0.460 OA
BRANCH   8   9
ATOM      9  C   UNL A   1      43.436  40.710  32.358  1.00  0.00     0.338 C 
ATOM     10  O   UNL A   1      44.155  41.211  31.492  1.00  0.00    -0.246 OA
BRANCH   9  11
ATOM     11  C   UNL A   1      43.615  39.246  32.647  1.00  0.00     0.060 A 
ATOM     12  C   UNL A   1      44.244  38.309  31.822  1.00  0.00     0.016 A 
ATOM     13  C   UNL A   1      43.153  38.796  33.899  1.00  0.00     0.016 A 
ATOM     14  C   UNL A   1      44.385  36.979  32.192  1.00  0.00     0.010 A 
ATOM     15  C   UNL A   1      43.285  37.459  34.284  1.00  0.00     0.010 A 
ATOM     16  C   UNL A   1      43.887  36.546  33.414  1.00  0.00    -0.014 A 
BRANCH  16  17
ATOM     17  C   UNL A   1      43.825  35.094  33.639  1.00  0.00     0.031 A 
ATOM     18  C   UNL A   1      42.696  34.348  32.998  1.00  0.00     0.074 A 
ATOM     19  C   UNL A   1      44.852  34.461  34.232  1.00  0.00     0.049 A 
ATOM     20  N   UNL A   1      42.377  33.088  33.086  1.00  0.00    -0.248 NA
ATOM     21  C   UNL A   1      41.817  35.135  32.116  1.00  0.00     0.031 C 
ATOM     22  C   UNL A   1      46.083  35.107  34.696  1.00  0.00     0.029 A 
ATOM     23  N   UNL A   1      45.047  33.135  34.500  1.00  0.00    -0.354 N 
ATOM     24  C   UNL A   1      41.249  32.934  32.289  1.00  0.00     0.074 A 
ATOM     25  C   UNL A   1      40.934  34.229  31.731  1.00  0.00     0.031 C 
ATOM     26  C   UNL A   1      46.916  34.166  35.168  1.00  0.00     0.029 A 
ATOM     27  C   UNL A   1      46.247  32.870  35.114  1.00  0.00     0.049 A 
ATOM     28  H   UNL A   1      44.390  32.437  34.277  1.00  0.00     0.167 HD
ATOM     29  C   UNL A   1      40.539  31.804  32.062  1.00  0.00     0.034 A 
ATOM     30  C   UNL A   1      46.723  31.711  35.609  1.00  0.00     0.034 A 
ATOM     31  C   UNL A   1      40.887  30.546  32.667  1.00  0.00     0.049 A 
ATOM     32  C   UNL A   1      45.838  30.497  35.495  1.00  0.00     0.074 A 
ATOM     33  C   UNL A   1      40.198  29.349  32.647  1.00  0.00     0.029 A 
ATOM     34  N   UNL A   1      42.044  30.332  33.412  1.00  0.00    -0.354 N 
ATOM     35  N   UNL A   1      44.675  30.382  34.892  1.00  0.00    -0.248 NA
ATOM     36  C   UNL A   1      46.306  29.270  36.147  1.00  0.00     0.031 C 
ATOM     37  C   UNL A   1      40.909  28.430  33.429  1.00  0.00     0.029 A 
ATOM     38  C   UNL A   1      42.080  29.030  33.873  1.00  0.00     0.049 A 
ATOM     39  H   UNL A   1      42.736  31.011  33.586  1.00  0.00     0.167 HD
ATOM     40  C   UNL A   1      44.275  29.066  35.079  1.00  0.00     0.074 A 
ATOM     41  C   UNL A   1      45.325  28.425  35.851  1.00  0.00     0.031 C 
ATOM     42  C   UNL A   1      43.149  28.439  34.650  1.00  0.00     0.034 A 
BRANCH  29  43
ATOM     43  C   UNL A   1      39.286  31.946  31.238  1.00  0.00     0.023 A 
ATOM     44  C   UNL A   1      38.139  32.594  31.733  1.00  0.00     0.031 A 
ATOM     45  C   UNL A   1      39.199  31.319  29.983  1.00  0.00     0.131 A 
ATOM     46  C   UNL A   1      36.934  32.529  31.013  1.00  0.00     0.055 A 
ATOM     47  C   UNL A   1      38.019  31.324  29.237  1.00  0.00     0.041 A 
ATOM     48  F   UNL A   1      40.251  30.655  29.477  1.00  0.00    -0.206 F 
ATOM     49  C   UNL A   1      36.873  31.916  29.759  1.00  0.00     0.022 A 
BRANCH  46  50
ATOM     50  S   UNL A   1      35.411  33.125  31.800  1.00  0.00     0.124 S 
ATOM     51  O   UNL A   1      34.475  33.108  30.678  1.00  0.00    -0.237 OA
ATOM     52  O   UNL A   1      35.179  32.128  32.839  1.00  0.00    -0.237 OA
ATOM     53  O   UNL A   1      35.773  34.456  32.283  1.00  0.00    -0.744 OA
ENDBRANCH  46  50
ENDBRANCH  29  43
BRANCH  30  54
ATOM     54  C   UNL A   1      48.037  31.681  36.309  1.00  0.00     0.023 A 
ATOM     55  C   UNL A   1      48.170  32.097  37.642  1.00  0.00     0.031 A 
ATOM     56  C   UNL A   1      49.183  31.186  35.655  1.00  0.00     0.131 A 
ATOM     57  C   UNL A   1      49.420  32.007  38.281  1.00  0.00     0.055 A 
ATOM     58  C   UNL A   1      50.413  31.066  36.303  1.00  0.00     0.041 A 
ATOM     59  F   UNL A   1      49.110  30.773  34.379  1.00  0.00    -0.206 F 
ATOM     60  C   UNL A   1      50.537  31.480  37.624  1.00  0.00     0.022 A 
BRANCH  57  61
ATOM     61  S   UNL A   1      49.578  32.588  39.993  1.00  0.00     0.124 S 
ATOM     62  O   UNL A   1      49.009  33.929  39.905  1.00  0.00    -0.237 OA
ATOM     63  O   UNL A   1      48.790  31.603  40.726  1.00  0.00    -0.237 OA
ATOM     64  O   UNL A   1      51.017  32.535  40.240  1.00  0.00    -0.744 OA
ENDBRANCH  57  61
ENDBRANCH  30  54
BRANCH  42  65
ATOM     65  C   UNL A   1      43.017  26.979  34.974  1.00  0.00     0.023 A 
ATOM     66  C   UNL A   1      43.753  26.004  34.283  1.00  0.00     0.031 A 
ATOM     67  C   UNL A   1      42.192  26.571  36.037  1.00  0.00     0.131 A 
ATOM     68  C   UNL A   1      43.631  24.658  34.651  1.00  0.00     0.055 A 
ATOM     69  C   UNL A   1      42.114  25.237  36.430  1.00  0.00     0.041 A 
ATOM     70  F   UNL A   1      41.475  27.473  36.728  1.00  0.00    -0.206 F 
ATOM     71  C   UNL A   1      42.833  24.271  35.733  1.00  0.00     0.022 A 
BRANCH  68  72
ATOM     72  S   UNL A   1      44.512  23.406  33.679  1.00  0.00     0.124 S 
ATOM     73  O   UNL A   1      43.933  22.168  34.190  1.00  0.00    -0.237 OA
ATOM     74  O   UNL A   1      44.153  23.759  32.308  1.00  0.00    -0.237 OA
ATOM     75  O   UNL A   1      45.913  23.626  34.026  1.00  0.00    -0.744 OA
ENDBRANCH  68  72
ENDBRANCH  42  65
ENDBRANCH  16  17
ENDBRANCH   9  11
ENDBRANCH   8   9
ENDBRANCH   7   8
ENDBRANCH   6   7
ENDBRANCH   5   6
ENDBRANCH   4   5
ENDBRANCH   3   4
ENDBRANCH   2   3
ENDBRANCH   1   2
BRANCH   1  76
ATOM     76  C   UNL A   1      45.917  43.210  38.269  1.00  0.00     0.188 C 
BRANCH  76  77
ATOM     77  O   UNL A   1      44.527  42.915  38.225  1.00  0.00    -0.376 OA
BRANCH  77  78
ATOM     78  C   UNL A   1      44.191  41.653  37.656  1.00  0.00     0.202 C 
BRANCH  78  79
ATOM     79  C   UNL A   1      44.059  40.480  38.643  1.00  0.00     0.261 C 
BRANCH  79  80
ATOM     80  O   UNL A   1      42.836  40.554  39.411  1.00  0.00    -0.460 OA
BRANCH  80  81
ATOM     81  C   UNL A   1      42.697  39.863  40.572  1.00  0.00     0.339 C 
ATOM     82  O   UNL A   1      43.605  39.594  41.342  1.00  0.00    -0.246 OA
BRANCH  81  83
ATOM     83  C   UNL A   1      41.018  39.228  40.652  1.00  0.00     0.080 A 
ATOM     84  C   UNL A   1      40.106  37.824  39.449  1.00  0.00     0.043 A 
ATOM     85  C   UNL A   1      40.821  39.952  41.700  1.00  0.00     0.055 A 
ATOM     86  C   UNL A   1      39.169  37.041  38.977  1.00  0.00     0.041 A 
ATOM     87  C   UNL A   1      39.883  39.480  40.987  1.00  0.00     0.023 A 
ATOM     88  Cl  UNL A   1      41.081  41.515  42.266  1.00  0.00    -0.083 Cl
ATOM     89  C   UNL A   1      39.107  38.071  39.732  1.00  0.00     0.028 A 
BRANCH  86  90
ATOM     90  N   UNL A   1      39.017  35.692  39.314  1.00  0.00    -0.332 N 
ATOM     91  H   UNL A   1      39.046  35.559  40.288  1.00  0.00     0.169 HD
BRANCH  90  92
ATOM     92  C   UNL A   1      38.841  34.520  38.659  1.00  0.00     0.177 C 
ATOM     93  S   UNL A   1      38.976  33.123  39.581  1.00  0.00    -0.040 S 
BRANCH  92  94
ATOM     94  N   UNL A   1      38.469  34.376  37.351  1.00  0.00    -0.299 N 
ATOM     95  C   UNL A   1      39.070  34.411  36.097  1.00  0.00     0.260 C 
ATOM     96  H   UNL A   1      37.504  34.194  37.276  1.00  0.00     0.172 HD
ATOM     97  O   UNL A   1      38.457  34.740  35.093  1.00  0.00    -0.269 OA
BRANCH  95  98
ATOM     98  C   UNL A   1      40.501  34.094  36.038  1.00  0.00     0.075 A 
ATOM     99  C   UNL A   1      41.792  35.439  36.754  1.00  0.00     0.017 A 
ATOM    100  C   UNL A   1      40.881  32.174  36.242  1.00  0.00     0.135 A 
ATOM    101  C   UNL A   1      43.367  34.590  37.604  1.00  0.00     0.001 A 
ATOM    102  C   UNL A   1      42.432  31.331  37.122  1.00  0.00     0.040 A 
ATOM    103  F   UNL A   1      39.899  31.328  35.872  1.00  0.00    -0.206 F 
ATOM    104  C   UNL A   1      43.742  32.673  37.832  1.00  0.00     0.003 A 
ENDBRANCH  95  98
ENDBRANCH  92  94
ENDBRANCH  90  92
ENDBRANCH  86  90
ENDBRANCH  81  83
ENDBRANCH  80  81
ENDBRANCH  79  80
ENDBRANCH  78  79
ENDBRANCH  77  78
ENDBRANCH  76  77
ENDBRANCH   1  76
TORSDOF 27
ENDMDL
MODEL 3
REMARK VINA RESULT:      -7.6      6.145      9.168
REMARK SMILES O=C(OCCOCCOCCOCCOC(=O)c1cc(NC(=S)NC(=O)c2ccccc2F)ccc1Cl)c1ccc(-c2c3nc(c(-c4cc(S(=O)(=O)[O-])ccc4F)c4ccc([nH]4)c(-c4cc(S(=O)(=O)[O-])ccc4F)c4nc(c(-c5cc(S(=O)(=O)[O-])ccc5F)c5ccc2[nH]5)C=C4)C=C3)cc1
REMARK SMILES IDX 10 1 9 2 8 3 7 4 6 5 5 6 4 7 3 8 2 9 1 10 38 11 39 12 100 13
REMARK SMILES IDX 40 14 99 15 41 16 42 17 43 18 93 19 44 20 98 21 92 22 94 23
REMARK SMILES IDX 45 24 97 25 91 26 90 27 46 29 78 30 58 31 77 32 59 33 62 34
REMARK SMILES IDX 76 35 95 36 60 37 61 38 75 40 96 41 63 42 47 43 48 44 56 45
REMARK SMILES IDX 49 46 55 47 57 48 54 49 50 50 51 51 52 52 53 53 79 54 80 55
REMARK SMILES IDX 88 56 81 57 87 58 89 59 86 60 82 61 83 62 84 63 85 64 64 65
REMARK SMILES IDX 65 66 73 67 66 68 72 69 74 70 71 71 67 72 68 73 69 74 70 75
REMARK SMILES IDX 11 76 12 77 13 78 14 79 15 80 16 81 17 82 18 83 19 84 36 85
REMARK SMILES IDX 20 86 35 87 37 88 34 89 21 90 22 92 23 93 24 94 25 95 26 97
REMARK SMILES IDX 27 98 28 99 32 100 29 101 31 102 33 103 30 104
REMARK H PARENT 94 28 62 39 21 91 24 96
REMARK Flexibility Score: inf
ROOT
ATOM      1  C   UNL A   1      33.593  35.054  32.667  1.00  0.00     0.188 C 
ENDROOT
BRANCH   1   2
ATOM      2  O   UNL A   1      33.115  34.764  31.355  1.00  0.00    -0.377 OA
BRANCH   2   3
ATOM      3  C   UNL A   1      33.235  35.828  30.415  1.00  0.00     0.188 C 
BRANCH   3   4
ATOM      4  C   UNL A   1      33.586  35.345  29.012  1.00  0.00     0.188 C 
BRANCH   4   5
ATOM      5  O   UNL A   1      34.950  34.923  28.973  1.00  0.00    -0.376 OA
BRANCH   5   6
ATOM      6  C   UNL A   1      35.167  33.522  29.133  1.00  0.00     0.202 C 
BRANCH   6   7
ATOM      7  C   UNL A   1      36.463  33.203  29.876  1.00  0.00     0.261 C 
BRANCH   7   8
ATOM      8  O   UNL A   1      37.564  33.990  29.397  1.00  0.00    -0.460 OA
BRANCH   8   9
ATOM      9  C   UNL A   1      38.587  34.510  30.120  1.00  0.00     0.338 C 
ATOM     10  O   UNL A   1      38.350  34.837  31.284  1.00  0.00    -0.246 OA
BRANCH   9  11
ATOM     11  C   UNL A   1      39.988  34.712  29.614  1.00  0.00     0.060 A 
ATOM     12  C   UNL A   1      40.351  35.203  28.356  1.00  0.00     0.016 A 
ATOM     13  C   UNL A   1      41.027  34.431  30.522  1.00  0.00     0.016 A 
ATOM     14  C   UNL A   1      41.678  35.381  27.991  1.00  0.00     0.010 A 
ATOM     15  C   UNL A   1      42.368  34.602  30.167  1.00  0.00     0.010 A 
ATOM     16  C   UNL A   1      42.690  35.060  28.886  1.00  0.00    -0.014 A 
BRANCH  16  17
ATOM     17  C   UNL A   1      44.062  35.015  28.362  1.00  0.00     0.031 A 
ATOM     18  C   UNL A   1      44.696  33.666  28.212  1.00  0.00     0.074 A 
ATOM     19  C   UNL A   1      44.631  36.128  27.865  1.00  0.00     0.049 A 
ATOM     20  N   UNL A   1      45.903  33.352  27.835  1.00  0.00    -0.248 NA
ATOM     21  C   UNL A   1      43.833  32.509  28.508  1.00  0.00     0.031 C 
ATOM     22  C   UNL A   1      43.983  37.441  27.791  1.00  0.00     0.029 A 
ATOM     23  N   UNL A   1      45.853  36.323  27.286  1.00  0.00    -0.354 N 
ATOM     24  C   UNL A   1      45.952  31.964  27.870  1.00  0.00     0.074 A 
ATOM     25  C   UNL A   1      44.658  31.496  28.310  1.00  0.00     0.031 C 
ATOM     26  C   UNL A   1      44.811  38.299  27.173  1.00  0.00     0.029 A 
ATOM     27  C   UNL A   1      46.069  37.619  26.884  1.00  0.00     0.049 A 
ATOM     28  H   UNL A   1      46.516  35.604  27.169  1.00  0.00     0.167 HD
ATOM     29  C   UNL A   1      47.001  31.162  27.570  1.00  0.00     0.034 A 
ATOM     30  C   UNL A   1      47.181  38.188  26.378  1.00  0.00     0.034 A 
ATOM     31  C   UNL A   1      48.276  31.688  27.161  1.00  0.00     0.049 A 
ATOM     32  C   UNL A   1      48.392  37.309  26.211  1.00  0.00     0.074 A 
ATOM     33  C   UNL A   1      49.468  31.022  26.955  1.00  0.00     0.029 A 
ATOM     34  N   UNL A   1      48.516  33.034  26.896  1.00  0.00    -0.354 N 
ATOM     35  N   UNL A   1      48.502  36.014  26.413  1.00  0.00    -0.248 NA
ATOM     36  C   UNL A   1      49.632  37.961  25.780  1.00  0.00     0.031 C 
ATOM     37  C   UNL A   1      50.441  31.973  26.622  1.00  0.00     0.029 A 
ATOM     38  C   UNL A   1      49.839  33.223  26.546  1.00  0.00     0.049 A 
ATOM     39  H   UNL A   1      47.840  33.748  26.951  1.00  0.00     0.167 HD
ATOM     40  C   UNL A   1      49.820  35.690  26.121  1.00  0.00     0.074 A 
ATOM     41  C   UNL A   1      50.467  36.930  25.727  1.00  0.00     0.031 C 
ATOM     42  C   UNL A   1      50.441  34.484  26.169  1.00  0.00     0.034 A 
BRANCH  29  43
ATOM     43  C   UNL A   1      46.812  29.685  27.803  1.00  0.00     0.023 A 
ATOM     44  C   UNL A   1      46.284  28.837  26.812  1.00  0.00     0.031 A 
ATOM     45  C   UNL A   1      47.055  29.141  29.076  1.00  0.00     0.131 A 
ATOM     46  C   UNL A   1      45.940  27.513  27.136  1.00  0.00     0.055 A 
ATOM     47  C   UNL A   1      46.783  27.803  29.369  1.00  0.00     0.041 A 
ATOM     48  F   UNL A   1      47.526  29.912  30.069  1.00  0.00    -0.206 F 
ATOM     49  C   UNL A   1      46.207  26.986  28.402  1.00  0.00     0.022 A 
BRANCH  46  50
ATOM     50  S   UNL A   1      45.006  26.531  25.929  1.00  0.00     0.124 S 
ATOM     51  O   UNL A   1      44.013  25.884  26.783  1.00  0.00    -0.237 OA
ATOM     52  O   UNL A   1      44.496  27.549  25.017  1.00  0.00    -0.237 OA
ATOM     53  O   UNL A   1      46.012  25.635  25.362  1.00  0.00    -0.744 OA
ENDBRANCH  46  50
ENDBRANCH  29  43
BRANCH  30  54
ATOM     54  C   UNL A   1      47.204  39.647  26.083  1.00  0.00     0.023 A 
ATOM     55  C   UNL A   1      46.795  40.153  24.840  1.00  0.00     0.031 A 
ATOM     56  C   UNL A   1      47.599  40.570  27.072  1.00  0.00     0.131 A 
ATOM     57  C   UNL A   1      46.786  41.543  24.619  1.00  0.00     0.055 A 
ATOM     58  C   UNL A   1      47.556  41.948  26.860  1.00  0.00     0.041 A 
ATOM     59  F   UNL A   1      47.998  40.139  28.280  1.00  0.00    -0.206 F 
ATOM     60  C   UNL A   1      47.149  42.442  25.626  1.00  0.00     0.022 A 
BRANCH  57  61
ATOM     61  S   UNL A   1      46.292  42.172  22.990  1.00  0.00     0.124 S 
ATOM     62  O   UNL A   1      44.851  42.329  23.156  1.00  0.00    -0.237 OA
ATOM     63  O   UNL A   1      47.065  43.406  22.889  1.00  0.00    -0.237 OA
ATOM     64  O   UNL A   1      46.702  41.109  22.074  1.00  0.00    -0.744 OA
ENDBRANCH  57  61
ENDBRANCH  30  54
BRANCH  42  65
ATOM     65  C   UNL A   1      51.881  34.442  25.746  1.00  0.00     0.023 A 
ATOM     66  C   UNL A   1      52.251  34.124  24.430  1.00  0.00     0.031 A 
ATOM     67  C   UNL A   1      52.888  34.794  26.663  1.00  0.00     0.131 A 
ATOM     68  C   UNL A   1      53.605  34.143  24.071  1.00  0.00     0.055 A 
ATOM     69  C   UNL A   1      54.228  34.858  26.285  1.00  0.00     0.041 A 
ATOM     70  F   UNL A   1      52.576  35.110  27.930  1.00  0.00    -0.206 F 
ATOM     71  C   UNL A   1      54.593  34.528  24.983  1.00  0.00     0.022 A 
BRANCH  68  72
ATOM     72  S   UNL A   1      54.068  33.630  22.394  1.00  0.00     0.124 S 
ATOM     73  O   UNL A   1      54.806  34.796  21.918  1.00  0.00    -0.237 OA
ATOM     74  O   UNL A   1      54.861  32.429  22.638  1.00  0.00    -0.237 OA
ATOM     75  O   UNL A   1      52.782  33.399  21.740  1.00  0.00    -0.744 OA
ENDBRANCH  68  72
ENDBRANCH  42  65
ENDBRANCH  16  17
ENDBRANCH   9  11
ENDBRANCH   8   9
ENDBRANCH   7   8
ENDBRANCH   6   7
ENDBRANCH   5   6
ENDBRANCH   4   5
ENDBRANCH   3   4
ENDBRANCH   2   3
ENDBRANCH   1   2
BRANCH   1  76
ATOM     76  C   UNL A   1      34.716  34.175  33.257  1.00  0.00     0.188 C 
BRANCH  76  77
ATOM     77  O   UNL A   1      35.925  34.901  33.436  1.00  0.00    -0.376 OA
BRANCH  77  78
ATOM     78  C   UNL A   1      36.810  34.376  34.420  1.00  0.00     0.202 C 
BRANCH  78  79
ATOM     79  C   UNL A   1      37.183  32.890  34.268  1.00  0.00     0.261 C 
BRANCH  79  80
ATOM     80  O   UNL A   1      37.119  32.186  35.530  1.00  0.00    -0.460 OA
BRANCH  80  81
ATOM     81  C   UNL A   1      38.252  31.841  36.196  1.00  0.00     0.339 C 
ATOM     82  O   UNL A   1      39.081  31.038  35.801  1.00  0.00    -0.246 OA
BRANCH  81  83
ATOM     83  C   UNL A   1      38.191  32.585  37.831  1.00  0.00     0.080 A 
ATOM     84  C   UNL A   1      36.886  32.203  39.380  1.00  0.00     0.043 A 
ATOM     85  C   UNL A   1      39.244  33.266  37.532  1.00  0.00     0.055 A 
ATOM     86  C   UNL A   1      36.324  32.300  40.559  1.00  0.00     0.041 A 
ATOM     87  C   UNL A   1      38.452  33.576  38.474  1.00  0.00     0.023 A 
ATOM     88  Cl  UNL A   1      39.872  34.202  36.283  1.00  0.00    -0.083 Cl
ATOM     89  C   UNL A   1      37.103  33.093  39.927  1.00  0.00     0.028 A 
BRANCH  86  90
ATOM     90  N   UNL A   1      36.610  31.466  41.644  1.00  0.00    -0.332 N 
ATOM     91  H   UNL A   1      37.237  30.751  41.394  1.00  0.00     0.169 HD
BRANCH  90  92
ATOM     92  C   UNL A   1      36.255  31.379  42.948  1.00  0.00     0.177 C 
ATOM     93  S   UNL A   1      34.804  32.107  43.377  1.00  0.00    -0.040 S 
BRANCH  92  94
ATOM     94  N   UNL A   1      36.914  30.675  43.918  1.00  0.00    -0.299 N 
ATOM     95  C   UNL A   1      38.227  30.452  44.320  1.00  0.00     0.260 C 
ATOM     96  H   UNL A   1      36.280  30.190  44.494  1.00  0.00     0.172 HD
ATOM     97  O   UNL A   1      38.568  29.422  44.880  1.00  0.00    -0.269 OA
BRANCH  95  98
ATOM     98  C   UNL A   1      39.209  31.490  43.985  1.00  0.00     0.075 A 
ATOM     99  C   UNL A   1      40.132  31.374  42.218  1.00  0.00     0.017 A 
ATOM    100  C   UNL A   1      38.764  33.253  44.739  1.00  0.00     0.135 A 
ATOM    101  C   UNL A   1      40.500  33.160  41.444  1.00  0.00     0.001 A 
ATOM    102  C   UNL A   1      39.097  35.029  43.948  1.00  0.00     0.040 A 
ATOM    103  F   UNL A   1      38.010  33.252  45.856  1.00  0.00    -0.206 F 
ATOM    104  C   UNL A   1      40.038  34.924  42.180  1.00  0.00     0.003 A 
ENDBRANCH  95  98
ENDBRANCH  92  94
ENDBRANCH  90  92
ENDBRANCH  86  90
ENDBRANCH  81  83
ENDBRANCH  80  81
ENDBRANCH  79  80
ENDBRANCH  78  79
ENDBRANCH  77  78
ENDBRANCH  76  77
ENDBRANCH   1  76
TORSDOF 27
ENDMDL
