MODEL 1
REMARK VINA RESULT:     -10.7      0.000      0.000
REMARK SMILES COc1cc(OC)c([C@H]2CC(=O)Nc3c(C(=O)OCCOCCOCCOCCOC(=O)c4ccc(-c5c6nc(c(-c7cc(S(=O)(=O)[O-])ccc7F)c7ccc([nH]7)c(-c7cc(S(=O)(=O)[O-])ccc7F)c7nc(c(-c8cc(S(=O)(=O)[O-])ccc8F)c8ccc5[nH]8)C=C7)C=C6)cc4)cn(-c4ccccc4)c32)cc1OC
REMARK SMILES IDX 25 1 24 2 23 3 22 4 21 5 20 6 19 7 18 8 16 9 17 10 15 11
REMARK SMILES IDX 9 12 10 13 104 14 11 15 14 16 97 17 12 18 13 19 96 20 8 22
REMARK SMILES IDX 3 23 4 24 106 25 5 26 105 27 2 28 1 29 107 30 108 31 6 32
REMARK SMILES IDX 7 33 98 34 99 35 103 36 100 37 102 38 101 39 26 40 27 41
REMARK SMILES IDX 28 42 29 43 30 44 31 45 32 46 33 47 34 48 95 49 35 50 94 51
REMARK SMILES IDX 36 52 37 53 38 54 88 55 39 56 93 57 87 58 89 59 40 60 92 61
REMARK SMILES IDX 86 62 85 63 41 65 73 66 53 67 72 68 54 69 57 70 71 71 90 72
REMARK SMILES IDX 55 73 56 74 70 76 91 77 58 78 42 79 43 80 51 81 44 82 50 83
REMARK SMILES IDX 52 84 49 85 45 86 46 87 47 88 48 89 74 90 75 91 83 92 76 93
REMARK SMILES IDX 82 94 84 95 81 96 77 97 78 98 79 99 80 100 59 101 60 102
REMARK SMILES IDX 68 103 61 104 67 105 69 106 66 107 62 108 63 109 64 110
REMARK SMILES IDX 65 111
REMARK H PARENT 13 21 89 64 57 75
REMARK Flexibility Score: inf
ROOT
ATOM      1  C   UNL A   1      40.404  21.238  26.403  1.00  0.00     0.188 C 
ENDROOT
BRANCH   1   2
ATOM      2  O   UNL A   1      39.346  22.198  26.372  1.00  0.00    -0.377 OA
BRANCH   2   3
ATOM      3  C   UNL A   1      38.340  21.964  25.401  1.00  0.00     0.188 C 
BRANCH   3   4
ATOM      4  C   UNL A   1      36.912  21.868  25.985  1.00  0.00     0.188 C 
BRANCH   4   5
ATOM      5  O   UNL A   1      35.791  21.451  25.215  1.00  0.00    -0.376 OA
BRANCH   5   6
ATOM      6  C   UNL A   1      34.555  21.057  25.785  1.00  0.00     0.202 C 
BRANCH   6   7
ATOM      7  C   UNL A   1      33.371  20.545  24.948  1.00  0.00     0.261 C 
BRANCH   7   8
ATOM      8  O   UNL A   1      33.406  20.803  23.547  1.00  0.00    -0.460 OA
BRANCH   8   9
ATOM      9  C   UNL A   1      32.318  21.441  23.044  1.00  0.00     0.341 C 
ATOM     10  O   UNL A   1      31.442  20.915  22.369  1.00  0.00    -0.246 OA
BRANCH   9  11
ATOM     11  C   UNL A   1      32.245  22.813  23.526  1.00  0.00     0.102 A 
ATOM     12  C   UNL A   1      31.125  25.636  25.699  1.00  0.00     0.082 C 
ATOM     13  C   UNL A   1      29.956  24.894  26.372  1.00  0.00     0.115 C 
ATOM     14  C   UNL A   1      31.744  24.721  24.655  1.00  0.00     0.055 A 
ATOM     15  C   UNL A   1      30.244  23.425  26.648  1.00  0.00     0.225 C 
ATOM     16  C   UNL A   1      31.583  23.353  24.653  1.00  0.00     0.078 A 
ATOM     17  N   UNL A   1      32.572  25.045  23.593  1.00  0.00    -0.317 N 
ATOM     18  O   UNL A   1      29.833  22.858  27.659  1.00  0.00    -0.275 OA
ATOM     19  N   UNL A   1      30.893  22.725  25.662  1.00  0.00    -0.324 N 
ATOM     20  C   UNL A   1      32.765  23.904  22.845  1.00  0.00     0.109 A 
ATOM     21  H   UNL A   1      30.863  21.742  25.677  1.00  0.00     0.170 HD
BRANCH  12  22
ATOM     22  C   UNL A   1      30.682  27.020  25.211  1.00  0.00     0.008 A 
ATOM     23  C   UNL A   1      29.977  29.430  23.842  1.00  0.00     0.164 A 
ATOM     24  C   UNL A   1      30.932  29.407  24.862  1.00  0.00     0.097 A 
ATOM     25  C   UNL A   1      29.311  28.250  23.536  1.00  0.00     0.161 A 
ATOM     26  C   UNL A   1      31.295  28.236  25.561  1.00  0.00     0.126 A 
ATOM     27  C   UNL A   1      29.624  27.082  24.257  1.00  0.00     0.058 A 
BRANCH  23  28
ATOM     28  O   UNL A   1      29.887  30.634  23.202  1.00  0.00    -0.493 OA
ATOM     29  C   UNL A   1      29.268  31.700  23.910  1.00  0.00     0.278 C 
ENDBRANCH  23  28
BRANCH  25  30
ATOM     30  O   UNL A   1      28.331  28.114  22.592  1.00  0.00    -0.493 OA
ATOM     31  C   UNL A   1      27.113  28.793  22.890  1.00  0.00     0.278 C 
ENDBRANCH  25  30
BRANCH  26  32
ATOM     32  O   UNL A   1      32.265  28.540  26.470  1.00  0.00    -0.496 OA
ATOM     33  C   UNL A   1      32.698  29.852  26.754  1.00  0.00     0.278 C 
ENDBRANCH  26  32
ENDBRANCH  12  22
BRANCH  17  34
ATOM     34  C   UNL A   1      33.149  26.297  23.291  1.00  0.00     0.045 A 
ATOM     35  C   UNL A   1      34.048  26.872  24.192  1.00  0.00     0.026 A 
ATOM     36  C   UNL A   1      32.771  26.973  22.127  1.00  0.00     0.026 A 
ATOM     37  C   UNL A   1      34.519  28.161  23.964  1.00  0.00     0.002 A 
ATOM     38  C   UNL A   1      33.237  28.270  21.915  1.00  0.00     0.002 A 
ATOM     39  C   UNL A   1      34.096  28.868  22.839  1.00  0.00     0.000 A 
ENDBRANCH  17  34
ENDBRANCH   9  11
ENDBRANCH   8   9
ENDBRANCH   7   8
ENDBRANCH   6   7
ENDBRANCH   5   6
ENDBRANCH   4   5
ENDBRANCH   3   4
ENDBRANCH   2   3
ENDBRANCH   1   2
BRANCH   1  40
ATOM     40  C   UNL A   1      40.036  19.743  26.220  1.00  0.00     0.188 C 
BRANCH  40  41
ATOM     41  O   UNL A   1      41.033  18.975  25.556  1.00  0.00    -0.376 OA
BRANCH  41  42
ATOM     42  C   UNL A   1      42.283  18.688  26.157  1.00  0.00     0.202 C 
BRANCH  42  43
ATOM     43  C   UNL A   1      43.532  18.967  25.330  1.00  0.00     0.261 C 
BRANCH  43  44
ATOM     44  O   UNL A   1      43.713  20.334  25.027  1.00  0.00    -0.460 OA
BRANCH  44  45
ATOM     45  C   UNL A   1      44.836  20.615  24.345  1.00  0.00     0.338 C 
ATOM     46  O   UNL A   1      45.542  19.824  23.729  1.00  0.00    -0.246 OA
BRANCH  45  47
ATOM     47  C   UNL A   1      45.139  22.029  24.546  1.00  0.00     0.060 A 
ATOM     48  C   UNL A   1      46.181  22.315  25.424  1.00  0.00     0.016 A 
ATOM     49  C   UNL A   1      44.173  22.979  24.173  1.00  0.00     0.016 A 
ATOM     50  C   UNL A   1      46.074  23.461  26.168  1.00  0.00     0.010 A 
ATOM     51  C   UNL A   1      44.058  24.111  24.930  1.00  0.00     0.010 A 
ATOM     52  C   UNL A   1      44.945  24.268  25.987  1.00  0.00    -0.014 A 
BRANCH  52  53
ATOM     53  C   UNL A   1      44.735  25.348  26.915  1.00  0.00     0.031 A 
ATOM     54  C   UNL A   1      45.848  26.310  26.890  1.00  0.00     0.074 A 
ATOM     55  C   UNL A   1      43.618  25.464  27.654  1.00  0.00     0.049 A 
ATOM     56  N   UNL A   1      46.787  26.425  27.765  1.00  0.00    -0.248 NA
ATOM     57  C   UNL A   1      46.091  27.045  25.639  1.00  0.00     0.031 C 
ATOM     58  C   UNL A   1      42.375  24.695  27.568  1.00  0.00     0.029 A 
ATOM     59  N   UNL A   1      43.337  26.388  28.604  1.00  0.00    -0.354 N 
ATOM     60  C   UNL A   1      47.593  27.450  27.295  1.00  0.00     0.074 A 
ATOM     61  C   UNL A   1      47.275  27.598  25.901  1.00  0.00     0.031 C 
ATOM     62  C   UNL A   1      41.406  25.339  28.263  1.00  0.00     0.029 A 
ATOM     63  C   UNL A   1      41.993  26.485  28.942  1.00  0.00     0.049 A 
ATOM     64  H   UNL A   1      44.031  26.947  29.022  1.00  0.00     0.167 HD
ATOM     65  C   UNL A   1      48.225  28.280  28.164  1.00  0.00     0.034 A 
ATOM     66  C   UNL A   1      41.416  27.488  29.659  1.00  0.00     0.034 A 
ATOM     67  C   UNL A   1      48.283  27.692  29.488  1.00  0.00     0.049 A 
ATOM     68  C   UNL A   1      42.505  28.121  30.453  1.00  0.00     0.074 A 
ATOM     69  C   UNL A   1      48.808  26.518  29.995  1.00  0.00     0.029 A 
ATOM     70  N   UNL A   1      47.383  28.134  30.435  1.00  0.00    -0.354 N 
ATOM     71  N   UNL A   1      43.148  27.493  31.402  1.00  0.00    -0.248 NA
ATOM     72  C   UNL A   1      43.234  29.234  29.856  1.00  0.00     0.031 C 
ATOM     73  C   UNL A   1      47.850  26.067  30.951  1.00  0.00     0.029 A 
ATOM     74  C   UNL A   1      46.838  27.026  31.043  1.00  0.00     0.049 A 
ATOM     75  H   UNL A   1      47.168  29.072  30.639  1.00  0.00     0.167 HD
ATOM     76  C   UNL A   1      44.484  27.825  31.219  1.00  0.00     0.074 A 
ATOM     77  C   UNL A   1      44.464  28.974  30.313  1.00  0.00     0.031 C 
ATOM     78  C   UNL A   1      45.486  26.966  31.574  1.00  0.00     0.034 A 
BRANCH  65  79
ATOM     79  C   UNL A   1      48.421  29.757  27.917  1.00  0.00     0.023 A 
ATOM     80  C   UNL A   1      47.260  30.520  27.715  1.00  0.00     0.031 A 
ATOM     81  C   UNL A   1      49.641  30.393  27.586  1.00  0.00     0.131 A 
ATOM     82  C   UNL A   1      47.327  31.785  27.109  1.00  0.00     0.055 A 
ATOM     83  C   UNL A   1      49.709  31.681  27.050  1.00  0.00     0.041 A 
ATOM     84  F   UNL A   1      50.832  29.789  27.667  1.00  0.00    -0.206 F 
ATOM     85  C   UNL A   1      48.545  32.372  26.774  1.00  0.00     0.022 A 
BRANCH  82  86
ATOM     86  S   UNL A   1      45.780  32.565  26.596  1.00  0.00     0.124 S 
ATOM     87  O   UNL A   1      45.358  33.216  27.831  1.00  0.00    -0.237 OA
ATOM     88  O   UNL A   1      46.231  33.445  25.524  1.00  0.00    -0.237 OA
ATOM     89  O   UNL A   1      44.958  31.435  26.172  1.00  0.00    -0.744 OA
ENDBRANCH  82  86
ENDBRANCH  65  79
BRANCH  66  90
ATOM     90  C   UNL A   1      40.103  28.142  29.377  1.00  0.00     0.023 A 
ATOM     91  C   UNL A   1      39.172  28.478  30.385  1.00  0.00     0.031 A 
ATOM     92  C   UNL A   1      39.850  28.668  28.088  1.00  0.00     0.131 A 
ATOM     93  C   UNL A   1      38.055  29.298  30.082  1.00  0.00     0.055 A 
ATOM     94  C   UNL A   1      38.748  29.474  27.796  1.00  0.00     0.041 A 
ATOM     95  F   UNL A   1      40.717  28.487  27.079  1.00  0.00    -0.206 F 
ATOM     96  C   UNL A   1      37.848  29.800  28.794  1.00  0.00     0.022 A 
BRANCH  93  97
ATOM     97  S   UNL A   1      36.882  29.799  31.387  1.00  0.00     0.124 S 
ATOM     98  O   UNL A   1      35.596  29.688  30.709  1.00  0.00    -0.237 OA
ATOM     99  O   UNL A   1      37.148  28.826  32.440  1.00  0.00    -0.237 OA
ATOM    100  O   UNL A   1      37.290  31.169  31.706  1.00  0.00    -0.744 OA
ENDBRANCH  93  97
ENDBRANCH  66  90
BRANCH  78 101
ATOM    101  C   UNL A   1      45.131  25.753  32.418  1.00  0.00     0.023 A 
ATOM    102  C   UNL A   1      45.022  25.745  33.829  1.00  0.00     0.031 A 
ATOM    103  C   UNL A   1      44.771  24.578  31.735  1.00  0.00     0.131 A 
ATOM    104  C   UNL A   1      44.579  24.586  34.498  1.00  0.00     0.055 A 
ATOM    105  C   UNL A   1      44.311  23.441  32.398  1.00  0.00     0.041 A 
ATOM    106  F   UNL A   1      44.826  24.526  30.393  1.00  0.00    -0.206 F 
ATOM    107  C   UNL A   1      44.219  23.438  33.785  1.00  0.00     0.022 A 
BRANCH 104 108
ATOM    108  S   UNL A   1      44.478  24.537  36.319  1.00  0.00     0.124 S 
ATOM    109  O   UNL A   1      44.901  23.181  36.649  1.00  0.00    -0.237 OA
ATOM    110  O   UNL A   1      45.391  25.606  36.716  1.00  0.00    -0.237 OA
ATOM    111  O   UNL A   1      43.066  24.816  36.589  1.00  0.00    -0.744 OA
ENDBRANCH 104 108
ENDBRANCH  78 101
ENDBRANCH  52  53
ENDBRANCH  45  47
ENDBRANCH  44  45
ENDBRANCH  43  44
ENDBRANCH  42  43
ENDBRANCH  41  42
ENDBRANCH  40  41
ENDBRANCH   1  40
TORSDOF 28
ENDMDL
MODEL 2
REMARK VINA RESULT:      -9.8      3.799      8.134
REMARK SMILES COc1cc(OC)c([C@H]2CC(=O)Nc3c(C(=O)OCCOCCOCCOCCOC(=O)c4ccc(-c5c6nc(c(-c7cc(S(=O)(=O)[O-])ccc7F)c7ccc([nH]7)c(-c7cc(S(=O)(=O)[O-])ccc7F)c7nc(c(-c8cc(S(=O)(=O)[O-])ccc8F)c8ccc5[nH]8)C=C7)C=C6)cc4)cn(-c4ccccc4)c32)cc1OC
REMARK SMILES IDX 25 1 24 2 23 3 22 4 21 5 20 6 19 7 18 8 16 9 17 10 15 11
REMARK SMILES IDX 9 12 10 13 104 14 11 15 14 16 97 17 12 18 13 19 96 20 8 22
REMARK SMILES IDX 3 23 4 24 106 25 5 26 105 27 2 28 1 29 107 30 108 31 6 32
REMARK SMILES IDX 7 33 98 34 99 35 103 36 100 37 102 38 101 39 26 40 27 41
REMARK SMILES IDX 28 42 29 43 30 44 31 45 32 46 33 47 34 48 95 49 35 50 94 51
REMARK SMILES IDX 36 52 37 53 38 54 88 55 39 56 93 57 87 58 89 59 40 60 92 61
REMARK SMILES IDX 86 62 85 63 41 65 73 66 53 67 72 68 54 69 57 70 71 71 90 72
REMARK SMILES IDX 55 73 56 74 70 76 91 77 58 78 42 79 43 80 51 81 44 82 50 83
REMARK SMILES IDX 52 84 49 85 45 86 46 87 47 88 48 89 74 90 75 91 83 92 76 93
REMARK SMILES IDX 82 94 84 95 81 96 77 97 78 98 79 99 80 100 59 101 60 102
REMARK SMILES IDX 68 103 61 104 67 105 69 106 66 107 62 108 63 109 64 110
REMARK SMILES IDX 65 111
REMARK H PARENT 13 21 89 64 57 75
REMARK Flexibility Score: inf
ROOT
ATOM      1  C   UNL A   1      39.717  23.011  26.381  1.00  0.00     0.188 C 
ENDROOT
BRANCH   1   2
ATOM      2  O   UNL A   1      38.300  22.823  26.377  1.00  0.00    -0.377 OA
BRANCH   2   3
ATOM      3  C   UNL A   1      37.800  21.994  25.342  1.00  0.00     0.188 C 
BRANCH   3   4
ATOM      4  C   UNL A   1      36.641  21.071  25.780  1.00  0.00     0.188 C 
BRANCH   4   5
ATOM      5  O   UNL A   1      35.644  20.604  24.878  1.00  0.00    -0.376 OA
BRANCH   5   6
ATOM      6  C   UNL A   1      34.390  20.095  25.296  1.00  0.00     0.202 C 
BRANCH   6   7
ATOM      7  C   UNL A   1      33.114  20.207  24.443  1.00  0.00     0.261 C 
BRANCH   7   8
ATOM      8  O   UNL A   1      33.239  20.823  23.164  1.00  0.00    -0.460 OA
BRANCH   8   9
ATOM      9  C   UNL A   1      32.143  21.499  22.734  1.00  0.00     0.341 C 
ATOM     10  O   UNL A   1      31.235  21.019  22.068  1.00  0.00    -0.246 OA
BRANCH   9  11
ATOM     11  C   UNL A   1      32.110  22.847  23.282  1.00  0.00     0.102 A 
ATOM     12  C   UNL A   1      31.068  25.594  25.587  1.00  0.00     0.082 C 
ATOM     13  C   UNL A   1      29.874  24.856  26.221  1.00  0.00     0.115 C 
ATOM     14  C   UNL A   1      31.663  24.712  24.502  1.00  0.00     0.055 A 
ATOM     15  C   UNL A   1      30.116  23.366  26.426  1.00  0.00     0.225 C 
ATOM     16  C   UNL A   1      31.461  23.351  24.432  1.00  0.00     0.078 A 
ATOM     17  N   UNL A   1      32.504  25.062  23.459  1.00  0.00    -0.317 N 
ATOM     18  O   UNL A   1      29.685  22.764  27.407  1.00  0.00    -0.275 OA
ATOM     19  N   UNL A   1      30.748  22.697  25.408  1.00  0.00    -0.324 N 
ATOM     20  C   UNL A   1      32.665  23.954  22.656  1.00  0.00     0.109 A 
ATOM     21  H   UNL A   1      30.688  21.715  25.375  1.00  0.00     0.170 HD
BRANCH  12  22
ATOM     22  C   UNL A   1      30.669  27.012  25.167  1.00  0.00     0.008 A 
ATOM     23  C   UNL A   1      30.109  29.530  23.931  1.00  0.00     0.164 A 
ATOM     24  C   UNL A   1      30.919  29.422  25.065  1.00  0.00     0.097 A 
ATOM     25  C   UNL A   1      29.513  28.378  23.436  1.00  0.00     0.161 A 
ATOM     26  C   UNL A   1      31.206  28.196  25.702  1.00  0.00     0.126 A 
ATOM     27  C   UNL A   1      29.747  27.153  24.088  1.00  0.00     0.058 A 
BRANCH  23  28
ATOM     28  O   UNL A   1      30.083  30.786  23.392  1.00  0.00    -0.493 OA
ATOM     29  C   UNL A   1      29.621  31.840  24.226  1.00  0.00     0.278 C 
ENDBRANCH  23  28
BRANCH  25  30
ATOM     30  O   UNL A   1      28.670  28.320  22.359  1.00  0.00    -0.493 OA
ATOM     31  C   UNL A   1      27.715  29.377  22.287  1.00  0.00     0.278 C 
ENDBRANCH  25  30
BRANCH  26  32
ATOM     32  O   UNL A   1      32.040  28.425  26.757  1.00  0.00    -0.496 OA
ATOM     33  C   UNL A   1      32.978  29.476  26.809  1.00  0.00     0.278 C 
ENDBRANCH  26  32
ENDBRANCH  12  22
BRANCH  17  34
ATOM     34  C   UNL A   1      33.120  26.310  23.220  1.00  0.00     0.045 A 
ATOM     35  C   UNL A   1      34.025  26.817  24.154  1.00  0.00     0.026 A 
ATOM     36  C   UNL A   1      32.773  27.049  22.084  1.00  0.00     0.026 A 
ATOM     37  C   UNL A   1      34.536  28.101  23.989  1.00  0.00     0.002 A 
ATOM     38  C   UNL A   1      33.279  28.340  21.936  1.00  0.00     0.002 A 
ATOM     39  C   UNL A   1      34.145  28.870  22.895  1.00  0.00     0.000 A 
ENDBRANCH  17  34
ENDBRANCH   9  11
ENDBRANCH   8   9
ENDBRANCH   7   8
ENDBRANCH   6   7
ENDBRANCH   5   6
ENDBRANCH   4   5
ENDBRANCH   3   4
ENDBRANCH   2   3
ENDBRANCH   1   2
BRANCH   1  40
ATOM     40  C   UNL A   1      40.617  21.764  26.578  1.00  0.00     0.188 C 
BRANCH  40  41
ATOM     41  O   UNL A   1      41.927  21.901  26.042  1.00  0.00    -0.376 OA
BRANCH  41  42
ATOM     42  C   UNL A   1      42.851  22.848  26.549  1.00  0.00     0.202 C 
BRANCH  42  43
ATOM     43  C   UNL A   1      42.882  24.216  25.880  1.00  0.00     0.261 C 
BRANCH  43  44
ATOM     44  O   UNL A   1      42.233  25.223  26.627  1.00  0.00    -0.460 OA
BRANCH  44  45
ATOM     45  C   UNL A   1      41.786  26.261  25.901  1.00  0.00     0.338 C 
ATOM     46  O   UNL A   1      42.121  26.564  24.762  1.00  0.00    -0.246 OA
BRANCH  45  47
ATOM     47  C   UNL A   1      40.890  27.044  26.747  1.00  0.00     0.060 A 
ATOM     48  C   UNL A   1      40.798  28.402  26.454  1.00  0.00     0.016 A 
ATOM     49  C   UNL A   1      40.492  26.502  27.981  1.00  0.00     0.016 A 
ATOM     50  C   UNL A   1      40.599  29.257  27.506  1.00  0.00     0.010 A 
ATOM     51  C   UNL A   1      40.314  27.357  29.032  1.00  0.00     0.010 A 
ATOM     52  C   UNL A   1      40.487  28.714  28.792  1.00  0.00    -0.014 A 
BRANCH  52  53
ATOM     53  C   UNL A   1      40.493  29.622  29.908  1.00  0.00     0.031 A 
ATOM     54  C   UNL A   1      39.199  30.303  30.062  1.00  0.00     0.074 A 
ATOM     55  C   UNL A   1      41.552  29.760  30.725  1.00  0.00     0.049 A 
ATOM     56  N   UNL A   1      38.923  31.519  29.736  1.00  0.00    -0.248 NA
ATOM     57  C   UNL A   1      38.022  29.476  30.368  1.00  0.00     0.031 C 
ATOM     58  C   UNL A   1      42.776  28.959  30.788  1.00  0.00     0.029 A 
ATOM     59  N   UNL A   1      41.703  30.625  31.757  1.00  0.00    -0.354 N 
ATOM     60  C   UNL A   1      37.586  31.683  30.059  1.00  0.00     0.074 A 
ATOM     61  C   UNL A   1      37.041  30.359  30.184  1.00  0.00     0.031 C 
ATOM     62  C   UNL A   1      43.423  29.230  31.948  1.00  0.00     0.029 A 
ATOM     63  C   UNL A   1      42.730  30.307  32.637  1.00  0.00     0.049 A 
ATOM     64  H   UNL A   1      41.129  31.417  31.875  1.00  0.00     0.167 HD
ATOM     65  C   UNL A   1      37.127  32.887  30.490  1.00  0.00     0.034 A 
ATOM     66  C   UNL A   1      42.926  30.848  33.871  1.00  0.00     0.034 A 
ATOM     67  C   UNL A   1      38.054  33.946  30.143  1.00  0.00     0.049 A 
ATOM     68  C   UNL A   1      42.226  32.162  33.873  1.00  0.00     0.074 A 
ATOM     69  C   UNL A   1      38.585  34.406  28.952  1.00  0.00     0.029 A 
ATOM     70  N   UNL A   1      38.889  34.428  31.130  1.00  0.00    -0.354 N 
ATOM     71  N   UNL A   1      42.594  33.163  33.117  1.00  0.00    -0.248 NA
ATOM     72  C   UNL A   1      40.831  32.198  34.296  1.00  0.00     0.031 C 
ATOM     73  C   UNL A   1      39.950  34.699  29.246  1.00  0.00     0.029 A 
ATOM     74  C   UNL A   1      40.161  34.488  30.610  1.00  0.00     0.049 A 
ATOM     75  H   UNL A   1      38.622  34.682  32.043  1.00  0.00     0.167 HD
ATOM     76  C   UNL A   1      41.414  33.692  32.612  1.00  0.00     0.074 A 
ATOM     77  C   UNL A   1      40.358  33.118  33.447  1.00  0.00     0.031 C 
ATOM     78  C   UNL A   1      41.373  34.304  31.390  1.00  0.00     0.034 A 
BRANCH  65  79
ATOM     79  C   UNL A   1      36.067  33.046  31.553  1.00  0.00     0.023 A 
ATOM     80  C   UNL A   1      35.005  33.916  31.258  1.00  0.00     0.031 A 
ATOM     81  C   UNL A   1      36.174  32.644  32.906  1.00  0.00     0.131 A 
ATOM     82  C   UNL A   1      34.191  34.432  32.280  1.00  0.00     0.055 A 
ATOM     83  C   UNL A   1      35.318  33.104  33.908  1.00  0.00     0.041 A 
ATOM     84  F   UNL A   1      37.159  31.864  33.366  1.00  0.00    -0.206 F 
ATOM     85  C   UNL A   1      34.340  34.032  33.605  1.00  0.00     0.022 A 
BRANCH  82  86
ATOM     86  S   UNL A   1      33.060  35.779  31.866  1.00  0.00     0.124 S 
ATOM     87  O   UNL A   1      33.549  36.847  32.731  1.00  0.00    -0.237 OA
ATOM     88  O   UNL A   1      33.303  35.944  30.437  1.00  0.00    -0.237 OA
ATOM     89  O   UNL A   1      31.750  35.239  32.219  1.00  0.00    -0.744 OA
ENDBRANCH  82  86
ENDBRANCH  65  79
BRANCH  66  90
ATOM     90  C   UNL A   1      43.325  30.116  35.110  1.00  0.00     0.023 A 
ATOM     91  C   UNL A   1      42.758  28.881  35.497  1.00  0.00     0.031 A 
ATOM     92  C   UNL A   1      44.474  30.530  35.825  1.00  0.00     0.131 A 
ATOM     93  C   UNL A   1      43.335  28.129  36.552  1.00  0.00     0.055 A 
ATOM     94  C   UNL A   1      45.036  29.786  36.863  1.00  0.00     0.041 A 
ATOM     95  F   UNL A   1      45.146  31.641  35.481  1.00  0.00    -0.206 F 
ATOM     96  C   UNL A   1      44.474  28.575  37.227  1.00  0.00     0.022 A 
BRANCH  93  97
ATOM     97  S   UNL A   1      42.657  26.499  37.018  1.00  0.00     0.124 S 
ATOM     98  O   UNL A   1      41.220  26.719  36.912  1.00  0.00    -0.237 OA
ATOM     99  O   UNL A   1      43.254  25.615  36.024  1.00  0.00    -0.237 OA
ATOM    100  O   UNL A   1      43.148  26.302  38.383  1.00  0.00    -0.744 OA
ENDBRANCH  93  97
ENDBRANCH  66  90
BRANCH  78 101
ATOM    101  C   UNL A   1      42.689  34.636  30.706  1.00  0.00     0.023 A 
ATOM    102  C   UNL A   1      43.494  35.765  30.993  1.00  0.00     0.031 A 
ATOM    103  C   UNL A   1      43.202  33.688  29.803  1.00  0.00     0.131 A 
ATOM    104  C   UNL A   1      44.751  35.914  30.371  1.00  0.00     0.055 A 
ATOM    105  C   UNL A   1      44.456  33.827  29.208  1.00  0.00     0.041 A 
ATOM    106  F   UNL A   1      42.501  32.581  29.508  1.00  0.00    -0.206 F 
ATOM    107  C   UNL A   1      45.233  34.945  29.485  1.00  0.00     0.022 A 
BRANCH 104 108
ATOM    108  S   UNL A   1      45.783  37.385  30.686  1.00  0.00     0.124 S 
ATOM    109  O   UNL A   1      44.815  38.472  30.763  1.00  0.00    -0.237 OA
ATOM    110  O   UNL A   1      46.457  37.038  31.934  1.00  0.00    -0.237 OA
ATOM    111  O   UNL A   1      46.665  37.438  29.517  1.00  0.00    -0.744 OA
ENDBRANCH 104 108
ENDBRANCH  78 101
ENDBRANCH  52  53
ENDBRANCH  45  47
ENDBRANCH  44  45
ENDBRANCH  43  44
ENDBRANCH  42  43
ENDBRANCH  41  42
ENDBRANCH  40  41
ENDBRANCH   1  40
TORSDOF 28
ENDMDL
MODEL 3
REMARK VINA RESULT:      -9.3      3.453      7.597
REMARK SMILES COc1cc(OC)c([C@H]2CC(=O)Nc3c(C(=O)OCCOCCOCCOCCOC(=O)c4ccc(-c5c6nc(c(-c7cc(S(=O)(=O)[O-])ccc7F)c7ccc([nH]7)c(-c7cc(S(=O)(=O)[O-])ccc7F)c7nc(c(-c8cc(S(=O)(=O)[O-])ccc8F)c8ccc5[nH]8)C=C7)C=C6)cc4)cn(-c4ccccc4)c32)cc1OC
REMARK SMILES IDX 25 1 24 2 23 3 22 4 21 5 20 6 19 7 18 8 16 9 17 10 15 11
REMARK SMILES IDX 9 12 10 13 104 14 11 15 14 16 97 17 12 18 13 19 96 20 8 22
REMARK SMILES IDX 3 23 4 24 106 25 5 26 105 27 2 28 1 29 107 30 108 31 6 32
REMARK SMILES IDX 7 33 98 34 99 35 103 36 100 37 102 38 101 39 26 40 27 41
REMARK SMILES IDX 28 42 29 43 30 44 31 45 32 46 33 47 34 48 95 49 35 50 94 51
REMARK SMILES IDX 36 52 37 53 38 54 88 55 39 56 93 57 87 58 89 59 40 60 92 61
REMARK SMILES IDX 86 62 85 63 41 65 73 66 53 67 72 68 54 69 57 70 71 71 90 72
REMARK SMILES IDX 55 73 56 74 70 76 91 77 58 78 42 79 43 80 51 81 44 82 50 83
REMARK SMILES IDX 52 84 49 85 45 86 46 87 47 88 48 89 74 90 75 91 83 92 76 93
REMARK SMILES IDX 82 94 84 95 81 96 77 97 78 98 79 99 80 100 59 101 60 102
REMARK SMILES IDX 68 103 61 104 67 105 69 106 66 107 62 108 63 109 64 110
REMARK SMILES IDX 65 111
REMARK H PARENT 13 21 89 64 57 75
REMARK Flexibility Score: inf
ROOT
ATOM      1  C   UNL A   1      39.688  22.921  26.227  1.00  0.00     0.188 C 
ENDROOT
BRANCH   1   2
ATOM      2  O   UNL A   1      38.267  22.789  26.318  1.00  0.00    -0.377 OA
BRANCH   2   3
ATOM      3  C   UNL A   1      37.655  22.060  25.267  1.00  0.00     0.188 C 
BRANCH   3   4
ATOM      4  C   UNL A   1      36.464  21.187  25.720  1.00  0.00     0.188 C 
BRANCH   4   5
ATOM      5  O   UNL A   1      35.413  20.802  24.841  1.00  0.00    -0.376 OA
BRANCH   5   6
ATOM      6  C   UNL A   1      34.173  20.282  25.286  1.00  0.00     0.202 C 
BRANCH   6   7
ATOM      7  C   UNL A   1      32.881  20.367  24.456  1.00  0.00     0.261 C 
BRANCH   7   8
ATOM      8  O   UNL A   1      32.997  20.858  23.123  1.00  0.00    -0.460 OA
BRANCH   8   9
ATOM      9  C   UNL A   1      31.932  21.569  22.669  1.00  0.00     0.341 C 
ATOM     10  O   UNL A   1      31.014  21.112  22.000  1.00  0.00    -0.246 OA
BRANCH   9  11
ATOM     11  C   UNL A   1      31.944  22.925  23.196  1.00  0.00     0.102 A 
ATOM     12  C   UNL A   1      31.050  25.722  25.504  1.00  0.00     0.082 C 
ATOM     13  C   UNL A   1      29.878  25.011  26.206  1.00  0.00     0.115 C 
ATOM     14  C   UNL A   1      31.581  24.816  24.406  1.00  0.00     0.055 A 
ATOM     15  C   UNL A   1      30.110  23.522  26.423  1.00  0.00     0.225 C 
ATOM     16  C   UNL A   1      31.357  23.457  24.368  1.00  0.00     0.078 A 
ATOM     17  N   UNL A   1      32.376  25.137  23.318  1.00  0.00    -0.317 N 
ATOM     18  O   UNL A   1      29.717  22.941  27.433  1.00  0.00    -0.275 OA
ATOM     19  N   UNL A   1      30.683  22.828  25.387  1.00  0.00    -0.324 N 
ATOM     20  C   UNL A   1      32.483  24.014  22.527  1.00  0.00     0.109 A 
ATOM     21  H   UNL A   1      30.608  21.846  25.373  1.00  0.00     0.170 HD
BRANCH  12  22
ATOM     22  C   UNL A   1      30.651  27.140  25.080  1.00  0.00     0.008 A 
ATOM     23  C   UNL A   1      29.976  29.616  23.818  1.00  0.00     0.164 A 
ATOM     24  C   UNL A   1      31.014  29.514  24.748  1.00  0.00     0.097 A 
ATOM     25  C   UNL A   1      29.215  28.484  23.554  1.00  0.00     0.161 A 
ATOM     26  C   UNL A   1      31.365  28.310  25.393  1.00  0.00     0.126 A 
ATOM     27  C   UNL A   1      29.518  27.285  24.226  1.00  0.00     0.058 A 
BRANCH  23  28
ATOM     28  O   UNL A   1      29.902  30.836  23.208  1.00  0.00    -0.493 OA
ATOM     29  C   UNL A   1      28.802  31.668  23.551  1.00  0.00     0.278 C 
ENDBRANCH  23  28
BRANCH  25  30
ATOM     30  O   UNL A   1      28.149  28.426  22.699  1.00  0.00    -0.493 OA
ATOM     31  C   UNL A   1      26.883  28.240  23.330  1.00  0.00     0.278 C 
ENDBRANCH  25  30
BRANCH  26  32
ATOM     32  O   UNL A   1      32.428  28.537  26.217  1.00  0.00    -0.496 OA
ATOM     33  C   UNL A   1      32.314  28.869  27.582  1.00  0.00     0.278 C 
ENDBRANCH  26  32
ENDBRANCH  12  22
BRANCH  17  34
ATOM     34  C   UNL A   1      32.996  26.371  23.030  1.00  0.00     0.045 A 
ATOM     35  C   UNL A   1      34.056  26.808  23.828  1.00  0.00     0.026 A 
ATOM     36  C   UNL A   1      32.507  27.168  21.990  1.00  0.00     0.026 A 
ATOM     37  C   UNL A   1      34.586  28.080  23.631  1.00  0.00     0.002 A 
ATOM     38  C   UNL A   1      33.035  28.447  21.810  1.00  0.00     0.002 A 
ATOM     39  C   UNL A   1      34.060  28.907  22.639  1.00  0.00     0.000 A 
ENDBRANCH  17  34
ENDBRANCH   9  11
ENDBRANCH   8   9
ENDBRANCH   7   8
ENDBRANCH   6   7
ENDBRANCH   5   6
ENDBRANCH   4   5
ENDBRANCH   3   4
ENDBRANCH   2   3
ENDBRANCH   1   2
BRANCH   1  40
ATOM     40  C   UNL A   1      40.546  21.634  26.329  1.00  0.00     0.188 C 
BRANCH  40  41
ATOM     41  O   UNL A   1      41.775  21.695  25.615  1.00  0.00    -0.376 OA
BRANCH  41  42
ATOM     42  C   UNL A   1      42.828  22.559  26.004  1.00  0.00     0.202 C 
BRANCH  42  43
ATOM     43  C   UNL A   1      42.856  23.948  25.378  1.00  0.00     0.261 C 
BRANCH  43  44
ATOM     44  O   UNL A   1      42.438  24.970  26.257  1.00  0.00    -0.460 OA
BRANCH  44  45
ATOM     45  C   UNL A   1      42.065  26.111  25.655  1.00  0.00     0.338 C 
ATOM     46  O   UNL A   1      42.420  26.514  24.553  1.00  0.00    -0.246 OA
BRANCH  45  47
ATOM     47  C   UNL A   1      41.230  26.858  26.591  1.00  0.00     0.060 A 
ATOM     48  C   UNL A   1      41.349  28.245  26.549  1.00  0.00     0.016 A 
ATOM     49  C   UNL A   1      40.676  26.173  27.686  1.00  0.00     0.016 A 
ATOM     50  C   UNL A   1      41.198  28.921  27.732  1.00  0.00     0.010 A 
ATOM     51  C   UNL A   1      40.546  26.847  28.868  1.00  0.00     0.010 A 
ATOM     52  C   UNL A   1      40.923  28.183  28.889  1.00  0.00    -0.014 A 
BRANCH  52  53
ATOM     53  C   UNL A   1      40.977  28.870  30.153  1.00  0.00     0.031 A 
ATOM     54  C   UNL A   1      39.815  29.750  30.344  1.00  0.00     0.074 A 
ATOM     55  C   UNL A   1      41.956  28.660  31.051  1.00  0.00     0.049 A 
ATOM     56  N   UNL A   1      39.793  31.033  30.233  1.00  0.00    -0.248 NA
ATOM     57  C   UNL A   1      38.485  29.124  30.411  1.00  0.00     0.031 C 
ATOM     58  C   UNL A   1      43.007  27.640  31.045  1.00  0.00     0.029 A 
ATOM     59  N   UNL A   1      42.153  29.291  32.233  1.00  0.00    -0.354 N 
ATOM     60  C   UNL A   1      38.480  31.394  30.491  1.00  0.00     0.074 A 
ATOM     61  C   UNL A   1      37.700  30.198  30.330  1.00  0.00     0.031 C 
ATOM     62  C   UNL A   1      43.572  27.580  32.275  1.00  0.00     0.029 A 
ATOM     63  C   UNL A   1      43.015  28.636  33.105  1.00  0.00     0.049 A 
ATOM     64  H   UNL A   1      41.719  30.146  32.458  1.00  0.00     0.167 HD
ATOM     65  C   UNL A   1      38.200  32.573  31.107  1.00  0.00     0.034 A 
ATOM     66  C   UNL A   1      43.178  28.911  34.429  1.00  0.00     0.034 A 
ATOM     67  C   UNL A   1      39.330  33.477  31.026  1.00  0.00     0.049 A 
ATOM     68  C   UNL A   1      42.725  30.315  34.629  1.00  0.00     0.074 A 
ATOM     69  C   UNL A   1      40.052  34.022  29.980  1.00  0.00     0.029 A 
ATOM     70  N   UNL A   1      40.134  33.613  32.139  1.00  0.00    -0.354 N 
ATOM     71  N   UNL A   1      43.338  31.341  34.099  1.00  0.00    -0.248 NA
ATOM     72  C   UNL A   1      41.323  30.546  34.956  1.00  0.00     0.031 C 
ATOM     73  C   UNL A   1      41.410  33.993  30.413  1.00  0.00     0.029 A 
ATOM     74  C   UNL A   1      41.442  33.516  31.725  1.00  0.00     0.049 A 
ATOM     75  H   UNL A   1      39.826  33.755  33.063  1.00  0.00     0.167 HD
ATOM     76  C   UNL A   1      42.328  32.165  33.624  1.00  0.00     0.074 A 
ATOM     77  C   UNL A   1      41.108  31.671  34.264  1.00  0.00     0.031 C 
ATOM     78  C   UNL A   1      42.518  32.972  32.537  1.00  0.00     0.034 A 
BRANCH  65  79
ATOM     79  C   UNL A   1      37.084  32.748  32.108  1.00  0.00     0.023 A 
ATOM     80  C   UNL A   1      36.020  33.581  31.724  1.00  0.00     0.031 A 
ATOM     81  C   UNL A   1      37.129  32.402  33.479  1.00  0.00     0.131 A 
ATOM     82  C   UNL A   1      35.145  34.118  32.682  1.00  0.00     0.055 A 
ATOM     83  C   UNL A   1      36.213  32.881  34.417  1.00  0.00     0.041 A 
ATOM     84  F   UNL A   1      38.105  31.663  34.019  1.00  0.00    -0.206 F 
ATOM     85  C   UNL A   1      35.233  33.773  34.028  1.00  0.00     0.022 A 
BRANCH  82  86
ATOM     86  S   UNL A   1      34.008  35.422  32.158  1.00  0.00     0.124 S 
ATOM     87  O   UNL A   1      34.574  36.588  32.827  1.00  0.00    -0.237 OA
ATOM     88  O   UNL A   1      34.153  35.377  30.707  1.00  0.00    -0.237 OA
ATOM     89  O   UNL A   1      32.718  34.970  32.671  1.00  0.00    -0.744 OA
ENDBRANCH  82  86
ENDBRANCH  65  79
BRANCH  66  90
ATOM     90  C   UNL A   1      43.315  27.915  35.533  1.00  0.00     0.023 A 
ATOM     91  C   UNL A   1      44.313  27.995  36.530  1.00  0.00     0.031 A 
ATOM     92  C   UNL A   1      42.282  26.974  35.754  1.00  0.00     0.131 A 
ATOM     93  C   UNL A   1      44.251  27.157  37.673  1.00  0.00     0.055 A 
ATOM     94  C   UNL A   1      42.227  26.151  36.881  1.00  0.00     0.041 A 
ATOM     95  F   UNL A   1      41.235  26.878  34.918  1.00  0.00    -0.206 F 
ATOM     96  C   UNL A   1      43.208  26.245  37.851  1.00  0.00     0.022 A 
BRANCH  93  97
ATOM     97  S   UNL A   1      45.494  27.296  39.002  1.00  0.00     0.124 S 
ATOM     98  O   UNL A   1      45.006  28.438  39.766  1.00  0.00    -0.237 OA
ATOM     99  O   UNL A   1      45.406  25.994  39.652  1.00  0.00    -0.237 OA
ATOM    100  O   UNL A   1      46.745  27.533  38.278  1.00  0.00    -0.744 OA
ENDBRANCH  93  97
ENDBRANCH  66  90
BRANCH  78 101
ATOM    101  C   UNL A   1      43.934  33.157  32.016  1.00  0.00     0.023 A 
ATOM    102  C   UNL A   1      44.574  32.312  31.078  1.00  0.00     0.031 A 
ATOM    103  C   UNL A   1      44.617  34.322  32.408  1.00  0.00     0.131 A 
ATOM    104  C   UNL A   1      45.853  32.643  30.584  1.00  0.00     0.055 A 
ATOM    105  C   UNL A   1      45.871  34.659  31.899  1.00  0.00     0.041 A 
ATOM    106  F   UNL A   1      44.055  35.182  33.274  1.00  0.00    -0.206 F 
ATOM    107  C   UNL A   1      46.497  33.816  30.989  1.00  0.00     0.022 A 
BRANCH 104 108
ATOM    108  S   UNL A   1      46.718  31.542  29.414  1.00  0.00     0.124 S 
ATOM    109  O   UNL A   1      45.715  30.537  29.085  1.00  0.00    -0.237 OA
ATOM    110  O   UNL A   1      47.088  32.456  28.335  1.00  0.00    -0.237 OA
ATOM    111  O   UNL A   1      47.850  31.039  30.195  1.00  0.00    -0.744 OA
ENDBRANCH 104 108
ENDBRANCH  78 101
ENDBRANCH  52  53
ENDBRANCH  45  47
ENDBRANCH  44  45
ENDBRANCH  43  44
ENDBRANCH  42  43
ENDBRANCH  41  42
ENDBRANCH  40  41
ENDBRANCH   1  40
TORSDOF 28
ENDMDL
