MODEL 1
REMARK VINA RESULT:      -8.5      0.000      0.000
REMARK SMILES CC[C@H](C)N(C)C(=O)N1[C@@H](C(=O)OCCOCCOCCOCCOC(=O)c2ccc(-c3c4nc(c(-c5cc(S(=O)(=O)[O-])ccc5F)c5ccc([nH]5)c(-c5cc(S(=O)(=O)[O-])ccc5F)c5nc(c(-c6cc(S(=O)(=O)[O-])ccc6F)c6ccc3[nH]6)C=C5)C=C4)cc2)CC[C@H]2CCCC[C@@H]21
REMARK SMILES IDX 18 1 17 2 16 3 15 4 14 5 13 6 11 7 12 8 10 9 9 10 98 11
REMARK SMILES IDX 91 12 93 13 97 14 92 15 94 16 96 17 95 18 7 19 8 20 5 21
REMARK SMILES IDX 6 22 3 23 4 24 2 25 1 26 19 27 20 28 21 29 22 30 23 31 24 32
REMARK SMILES IDX 25 33 26 34 27 35 28 36 29 37 90 38 30 39 89 40 31 41 32 42
REMARK SMILES IDX 33 43 83 44 34 45 88 46 82 47 84 48 35 49 87 50 81 51 80 52
REMARK SMILES IDX 36 54 68 55 48 56 67 57 49 58 52 59 66 60 85 61 50 62 51 63
REMARK SMILES IDX 65 65 86 66 53 67 37 68 38 69 46 70 39 71 45 72 47 73 44 74
REMARK SMILES IDX 40 75 41 76 42 77 43 78 69 79 70 80 78 81 71 82 77 83 79 84
REMARK SMILES IDX 76 85 72 86 73 87 74 88 75 89 54 90 55 91 63 92 56 93 62 94
REMARK SMILES IDX 64 95 61 96 57 97 58 98 59 99 60 100
REMARK H PARENT 84 53 52 64
REMARK Flexibility Score: inf
ROOT
ATOM      1  C   UNL A   1      39.528  23.160  27.074  1.00  0.00     0.188 C 
ENDROOT
BRANCH   1   2
ATOM      2  C   UNL A   1      38.590  22.407  26.111  1.00  0.00     0.188 C 
BRANCH   2   3
ATOM      3  O   UNL A   1      37.567  23.101  25.416  1.00  0.00    -0.376 OA
BRANCH   3   4
ATOM      4  C   UNL A   1      36.865  22.459  24.363  1.00  0.00     0.202 C 
BRANCH   4   5
ATOM      5  C   UNL A   1      36.200  23.201  23.180  1.00  0.00     0.261 C 
BRANCH   5   6
ATOM      6  O   UNL A   1      35.031  23.982  23.459  1.00  0.00    -0.462 OA
BRANCH   6   7
ATOM      7  C   UNL A   1      33.885  23.688  22.772  1.00  0.00     0.329 C 
ATOM      8  O   UNL A   1      33.782  23.662  21.552  1.00  0.00    -0.250 OA
BRANCH   7   9
ATOM      9  C   UNL A   1      32.736  23.430  23.775  1.00  0.00     0.197 C 
ATOM     10  N   UNL A   1      32.416  24.553  24.687  1.00  0.00    -0.308 N 
ATOM     11  C   UNL A   1      31.424  24.284  25.734  1.00  0.00     0.091 C 
ATOM     12  C   UNL A   1      33.144  22.156  24.542  1.00  0.00     0.038 C 
ATOM     13  C   UNL A   1      31.184  22.778  25.961  1.00  0.00     0.012 C 
ATOM     14  C   UNL A   1      30.045  24.952  25.542  1.00  0.00     0.025 C 
ATOM     15  C   UNL A   1      32.510  22.034  25.925  1.00  0.00     0.008 C 
ATOM     16  C   UNL A   1      30.423  22.583  27.272  1.00  0.00     0.006 C 
ATOM     17  C   UNL A   1      29.199  24.774  26.803  1.00  0.00     0.002 C 
ATOM     18  C   UNL A   1      29.077  23.313  27.235  1.00  0.00     0.000 C 
BRANCH  10  19
ATOM     19  C   UNL A   1      32.409  25.848  24.177  1.00  0.00     0.320 C 
ATOM     20  O   UNL A   1      31.967  26.082  23.058  1.00  0.00    -0.248 OA
BRANCH  19  21
ATOM     21  N   UNL A   1      32.898  26.827  25.031  1.00  0.00    -0.325 N 
ATOM     22  C   UNL A   1      34.284  26.841  25.468  1.00  0.00     0.149 C 
BRANCH  21  23
ATOM     23  C   UNL A   1      32.044  27.950  25.484  1.00  0.00     0.083 C 
ATOM     24  C   UNL A   1      31.743  27.831  26.983  1.00  0.00     0.031 C 
BRANCH  23  25
ATOM     25  C   UNL A   1      32.574  29.351  25.118  1.00  0.00     0.021 C 
ATOM     26  C   UNL A   1      31.768  30.458  25.794  1.00  0.00     0.006 C 
ENDBRANCH  23  25
ENDBRANCH  21  23
ENDBRANCH  19  21
ENDBRANCH  10  19
ENDBRANCH   7   9
ENDBRANCH   6   7
ENDBRANCH   5   6
ENDBRANCH   4   5
ENDBRANCH   3   4
ENDBRANCH   2   3
ENDBRANCH   1   2
BRANCH   1  27
ATOM     27  O   UNL A   1      40.703  22.438  27.385  1.00  0.00    -0.377 OA
BRANCH  27  28
ATOM     28  C   UNL A   1      40.668  21.056  27.042  1.00  0.00     0.188 C 
BRANCH  28  29
ATOM     29  C   UNL A   1      41.711  20.519  26.034  1.00  0.00     0.188 C 
BRANCH  29  30
ATOM     30  O   UNL A   1      41.778  19.100  25.944  1.00  0.00    -0.376 OA
BRANCH  30  31
ATOM     31  C   UNL A   1      42.928  18.412  26.406  1.00  0.00     0.202 C 
BRANCH  31  32
ATOM     32  C   UNL A   1      44.092  18.190  25.426  1.00  0.00     0.261 C 
BRANCH  32  33
ATOM     33  O   UNL A   1      45.030  19.266  25.293  1.00  0.00    -0.460 OA
BRANCH  33  34
ATOM     34  C   UNL A   1      44.840  20.144  24.284  1.00  0.00     0.338 C 
ATOM     35  O   UNL A   1      44.523  19.883  23.136  1.00  0.00    -0.246 OA
BRANCH  34  36
ATOM     36  C   UNL A   1      44.868  21.500  24.874  1.00  0.00     0.060 A 
ATOM     37  C   UNL A   1      44.469  22.591  24.091  1.00  0.00     0.016 A 
ATOM     38  C   UNL A   1      45.252  21.686  26.204  1.00  0.00     0.016 A 
ATOM     39  C   UNL A   1      44.483  23.877  24.627  1.00  0.00     0.010 A 
ATOM     40  C   UNL A   1      45.294  22.978  26.731  1.00  0.00     0.010 A 
ATOM     41  C   UNL A   1      44.943  24.082  25.933  1.00  0.00    -0.014 A 
BRANCH  41  42
ATOM     42  C   UNL A   1      45.280  25.454  26.383  1.00  0.00     0.031 A 
ATOM     43  C   UNL A   1      44.162  26.315  26.905  1.00  0.00     0.074 A 
ATOM     44  C   UNL A   1      46.542  25.917  26.354  1.00  0.00     0.049 A 
ATOM     45  N   UNL A   1      44.181  27.563  27.291  1.00  0.00    -0.248 NA
ATOM     46  C   UNL A   1      42.840  25.672  26.997  1.00  0.00     0.031 C 
ATOM     47  C   UNL A   1      47.713  25.153  25.927  1.00  0.00     0.029 A 
ATOM     48  N   UNL A   1      47.045  27.150  26.685  1.00  0.00    -0.354 N 
ATOM     49  C   UNL A   1      42.874  27.860  27.664  1.00  0.00     0.074 A 
ATOM     50  C   UNL A   1      42.084  26.673  27.418  1.00  0.00     0.031 C 
ATOM     51  C   UNL A   1      48.798  25.942  26.011  1.00  0.00     0.029 A 
ATOM     52  C   UNL A   1      48.395  27.275  26.454  1.00  0.00     0.049 A 
ATOM     53  H   UNL A   1      46.491  27.876  27.055  1.00  0.00     0.167 HD
ATOM     54  C   UNL A   1      42.382  29.017  28.170  1.00  0.00     0.034 A 
ATOM     55  C   UNL A   1      49.200  28.354  26.559  1.00  0.00     0.034 A 
ATOM     56  C   UNL A   1      43.183  30.194  28.390  1.00  0.00     0.049 A 
ATOM     57  C   UNL A   1      48.608  29.666  27.025  1.00  0.00     0.074 A 
ATOM     58  C   UNL A   1      42.792  31.418  28.902  1.00  0.00     0.029 A 
ATOM     59  N   UNL A   1      44.537  30.303  28.094  1.00  0.00    -0.354 N 
ATOM     60  N   UNL A   1      47.371  29.939  27.376  1.00  0.00    -0.248 NA
ATOM     61  C   UNL A   1      49.523  30.811  27.117  1.00  0.00     0.031 C 
ATOM     62  C   UNL A   1      43.884  32.289  28.837  1.00  0.00     0.029 A 
ATOM     63  C   UNL A   1      44.985  31.583  28.377  1.00  0.00     0.049 A 
ATOM     64  H   UNL A   1      45.095  29.575  27.736  1.00  0.00     0.167 HD
ATOM     65  C   UNL A   1      47.372  31.277  27.766  1.00  0.00     0.074 A 
ATOM     66  C   UNL A   1      48.733  31.750  27.616  1.00  0.00     0.031 C 
ATOM     67  C   UNL A   1      46.345  32.044  28.217  1.00  0.00     0.034 A 
BRANCH  54  68
ATOM     68  C   UNL A   1      40.900  29.072  28.456  1.00  0.00     0.023 A 
ATOM     69  C   UNL A   1      40.390  28.972  29.762  1.00  0.00     0.031 A 
ATOM     70  C   UNL A   1      39.980  29.186  27.399  1.00  0.00     0.131 A 
ATOM     71  C   UNL A   1      39.003  28.913  29.970  1.00  0.00     0.055 A 
ATOM     72  C   UNL A   1      38.602  29.215  27.620  1.00  0.00     0.041 A 
ATOM     73  F   UNL A   1      40.406  29.255  26.127  1.00  0.00    -0.206 F 
ATOM     74  C   UNL A   1      38.106  29.062  28.910  1.00  0.00     0.022 A 
BRANCH  71  75
ATOM     75  S   UNL A   1      38.392  28.479  31.622  1.00  0.00     0.124 S 
ATOM     76  O   UNL A   1      39.320  29.212  32.481  1.00  0.00    -0.237 OA
ATOM     77  O   UNL A   1      37.022  28.976  31.592  1.00  0.00    -0.237 OA
ATOM     78  O   UNL A   1      38.530  27.025  31.668  1.00  0.00    -0.744 OA
ENDBRANCH  71  75
ENDBRANCH  54  68
BRANCH  55  79
ATOM     79  C   UNL A   1      50.639  28.266  26.177  1.00  0.00     0.023 A 
ATOM     80  C   UNL A   1      51.050  28.432  24.844  1.00  0.00     0.031 A 
ATOM     81  C   UNL A   1      51.622  27.952  27.133  1.00  0.00     0.131 A 
ATOM     82  C   UNL A   1      52.398  28.237  24.498  1.00  0.00     0.055 A 
ATOM     83  C   UNL A   1      52.970  27.817  26.793  1.00  0.00     0.041 A 
ATOM     84  F   UNL A   1      51.285  27.774  28.420  1.00  0.00    -0.206 F 
ATOM     85  C   UNL A   1      53.362  27.945  25.465  1.00  0.00     0.022 A 
BRANCH  82  86
ATOM     86  S   UNL A   1      52.857  28.269  22.742  1.00  0.00     0.124 S 
ATOM     87  O   UNL A   1      53.850  27.203  22.677  1.00  0.00    -0.237 OA
ATOM     88  O   UNL A   1      51.580  27.999  22.091  1.00  0.00    -0.237 OA
ATOM     89  O   UNL A   1      53.377  29.622  22.552  1.00  0.00    -0.744 OA
ENDBRANCH  82  86
ENDBRANCH  55  79
BRANCH  67  90
ATOM     90  C   UNL A   1      46.667  33.459  28.641  1.00  0.00     0.023 A 
ATOM     91  C   UNL A   1      47.047  33.777  29.957  1.00  0.00     0.031 A 
ATOM     92  C   UNL A   1      46.597  34.506  27.703  1.00  0.00     0.131 A 
ATOM     93  C   UNL A   1      47.284  35.115  30.311  1.00  0.00     0.055 A 
ATOM     94  C   UNL A   1      46.901  35.824  28.045  1.00  0.00     0.041 A 
ATOM     95  F   UNL A   1      46.237  34.264  26.433  1.00  0.00    -0.206 F 
ATOM     96  C   UNL A   1      47.234  36.136  29.360  1.00  0.00     0.022 A 
BRANCH  93  97
ATOM     97  S   UNL A   1      47.562  35.517  32.058  1.00  0.00     0.124 S 
ATOM     98  O   UNL A   1      46.385  36.319  32.376  1.00  0.00    -0.237 OA
ATOM     99  O   UNL A   1      47.622  34.198  32.678  1.00  0.00    -0.237 OA
ATOM    100  O   UNL A   1      48.826  36.252  32.044  1.00  0.00    -0.744 OA
ENDBRANCH  93  97
ENDBRANCH  67  90
ENDBRANCH  41  42
ENDBRANCH  34  36
ENDBRANCH  33  34
ENDBRANCH  32  33
ENDBRANCH  31  32
ENDBRANCH  30  31
ENDBRANCH  29  30
ENDBRANCH  28  29
ENDBRANCH  27  28
ENDBRANCH   1  27
TORSDOF 27
ENDMDL
MODEL 2
REMARK VINA RESULT:      -8.3      1.638      2.754
REMARK SMILES CC[C@H](C)N(C)C(=O)N1[C@@H](C(=O)OCCOCCOCCOCCOC(=O)c2ccc(-c3c4nc(c(-c5cc(S(=O)(=O)[O-])ccc5F)c5ccc([nH]5)c(-c5cc(S(=O)(=O)[O-])ccc5F)c5nc(c(-c6cc(S(=O)(=O)[O-])ccc6F)c6ccc3[nH]6)C=C5)C=C4)cc2)CC[C@H]2CCCC[C@@H]21
REMARK SMILES IDX 18 1 17 2 16 3 15 4 14 5 13 6 11 7 12 8 10 9 9 10 98 11
REMARK SMILES IDX 91 12 93 13 97 14 92 15 94 16 96 17 95 18 7 19 8 20 5 21
REMARK SMILES IDX 6 22 3 23 4 24 2 25 1 26 19 27 20 28 21 29 22 30 23 31 24 32
REMARK SMILES IDX 25 33 26 34 27 35 28 36 29 37 90 38 30 39 89 40 31 41 32 42
REMARK SMILES IDX 33 43 83 44 34 45 88 46 82 47 84 48 35 49 87 50 81 51 80 52
REMARK SMILES IDX 36 54 68 55 48 56 67 57 49 58 52 59 66 60 85 61 50 62 51 63
REMARK SMILES IDX 65 65 86 66 53 67 37 68 38 69 46 70 39 71 45 72 47 73 44 74
REMARK SMILES IDX 40 75 41 76 42 77 43 78 69 79 70 80 78 81 71 82 77 83 79 84
REMARK SMILES IDX 76 85 72 86 73 87 74 88 75 89 54 90 55 91 63 92 56 93 62 94
REMARK SMILES IDX 64 95 61 96 57 97 58 98 59 99 60 100
REMARK H PARENT 84 53 52 64
REMARK Flexibility Score: inf
ROOT
ATOM      1  C   UNL A   1      39.160  24.180  26.847  1.00  0.00     0.188 C 
ENDROOT
BRANCH   1   2
ATOM      2  C   UNL A   1      38.058  23.336  26.178  1.00  0.00     0.188 C 
BRANCH   2   3
ATOM      3  O   UNL A   1      36.726  23.820  26.107  1.00  0.00    -0.376 OA
BRANCH   3   4
ATOM      4  C   UNL A   1      35.639  22.908  26.126  1.00  0.00     0.202 C 
BRANCH   4   5
ATOM      5  C   UNL A   1      34.200  23.260  25.682  1.00  0.00     0.261 C 
BRANCH   5   6
ATOM      6  O   UNL A   1      33.434  24.122  26.533  1.00  0.00    -0.462 OA
BRANCH   6   7
ATOM      7  C   UNL A   1      32.073  24.099  26.410  1.00  0.00     0.329 C 
ATOM      8  O   UNL A   1      31.365  23.117  26.593  1.00  0.00    -0.250 OA
BRANCH   7   9
ATOM      9  C   UNL A   1      31.571  25.495  25.969  1.00  0.00     0.197 C 
ATOM     10  N   UNL A   1      31.481  25.710  24.505  1.00  0.00    -0.308 N 
ATOM     11  C   UNL A   1      31.139  27.067  24.063  1.00  0.00     0.091 C 
ATOM     12  C   UNL A   1      32.523  26.502  26.647  1.00  0.00     0.038 C 
ATOM     13  C   UNL A   1      31.328  28.124  25.170  1.00  0.00     0.012 C 
ATOM     14  C   UNL A   1      29.720  27.248  23.483  1.00  0.00     0.025 C 
ATOM     15  C   UNL A   1      32.615  27.847  25.933  1.00  0.00     0.008 C 
ATOM     16  C   UNL A   1      31.291  29.518  24.543  1.00  0.00     0.006 C 
ATOM     17  C   UNL A   1      29.583  28.639  22.862  1.00  0.00     0.002 C 
ATOM     18  C   UNL A   1      29.958  29.760  23.830  1.00  0.00     0.000 C 
BRANCH  10  19
ATOM     19  C   UNL A   1      30.991  24.681  23.706  1.00  0.00     0.320 C 
ATOM     20  O   UNL A   1      29.787  24.546  23.521  1.00  0.00    -0.248 OA
BRANCH  19  21
ATOM     21  N   UNL A   1      31.955  23.867  23.127  1.00  0.00    -0.325 N 
ATOM     22  C   UNL A   1      31.792  22.425  23.044  1.00  0.00     0.149 C 
BRANCH  21  23
ATOM     23  C   UNL A   1      33.169  24.438  22.498  1.00  0.00     0.083 C 
ATOM     24  C   UNL A   1      34.160  23.328  22.127  1.00  0.00     0.031 C 
BRANCH  23  25
ATOM     25  C   UNL A   1      32.897  25.381  21.310  1.00  0.00     0.021 C 
ATOM     26  C   UNL A   1      33.288  26.824  21.628  1.00  0.00     0.006 C 
ENDBRANCH  23  25
ENDBRANCH  21  23
ENDBRANCH  19  21
ENDBRANCH  10  19
ENDBRANCH   7   9
ENDBRANCH   6   7
ENDBRANCH   5   6
ENDBRANCH   4   5
ENDBRANCH   3   4
ENDBRANCH   2   3
ENDBRANCH   1   2
BRANCH   1  27
ATOM     27  O   UNL A   1      40.404  23.514  26.920  1.00  0.00    -0.377 OA
BRANCH  27  28
ATOM     28  C   UNL A   1      40.322  22.097  27.030  1.00  0.00     0.188 C 
BRANCH  28  29
ATOM     29  C   UNL A   1      41.213  21.232  26.106  1.00  0.00     0.188 C 
BRANCH  29  30
ATOM     30  O   UNL A   1      41.136  19.830  26.344  1.00  0.00    -0.376 OA
BRANCH  30  31
ATOM     31  C   UNL A   1      42.308  19.098  26.657  1.00  0.00     0.202 C 
BRANCH  31  32
ATOM     32  C   UNL A   1      43.149  18.534  25.500  1.00  0.00     0.261 C 
BRANCH  32  33
ATOM     33  O   UNL A   1      44.452  19.104  25.320  1.00  0.00    -0.460 OA
BRANCH  33  34
ATOM     34  C   UNL A   1      44.620  19.983  24.308  1.00  0.00     0.338 C 
ATOM     35  O   UNL A   1      44.533  19.751  23.114  1.00  0.00    -0.246 OA
BRANCH  34  36
ATOM     36  C   UNL A   1      44.710  21.330  24.911  1.00  0.00     0.060 A 
ATOM     37  C   UNL A   1      44.466  22.453  24.107  1.00  0.00     0.016 A 
ATOM     38  C   UNL A   1      44.997  21.481  26.269  1.00  0.00     0.016 A 
ATOM     39  C   UNL A   1      44.540  23.732  24.654  1.00  0.00     0.010 A 
ATOM     40  C   UNL A   1      45.101  22.764  26.809  1.00  0.00     0.010 A 
ATOM     41  C   UNL A   1      44.907  23.895  25.995  1.00  0.00    -0.014 A 
BRANCH  41  42
ATOM     42  C   UNL A   1      45.317  25.234  26.484  1.00  0.00     0.031 A 
ATOM     43  C   UNL A   1      44.305  26.039  27.252  1.00  0.00     0.074 A 
ATOM     44  C   UNL A   1      46.555  25.714  26.274  1.00  0.00     0.049 A 
ATOM     45  N   UNL A   1      44.389  27.255  27.722  1.00  0.00    -0.248 NA
ATOM     46  C   UNL A   1      43.017  25.376  27.519  1.00  0.00     0.031 C 
ATOM     47  C   UNL A   1      47.635  24.999  25.597  1.00  0.00     0.029 A 
ATOM     48  N   UNL A   1      47.107  26.925  26.607  1.00  0.00    -0.354 N 
ATOM     49  C   UNL A   1      43.165  27.508  28.333  1.00  0.00     0.074 A 
ATOM     50  C   UNL A   1      42.344  26.332  28.137  1.00  0.00     0.031 C 
ATOM     51  C   UNL A   1      48.719  25.793  25.555  1.00  0.00     0.029 A 
ATOM     52  C   UNL A   1      48.398  27.085  26.160  1.00  0.00     0.049 A 
ATOM     53  H   UNL A   1      46.625  27.614  27.120  1.00  0.00     0.167 HD
ATOM     54  C   UNL A   1      42.767  28.617  29.002  1.00  0.00     0.034 A 
ATOM     55  C   UNL A   1      49.209  28.162  26.207  1.00  0.00     0.034 A 
ATOM     56  C   UNL A   1      43.594  29.785  29.170  1.00  0.00     0.049 A 
ATOM     57  C   UNL A   1      48.706  29.428  26.865  1.00  0.00     0.074 A 
ATOM     58  C   UNL A   1      43.297  30.962  29.833  1.00  0.00     0.029 A 
ATOM     59  N   UNL A   1      44.877  29.932  28.657  1.00  0.00    -0.354 N 
ATOM     60  N   UNL A   1      47.547  29.659  27.441  1.00  0.00    -0.248 NA
ATOM     61  C   UNL A   1      49.624  30.575  26.886  1.00  0.00     0.031 C 
ATOM     62  C   UNL A   1      44.362  31.850  29.648  1.00  0.00     0.029 A 
ATOM     63  C   UNL A   1      45.368  31.194  28.955  1.00  0.00     0.049 A 
ATOM     64  H   UNL A   1      45.366  29.241  28.155  1.00  0.00     0.167 HD
ATOM     65  C   UNL A   1      47.615  30.964  27.925  1.00  0.00     0.074 A 
ATOM     66  C   UNL A   1      48.930  31.464  27.582  1.00  0.00     0.031 C 
ATOM     67  C   UNL A   1      46.681  31.683  28.601  1.00  0.00     0.034 A 
BRANCH  54  68
ATOM     68  C   UNL A   1      41.355  28.632  29.539  1.00  0.00     0.023 A 
ATOM     69  C   UNL A   1      40.275  29.112  28.778  1.00  0.00     0.031 A 
ATOM     70  C   UNL A   1      41.093  28.195  30.849  1.00  0.00     0.131 A 
ATOM     71  C   UNL A   1      39.001  29.214  29.356  1.00  0.00     0.055 A 
ATOM     72  C   UNL A   1      39.806  28.217  31.390  1.00  0.00     0.041 A 
ATOM     73  F   UNL A   1      42.088  27.754  31.635  1.00  0.00    -0.206 F 
ATOM     74  C   UNL A   1      38.754  28.744  30.648  1.00  0.00     0.022 A 
BRANCH  71  75
ATOM     75  S   UNL A   1      37.709  30.115  28.456  1.00  0.00     0.124 S 
ATOM     76  O   UNL A   1      36.497  29.596  29.085  1.00  0.00    -0.237 OA
ATOM     77  O   UNL A   1      38.034  31.506  28.747  1.00  0.00    -0.237 OA
ATOM     78  O   UNL A   1      37.908  29.703  27.068  1.00  0.00    -0.744 OA
ENDBRANCH  71  75
ENDBRANCH  54  68
BRANCH  55  79
ATOM     79  C   UNL A   1      50.562  28.121  25.579  1.00  0.00     0.023 A 
ATOM     80  C   UNL A   1      50.719  28.148  24.184  1.00  0.00     0.031 A 
ATOM     81  C   UNL A   1      51.720  27.993  26.368  1.00  0.00     0.131 A 
ATOM     82  C   UNL A   1      51.997  27.999  23.620  1.00  0.00     0.055 A 
ATOM     83  C   UNL A   1      52.994  27.905  25.804  1.00  0.00     0.041 A 
ATOM     84  F   UNL A   1      51.629  27.954  27.707  1.00  0.00    -0.206 F 
ATOM     85  C   UNL A   1      53.136  27.893  24.421  1.00  0.00     0.022 A 
BRANCH  82  86
ATOM     86  S   UNL A   1      52.139  27.843  21.818  1.00  0.00     0.124 S 
ATOM     87  O   UNL A   1      52.702  26.505  21.679  1.00  0.00    -0.237 OA
ATOM     88  O   UNL A   1      50.753  28.004  21.391  1.00  0.00    -0.237 OA
ATOM     89  O   UNL A   1      53.033  28.940  21.451  1.00  0.00    -0.744 OA
ENDBRANCH  82  86
ENDBRANCH  55  79
BRANCH  67  90
ATOM     90  C   UNL A   1      47.071  33.066  29.070  1.00  0.00     0.023 A 
ATOM     91  C   UNL A   1      47.661  33.291  30.326  1.00  0.00     0.031 A 
ATOM     92  C   UNL A   1      46.851  34.178  28.236  1.00  0.00     0.131 A 
ATOM     93  C   UNL A   1      47.956  34.602  30.734  1.00  0.00     0.055 A 
ATOM     94  C   UNL A   1      47.210  35.470  28.619  1.00  0.00     0.041 A 
ATOM     95  F   UNL A   1      46.288  34.025  27.027  1.00  0.00    -0.206 F 
ATOM     96  C   UNL A   1      47.754  35.689  29.881  1.00  0.00     0.022 A 
BRANCH  93  97
ATOM     97  S   UNL A   1      48.516  34.879  32.438  1.00  0.00     0.124 S 
ATOM     98  O   UNL A   1      49.965  34.906  32.279  1.00  0.00    -0.237 OA
ATOM     99  O   UNL A   1      47.886  36.152  32.771  1.00  0.00    -0.237 OA
ATOM    100  O   UNL A   1      47.993  33.722  33.163  1.00  0.00    -0.744 OA
ENDBRANCH  93  97
ENDBRANCH  67  90
ENDBRANCH  41  42
ENDBRANCH  34  36
ENDBRANCH  33  34
ENDBRANCH  32  33
ENDBRANCH  31  32
ENDBRANCH  30  31
ENDBRANCH  29  30
ENDBRANCH  28  29
ENDBRANCH  27  28
ENDBRANCH   1  27
TORSDOF 27
ENDMDL
MODEL 3
REMARK VINA RESULT:      -7.7      5.153     11.391
REMARK SMILES CC[C@H](C)N(C)C(=O)N1[C@@H](C(=O)OCCOCCOCCOCCOC(=O)c2ccc(-c3c4nc(c(-c5cc(S(=O)(=O)[O-])ccc5F)c5ccc([nH]5)c(-c5cc(S(=O)(=O)[O-])ccc5F)c5nc(c(-c6cc(S(=O)(=O)[O-])ccc6F)c6ccc3[nH]6)C=C5)C=C4)cc2)CC[C@H]2CCCC[C@@H]21
REMARK SMILES IDX 18 1 17 2 16 3 15 4 14 5 13 6 11 7 12 8 10 9 9 10 98 11
REMARK SMILES IDX 91 12 93 13 97 14 92 15 94 16 96 17 95 18 7 19 8 20 5 21
REMARK SMILES IDX 6 22 3 23 4 24 2 25 1 26 19 27 20 28 21 29 22 30 23 31 24 32
REMARK SMILES IDX 25 33 26 34 27 35 28 36 29 37 90 38 30 39 89 40 31 41 32 42
REMARK SMILES IDX 33 43 83 44 34 45 88 46 82 47 84 48 35 49 87 50 81 51 80 52
REMARK SMILES IDX 36 54 68 55 48 56 67 57 49 58 52 59 66 60 85 61 50 62 51 63
REMARK SMILES IDX 65 65 86 66 53 67 37 68 38 69 46 70 39 71 45 72 47 73 44 74
REMARK SMILES IDX 40 75 41 76 42 77 43 78 69 79 70 80 78 81 71 82 77 83 79 84
REMARK SMILES IDX 76 85 72 86 73 87 74 88 75 89 54 90 55 91 63 92 56 93 62 94
REMARK SMILES IDX 64 95 61 96 57 97 58 98 59 99 60 100
REMARK H PARENT 84 53 52 64
REMARK Flexibility Score: inf
ROOT
ATOM      1  C   UNL A   1      35.679  31.193  29.834  1.00  0.00     0.188 C 
ENDROOT
BRANCH   1   2
ATOM      2  C   UNL A   1      37.081  30.615  29.558  1.00  0.00     0.188 C 
BRANCH   2   3
ATOM      3  O   UNL A   1      37.373  30.005  28.311  1.00  0.00    -0.376 OA
BRANCH   3   4
ATOM      4  C   UNL A   1      38.637  29.395  28.100  1.00  0.00     0.202 C 
BRANCH   4   5
ATOM      5  C   UNL A   1      38.986  27.948  28.516  1.00  0.00     0.261 C 
BRANCH   5   6
ATOM      6  O   UNL A   1      40.054  27.295  27.818  1.00  0.00    -0.462 OA
BRANCH   6   7
ATOM      7  C   UNL A   1      40.915  26.520  28.545  1.00  0.00     0.329 C 
ATOM      8  O   UNL A   1      41.729  26.942  29.357  1.00  0.00    -0.250 OA
BRANCH   7   9
ATOM      9  C   UNL A   1      40.727  25.035  28.155  1.00  0.00     0.197 C 
ATOM     10  N   UNL A   1      41.708  24.498  27.182  1.00  0.00    -0.308 N 
ATOM     11  C   UNL A   1      41.469  23.135  26.695  1.00  0.00     0.091 C 
ATOM     12  C   UNL A   1      39.278  24.932  27.635  1.00  0.00     0.038 C 
ATOM     13  C   UNL A   1      40.031  22.646  26.963  1.00  0.00     0.012 C 
ATOM     14  C   UNL A   1      42.434  22.052  27.223  1.00  0.00     0.025 C 
ATOM     15  C   UNL A   1      39.043  23.768  26.676  1.00  0.00     0.008 C 
ATOM     16  C   UNL A   1      39.766  21.389  26.133  1.00  0.00     0.006 C 
ATOM     17  C   UNL A   1      42.212  20.741  26.467  1.00  0.00     0.002 C 
ATOM     18  C   UNL A   1      40.756  20.280  26.496  1.00  0.00     0.000 C 
BRANCH  10  19
ATOM     19  C   UNL A   1      43.046  24.857  27.314  1.00  0.00     0.320 C 
ATOM     20  O   UNL A   1      43.627  24.742  28.387  1.00  0.00    -0.248 OA
BRANCH  19  21
ATOM     21  N   UNL A   1      43.658  25.311  26.154  1.00  0.00    -0.325 N 
ATOM     22  C   UNL A   1      44.458  24.434  25.315  1.00  0.00     0.149 C 
BRANCH  21  23
ATOM     23  C   UNL A   1      43.467  26.700  25.674  1.00  0.00     0.083 C 
ATOM     24  C   UNL A   1      42.055  26.886  25.103  1.00  0.00     0.031 C 
BRANCH  23  25
ATOM     25  C   UNL A   1      43.813  27.792  26.705  1.00  0.00     0.021 C 
ATOM     26  C   UNL A   1      45.248  27.659  27.213  1.00  0.00     0.006 C 
ENDBRANCH  23  25
ENDBRANCH  21  23
ENDBRANCH  19  21
ENDBRANCH  10  19
ENDBRANCH   7   9
ENDBRANCH   6   7
ENDBRANCH   5   6
ENDBRANCH   4   5
ENDBRANCH   3   4
ENDBRANCH   2   3
ENDBRANCH   1   2
BRANCH   1  27
ATOM     27  O   UNL A   1      35.697  32.572  30.144  1.00  0.00    -0.377 OA
BRANCH  27  28
ATOM     28  C   UNL A   1      35.010  33.406  29.216  1.00  0.00     0.188 C 
BRANCH  28  29
ATOM     29  C   UNL A   1      34.096  34.526  29.767  1.00  0.00     0.188 C 
BRANCH  29  30
ATOM     30  O   UNL A   1      33.677  34.345  31.115  1.00  0.00    -0.376 OA
BRANCH  30  31
ATOM     31  C   UNL A   1      34.135  35.227  32.126  1.00  0.00     0.202 C 
BRANCH  31  32
ATOM     32  C   UNL A   1      35.472  34.917  32.818  1.00  0.00     0.261 C 
BRANCH  32  33
ATOM     33  O   UNL A   1      35.621  33.598  33.359  1.00  0.00    -0.460 OA
BRANCH  33  34
ATOM     34  C   UNL A   1      36.435  33.444  34.427  1.00  0.00     0.338 C 
ATOM     35  O   UNL A   1      36.115  33.492  35.602  1.00  0.00    -0.246 OA
BRANCH  34  36
ATOM     36  C   UNL A   1      37.744  32.984  33.917  1.00  0.00     0.060 A 
ATOM     37  C   UNL A   1      37.784  31.915  33.010  1.00  0.00     0.016 A 
ATOM     38  C   UNL A   1      38.921  33.628  34.303  1.00  0.00     0.016 A 
ATOM     39  C   UNL A   1      39.006  31.468  32.512  1.00  0.00     0.010 A 
ATOM     40  C   UNL A   1      40.147  33.160  33.828  1.00  0.00     0.010 A 
ATOM     41  C   UNL A   1      40.196  32.057  32.957  1.00  0.00    -0.014 A 
BRANCH  41  42
ATOM     42  C   UNL A   1      41.488  31.375  32.703  1.00  0.00     0.031 A 
ATOM     43  C   UNL A   1      42.268  31.784  31.484  1.00  0.00     0.074 A 
ATOM     44  C   UNL A   1      41.969  30.438  33.539  1.00  0.00     0.049 A 
ATOM     45  N   UNL A   1      43.381  31.297  31.004  1.00  0.00    -0.248 NA
ATOM     46  C   UNL A   1      41.705  32.894  30.698  1.00  0.00     0.031 C 
ATOM     47  C   UNL A   1      41.331  30.005  34.781  1.00  0.00     0.029 A 
ATOM     48  N   UNL A   1      43.108  29.676  33.462  1.00  0.00    -0.354 N 
ATOM     49  C   UNL A   1      43.650  32.034  29.855  1.00  0.00     0.074 A 
ATOM     50  C   UNL A   1      42.560  32.972  29.691  1.00  0.00     0.031 C 
ATOM     51  C   UNL A   1      42.084  29.044  35.343  1.00  0.00     0.029 A 
ATOM     52  C   UNL A   1      43.231  28.762  34.481  1.00  0.00     0.049 A 
ATOM     53  H   UNL A   1      43.774  29.776  32.743  1.00  0.00     0.167 HD
ATOM     54  C   UNL A   1      44.712  31.941  29.019  1.00  0.00     0.034 A 
ATOM     55  C   UNL A   1      44.148  27.790  34.674  1.00  0.00     0.034 A 
ATOM     56  C   UNL A   1      45.778  30.986  29.190  1.00  0.00     0.049 A 
ATOM     57  C   UNL A   1      45.268  27.632  33.669  1.00  0.00     0.074 A 
ATOM     58  C   UNL A   1      46.905  30.805  28.409  1.00  0.00     0.029 A 
ATOM     59  N   UNL A   1      45.843  30.038  30.205  1.00  0.00    -0.354 N 
ATOM     60  N   UNL A   1      45.514  28.333  32.585  1.00  0.00    -0.248 NA
ATOM     61  C   UNL A   1      46.237  26.557  33.920  1.00  0.00     0.031 C 
ATOM     62  C   UNL A   1      47.604  29.697  28.898  1.00  0.00     0.029 A 
ATOM     63  C   UNL A   1      46.969  29.246  30.046  1.00  0.00     0.049 A 
ATOM     64  H   UNL A   1      45.184  29.944  30.931  1.00  0.00     0.167 HD
ATOM     65  C   UNL A   1      46.688  27.807  32.049  1.00  0.00     0.074 A 
ATOM     66  C   UNL A   1      47.103  26.738  32.934  1.00  0.00     0.031 C 
ATOM     67  C   UNL A   1      47.368  28.178  30.933  1.00  0.00     0.034 A 
BRANCH  54  68
ATOM     68  C   UNL A   1      44.728  32.853  27.815  1.00  0.00     0.023 A 
ATOM     69  C   UNL A   1      45.272  34.148  27.872  1.00  0.00     0.031 A 
ATOM     70  C   UNL A   1      44.154  32.434  26.603  1.00  0.00     0.131 A 
ATOM     71  C   UNL A   1      45.162  35.002  26.764  1.00  0.00     0.055 A 
ATOM     72  C   UNL A   1      44.126  33.257  25.476  1.00  0.00     0.041 A 
ATOM     73  F   UNL A   1      43.592  31.219  26.496  1.00  0.00    -0.206 F 
ATOM     74  C   UNL A   1      44.618  34.556  25.557  1.00  0.00     0.022 A 
BRANCH  71  75
ATOM     75  S   UNL A   1      45.595  36.752  26.971  1.00  0.00     0.124 S 
ATOM     76  O   UNL A   1      46.421  36.992  25.789  1.00  0.00    -0.237 OA
ATOM     77  O   UNL A   1      44.290  37.401  26.981  1.00  0.00    -0.237 OA
ATOM     78  O   UNL A   1      46.317  36.778  28.241  1.00  0.00    -0.744 OA
ENDBRANCH  71  75
ENDBRANCH  54  68
BRANCH  55  79
ATOM     79  C   UNL A   1      44.032  26.857  35.833  1.00  0.00     0.023 A 
ATOM     80  C   UNL A   1      44.498  27.218  37.107  1.00  0.00     0.031 A 
ATOM     81  C   UNL A   1      43.508  25.562  35.667  1.00  0.00     0.131 A 
ATOM     82  C   UNL A   1      44.474  26.280  38.152  1.00  0.00     0.055 A 
ATOM     83  C   UNL A   1      43.432  24.653  36.724  1.00  0.00     0.041 A 
ATOM     84  F   UNL A   1      43.055  25.161  34.468  1.00  0.00    -0.206 F 
ATOM     85  C   UNL A   1      43.931  25.006  37.973  1.00  0.00     0.022 A 
BRANCH  82  86
ATOM     86  S   UNL A   1      45.260  26.716  39.729  1.00  0.00     0.124 S 
ATOM     87  O   UNL A   1      44.155  26.549  40.666  1.00  0.00    -0.237 OA
ATOM     88  O   UNL A   1      46.331  25.729  39.816  1.00  0.00    -0.237 OA
ATOM     89  O   UNL A   1      45.701  28.093  39.520  1.00  0.00    -0.744 OA
ENDBRANCH  82  86
ENDBRANCH  55  79
BRANCH  67  90
ATOM     90  C   UNL A   1      48.668  27.463  30.639  1.00  0.00     0.023 A 
ATOM     91  C   UNL A   1      49.906  27.946  31.096  1.00  0.00     0.031 A 
ATOM     92  C   UNL A   1      48.659  26.271  29.891  1.00  0.00     0.131 A 
ATOM     93  C   UNL A   1      51.089  27.272  30.751  1.00  0.00     0.055 A 
ATOM     94  C   UNL A   1      49.831  25.568  29.611  1.00  0.00     0.041 A 
ATOM     95  F   UNL A   1      47.507  25.764  29.426  1.00  0.00    -0.206 F 
ATOM     96  C   UNL A   1      51.057  26.076  30.030  1.00  0.00     0.022 A 
BRANCH  93  97
ATOM     97  S   UNL A   1      52.681  28.033  31.172  1.00  0.00     0.124 S 
ATOM     98  O   UNL A   1      53.620  27.208  30.420  1.00  0.00    -0.237 OA
ATOM     99  O   UNL A   1      52.509  29.401  30.696  1.00  0.00    -0.237 OA
ATOM    100  O   UNL A   1      52.756  27.889  32.626  1.00  0.00    -0.744 OA
ENDBRANCH  93  97
ENDBRANCH  67  90
ENDBRANCH  41  42
ENDBRANCH  34  36
ENDBRANCH  33  34
ENDBRANCH  32  33
ENDBRANCH  31  32
ENDBRANCH  30  31
ENDBRANCH  29  30
ENDBRANCH  28  29
ENDBRANCH  27  28
ENDBRANCH   1  27
TORSDOF 27
ENDMDL
