MODEL 1
REMARK VINA RESULT:     -10.5      0.000      0.000
REMARK SMILES O=C(OCCOCCOCCOCCOC(=O)c1ccc(S(=O)(=O)Cc2cccs2)c(F)c1)c1ccc(-c2c3nc(c(-c4cc(S(=O)(=O)[O-])ccc4F)c4ccc([nH]4)c(-c4cc(S(=O)(=O)[O-])ccc4F)c4nc(c(-c5cc(S(=O)(=O)[O-])ccc5F)c5ccc2[nH]5)C=C4)C=C3)cc1
REMARK SMILES IDX 9 1 8 2 7 3 6 4 5 5 4 6 3 7 2 8 1 9 34 10 35 11 96 12 36 13
REMARK SMILES IDX 95 14 37 15 38 16 39 17 89 18 40 19 94 20 88 21 90 22 41 23
REMARK SMILES IDX 93 24 87 25 86 26 42 28 74 29 54 30 73 31 55 32 58 33 72 34
REMARK SMILES IDX 91 35 56 36 57 37 71 39 92 40 59 41 43 42 44 43 52 44 45 45
REMARK SMILES IDX 51 46 53 47 50 48 46 49 47 50 48 51 49 52 75 53 76 54 84 55
REMARK SMILES IDX 77 56 83 57 85 58 82 59 78 60 79 61 80 62 81 63 60 64 61 65
REMARK SMILES IDX 69 66 62 67 68 68 70 69 67 70 63 71 64 72 65 73 66 74 10 75
REMARK SMILES IDX 11 76 12 77 13 78 14 79 15 80 16 81 17 82 18 83 19 84 33 85
REMARK SMILES IDX 20 86 31 87 21 88 32 89 22 90 23 91 24 92 25 93 26 94 27 95
REMARK SMILES IDX 30 96 28 97 29 98
REMARK H PARENT 90 27 58 38
REMARK Flexibility Score: inf
ROOT
ATOM      1  O   UNL A   1      31.311  25.442  25.393  1.00  0.00    -0.377 OA
ENDROOT
BRANCH   1   2
ATOM      2  C   UNL A   1      31.763  26.062  26.590  1.00  0.00     0.188 C 
BRANCH   2   3
ATOM      3  C   UNL A   1      31.224  27.469  26.820  1.00  0.00     0.188 C 
BRANCH   3   4
ATOM      4  O   UNL A   1      31.257  28.245  25.625  1.00  0.00    -0.376 OA
BRANCH   4   5
ATOM      5  C   UNL A   1      31.993  29.465  25.669  1.00  0.00     0.202 C 
BRANCH   5   6
ATOM      6  C   UNL A   1      32.039  30.194  27.019  1.00  0.00     0.261 C 
BRANCH   6   7
ATOM      7  O   UNL A   1      32.286  31.609  26.934  1.00  0.00    -0.460 OA
BRANCH   7   8
ATOM      8  C   UNL A   1      33.292  32.338  27.478  1.00  0.00     0.338 C 
ATOM      9  O   UNL A   1      33.146  33.556  27.569  1.00  0.00    -0.246 OA
BRANCH   8  10
ATOM     10  C   UNL A   1      34.579  31.753  27.954  1.00  0.00     0.060 A 
ATOM     11  C   UNL A   1      34.782  30.408  28.251  1.00  0.00     0.016 A 
ATOM     12  C   UNL A   1      35.687  32.611  28.037  1.00  0.00     0.016 A 
ATOM     13  C   UNL A   1      35.982  29.942  28.764  1.00  0.00     0.010 A 
ATOM     14  C   UNL A   1      36.921  32.145  28.504  1.00  0.00     0.010 A 
ATOM     15  C   UNL A   1      37.046  30.818  28.934  1.00  0.00    -0.014 A 
BRANCH  15  16
ATOM     16  C   UNL A   1      38.152  30.380  29.810  1.00  0.00     0.031 A 
ATOM     17  C   UNL A   1      39.209  29.512  29.187  1.00  0.00     0.074 A 
ATOM     18  C   UNL A   1      38.305  30.900  31.041  1.00  0.00     0.049 A 
ATOM     19  N   UNL A   1      40.229  28.921  29.740  1.00  0.00    -0.248 NA
ATOM     20  C   UNL A   1      39.103  29.285  27.731  1.00  0.00     0.031 C 
ATOM     21  C   UNL A   1      37.416  31.892  31.655  1.00  0.00     0.029 A 
ATOM     22  N   UNL A   1      39.287  30.712  31.977  1.00  0.00    -0.354 N 
ATOM     23  C   UNL A   1      40.853  28.216  28.717  1.00  0.00     0.074 A 
ATOM     24  C   UNL A   1      40.099  28.444  27.509  1.00  0.00     0.031 C 
ATOM     25  C   UNL A   1      37.923  32.257  32.845  1.00  0.00     0.029 A 
ATOM     26  C   UNL A   1      39.115  31.462  33.118  1.00  0.00     0.049 A 
ATOM     27  H   UNL A   1      40.045  30.098  31.845  1.00  0.00     0.167 HD
ATOM     28  C   UNL A   1      41.962  27.446  28.790  1.00  0.00     0.034 A 
ATOM     29  C   UNL A   1      39.825  31.466  34.264  1.00  0.00     0.034 A 
ATOM     30  C   UNL A   1      42.705  27.278  30.006  1.00  0.00     0.049 A 
ATOM     31  C   UNL A   1      40.989  30.512  34.362  1.00  0.00     0.074 A 
ATOM     32  C   UNL A   1      43.794  26.465  30.250  1.00  0.00     0.029 A 
ATOM     33  N   UNL A   1      42.432  27.960  31.186  1.00  0.00    -0.354 N 
ATOM     34  N   UNL A   1      41.486  29.726  33.433  1.00  0.00    -0.248 NA
ATOM     35  C   UNL A   1      41.663  30.412  35.661  1.00  0.00     0.031 C 
ATOM     36  C   UNL A   1      44.151  26.623  31.593  1.00  0.00     0.029 A 
ATOM     37  C   UNL A   1      43.320  27.574  32.170  1.00  0.00     0.049 A 
ATOM     38  H   UNL A   1      41.711  28.620  31.304  1.00  0.00     0.167 HD
ATOM     39  C   UNL A   1      42.528  29.032  34.037  1.00  0.00     0.074 A 
ATOM     40  C   UNL A   1      42.602  29.510  35.405  1.00  0.00     0.031 C 
ATOM     41  C   UNL A   1      43.344  28.080  33.520  1.00  0.00     0.034 A 
BRANCH  28  42
ATOM     42  C   UNL A   1      42.357  26.687  27.555  1.00  0.00     0.023 A 
ATOM     43  C   UNL A   1      42.028  25.332  27.375  1.00  0.00     0.031 A 
ATOM     44  C   UNL A   1      43.128  27.320  26.566  1.00  0.00     0.131 A 
ATOM     45  C   UNL A   1      42.514  24.641  26.254  1.00  0.00     0.055 A 
ATOM     46  C   UNL A   1      43.557  26.645  25.423  1.00  0.00     0.041 A 
ATOM     47  F   UNL A   1      43.498  28.603  26.707  1.00  0.00    -0.206 F 
ATOM     48  C   UNL A   1      43.256  25.295  25.266  1.00  0.00     0.022 A 
BRANCH  45  49
ATOM     49  S   UNL A   1      42.241  22.852  26.142  1.00  0.00     0.124 S 
ATOM     50  O   UNL A   1      40.789  22.768  26.288  1.00  0.00    -0.237 OA
ATOM     51  O   UNL A   1      42.768  22.529  24.821  1.00  0.00    -0.237 OA
ATOM     52  O   UNL A   1      43.007  22.318  27.266  1.00  0.00    -0.744 OA
ENDBRANCH  45  49
ENDBRANCH  28  42
BRANCH  29  53
ATOM     53  C   UNL A   1      39.403  32.312  35.418  1.00  0.00     0.023 A 
ATOM     54  C   UNL A   1      39.855  33.633  35.570  1.00  0.00     0.031 A 
ATOM     55  C   UNL A   1      38.537  31.799  36.404  1.00  0.00     0.131 A 
ATOM     56  C   UNL A   1      39.449  34.389  36.683  1.00  0.00     0.055 A 
ATOM     57  C   UNL A   1      38.101  32.569  37.485  1.00  0.00     0.041 A 
ATOM     58  F   UNL A   1      38.079  30.540  36.316  1.00  0.00    -0.206 F 
ATOM     59  C   UNL A   1      38.562  33.871  37.632  1.00  0.00     0.022 A 
BRANCH  56  60
ATOM     60  S   UNL A   1      40.123  36.060  36.905  1.00  0.00     0.124 S 
ATOM     61  O   UNL A   1      39.772  36.691  35.639  1.00  0.00    -0.237 OA
ATOM     62  O   UNL A   1      39.396  36.529  38.080  1.00  0.00    -0.237 OA
ATOM     63  O   UNL A   1      41.551  35.827  37.111  1.00  0.00    -0.744 OA
ENDBRANCH  56  60
ENDBRANCH  29  53
BRANCH  41  64
ATOM     64  C   UNL A   1      44.386  27.504  34.433  1.00  0.00     0.023 A 
ATOM     65  C   UNL A   1      44.217  26.233  35.002  1.00  0.00     0.031 A 
ATOM     66  C   UNL A   1      45.592  28.190  34.651  1.00  0.00     0.131 A 
ATOM     67  C   UNL A   1      45.243  25.686  35.781  1.00  0.00     0.055 A 
ATOM     68  C   UNL A   1      46.625  27.623  35.394  1.00  0.00     0.041 A 
ATOM     69  F   UNL A   1      45.793  29.403  34.113  1.00  0.00    -0.206 F 
ATOM     70  C   UNL A   1      46.453  26.364  35.965  1.00  0.00     0.022 A 
BRANCH  67  71
ATOM     71  S   UNL A   1      44.977  24.069  36.555  1.00  0.00     0.124 S 
ATOM     72  O   UNL A   1      44.843  24.429  37.963  1.00  0.00    -0.237 OA
ATOM     73  O   UNL A   1      43.763  23.598  35.899  1.00  0.00    -0.237 OA
ATOM     74  O   UNL A   1      46.191  23.325  36.217  1.00  0.00    -0.744 OA
ENDBRANCH  67  71
ENDBRANCH  41  64
ENDBRANCH  15  16
ENDBRANCH   8  10
ENDBRANCH   7   8
ENDBRANCH   6   7
ENDBRANCH   5   6
ENDBRANCH   4   5
ENDBRANCH   3   4
ENDBRANCH   2   3
ENDBRANCH   1   2
BRANCH   1  75
ATOM     75  C   UNL A   1      30.842  24.105  25.519  1.00  0.00     0.188 C 
BRANCH  75  76
ATOM     76  C   UNL A   1      30.979  23.385  26.880  1.00  0.00     0.188 C 
BRANCH  76  77
ATOM     77  O   UNL A   1      32.184  22.649  27.029  1.00  0.00    -0.376 OA
BRANCH  77  78
ATOM     78  C   UNL A   1      32.436  21.689  26.010  1.00  0.00     0.202 C 
BRANCH  78  79
ATOM     79  C   UNL A   1      33.724  20.880  26.207  1.00  0.00     0.261 C 
BRANCH  79  80
ATOM     80  O   UNL A   1      34.930  21.667  26.272  1.00  0.00    -0.460 OA
BRANCH  80  81
ATOM     81  C   UNL A   1      35.675  21.792  25.153  1.00  0.00     0.338 C 
ATOM     82  O   UNL A   1      36.493  21.007  24.707  1.00  0.00    -0.246 OA
BRANCH  81  83
ATOM     83  C   UNL A   1      35.152  22.971  24.426  1.00  0.00     0.063 A 
ATOM     84  C   UNL A   1      35.102  24.231  25.029  1.00  0.00     0.017 A 
ATOM     85  C   UNL A   1      34.521  22.755  23.197  1.00  0.00     0.056 A 
ATOM     86  C   UNL A   1      34.457  25.284  24.369  1.00  0.00     0.024 A 
ATOM     87  C   UNL A   1      33.769  23.775  22.623  1.00  0.00     0.142 A 
ATOM     88  C   UNL A   1      33.795  25.053  23.153  1.00  0.00     0.103 A 
ATOM     89  F   UNL A   1      32.968  23.451  21.604  1.00  0.00    -0.206 F 
BRANCH  88  90
ATOM     90  S   UNL A   1      33.091  26.448  22.325  1.00  0.00     0.186 S 
ATOM     91  O   UNL A   1      33.398  27.585  23.179  1.00  0.00    -0.223 OA
ATOM     92  O   UNL A   1      33.633  26.410  20.976  1.00  0.00    -0.223 OA
BRANCH  90  93
ATOM     93  C   UNL A   1      31.325  26.360  22.215  1.00  0.00     0.188 C 
BRANCH  93  94
ATOM     94  C   UNL A   1      30.562  27.626  22.484  1.00  0.00     0.020 A 
ATOM     95  C   UNL A   1      30.769  28.946  22.126  1.00  0.00     0.016 A 
ATOM     96  S   UNL A   1      29.078  27.462  23.353  1.00  0.00    -0.148 S 
ATOM     97  C   UNL A   1      29.639  29.772  22.406  1.00  0.00     0.012 A 
ATOM     98  C   UNL A   1      28.655  29.091  23.083  1.00  0.00     0.065 A 
ENDBRANCH  93  94
ENDBRANCH  90  93
ENDBRANCH  88  90
ENDBRANCH  81  83
ENDBRANCH  80  81
ENDBRANCH  79  80
ENDBRANCH  78  79
ENDBRANCH  77  78
ENDBRANCH  76  77
ENDBRANCH  75  76
ENDBRANCH   1  75
TORSDOF 26
ENDMDL
MODEL 2
REMARK VINA RESULT:     -10.0      1.855      2.137
REMARK SMILES O=C(OCCOCCOCCOCCOC(=O)c1ccc(S(=O)(=O)Cc2cccs2)c(F)c1)c1ccc(-c2c3nc(c(-c4cc(S(=O)(=O)[O-])ccc4F)c4ccc([nH]4)c(-c4cc(S(=O)(=O)[O-])ccc4F)c4nc(c(-c5cc(S(=O)(=O)[O-])ccc5F)c5ccc2[nH]5)C=C4)C=C3)cc1
REMARK SMILES IDX 9 1 8 2 7 3 6 4 5 5 4 6 3 7 2 8 1 9 34 10 35 11 96 12 36 13
REMARK SMILES IDX 95 14 37 15 38 16 39 17 89 18 40 19 94 20 88 21 90 22 41 23
REMARK SMILES IDX 93 24 87 25 86 26 42 28 74 29 54 30 73 31 55 32 58 33 72 34
REMARK SMILES IDX 91 35 56 36 57 37 71 39 92 40 59 41 43 42 44 43 52 44 45 45
REMARK SMILES IDX 51 46 53 47 50 48 46 49 47 50 48 51 49 52 75 53 76 54 84 55
REMARK SMILES IDX 77 56 83 57 85 58 82 59 78 60 79 61 80 62 81 63 60 64 61 65
REMARK SMILES IDX 69 66 62 67 68 68 70 69 67 70 63 71 64 72 65 73 66 74 10 75
REMARK SMILES IDX 11 76 12 77 13 78 14 79 15 80 16 81 17 82 18 83 19 84 33 85
REMARK SMILES IDX 20 86 31 87 21 88 32 89 22 90 23 91 24 92 25 93 26 94 27 95
REMARK SMILES IDX 30 96 28 97 29 98
REMARK H PARENT 90 27 58 38
REMARK Flexibility Score: inf
ROOT
ATOM      1  O   UNL A   1      31.148  25.227  25.234  1.00  0.00    -0.377 OA
ENDROOT
BRANCH   1   2
ATOM      2  C   UNL A   1      31.598  25.941  26.378  1.00  0.00     0.188 C 
BRANCH   2   3
ATOM      3  C   UNL A   1      31.007  27.337  26.530  1.00  0.00     0.188 C 
BRANCH   3   4
ATOM      4  O   UNL A   1      31.448  28.209  25.492  1.00  0.00    -0.376 OA
BRANCH   4   5
ATOM      5  C   UNL A   1      32.548  29.064  25.793  1.00  0.00     0.202 C 
BRANCH   5   6
ATOM      6  C   UNL A   1      32.571  29.691  27.194  1.00  0.00     0.261 C 
BRANCH   6   7
ATOM      7  O   UNL A   1      32.688  31.124  27.213  1.00  0.00    -0.460 OA
BRANCH   7   8
ATOM      8  C   UNL A   1      33.733  31.893  27.611  1.00  0.00     0.338 C 
ATOM      9  O   UNL A   1      33.596  33.116  27.596  1.00  0.00    -0.246 OA
BRANCH   8  10
ATOM     10  C   UNL A   1      35.050  31.345  28.045  1.00  0.00     0.060 A 
ATOM     11  C   UNL A   1      35.341  29.992  28.196  1.00  0.00     0.016 A 
ATOM     12  C   UNL A   1      36.096  32.261  28.246  1.00  0.00     0.016 A 
ATOM     13  C   UNL A   1      36.564  29.553  28.678  1.00  0.00     0.010 A 
ATOM     14  C   UNL A   1      37.353  31.828  28.684  1.00  0.00     0.010 A 
ATOM     15  C   UNL A   1      37.563  30.473  28.967  1.00  0.00    -0.014 A 
BRANCH  15  16
ATOM     16  C   UNL A   1      38.685  30.013  29.811  1.00  0.00     0.031 A 
ATOM     17  C   UNL A   1      39.703  29.120  29.160  1.00  0.00     0.074 A 
ATOM     18  C   UNL A   1      38.886  30.536  31.034  1.00  0.00     0.049 A 
ATOM     19  N   UNL A   1      40.727  28.509  29.686  1.00  0.00    -0.248 NA
ATOM     20  C   UNL A   1      39.549  28.889  27.710  1.00  0.00     0.031 C 
ATOM     21  C   UNL A   1      38.038  31.549  31.670  1.00  0.00     0.029 A 
ATOM     22  N   UNL A   1      39.892  30.330  31.941  1.00  0.00    -0.354 N 
ATOM     23  C   UNL A   1      41.303  27.787  28.648  1.00  0.00     0.074 A 
ATOM     24  C   UNL A   1      40.518  28.026  27.462  1.00  0.00     0.031 C 
ATOM     25  C   UNL A   1      38.588  31.908  32.842  1.00  0.00     0.029 A 
ATOM     26  C   UNL A   1      39.771  31.088  33.083  1.00  0.00     0.049 A 
ATOM     27  H   UNL A   1      40.632  29.699  31.790  1.00  0.00     0.167 HD
ATOM     28  C   UNL A   1      42.397  26.993  28.692  1.00  0.00     0.034 A 
ATOM     29  C   UNL A   1      40.515  31.082  34.207  1.00  0.00     0.034 A 
ATOM     30  C   UNL A   1      43.173  26.813  29.886  1.00  0.00     0.049 A 
ATOM     31  C   UNL A   1      41.660  30.103  34.275  1.00  0.00     0.074 A 
ATOM     32  C   UNL A   1      44.250  25.977  30.101  1.00  0.00     0.029 A 
ATOM     33  N   UNL A   1      42.950  27.505  31.069  1.00  0.00    -0.354 N 
ATOM     34  N   UNL A   1      42.111  29.301  33.336  1.00  0.00    -0.248 NA
ATOM     35  C   UNL A   1      42.370  29.993  35.554  1.00  0.00     0.031 C 
ATOM     36  C   UNL A   1      44.651  26.132  31.431  1.00  0.00     0.029 A 
ATOM     37  C   UNL A   1      43.859  27.104  32.028  1.00  0.00     0.049 A 
ATOM     38  H   UNL A   1      42.248  28.182  31.206  1.00  0.00     0.167 HD
ATOM     39  C   UNL A   1      43.156  28.588  33.911  1.00  0.00     0.074 A 
ATOM     40  C   UNL A   1      43.281  29.069  35.274  1.00  0.00     0.031 C 
ATOM     41  C   UNL A   1      43.935  27.616  33.374  1.00  0.00     0.034 A 
BRANCH  28  42
ATOM     42  C   UNL A   1      42.738  26.219  27.449  1.00  0.00     0.023 A 
ATOM     43  C   UNL A   1      42.326  24.889  27.261  1.00  0.00     0.031 A 
ATOM     44  C   UNL A   1      43.541  26.811  26.459  1.00  0.00     0.131 A 
ATOM     45  C   UNL A   1      42.762  24.178  26.132  1.00  0.00     0.055 A 
ATOM     46  C   UNL A   1      43.921  26.119  25.309  1.00  0.00     0.041 A 
ATOM     47  F   UNL A   1      43.989  28.069  26.607  1.00  0.00    -0.206 F 
ATOM     48  C   UNL A   1      43.537  24.791  25.144  1.00  0.00     0.022 A 
BRANCH  45  49
ATOM     49  S   UNL A   1      42.379  22.410  26.010  1.00  0.00     0.124 S 
ATOM     50  O   UNL A   1      43.051  22.050  24.763  1.00  0.00    -0.237 OA
ATOM     51  O   UNL A   1      42.968  21.869  27.229  1.00  0.00    -0.237 OA
ATOM     52  O   UNL A   1      40.919  22.378  25.957  1.00  0.00    -0.744 OA
ENDBRANCH  45  49
ENDBRANCH  28  42
BRANCH  29  53
ATOM     53  C   UNL A   1      40.147  31.941  35.370  1.00  0.00     0.023 A 
ATOM     54  C   UNL A   1      39.159  31.554  36.290  1.00  0.00     0.031 A 
ATOM     55  C   UNL A   1      40.780  33.183  35.573  1.00  0.00     0.131 A 
ATOM     56  C   UNL A   1      38.828  32.403  37.361  1.00  0.00     0.055 A 
ATOM     57  C   UNL A   1      40.479  34.003  36.663  1.00  0.00     0.041 A 
ATOM     58  F   UNL A   1      41.726  33.610  34.721  1.00  0.00    -0.206 F 
ATOM     59  C   UNL A   1      39.493  33.616  37.562  1.00  0.00     0.022 A 
BRANCH  56  60
ATOM     60  S   UNL A   1      37.482  31.922  38.480  1.00  0.00     0.124 S 
ATOM     61  O   UNL A   1      37.219  30.553  38.055  1.00  0.00    -0.237 OA
ATOM     62  O   UNL A   1      38.104  32.080  39.791  1.00  0.00    -0.237 OA
ATOM     63  O   UNL A   1      36.425  32.884  38.176  1.00  0.00    -0.744 OA
ENDBRANCH  56  60
ENDBRANCH  29  53
BRANCH  41  64
ATOM     64  C   UNL A   1      44.991  27.020  34.259  1.00  0.00     0.023 A 
ATOM     65  C   UNL A   1      46.257  27.613  34.363  1.00  0.00     0.031 A 
ATOM     66  C   UNL A   1      44.690  25.914  35.070  1.00  0.00     0.131 A 
ATOM     67  C   UNL A   1      47.193  27.085  35.261  1.00  0.00     0.055 A 
ATOM     68  C   UNL A   1      45.610  25.418  35.990  1.00  0.00     0.041 A 
ATOM     69  F   UNL A   1      43.484  25.328  35.005  1.00  0.00    -0.206 F 
ATOM     70  C   UNL A   1      46.871  26.003  36.088  1.00  0.00     0.022 A 
BRANCH  67  71
ATOM     71  S   UNL A   1      48.842  27.831  35.335  1.00  0.00     0.124 S 
ATOM     72  O   UNL A   1      48.841  28.679  34.147  1.00  0.00    -0.237 OA
ATOM     73  O   UNL A   1      48.819  28.527  36.616  1.00  0.00    -0.237 OA
ATOM     74  O   UNL A   1      49.741  26.678  35.274  1.00  0.00    -0.744 OA
ENDBRANCH  67  71
ENDBRANCH  41  64
ENDBRANCH  15  16
ENDBRANCH   8  10
ENDBRANCH   7   8
ENDBRANCH   6   7
ENDBRANCH   5   6
ENDBRANCH   4   5
ENDBRANCH   3   4
ENDBRANCH   2   3
ENDBRANCH   1   2
BRANCH   1  75
ATOM     75  C   UNL A   1      30.697  23.897  25.462  1.00  0.00     0.188 C 
BRANCH  75  76
ATOM     76  C   UNL A   1      30.688  23.344  26.905  1.00  0.00     0.188 C 
BRANCH  76  77
ATOM     77  O   UNL A   1      31.957  22.905  27.366  1.00  0.00    -0.376 OA
BRANCH  77  78
ATOM     78  C   UNL A   1      32.576  21.902  26.569  1.00  0.00     0.202 C 
BRANCH  78  79
ATOM     79  C   UNL A   1      33.957  21.460  27.070  1.00  0.00     0.261 C 
BRANCH  79  80
ATOM     80  O   UNL A   1      35.037  22.357  26.744  1.00  0.00    -0.460 OA
BRANCH  80  81
ATOM     81  C   UNL A   1      35.661  22.205  25.557  1.00  0.00     0.338 C 
ATOM     82  O   UNL A   1      36.386  21.292  25.204  1.00  0.00    -0.246 OA
BRANCH  81  83
ATOM     83  C   UNL A   1      35.122  23.251  24.659  1.00  0.00     0.063 A 
ATOM     84  C   UNL A   1      35.045  24.587  25.063  1.00  0.00     0.017 A 
ATOM     85  C   UNL A   1      34.501  22.839  23.475  1.00  0.00     0.056 A 
ATOM     86  C   UNL A   1      34.385  25.515  24.249  1.00  0.00     0.024 A 
ATOM     87  C   UNL A   1      33.734  23.746  22.749  1.00  0.00     0.142 A 
ATOM     88  C   UNL A   1      33.734  25.090  23.080  1.00  0.00     0.103 A 
ATOM     89  F   UNL A   1      32.946  23.257  21.790  1.00  0.00    -0.206 F 
BRANCH  88  90
ATOM     90  S   UNL A   1      33.011  26.330  22.048  1.00  0.00     0.186 S 
ATOM     91  O   UNL A   1      33.446  27.595  22.620  1.00  0.00    -0.223 OA
ATOM     92  O   UNL A   1      33.416  25.990  20.694  1.00  0.00    -0.223 OA
BRANCH  90  93
ATOM     93  C   UNL A   1      31.240  26.328  22.113  1.00  0.00     0.188 C 
BRANCH  93  94
ATOM     94  C   UNL A   1      30.568  27.637  22.416  1.00  0.00     0.020 A 
ATOM     95  C   UNL A   1      30.874  28.949  22.101  1.00  0.00     0.016 A 
ATOM     96  S   UNL A   1      29.068  27.555  23.268  1.00  0.00    -0.148 S 
ATOM     97  C   UNL A   1      29.804  29.846  22.398  1.00  0.00     0.012 A 
ATOM     98  C   UNL A   1      28.767  29.218  23.046  1.00  0.00     0.065 A 
ENDBRANCH  93  94
ENDBRANCH  90  93
ENDBRANCH  88  90
ENDBRANCH  81  83
ENDBRANCH  80  81
ENDBRANCH  79  80
ENDBRANCH  78  79
ENDBRANCH  77  78
ENDBRANCH  76  77
ENDBRANCH  75  76
ENDBRANCH   1  75
TORSDOF 26
ENDMDL
MODEL 3
REMARK VINA RESULT:      -9.4      5.670     10.336
REMARK SMILES O=C(OCCOCCOCCOCCOC(=O)c1ccc(S(=O)(=O)Cc2cccs2)c(F)c1)c1ccc(-c2c3nc(c(-c4cc(S(=O)(=O)[O-])ccc4F)c4ccc([nH]4)c(-c4cc(S(=O)(=O)[O-])ccc4F)c4nc(c(-c5cc(S(=O)(=O)[O-])ccc5F)c5ccc2[nH]5)C=C4)C=C3)cc1
REMARK SMILES IDX 9 1 8 2 7 3 6 4 5 5 4 6 3 7 2 8 1 9 34 10 35 11 96 12 36 13
REMARK SMILES IDX 95 14 37 15 38 16 39 17 89 18 40 19 94 20 88 21 90 22 41 23
REMARK SMILES IDX 93 24 87 25 86 26 42 28 74 29 54 30 73 31 55 32 58 33 72 34
REMARK SMILES IDX 91 35 56 36 57 37 71 39 92 40 59 41 43 42 44 43 52 44 45 45
REMARK SMILES IDX 51 46 53 47 50 48 46 49 47 50 48 51 49 52 75 53 76 54 84 55
REMARK SMILES IDX 77 56 83 57 85 58 82 59 78 60 79 61 80 62 81 63 60 64 61 65
REMARK SMILES IDX 69 66 62 67 68 68 70 69 67 70 63 71 64 72 65 73 66 74 10 75
REMARK SMILES IDX 11 76 12 77 13 78 14 79 15 80 16 81 17 82 18 83 19 84 33 85
REMARK SMILES IDX 20 86 31 87 21 88 32 89 22 90 23 91 24 92 25 93 26 94 27 95
REMARK SMILES IDX 30 96 28 97 29 98
REMARK H PARENT 90 27 58 38
REMARK Flexibility Score: inf
ROOT
ATOM      1  O   UNL A   1      42.707  19.781  25.232  1.00  0.00    -0.377 OA
ENDROOT
BRANCH   1   2
ATOM      2  C   UNL A   1      44.018  19.231  25.275  1.00  0.00     0.188 C 
BRANCH   2   3
ATOM      3  C   UNL A   1      45.104  20.129  24.695  1.00  0.00     0.188 C 
BRANCH   3   4
ATOM      4  O   UNL A   1      44.671  20.767  23.496  1.00  0.00    -0.376 OA
BRANCH   4   5
ATOM      5  C   UNL A   1      44.637  22.192  23.500  1.00  0.00     0.202 C 
BRANCH   5   6
ATOM      6  C   UNL A   1      45.359  22.896  24.657  1.00  0.00     0.261 C 
BRANCH   6   7
ATOM      7  O   UNL A   1      44.957  24.259  24.881  1.00  0.00    -0.460 OA
BRANCH   7   8
ATOM      8  C   UNL A   1      45.727  25.368  25.017  1.00  0.00     0.338 C 
ATOM      9  O   UNL A   1      46.751  25.454  24.340  1.00  0.00    -0.246 OA
BRANCH   8  10
ATOM     10  C   UNL A   1      45.417  26.484  25.956  1.00  0.00     0.060 A 
ATOM     11  C   UNL A   1      46.365  27.224  26.657  1.00  0.00     0.016 A 
ATOM     12  C   UNL A   1      44.072  26.865  26.085  1.00  0.00     0.016 A 
ATOM     13  C   UNL A   1      46.006  28.199  27.573  1.00  0.00     0.010 A 
ATOM     14  C   UNL A   1      43.696  27.883  26.969  1.00  0.00     0.010 A 
ATOM     15  C   UNL A   1      44.665  28.503  27.767  1.00  0.00    -0.014 A 
BRANCH  15  16
ATOM     16  C   UNL A   1      44.310  29.257  28.987  1.00  0.00     0.031 A 
ATOM     17  C   UNL A   1      44.035  30.725  28.824  1.00  0.00     0.074 A 
ATOM     18  C   UNL A   1      44.050  28.616  30.141  1.00  0.00     0.049 A 
ATOM     19  N   UNL A   1      43.792  31.629  29.730  1.00  0.00    -0.248 NA
ATOM     20  C   UNL A   1      44.026  31.246  27.442  1.00  0.00     0.031 C 
ATOM     21  C   UNL A   1      44.118  27.164  30.336  1.00  0.00     0.029 A 
ATOM     22  N   UNL A   1      43.624  29.091  31.353  1.00  0.00    -0.354 N 
ATOM     23  C   UNL A   1      43.653  32.825  29.036  1.00  0.00     0.074 A 
ATOM     24  C   UNL A   1      43.843  32.540  27.634  1.00  0.00     0.031 C 
ATOM     25  C   UNL A   1      43.702  26.868  31.578  1.00  0.00     0.029 A 
ATOM     26  C   UNL A   1      43.427  28.108  32.296  1.00  0.00     0.049 A 
ATOM     27  H   UNL A   1      43.473  30.048  31.532  1.00  0.00     0.167 HD
ATOM     28  C   UNL A   1      43.388  34.053  29.535  1.00  0.00     0.034 A 
ATOM     29  C   UNL A   1      43.101  28.214  33.599  1.00  0.00     0.034 A 
ATOM     30  C   UNL A   1      43.167  34.286  30.934  1.00  0.00     0.049 A 
ATOM     31  C   UNL A   1      42.926  29.604  34.159  1.00  0.00     0.074 A 
ATOM     32  C   UNL A   1      42.974  35.483  31.593  1.00  0.00     0.029 A 
ATOM     33  N   UNL A   1      43.095  33.278  31.888  1.00  0.00    -0.354 N 
ATOM     34  N   UNL A   1      42.949  30.754  33.523  1.00  0.00    -0.248 NA
ATOM     35  C   UNL A   1      42.722  29.719  35.608  1.00  0.00     0.031 C 
ATOM     36  C   UNL A   1      42.830  35.202  32.956  1.00  0.00     0.029 A 
ATOM     37  C   UNL A   1      42.879  33.826  33.137  1.00  0.00     0.049 A 
ATOM     38  H   UNL A   1      43.186  32.315  31.703  1.00  0.00     0.167 HD
ATOM     39  C   UNL A   1      42.767  31.731  34.494  1.00  0.00     0.074 A 
ATOM     40  C   UNL A   1      42.615  31.034  35.757  1.00  0.00     0.031 C 
ATOM     41  C   UNL A   1      42.739  33.082  34.364  1.00  0.00     0.034 A 
BRANCH  28  42
ATOM     42  C   UNL A   1      43.416  35.209  28.575  1.00  0.00     0.023 A 
ATOM     43  C   UNL A   1      44.619  35.799  28.151  1.00  0.00     0.031 A 
ATOM     44  C   UNL A   1      42.208  35.767  28.122  1.00  0.00     0.131 A 
ATOM     45  C   UNL A   1      44.585  36.944  27.340  1.00  0.00     0.055 A 
ATOM     46  C   UNL A   1      42.181  36.867  27.266  1.00  0.00     0.041 A 
ATOM     47  F   UNL A   1      41.031  35.261  28.525  1.00  0.00    -0.206 F 
ATOM     48  C   UNL A   1      43.375  37.467  26.876  1.00  0.00     0.022 A 
BRANCH  45  49
ATOM     49  S   UNL A   1      46.140  37.798  26.967  1.00  0.00     0.124 S 
ATOM     50  O   UNL A   1      46.597  37.072  25.784  1.00  0.00    -0.237 OA
ATOM     51  O   UNL A   1      45.706  39.172  26.742  1.00  0.00    -0.237 OA
ATOM     52  O   UNL A   1      46.943  37.589  28.170  1.00  0.00    -0.744 OA
ENDBRANCH  45  49
ENDBRANCH  28  42
BRANCH  29  53
ATOM     53  C   UNL A   1      43.022  27.002  34.466  1.00  0.00     0.023 A 
ATOM     54  C   UNL A   1      44.175  26.375  34.964  1.00  0.00     0.031 A 
ATOM     55  C   UNL A   1      41.774  26.443  34.804  1.00  0.00     0.131 A 
ATOM     56  C   UNL A   1      44.057  25.222  35.761  1.00  0.00     0.055 A 
ATOM     57  C   UNL A   1      41.660  25.324  35.632  1.00  0.00     0.041 A 
ATOM     58  F   UNL A   1      40.637  26.995  34.349  1.00  0.00    -0.206 F 
ATOM     59  C   UNL A   1      42.807  24.703  36.111  1.00  0.00     0.022 A 
BRANCH  56  60
ATOM     60  S   UNL A   1      45.565  24.376  36.312  1.00  0.00     0.124 S 
ATOM     61  O   UNL A   1      46.511  25.481  36.395  1.00  0.00    -0.237 OA
ATOM     62  O   UNL A   1      45.142  23.796  37.583  1.00  0.00    -0.237 OA
ATOM     63  O   UNL A   1      45.824  23.411  35.246  1.00  0.00    -0.744 OA
ENDBRANCH  56  60
ENDBRANCH  29  53
BRANCH  41  64
ATOM     64  C   UNL A   1      42.530  33.884  35.615  1.00  0.00     0.023 A 
ATOM     65  C   UNL A   1      41.242  34.081  36.133  1.00  0.00     0.031 A 
ATOM     66  C   UNL A   1      43.634  34.366  36.337  1.00  0.00     0.131 A 
ATOM     67  C   UNL A   1      41.086  34.761  37.347  1.00  0.00     0.055 A 
ATOM     68  C   UNL A   1      43.475  35.006  37.564  1.00  0.00     0.041 A 
ATOM     69  F   UNL A   1      44.882  34.186  35.876  1.00  0.00    -0.206 F 
ATOM     70  C   UNL A   1      42.194  35.208  38.075  1.00  0.00     0.022 A 
BRANCH  67  71
ATOM     71  S   UNL A   1      39.409  35.056  37.967  1.00  0.00     0.124 S 
ATOM     72  O   UNL A   1      38.594  34.393  36.953  1.00  0.00    -0.237 OA
ATOM     73  O   UNL A   1      39.438  34.419  39.279  1.00  0.00    -0.237 OA
ATOM     74  O   UNL A   1      39.305  36.515  37.990  1.00  0.00    -0.744 OA
ENDBRANCH  67  71
ENDBRANCH  41  64
ENDBRANCH  15  16
ENDBRANCH   8  10
ENDBRANCH   7   8
ENDBRANCH   6   7
ENDBRANCH   5   6
ENDBRANCH   4   5
ENDBRANCH   3   4
ENDBRANCH   2   3
ENDBRANCH   1   2
BRANCH   1  75
ATOM     75  C   UNL A   1      42.470  20.903  26.073  1.00  0.00     0.188 C 
BRANCH  75  76
ATOM     76  C   UNL A   1      41.707  20.699  27.402  1.00  0.00     0.188 C 
BRANCH  76  77
ATOM     77  O   UNL A   1      41.004  21.849  27.850  1.00  0.00    -0.376 OA
BRANCH  77  78
ATOM     78  C   UNL A   1      41.773  22.767  28.618  1.00  0.00     0.202 C 
BRANCH  78  79
ATOM     79  C   UNL A   1      42.313  23.961  27.821  1.00  0.00     0.261 C 
BRANCH  79  80
ATOM     80  O   UNL A   1      41.732  25.234  28.168  1.00  0.00    -0.460 OA
BRANCH  80  81
ATOM     81  C   UNL A   1      40.678  25.675  27.449  1.00  0.00     0.338 C 
ATOM     82  O   UNL A   1      40.065  25.082  26.580  1.00  0.00    -0.246 OA
BRANCH  81  83
ATOM     83  C   UNL A   1      40.247  26.948  28.068  1.00  0.00     0.063 A 
ATOM     84  C   UNL A   1      39.969  28.077  27.291  1.00  0.00     0.017 A 
ATOM     85  C   UNL A   1      40.322  27.056  29.461  1.00  0.00     0.056 A 
ATOM     86  C   UNL A   1      39.719  29.301  27.921  1.00  0.00     0.024 A 
ATOM     87  C   UNL A   1      40.206  28.307  30.060  1.00  0.00     0.142 A 
ATOM     88  C   UNL A   1      39.830  29.412  29.316  1.00  0.00     0.103 A 
ATOM     89  F   UNL A   1      40.552  28.408  31.346  1.00  0.00    -0.206 F 
BRANCH  88  90
ATOM     90  S   UNL A   1      39.400  30.961  30.052  1.00  0.00     0.186 S 
ATOM     91  O   UNL A   1      40.671  31.563  30.427  1.00  0.00    -0.223 OA
ATOM     92  O   UNL A   1      38.560  31.633  29.074  1.00  0.00    -0.223 OA
BRANCH  90  93
ATOM     93  C   UNL A   1      38.469  30.774  31.547  1.00  0.00     0.188 C 
BRANCH  93  94
ATOM     94  C   UNL A   1      38.222  32.016  32.356  1.00  0.00     0.020 A 
ATOM     95  C   UNL A   1      38.965  32.679  33.316  1.00  0.00     0.016 A 
ATOM     96  S   UNL A   1      36.762  32.878  32.020  1.00  0.00    -0.148 S 
ATOM     97  C   UNL A   1      38.426  33.962  33.633  1.00  0.00     0.012 A 
ATOM     98  C   UNL A   1      37.224  34.189  33.006  1.00  0.00     0.065 A 
ENDBRANCH  93  94
ENDBRANCH  90  93
ENDBRANCH  88  90
ENDBRANCH  81  83
ENDBRANCH  80  81
ENDBRANCH  79  80
ENDBRANCH  78  79
ENDBRANCH  77  78
ENDBRANCH  76  77
ENDBRANCH  75  76
ENDBRANCH   1  75
TORSDOF 26
ENDMDL
