MODEL 1
REMARK VINA RESULT:      -9.0      0.000      0.000
REMARK SMILES CC(C)C[C@H](Nc1ncnc2scc(-c3ccccc3)c12)C(=O)OCCOCCOCCOCCOC(=O)c1ccc(-c2c3nc(c(-c4cc(S(=O)(=O)[O-])ccc4F)c4ccc([nH]4)c(-c4cc(S(=O)(=O)[O-])ccc4F)c4nc(c(-c5cc(S(=O)(=O)[O-])ccc5F)c5ccc2[nH]5)C=C4)C=C3)cc1
REMARK SMILES IDX 30 1 29 2 28 3 27 4 26 5 25 6 24 7 22 8 23 9 5 10 4 11 2 12
REMARK SMILES IDX 1 13 3 14 6 15 7 17 8 18 21 19 9 20 11 21 14 22 10 23 12 24
REMARK SMILES IDX 13 25 15 26 16 27 20 28 17 29 19 30 18 31 31 32 32 33 33 34
REMARK SMILES IDX 34 35 35 36 36 37 37 38 38 39 39 40 40 41 101 42 41 43
REMARK SMILES IDX 100 44 42 45 43 46 44 47 94 48 45 49 99 50 93 51 95 52 46 53
REMARK SMILES IDX 98 54 92 55 91 56 47 58 79 59 59 60 78 61 60 62 63 63 77 64
REMARK SMILES IDX 96 65 61 66 62 67 76 69 97 70 64 71 48 72 49 73 57 74 50 75
REMARK SMILES IDX 56 76 58 77 55 78 51 79 52 80 53 81 54 82 80 83 81 84 89 85
REMARK SMILES IDX 82 86 88 87 90 88 87 89 83 90 84 91 85 92 86 93 65 94 66 95
REMARK SMILES IDX 74 96 67 97 73 98 75 99 72 100 68 101 69 102 70 103 71 104
REMARK H PARENT 6 16 95 57 63 68
REMARK Flexibility Score: inf
ROOT
ATOM      1  O   UNL A   1      34.418  29.302  27.454  1.00  0.00    -0.377 OA
ENDROOT
BRANCH   1   2
ATOM      2  C   UNL A   1      33.598  28.260  26.444  1.00  0.00     0.188 C 
BRANCH   2   3
ATOM      3  C   UNL A   1      33.102  28.493  24.874  1.00  0.00     0.188 C 
BRANCH   3   4
ATOM      4  O   UNL A   1      32.267  27.664  24.059  1.00  0.00    -0.376 OA
BRANCH   4   5
ATOM      5  C   UNL A   1      32.518  27.165  22.736  1.00  0.00     0.202 C 
BRANCH   5   6
ATOM      6  C   UNL A   1      31.525  26.335  21.916  1.00  0.00     0.261 C 
BRANCH   6   7
ATOM      7  O   UNL A   1      31.441  24.975  22.296  1.00  0.00    -0.462 OA
BRANCH   7   8
ATOM      8  C   UNL A   1      30.657  24.714  23.371  1.00  0.00     0.328 C 
ATOM      9  O   UNL A   1      29.639  25.336  23.652  1.00  0.00    -0.250 OA
BRANCH   8  10
ATOM     10  C   UNL A   1      31.222  23.539  24.183  1.00  0.00     0.191 C 
BRANCH  10  11
ATOM     11  C   UNL A   1      31.035  23.928  25.636  1.00  0.00     0.040 C 
BRANCH  11  12
ATOM     12  C   UNL A   1      30.987  22.712  26.584  1.00  0.00    -0.015 C 
ATOM     13  C   UNL A   1      32.005  22.807  27.726  1.00  0.00     0.007 C 
ATOM     14  C   UNL A   1      29.575  22.601  27.138  1.00  0.00     0.007 C 
ENDBRANCH  11  12
ENDBRANCH  10  11
BRANCH  10  15
ATOM     15  N   UNL A   1      32.611  23.246  23.809  1.00  0.00    -0.356 N 
ATOM     16  H   UNL A   1      32.719  22.726  22.980  1.00  0.00     0.163 HD
BRANCH  15  17
ATOM     17  C   UNL A   1      33.775  23.585  24.437  1.00  0.00     0.139 A 
ATOM     18  N   UNL A   1      33.989  24.871  24.781  1.00  0.00    -0.219 NA
ATOM     19  C   UNL A   1      34.797  22.628  24.674  1.00  0.00     0.062 A 
ATOM     20  C   UNL A   1      35.181  25.222  25.276  1.00  0.00     0.225 A 
ATOM     21  C   UNL A   1      35.988  23.152  25.161  1.00  0.00     0.129 A 
ATOM     22  C   UNL A   1      34.871  21.161  24.575  1.00  0.00     0.006 A 
ATOM     23  N   UNL A   1      36.236  24.436  25.480  1.00  0.00    -0.225 NA
ATOM     24  S   UNL A   1      37.196  21.971  25.371  1.00  0.00    -0.123 S 
ATOM     25  C   UNL A   1      36.126  20.706  24.939  1.00  0.00     0.076 A 
BRANCH  22  26
ATOM     26  C   UNL A   1      33.713  20.247  24.688  1.00  0.00    -0.017 A 
ATOM     27  C   UNL A   1      33.123  19.790  23.091  1.00  0.00     0.009 A 
ATOM     28  C   UNL A   1      33.391  19.230  26.111  1.00  0.00     0.009 A 
ATOM     29  C   UNL A   1      32.279  18.269  22.799  1.00  0.00     0.001 A 
ATOM     30  C   UNL A   1      32.488  17.685  25.885  1.00  0.00     0.001 A 
ATOM     31  C   UNL A   1      31.947  17.171  24.178  1.00  0.00     0.000 A 
ENDBRANCH  22  26
ENDBRANCH  15  17
ENDBRANCH  10  15
ENDBRANCH   8  10
ENDBRANCH   7   8
ENDBRANCH   6   7
ENDBRANCH   5   6
ENDBRANCH   4   5
ENDBRANCH   3   4
ENDBRANCH   2   3
ENDBRANCH   1   2
BRANCH   1  32
ATOM     32  C   UNL A   1      36.312  29.928  27.723  1.00  0.00     0.188 C 
BRANCH  32  33
ATOM     33  C   UNL A   1      37.531  29.169  28.874  1.00  0.00     0.188 C 
BRANCH  33  34
ATOM     34  O   UNL A   1      37.517  29.284  30.311  1.00  0.00    -0.376 OA
BRANCH  34  35
ATOM     35  C   UNL A   1      38.194  30.306  31.049  1.00  0.00     0.202 C 
BRANCH  35  36
ATOM     36  C   UNL A   1      37.553  31.097  32.213  1.00  0.00     0.261 C 
BRANCH  36  37
ATOM     37  O   UNL A   1      37.553  32.533  32.111  1.00  0.00    -0.460 OA
BRANCH  37  38
ATOM     38  C   UNL A   1      37.462  33.043  30.855  1.00  0.00     0.338 C 
ATOM     39  O   UNL A   1      36.414  33.264  30.271  1.00  0.00    -0.246 OA
BRANCH  38  40
ATOM     40  C   UNL A   1      38.795  33.619  30.451  1.00  0.00     0.060 A 
ATOM     41  C   UNL A   1      38.911  34.111  29.136  1.00  0.00     0.016 A 
ATOM     42  C   UNL A   1      39.854  33.828  31.338  1.00  0.00     0.016 A 
ATOM     43  C   UNL A   1      40.035  34.827  28.716  1.00  0.00     0.010 A 
ATOM     44  C   UNL A   1      41.032  34.465  30.884  1.00  0.00     0.010 A 
ATOM     45  C   UNL A   1      41.140  34.954  29.562  1.00  0.00    -0.014 A 
BRANCH  45  46
ATOM     46  C   UNL A   1      42.463  35.274  28.936  1.00  0.00     0.031 A 
ATOM     47  C   UNL A   1      43.405  34.112  28.715  1.00  0.00     0.074 A 
ATOM     48  C   UNL A   1      42.811  36.490  28.464  1.00  0.00     0.049 A 
ATOM     49  N   UNL A   1      44.620  34.100  28.228  1.00  0.00    -0.248 NA
ATOM     50  C   UNL A   1      42.895  32.781  29.085  1.00  0.00     0.031 C 
ATOM     51  C   UNL A   1      41.972  37.687  28.481  1.00  0.00     0.029 A 
ATOM     52  N   UNL A   1      43.981  36.918  27.867  1.00  0.00    -0.354 N 
ATOM     53  C   UNL A   1      45.027  32.769  28.261  1.00  0.00     0.074 A 
ATOM     54  C   UNL A   1      43.932  32.005  28.815  1.00  0.00     0.031 C 
ATOM     55  C   UNL A   1      42.663  38.712  27.945  1.00  0.00     0.029 A 
ATOM     56  C   UNL A   1      44.014  38.268  27.588  1.00  0.00     0.049 A 
ATOM     57  H   UNL A   1      44.727  36.310  27.660  1.00  0.00     0.167 HD
ATOM     58  C   UNL A   1      46.206  32.229  27.873  1.00  0.00     0.034 A 
ATOM     59  C   UNL A   1      45.019  39.061  27.142  1.00  0.00     0.034 A 
ATOM     60  C   UNL A   1      47.298  32.981  27.312  1.00  0.00     0.049 A 
ATOM     61  C   UNL A   1      46.380  38.450  26.839  1.00  0.00     0.074 A 
ATOM     62  C   UNL A   1      48.520  32.506  26.868  1.00  0.00     0.029 A 
ATOM     63  N   UNL A   1      47.318  34.355  27.138  1.00  0.00    -0.354 N 
ATOM     64  N   UNL A   1      46.747  37.189  26.876  1.00  0.00    -0.248 NA
ATOM     65  C   UNL A   1      47.462  39.368  26.442  1.00  0.00     0.031 C 
ATOM     66  C   UNL A   1      49.320  33.601  26.536  1.00  0.00     0.029 A 
ATOM     67  C   UNL A   1      48.558  34.750  26.659  1.00  0.00     0.049 A 
ATOM     68  H   UNL A   1      46.565  34.961  27.327  1.00  0.00     0.167 HD
ATOM     69  C   UNL A   1      48.087  37.168  26.479  1.00  0.00     0.074 A 
ATOM     70  C   UNL A   1      48.459  38.533  26.186  1.00  0.00     0.031 C 
ATOM     71  C   UNL A   1      48.933  36.112  26.368  1.00  0.00     0.034 A 
BRANCH  58  72
ATOM     72  C   UNL A   1      46.424  30.758  28.130  1.00  0.00     0.023 A 
ATOM     73  C   UNL A   1      46.127  29.772  27.177  1.00  0.00     0.031 A 
ATOM     74  C   UNL A   1      46.968  30.347  29.362  1.00  0.00     0.131 A 
ATOM     75  C   UNL A   1      46.334  28.419  27.489  1.00  0.00     0.055 A 
ATOM     76  C   UNL A   1      47.249  29.010  29.634  1.00  0.00     0.041 A 
ATOM     77  F   UNL A   1      47.240  31.247  30.322  1.00  0.00    -0.206 F 
ATOM     78  C   UNL A   1      46.924  28.035  28.697  1.00  0.00     0.022 A 
BRANCH  75  79
ATOM     79  S   UNL A   1      45.705  27.158  26.350  1.00  0.00     0.124 S 
ATOM     80  O   UNL A   1      46.807  26.197  26.335  1.00  0.00    -0.237 OA
ATOM     81  O   UNL A   1      44.483  26.717  27.010  1.00  0.00    -0.237 OA
ATOM     82  O   UNL A   1      45.513  27.890  25.100  1.00  0.00    -0.744 OA
ENDBRANCH  75  79
ENDBRANCH  58  72
BRANCH  59  83
ATOM     83  C   UNL A   1      44.853  40.552  27.049  1.00  0.00     0.023 A 
ATOM     84  C   UNL A   1      44.572  41.195  25.830  1.00  0.00     0.031 A 
ATOM     85  C   UNL A   1      45.117  41.368  28.166  1.00  0.00     0.131 A 
ATOM     86  C   UNL A   1      44.629  42.600  25.743  1.00  0.00     0.055 A 
ATOM     87  C   UNL A   1      45.093  42.763  28.092  1.00  0.00     0.041 A 
ATOM     88  F   UNL A   1      45.424  40.819  29.352  1.00  0.00    -0.206 F 
ATOM     89  C   UNL A   1      44.867  43.387  26.871  1.00  0.00     0.022 A 
BRANCH  86  90
ATOM     90  S   UNL A   1      44.544  43.382  24.105  1.00  0.00     0.124 S 
ATOM     91  O   UNL A   1      45.628  44.352  24.185  1.00  0.00    -0.237 OA
ATOM     92  O   UNL A   1      44.761  42.247  23.216  1.00  0.00    -0.237 OA
ATOM     93  O   UNL A   1      43.197  43.950  24.069  1.00  0.00    -0.744 OA
ENDBRANCH  86  90
ENDBRANCH  59  83
BRANCH  71  94
ATOM     94  C   UNL A   1      50.336  36.369  25.865  1.00  0.00     0.023 A 
ATOM     95  C   UNL A   1      51.433  36.479  26.739  1.00  0.00     0.031 A 
ATOM     96  C   UNL A   1      50.586  36.463  24.482  1.00  0.00     0.131 A 
ATOM     97  C   UNL A   1      52.717  36.714  26.223  1.00  0.00     0.055 A 
ATOM     98  C   UNL A   1      51.875  36.628  23.974  1.00  0.00     0.041 A 
ATOM     99  F   UNL A   1      49.579  36.371  23.599  1.00  0.00    -0.206 F 
ATOM    100  C   UNL A   1      52.949  36.764  24.847  1.00  0.00     0.022 A 
BRANCH  97 101
ATOM    101  S   UNL A   1      54.078  37.037  27.380  1.00  0.00     0.124 S 
ATOM    102  O   UNL A   1      53.806  38.411  27.789  1.00  0.00    -0.237 OA
ATOM    103  O   UNL A   1      53.872  36.016  28.400  1.00  0.00    -0.237 OA
ATOM    104  O   UNL A   1      55.275  36.860  26.560  1.00  0.00    -0.744 OA
ENDBRANCH  97 101
ENDBRANCH  71  94
ENDBRANCH  45  46
ENDBRANCH  38  40
ENDBRANCH  37  38
ENDBRANCH  36  37
ENDBRANCH  35  36
ENDBRANCH  34  35
ENDBRANCH  33  34
ENDBRANCH  32  33
ENDBRANCH   1  32
TORSDOF 28
ENDMDL
MODEL 2
REMARK VINA RESULT:      -8.3     10.197     15.042
REMARK SMILES CC(C)C[C@H](Nc1ncnc2scc(-c3ccccc3)c12)C(=O)OCCOCCOCCOCCOC(=O)c1ccc(-c2c3nc(c(-c4cc(S(=O)(=O)[O-])ccc4F)c4ccc([nH]4)c(-c4cc(S(=O)(=O)[O-])ccc4F)c4nc(c(-c5cc(S(=O)(=O)[O-])ccc5F)c5ccc2[nH]5)C=C4)C=C3)cc1
REMARK SMILES IDX 30 1 29 2 28 3 27 4 26 5 25 6 24 7 22 8 23 9 5 10 4 11 2 12
REMARK SMILES IDX 1 13 3 14 6 15 7 17 8 18 21 19 9 20 11 21 14 22 10 23 12 24
REMARK SMILES IDX 13 25 15 26 16 27 20 28 17 29 19 30 18 31 31 32 32 33 33 34
REMARK SMILES IDX 34 35 35 36 36 37 37 38 38 39 39 40 40 41 101 42 41 43
REMARK SMILES IDX 100 44 42 45 43 46 44 47 94 48 45 49 99 50 93 51 95 52 46 53
REMARK SMILES IDX 98 54 92 55 91 56 47 58 79 59 59 60 78 61 60 62 63 63 77 64
REMARK SMILES IDX 96 65 61 66 62 67 76 69 97 70 64 71 48 72 49 73 57 74 50 75
REMARK SMILES IDX 56 76 58 77 55 78 51 79 52 80 53 81 54 82 80 83 81 84 89 85
REMARK SMILES IDX 82 86 88 87 90 88 87 89 83 90 84 91 85 92 86 93 65 94 66 95
REMARK SMILES IDX 74 96 67 97 73 98 75 99 72 100 68 101 69 102 70 103 71 104
REMARK H PARENT 6 16 95 57 63 68
REMARK Flexibility Score: inf
ROOT
ATOM      1  O   UNL A   1      50.957  22.800  35.764  1.00  0.00    -0.377 OA
ENDROOT
BRANCH   1   2
ATOM      2  C   UNL A   1      51.310  22.113  37.241  1.00  0.00     0.188 C 
BRANCH   2   3
ATOM      3  C   UNL A   1      51.088  20.546  37.749  1.00  0.00     0.188 C 
BRANCH   3   4
ATOM      4  O   UNL A   1      49.973  19.675  37.530  1.00  0.00    -0.376 OA
BRANCH   4   5
ATOM      5  C   UNL A   1      48.727  19.962  36.877  1.00  0.00     0.202 C 
BRANCH   5   6
ATOM      6  C   UNL A   1      47.346  19.755  37.506  1.00  0.00     0.261 C 
BRANCH   6   7
ATOM      7  O   UNL A   1      47.367  19.126  38.774  1.00  0.00    -0.462 OA
BRANCH   7   8
ATOM      8  C   UNL A   1      47.033  19.914  39.825  1.00  0.00     0.328 C 
ATOM      9  O   UNL A   1      46.207  20.819  39.776  1.00  0.00    -0.250 OA
BRANCH   8  10
ATOM     10  C   UNL A   1      47.831  19.519  41.076  1.00  0.00     0.191 C 
BRANCH  10  11
ATOM     11  C   UNL A   1      48.796  18.444  40.615  1.00  0.00     0.040 C 
BRANCH  11  12
ATOM     12  C   UNL A   1      50.274  18.857  40.769  1.00  0.00    -0.015 C 
ATOM     13  C   UNL A   1      50.645  19.213  42.213  1.00  0.00     0.007 C 
ATOM     14  C   UNL A   1      51.138  17.711  40.266  1.00  0.00     0.007 C 
ENDBRANCH  11  12
ENDBRANCH  10  11
BRANCH  10  15
ATOM     15  N   UNL A   1      46.944  19.107  42.170  1.00  0.00    -0.356 N 
ATOM     16  H   UNL A   1      45.983  19.223  41.996  1.00  0.00     0.163 HD
BRANCH  15  17
ATOM     17  C   UNL A   1      47.252  18.586  43.395  1.00  0.00     0.139 A 
ATOM     18  N   UNL A   1      47.861  19.366  44.310  1.00  0.00    -0.219 NA
ATOM     19  C   UNL A   1      47.009  17.222  43.704  1.00  0.00     0.062 A 
ATOM     20  C   UNL A   1      48.278  18.819  45.457  1.00  0.00     0.225 A 
ATOM     21  C   UNL A   1      47.531  16.794  44.919  1.00  0.00     0.129 A 
ATOM     22  C   UNL A   1      46.261  16.138  43.044  1.00  0.00     0.006 A 
ATOM     23  N   UNL A   1      48.171  17.547  45.833  1.00  0.00    -0.225 NA
ATOM     24  S   UNL A   1      47.262  15.139  45.211  1.00  0.00    -0.123 S 
ATOM     25  C   UNL A   1      46.330  14.971  43.785  1.00  0.00     0.076 A 
BRANCH  22  26
ATOM     26  C   UNL A   1      45.125  16.338  42.119  1.00  0.00    -0.017 A 
ATOM     27  C   UNL A   1      45.690  16.436  40.451  1.00  0.00     0.009 A 
ATOM     28  C   UNL A   1      43.451  15.871  42.493  1.00  0.00     0.009 A 
ATOM     29  C   UNL A   1      44.672  15.985  39.084  1.00  0.00     0.001 A 
ATOM     30  C   UNL A   1      42.344  15.446  41.133  1.00  0.00     0.001 A 
ATOM     31  C   UNL A   1      42.980  15.470  39.382  1.00  0.00     0.000 A 
ENDBRANCH  22  26
ENDBRANCH  15  17
ENDBRANCH  10  15
ENDBRANCH   8  10
ENDBRANCH   7   8
ENDBRANCH   6   7
ENDBRANCH   5   6
ENDBRANCH   4   5
ENDBRANCH   3   4
ENDBRANCH   2   3
ENDBRANCH   1   2
BRANCH   1  32
ATOM     32  C   UNL A   1      49.971  24.412  35.073  1.00  0.00     0.188 C 
BRANCH  32  33
ATOM     33  C   UNL A   1      48.373  24.373  34.159  1.00  0.00     0.188 C 
BRANCH  33  34
ATOM     34  O   UNL A   1      47.230  23.562  34.497  1.00  0.00    -0.376 OA
BRANCH  34  35
ATOM     35  C   UNL A   1      46.010  24.070  35.045  1.00  0.00     0.202 C 
BRANCH  35  36
ATOM     36  C   UNL A   1      44.905  23.179  35.661  1.00  0.00     0.261 C 
BRANCH  36  37
ATOM     37  O   UNL A   1      43.605  23.772  35.837  1.00  0.00    -0.460 OA
BRANCH  37  38
ATOM     38  C   UNL A   1      43.543  24.842  36.671  1.00  0.00     0.338 C 
ATOM     39  O   UNL A   1      44.012  24.871  37.797  1.00  0.00    -0.246 OA
BRANCH  38  40
ATOM     40  C   UNL A   1      43.145  26.066  35.887  1.00  0.00     0.060 A 
ATOM     41  C   UNL A   1      43.193  25.973  34.482  1.00  0.00     0.016 A 
ATOM     42  C   UNL A   1      42.594  27.214  36.461  1.00  0.00     0.016 A 
ATOM     43  C   UNL A   1      42.674  26.978  33.661  1.00  0.00     0.010 A 
ATOM     44  C   UNL A   1      42.162  28.273  35.631  1.00  0.00     0.010 A 
ATOM     45  C   UNL A   1      42.215  28.172  34.222  1.00  0.00    -0.014 A 
BRANCH  45  46
ATOM     46  C   UNL A   1      42.138  29.375  33.333  1.00  0.00     0.031 A 
ATOM     47  C   UNL A   1      43.453  29.969  32.883  1.00  0.00     0.074 A 
ATOM     48  C   UNL A   1      40.992  29.880  32.828  1.00  0.00     0.049 A 
ATOM     49  N   UNL A   1      43.687  31.023  32.144  1.00  0.00    -0.248 NA
ATOM     50  C   UNL A   1      44.669  29.263  33.321  1.00  0.00     0.031 C 
ATOM     51  C   UNL A   1      39.649  29.350  33.057  1.00  0.00     0.029 A 
ATOM     52  N   UNL A   1      40.780  30.967  32.002  1.00  0.00    -0.354 N 
ATOM     53  C   UNL A   1      45.073  31.122  32.054  1.00  0.00     0.074 A 
ATOM     54  C   UNL A   1      45.625  30.023  32.813  1.00  0.00     0.031 C 
ATOM     55  C   UNL A   1      38.757  30.126  32.410  1.00  0.00     0.029 A 
ATOM     56  C   UNL A   1      39.450  31.241  31.757  1.00  0.00     0.049 A 
ATOM     57  H   UNL A   1      41.514  31.501  31.623  1.00  0.00     0.167 HD
ATOM     58  C   UNL A   1      45.821  32.046  31.406  1.00  0.00     0.034 A 
ATOM     59  C   UNL A   1      38.858  32.284  31.125  1.00  0.00     0.034 A 
ATOM     60  C   UNL A   1      45.278  33.138  30.641  1.00  0.00     0.049 A 
ATOM     61  C   UNL A   1      39.719  33.382  30.518  1.00  0.00     0.074 A 
ATOM     62  C   UNL A   1      45.968  34.106  29.931  1.00  0.00     0.029 A 
ATOM     63  N   UNL A   1      43.931  33.427  30.502  1.00  0.00    -0.354 N 
ATOM     64  N   UNL A   1      41.029  33.459  30.442  1.00  0.00    -0.248 NA
ATOM     65  C   UNL A   1      39.025  34.536  29.920  1.00  0.00     0.031 C 
ATOM     66  C   UNL A   1      45.046  35.043  29.461  1.00  0.00     0.029 A 
ATOM     67  C   UNL A   1      43.774  34.598  29.775  1.00  0.00     0.049 A 
ATOM     68  H   UNL A   1      43.194  32.884  30.865  1.00  0.00     0.167 HD
ATOM     69  C   UNL A   1      41.304  34.649  29.764  1.00  0.00     0.074 A 
ATOM     70  C   UNL A   1      40.031  35.247  29.433  1.00  0.00     0.031 C 
ATOM     71  C   UNL A   1      42.504  35.198  29.445  1.00  0.00     0.034 A 
BRANCH  58  72
ATOM     72  C   UNL A   1      47.319  31.980  31.572  1.00  0.00     0.023 A 
ATOM     73  C   UNL A   1      48.001  32.678  32.581  1.00  0.00     0.031 A 
ATOM     74  C   UNL A   1      48.073  31.172  30.699  1.00  0.00     0.131 A 
ATOM     75  C   UNL A   1      49.399  32.589  32.664  1.00  0.00     0.055 A 
ATOM     76  C   UNL A   1      49.451  31.023  30.839  1.00  0.00     0.041 A 
ATOM     77  F   UNL A   1      47.475  30.509  29.696  1.00  0.00    -0.206 F 
ATOM     78  C   UNL A   1      50.124  31.741  31.822  1.00  0.00     0.022 A 
BRANCH  75  79
ATOM     79  S   UNL A   1      50.274  33.695  33.803  1.00  0.00     0.124 S 
ATOM     80  O   UNL A   1      49.922  35.008  33.268  1.00  0.00    -0.237 OA
ATOM     81  O   UNL A   1      49.685  33.352  35.091  1.00  0.00    -0.237 OA
ATOM     82  O   UNL A   1      51.676  33.319  33.636  1.00  0.00    -0.744 OA
ENDBRANCH  75  79
ENDBRANCH  58  72
BRANCH  59  83
ATOM     83  C   UNL A   1      37.363  32.438  31.108  1.00  0.00     0.023 A 
ATOM     84  C   UNL A   1      36.618  32.346  29.918  1.00  0.00     0.031 A 
ATOM     85  C   UNL A   1      36.674  32.823  32.274  1.00  0.00     0.131 A 
ATOM     86  C   UNL A   1      35.255  32.699  29.909  1.00  0.00     0.055 A 
ATOM     87  C   UNL A   1      35.304  33.096  32.276  1.00  0.00     0.041 A 
ATOM     88  F   UNL A   1      37.331  32.962  33.437  1.00  0.00    -0.206 F 
ATOM     89  C   UNL A   1      34.590  33.054  31.084  1.00  0.00     0.022 A 
BRANCH  86  90
ATOM     90  S   UNL A   1      34.396  32.844  28.314  1.00  0.00     0.124 S 
ATOM     91  O   UNL A   1      35.471  33.299  27.441  1.00  0.00    -0.237 OA
ATOM     92  O   UNL A   1      33.926  31.480  28.098  1.00  0.00    -0.237 OA
ATOM     93  O   UNL A   1      33.348  33.828  28.579  1.00  0.00    -0.744 OA
ENDBRANCH  86  90
ENDBRANCH  59  83
BRANCH  71  94
ATOM     94  C   UNL A   1      42.515  36.489  28.657  1.00  0.00     0.023 A 
ATOM     95  C   UNL A   1      42.686  37.740  29.276  1.00  0.00     0.031 A 
ATOM     96  C   UNL A   1      42.394  36.462  27.254  1.00  0.00     0.131 A 
ATOM     97  C   UNL A   1      42.692  38.910  28.500  1.00  0.00     0.055 A 
ATOM     98  C   UNL A   1      42.469  37.623  26.483  1.00  0.00     0.041 A 
ATOM     99  F   UNL A   1      42.223  35.298  26.605  1.00  0.00    -0.206 F 
ATOM    100  C   UNL A   1      42.610  38.858  27.107  1.00  0.00     0.022 A 
BRANCH  97 101
ATOM    101  S   UNL A   1      42.726  40.518  29.343  1.00  0.00     0.124 S 
ATOM    102  O   UNL A   1      41.325  40.920  29.282  1.00  0.00    -0.237 OA
ATOM    103  O   UNL A   1      43.232  40.168  30.665  1.00  0.00    -0.237 OA
ATOM    104  O   UNL A   1      43.636  41.315  28.523  1.00  0.00    -0.744 OA
ENDBRANCH  97 101
ENDBRANCH  71  94
ENDBRANCH  45  46
ENDBRANCH  38  40
ENDBRANCH  37  38
ENDBRANCH  36  37
ENDBRANCH  35  36
ENDBRANCH  34  35
ENDBRANCH  33  34
ENDBRANCH  32  33
ENDBRANCH   1  32
TORSDOF 28
ENDMDL
MODEL 3
REMARK VINA RESULT:      -8.1      7.428     13.926
REMARK SMILES CC(C)C[C@H](Nc1ncnc2scc(-c3ccccc3)c12)C(=O)OCCOCCOCCOCCOC(=O)c1ccc(-c2c3nc(c(-c4cc(S(=O)(=O)[O-])ccc4F)c4ccc([nH]4)c(-c4cc(S(=O)(=O)[O-])ccc4F)c4nc(c(-c5cc(S(=O)(=O)[O-])ccc5F)c5ccc2[nH]5)C=C4)C=C3)cc1
REMARK SMILES IDX 30 1 29 2 28 3 27 4 26 5 25 6 24 7 22 8 23 9 5 10 4 11 2 12
REMARK SMILES IDX 1 13 3 14 6 15 7 17 8 18 21 19 9 20 11 21 14 22 10 23 12 24
REMARK SMILES IDX 13 25 15 26 16 27 20 28 17 29 19 30 18 31 31 32 32 33 33 34
REMARK SMILES IDX 34 35 35 36 36 37 37 38 38 39 39 40 40 41 101 42 41 43
REMARK SMILES IDX 100 44 42 45 43 46 44 47 94 48 45 49 99 50 93 51 95 52 46 53
REMARK SMILES IDX 98 54 92 55 91 56 47 58 79 59 59 60 78 61 60 62 63 63 77 64
REMARK SMILES IDX 96 65 61 66 62 67 76 69 97 70 64 71 48 72 49 73 57 74 50 75
REMARK SMILES IDX 56 76 58 77 55 78 51 79 52 80 53 81 54 82 80 83 81 84 89 85
REMARK SMILES IDX 82 86 88 87 90 88 87 89 83 90 84 91 85 92 86 93 65 94 66 95
REMARK SMILES IDX 74 96 67 97 73 98 75 99 72 100 68 101 69 102 70 103 71 104
REMARK H PARENT 6 16 95 57 63 68
REMARK Flexibility Score: inf
ROOT
ATOM      1  O   UNL A   1      49.818  29.197  35.563  1.00  0.00    -0.377 OA
ENDROOT
BRANCH   1   2
ATOM      2  C   UNL A   1      49.791  30.070  34.143  1.00  0.00     0.188 C 
BRANCH   2   3
ATOM      3  C   UNL A   1      48.868  31.393  33.741  1.00  0.00     0.188 C 
BRANCH   3   4
ATOM      4  O   UNL A   1      47.445  31.504  33.647  1.00  0.00    -0.376 OA
BRANCH   4   5
ATOM      5  C   UNL A   1      46.489  30.496  33.283  1.00  0.00     0.202 C 
BRANCH   5   6
ATOM      6  C   UNL A   1      45.537  29.805  34.264  1.00  0.00     0.261 C 
BRANCH   6   7
ATOM      7  O   UNL A   1      45.143  28.501  33.881  1.00  0.00    -0.462 OA
BRANCH   7   8
ATOM      8  C   UNL A   1      43.826  28.344  33.604  1.00  0.00     0.328 C 
ATOM      9  O   UNL A   1      42.944  29.109  33.979  1.00  0.00    -0.250 OA
BRANCH   8  10
ATOM     10  C   UNL A   1      43.594  27.080  32.763  1.00  0.00     0.191 C 
BRANCH  10  11
ATOM     11  C   UNL A   1      44.836  26.234  32.957  1.00  0.00     0.040 C 
BRANCH  11  12
ATOM     12  C   UNL A   1      44.544  24.882  33.639  1.00  0.00    -0.015 C 
ATOM     13  C   UNL A   1      43.342  24.943  34.589  1.00  0.00     0.007 C 
ATOM     14  C   UNL A   1      44.310  23.845  32.551  1.00  0.00     0.007 C 
ENDBRANCH  11  12
ENDBRANCH  10  11
BRANCH  10  15
ATOM     15  N   UNL A   1      43.299  27.413  31.364  1.00  0.00    -0.356 N 
ATOM     16  H   UNL A   1      44.037  27.255  30.733  1.00  0.00     0.163 HD
BRANCH  15  17
ATOM     17  C   UNL A   1      42.155  27.908  30.806  1.00  0.00     0.139 A 
ATOM     18  N   UNL A   1      41.532  28.950  31.392  1.00  0.00    -0.219 NA
ATOM     19  C   UNL A   1      41.566  27.307  29.662  1.00  0.00     0.062 A 
ATOM     20  C   UNL A   1      40.346  29.348  30.919  1.00  0.00     0.225 A 
ATOM     21  C   UNL A   1      40.319  27.809  29.313  1.00  0.00     0.129 A 
ATOM     22  C   UNL A   1      42.009  26.286  28.698  1.00  0.00     0.006 A 
ATOM     23  N   UNL A   1      39.663  28.826  29.903  1.00  0.00    -0.225 NA
ATOM     24  S   UNL A   1      39.634  27.014  27.973  1.00  0.00    -0.123 S 
ATOM     25  C   UNL A   1      41.037  26.061  27.738  1.00  0.00     0.076 A 
BRANCH  22  26
ATOM     26  C   UNL A   1      43.421  25.982  28.378  1.00  0.00    -0.017 A 
ATOM     27  C   UNL A   1      43.856  24.373  28.953  1.00  0.00     0.009 A 
ATOM     28  C   UNL A   1      44.326  26.761  27.061  1.00  0.00     0.009 A 
ATOM     29  C   UNL A   1      45.132  23.417  28.199  1.00  0.00     0.001 A 
ATOM     30  C   UNL A   1      45.676  25.853  26.282  1.00  0.00     0.001 A 
ATOM     31  C   UNL A   1      46.070  24.120  26.841  1.00  0.00     0.000 A 
ENDBRANCH  22  26
ENDBRANCH  15  17
ENDBRANCH  10  15
ENDBRANCH   8  10
ENDBRANCH   7   8
ENDBRANCH   6   7
ENDBRANCH   5   6
ENDBRANCH   4   5
ENDBRANCH   3   4
ENDBRANCH   2   3
ENDBRANCH   1   2
BRANCH   1  32
ATOM     32  C   UNL A   1      50.100  29.556  37.523  1.00  0.00     0.188 C 
BRANCH  32  33
ATOM     33  C   UNL A   1      48.800  29.452  38.822  1.00  0.00     0.188 C 
BRANCH  33  34
ATOM     34  O   UNL A   1      49.018  29.572  40.242  1.00  0.00    -0.376 OA
BRANCH  34  35
ATOM     35  C   UNL A   1      49.798  30.602  40.857  1.00  0.00     0.202 C 
BRANCH  35  36
ATOM     36  C   UNL A   1      49.804  32.076  40.386  1.00  0.00     0.261 C 
BRANCH  36  37
ATOM     37  O   UNL A   1      48.544  32.642  39.982  1.00  0.00    -0.460 OA
BRANCH  37  38
ATOM     38  C   UNL A   1      48.594  33.567  38.990  1.00  0.00     0.338 C 
ATOM     39  O   UNL A   1      49.601  34.166  38.650  1.00  0.00    -0.246 OA
BRANCH  38  40
ATOM     40  C   UNL A   1      47.341  33.476  38.156  1.00  0.00     0.060 A 
ATOM     41  C   UNL A   1      46.663  34.681  37.882  1.00  0.00     0.016 A 
ATOM     42  C   UNL A   1      46.908  32.308  37.525  1.00  0.00     0.016 A 
ATOM     43  C   UNL A   1      45.603  34.736  36.973  1.00  0.00     0.010 A 
ATOM     44  C   UNL A   1      45.773  32.346  36.684  1.00  0.00     0.010 A 
ATOM     45  C   UNL A   1      45.098  33.559  36.415  1.00  0.00    -0.014 A 
BRANCH  45  46
ATOM     46  C   UNL A   1      43.705  33.591  35.865  1.00  0.00     0.031 A 
ATOM     47  C   UNL A   1      43.573  33.759  34.368  1.00  0.00     0.074 A 
ATOM     48  C   UNL A   1      42.590  33.370  36.593  1.00  0.00     0.049 A 
ATOM     49  N   UNL A   1      42.499  33.854  33.626  1.00  0.00    -0.248 NA
ATOM     50  C   UNL A   1      44.833  33.813  33.606  1.00  0.00     0.031 C 
ATOM     51  C   UNL A   1      42.547  33.066  38.022  1.00  0.00     0.029 A 
ATOM     52  N   UNL A   1      41.260  33.365  36.216  1.00  0.00    -0.354 N 
ATOM     53  C   UNL A   1      42.954  34.008  32.320  1.00  0.00     0.074 A 
ATOM     54  C   UNL A   1      44.398  33.994  32.370  1.00  0.00     0.031 C 
ATOM     55  C   UNL A   1      41.261  32.930  38.401  1.00  0.00     0.029 A 
ATOM     56  C   UNL A   1      40.376  33.184  37.259  1.00  0.00     0.049 A 
ATOM     57  H   UNL A   1      40.970  33.482  35.283  1.00  0.00     0.167 HD
ATOM     58  C   UNL A   1      42.237  34.156  31.181  1.00  0.00     0.034 A 
ATOM     59  C   UNL A   1      39.023  33.258  37.303  1.00  0.00     0.034 A 
ATOM     60  C   UNL A   1      40.799  34.162  31.121  1.00  0.00     0.049 A 
ATOM     61  C   UNL A   1      38.246  33.558  36.030  1.00  0.00     0.074 A 
ATOM     62  C   UNL A   1      39.994  34.281  30.001  1.00  0.00     0.029 A 
ATOM     63  N   UNL A   1      39.952  34.071  32.213  1.00  0.00    -0.354 N 
ATOM     64  N   UNL A   1      38.693  33.701  34.802  1.00  0.00    -0.248 NA
ATOM     65  C   UNL A   1      36.786  33.715  36.148  1.00  0.00     0.031 C 
ATOM     66  C   UNL A   1      38.667  34.379  30.426  1.00  0.00     0.029 A 
ATOM     67  C   UNL A   1      38.635  34.202  31.798  1.00  0.00     0.049 A 
ATOM     68  H   UNL A   1      40.241  33.935  33.145  1.00  0.00     0.167 HD
ATOM     69  C   UNL A   1      37.565  33.932  34.009  1.00  0.00     0.074 A 
ATOM     70  C   UNL A   1      36.419  33.888  34.887  1.00  0.00     0.031 C 
ATOM     71  C   UNL A   1      37.488  34.160  32.673  1.00  0.00     0.034 A 
BRANCH  58  72
ATOM     72  C   UNL A   1      42.995  34.422  29.903  1.00  0.00     0.023 A 
ATOM     73  C   UNL A   1      43.330  33.404  28.997  1.00  0.00     0.031 A 
ATOM     74  C   UNL A   1      43.367  35.742  29.585  1.00  0.00     0.131 A 
ATOM     75  C   UNL A   1      44.056  33.719  27.837  1.00  0.00     0.055 A 
ATOM     76  C   UNL A   1      44.013  36.058  28.392  1.00  0.00     0.041 A 
ATOM     77  F   UNL A   1      43.099  36.749  30.433  1.00  0.00    -0.206 F 
ATOM     78  C   UNL A   1      44.369  35.042  27.513  1.00  0.00     0.022 A 
BRANCH  75  79
ATOM     79  S   UNL A   1      44.697  32.363  26.819  1.00  0.00     0.124 S 
ATOM     80  O   UNL A   1      44.033  31.206  27.415  1.00  0.00    -0.237 OA
ATOM     81  O   UNL A   1      44.254  32.735  25.481  1.00  0.00    -0.237 OA
ATOM     82  O   UNL A   1      46.141  32.423  27.039  1.00  0.00    -0.744 OA
ENDBRANCH  75  79
ENDBRANCH  58  72
BRANCH  59  83
ATOM     83  C   UNL A   1      38.280  33.163  38.606  1.00  0.00     0.023 A 
ATOM     84  C   UNL A   1      38.402  34.143  39.607  1.00  0.00     0.031 A 
ATOM     85  C   UNL A   1      37.541  32.005  38.920  1.00  0.00     0.131 A 
ATOM     86  C   UNL A   1      37.858  33.918  40.886  1.00  0.00     0.055 A 
ATOM     87  C   UNL A   1      36.936  31.822  40.165  1.00  0.00     0.041 A 
ATOM     88  F   UNL A   1      37.413  31.016  38.021  1.00  0.00    -0.206 F 
ATOM     89  C   UNL A   1      37.109  32.773  41.164  1.00  0.00     0.022 A 
BRANCH  86  90
ATOM     90  S   UNL A   1      38.275  35.066  42.232  1.00  0.00     0.124 S 
ATOM     91  O   UNL A   1      37.046  35.060  43.015  1.00  0.00    -0.237 OA
ATOM     92  O   UNL A   1      39.429  34.412  42.841  1.00  0.00    -0.237 OA
ATOM     93  O   UNL A   1      38.566  36.317  41.535  1.00  0.00    -0.744 OA
ENDBRANCH  86  90
ENDBRANCH  59  83
BRANCH  71  94
ATOM     94  C   UNL A   1      36.119  34.336  32.054  1.00  0.00     0.023 A 
ATOM     95  C   UNL A   1      35.305  35.445  32.346  1.00  0.00     0.031 A 
ATOM     96  C   UNL A   1      35.639  33.396  31.121  1.00  0.00     0.131 A 
ATOM     97  C   UNL A   1      34.043  35.565  31.743  1.00  0.00     0.055 A 
ATOM     98  C   UNL A   1      34.413  33.557  30.474  1.00  0.00     0.041 A 
ATOM     99  F   UNL A   1      36.368  32.314  30.805  1.00  0.00    -0.206 F 
ATOM    100  C   UNL A   1      33.602  34.643  30.792  1.00  0.00     0.022 A 
BRANCH  97 101
ATOM    101  S   UNL A   1      32.941  36.903  32.281  1.00  0.00     0.124 S 
ATOM    102  O   UNL A   1      33.576  37.338  33.520  1.00  0.00    -0.237 OA
ATOM    103  O   UNL A   1      33.015  37.838  31.163  1.00  0.00    -0.237 OA
ATOM    104  O   UNL A   1      31.649  36.239  32.447  1.00  0.00    -0.744 OA
ENDBRANCH  97 101
ENDBRANCH  71  94
ENDBRANCH  45  46
ENDBRANCH  38  40
ENDBRANCH  37  38
ENDBRANCH  36  37
ENDBRANCH  35  36
ENDBRANCH  34  35
ENDBRANCH  33  34
ENDBRANCH  32  33
ENDBRANCH   1  32
TORSDOF 28
ENDMDL
