MODEL 1
REMARK VINA RESULT:     -10.1      0.000      0.000
REMARK SMILES O=C(OCCOCCOCCOCCOC(=O)[C@H](c1c[nH]c2cc(F)ccc12)[NH+]1CCN(c2ccccc2)CC1)c1ccc(-c2c3nc(c(-c4cc(S(=O)(=O)[O-])ccc4F)c4ccc([nH]4)c(-c4cc(S(=O)(=O)[O-])ccc4F)c4nc(c(-c5cc(S(=O)(=O)[O-])ccc5F)c5ccc2[nH]5)C=C4)C=C3)cc1
REMARK SMILES IDX 8 1 7 2 6 3 5 4 4 5 3 6 2 7 1 8 41 9 42 10 103 11 43 12
REMARK SMILES IDX 102 13 44 14 45 15 46 16 96 17 47 18 101 19 95 20 97 21
REMARK SMILES IDX 48 22 100 23 94 24 93 25 49 27 81 28 61 29 80 30 62 31 65 32
REMARK SMILES IDX 79 33 98 34 63 35 64 36 78 38 99 39 66 40 50 41 51 42 59 43
REMARK SMILES IDX 52 44 58 45 60 46 57 47 53 48 54 49 55 50 56 51 82 52 83 53
REMARK SMILES IDX 91 54 84 55 90 56 92 57 89 58 85 59 86 60 87 61 88 62 67 63
REMARK SMILES IDX 68 64 76 65 69 66 75 67 77 68 74 69 70 70 71 71 72 72 73 73
REMARK SMILES IDX 9 74 10 75 11 76 12 77 13 78 14 79 15 80 16 81 17 82 18 83
REMARK SMILES IDX 29 84 30 85 40 86 31 88 39 89 32 90 33 91 34 92 38 93 35 94
REMARK SMILES IDX 37 95 36 96 19 97 20 98 28 99 21 100 22 101 27 102 23 104
REMARK SMILES IDX 26 105 24 106 25 107
REMARK H PARENT 97 26 65 37 29 87 21 103
REMARK Flexibility Score: inf
ROOT
ATOM      1  C   UNL A   1      42.207  18.992  26.500  1.00  0.00     0.188 C 
ENDROOT
BRANCH   1   2
ATOM      2  C   UNL A   1      43.037  19.499  25.323  1.00  0.00     0.188 C 
BRANCH   2   3
ATOM      3  O   UNL A   1      44.404  19.621  25.703  1.00  0.00    -0.376 OA
BRANCH   3   4
ATOM      4  C   UNL A   1      45.333  19.972  24.683  1.00  0.00     0.202 C 
BRANCH   4   5
ATOM      5  C   UNL A   1      45.902  21.377  24.851  1.00  0.00     0.261 C 
BRANCH   5   6
ATOM      6  O   UNL A   1      45.045  22.236  25.616  1.00  0.00    -0.460 OA
BRANCH   6   7
ATOM      7  C   UNL A   1      44.201  23.199  25.169  1.00  0.00     0.338 C 
ATOM      8  O   UNL A   1      43.508  22.933  24.186  1.00  0.00    -0.246 OA
BRANCH   7   9
ATOM      9  C   UNL A   1      44.041  24.563  25.775  1.00  0.00     0.060 A 
ATOM     10  C   UNL A   1      43.634  25.724  25.114  1.00  0.00     0.016 A 
ATOM     11  C   UNL A   1      44.230  24.643  27.166  1.00  0.00     0.016 A 
ATOM     12  C   UNL A   1      43.412  26.916  25.790  1.00  0.00     0.010 A 
ATOM     13  C   UNL A   1      44.021  25.839  27.857  1.00  0.00     0.010 A 
ATOM     14  C   UNL A   1      43.616  26.981  27.161  1.00  0.00    -0.014 A 
BRANCH  14  15
ATOM     15  C   UNL A   1      43.565  28.304  27.801  1.00  0.00     0.031 A 
ATOM     16  C   UNL A   1      44.827  29.108  27.806  1.00  0.00     0.074 A 
ATOM     17  C   UNL A   1      42.395  28.794  28.246  1.00  0.00     0.049 A 
ATOM     18  N   UNL A   1      45.092  30.228  28.413  1.00  0.00    -0.248 NA
ATOM     19  C   UNL A   1      45.943  28.579  26.999  1.00  0.00     0.031 C 
ATOM     20  C   UNL A   1      41.095  28.128  28.109  1.00  0.00     0.029 A 
ATOM     21  N   UNL A   1      42.100  29.964  28.890  1.00  0.00    -0.354 N 
ATOM     22  C   UNL A   1      46.417  30.512  28.108  1.00  0.00     0.074 A 
ATOM     23  C   UNL A   1      46.898  29.462  27.242  1.00  0.00     0.031 C 
ATOM     24  C   UNL A   1      40.148  28.898  28.667  1.00  0.00     0.029 A 
ATOM     25  C   UNL A   1      40.784  30.057  29.281  1.00  0.00     0.049 A 
ATOM     26  H   UNL A   1      42.766  30.671  29.057  1.00  0.00     0.167 HD
ATOM     27  C   UNL A   1      47.159  31.552  28.549  1.00  0.00     0.034 A 
ATOM     28  C   UNL A   1      40.196  30.943  30.109  1.00  0.00     0.034 A 
ATOM     29  C   UNL A   1      46.618  32.566  29.416  1.00  0.00     0.049 A 
ATOM     30  C   UNL A   1      41.081  32.021  30.694  1.00  0.00     0.074 A 
ATOM     31  C   UNL A   1      47.255  33.657  29.973  1.00  0.00     0.029 A 
ATOM     32  N   UNL A   1      45.302  32.594  29.861  1.00  0.00    -0.354 N 
ATOM     33  N   UNL A   1      42.351  32.266  30.451  1.00  0.00    -0.248 NA
ATOM     34  C   UNL A   1      40.471  32.927  31.672  1.00  0.00     0.031 C 
ATOM     35  C   UNL A   1      46.346  34.295  30.821  1.00  0.00     0.029 A 
ATOM     36  C   UNL A   1      45.117  33.654  30.727  1.00  0.00     0.049 A 
ATOM     37  H   UNL A   1      44.603  31.953  29.599  1.00  0.00     0.167 HD
ATOM     38  C   UNL A   1      42.686  33.362  31.239  1.00  0.00     0.074 A 
ATOM     39  C   UNL A   1      41.475  33.750  31.936  1.00  0.00     0.031 C 
ATOM     40  C   UNL A   1      43.881  33.991  31.393  1.00  0.00     0.034 A 
BRANCH  27  41
ATOM     41  C   UNL A   1      48.625  31.558  28.209  1.00  0.00     0.023 A 
ATOM     42  C   UNL A   1      49.164  32.372  27.199  1.00  0.00     0.031 A 
ATOM     43  C   UNL A   1      49.491  30.681  28.885  1.00  0.00     0.131 A 
ATOM     44  C   UNL A   1      50.523  32.255  26.861  1.00  0.00     0.055 A 
ATOM     45  C   UNL A   1      50.854  30.619  28.593  1.00  0.00     0.041 A 
ATOM     46  F   UNL A   1      49.021  29.851  29.831  1.00  0.00    -0.206 F 
ATOM     47  C   UNL A   1      51.375  31.403  27.569  1.00  0.00     0.022 A 
BRANCH  44  48
ATOM     48  S   UNL A   1      51.141  33.145  25.406  1.00  0.00     0.124 S 
ATOM     49  O   UNL A   1      52.317  33.820  25.950  1.00  0.00    -0.237 OA
ATOM     50  O   UNL A   1      51.407  32.064  24.463  1.00  0.00    -0.237 OA
ATOM     51  O   UNL A   1      50.033  34.027  25.045  1.00  0.00    -0.744 OA
ENDBRANCH  44  48
ENDBRANCH  27  41
BRANCH  28  52
ATOM     52  C   UNL A   1      38.771  30.789  30.538  1.00  0.00     0.023 A 
ATOM     53  C   UNL A   1      37.732  31.465  29.881  1.00  0.00     0.031 A 
ATOM     54  C   UNL A   1      38.435  30.039  31.683  1.00  0.00     0.131 A 
ATOM     55  C   UNL A   1      36.430  31.439  30.410  1.00  0.00     0.055 A 
ATOM     56  C   UNL A   1      37.126  29.953  32.161  1.00  0.00     0.041 A 
ATOM     57  F   UNL A   1      39.382  29.382  32.373  1.00  0.00    -0.206 F 
ATOM     58  C   UNL A   1      36.117  30.675  31.535  1.00  0.00     0.022 A 
BRANCH  55  59
ATOM     59  S   UNL A   1      35.181  32.544  29.693  1.00  0.00     0.124 S 
ATOM     60  O   UNL A   1      36.004  33.651  29.220  1.00  0.00    -0.237 OA
ATOM     61  O   UNL A   1      34.586  31.701  28.663  1.00  0.00    -0.237 OA
ATOM     62  O   UNL A   1      34.311  32.853  30.826  1.00  0.00    -0.744 OA
ENDBRANCH  55  59
ENDBRANCH  28  52
BRANCH  40  63
ATOM     63  C   UNL A   1      43.905  35.169  32.327  1.00  0.00     0.023 A 
ATOM     64  C   UNL A   1      43.798  36.483  31.846  1.00  0.00     0.031 A 
ATOM     65  C   UNL A   1      44.005  34.968  33.714  1.00  0.00     0.131 A 
ATOM     66  C   UNL A   1      43.841  37.554  32.745  1.00  0.00     0.055 A 
ATOM     67  C   UNL A   1      43.978  36.035  34.609  1.00  0.00     0.041 A 
ATOM     68  F   UNL A   1      44.110  33.728  34.221  1.00  0.00    -0.206 F 
ATOM     69  C   UNL A   1      43.906  37.338  34.125  1.00  0.00     0.022 A 
BRANCH  66  70
ATOM     70  S   UNL A   1      43.888  39.239  32.081  1.00  0.00     0.124 S 
ATOM     71  O   UNL A   1      43.602  39.015  30.669  1.00  0.00    -0.237 OA
ATOM     72  O   UNL A   1      42.839  39.906  32.845  1.00  0.00    -0.237 OA
ATOM     73  O   UNL A   1      45.247  39.685  32.377  1.00  0.00    -0.744 OA
ENDBRANCH  66  70
ENDBRANCH  40  63
ENDBRANCH  14  15
ENDBRANCH   7   9
ENDBRANCH   6   7
ENDBRANCH   5   6
ENDBRANCH   4   5
ENDBRANCH   3   4
ENDBRANCH   2   3
ENDBRANCH   1   2
BRANCH   1  74
ATOM     74  O   UNL A   1      41.829  20.004  27.426  1.00  0.00    -0.377 OA
BRANCH  74  75
ATOM     75  C   UNL A   1      41.472  21.259  26.853  1.00  0.00     0.188 C 
BRANCH  75  76
ATOM     76  C   UNL A   1      40.176  21.346  26.009  1.00  0.00     0.188 C 
BRANCH  76  77
ATOM     77  O   UNL A   1      39.187  22.181  26.585  1.00  0.00    -0.376 OA
BRANCH  77  78
ATOM     78  C   UNL A   1      38.001  22.330  25.814  1.00  0.00     0.202 C 
BRANCH  78  79
ATOM     79  C   UNL A   1      37.451  23.763  25.731  1.00  0.00     0.261 C 
BRANCH  79  80
ATOM     80  O   UNL A   1      36.381  24.000  24.785  1.00  0.00    -0.459 OA
BRANCH  80  81
ATOM     81  C   UNL A   1      35.082  24.057  25.216  1.00  0.00     0.370 C 
ATOM     82  O   UNL A   1      34.709  24.743  26.151  1.00  0.00    -0.245 OA
BRANCH  81  83
ATOM     83  C   UNL A   1      34.179  23.164  24.288  1.00  0.00     0.328 C 
BRANCH  83  84
ATOM     84  N   UNL A   1      33.494  22.187  25.172  1.00  0.00    -0.316 N 
ATOM     85  C   UNL A   1      32.459  21.332  24.575  1.00  0.00     0.284 C 
ATOM     86  C   UNL A   1      34.473  21.332  25.876  1.00  0.00     0.284 C 
ATOM     87  H   UNL A   1      32.986  22.798  25.811  1.00  0.00     0.349 HD
ATOM     88  C   UNL A   1      32.977  20.231  23.630  1.00  0.00     0.178 C 
ATOM     89  C   UNL A   1      35.086  20.214  24.999  1.00  0.00     0.178 C 
ATOM     90  N   UNL A   1      34.068  19.466  24.255  1.00  0.00    -0.360 N 
BRANCH  90  91
ATOM     91  C   UNL A   1      33.719  18.167  24.574  1.00  0.00     0.037 A 
ATOM     92  C   UNL A   1      32.586  17.949  25.373  1.00  0.00     0.026 A 
ATOM     93  C   UNL A   1      34.519  17.074  24.239  1.00  0.00     0.026 A 
ATOM     94  C   UNL A   1      32.281  16.682  25.863  1.00  0.00     0.002 A 
ATOM     95  C   UNL A   1      34.222  15.803  24.733  1.00  0.00     0.002 A 
ATOM     96  C   UNL A   1      33.109  15.610  25.551  1.00  0.00     0.000 A 
ENDBRANCH  90  91
ENDBRANCH  83  84
BRANCH  83  97
ATOM     97  C   UNL A   1      33.239  23.966  23.370  1.00  0.00     0.046 A 
ATOM     98  C   UNL A   1      33.210  23.972  21.984  1.00  0.00     0.094 A 
ATOM     99  C   UNL A   1      32.204  24.908  23.778  1.00  0.00     0.009 A 
ATOM    100  N   UNL A   1      32.284  24.882  21.550  1.00  0.00    -0.361 N 
ATOM    101  C   UNL A   1      31.670  25.485  22.621  1.00  0.00     0.049 A 
ATOM    102  C   UNL A   1      31.705  25.361  25.027  1.00  0.00     0.014 A 
ATOM    103  H   UNL A   1      32.087  25.077  20.606  1.00  0.00     0.166 HD
ATOM    104  C   UNL A   1      30.700  26.498  22.649  1.00  0.00     0.065 A 
ATOM    105  C   UNL A   1      30.730  26.369  25.071  1.00  0.00     0.040 A 
ATOM    106  C   UNL A   1      30.251  26.927  23.896  1.00  0.00     0.125 A 
ATOM    107  F   UNL A   1      29.335  27.905  23.962  1.00  0.00    -0.207 F 
ENDBRANCH  83  97
ENDBRANCH  81  83
ENDBRANCH  80  81
ENDBRANCH  79  80
ENDBRANCH  78  79
ENDBRANCH  77  78
ENDBRANCH  76  77
ENDBRANCH  75  76
ENDBRANCH  74  75
ENDBRANCH   1  74
TORSDOF 26
ENDMDL
MODEL 2
REMARK VINA RESULT:      -9.7      5.083      9.043
REMARK SMILES O=C(OCCOCCOCCOCCOC(=O)[C@H](c1c[nH]c2cc(F)ccc12)[NH+]1CCN(c2ccccc2)CC1)c1ccc(-c2c3nc(c(-c4cc(S(=O)(=O)[O-])ccc4F)c4ccc([nH]4)c(-c4cc(S(=O)(=O)[O-])ccc4F)c4nc(c(-c5cc(S(=O)(=O)[O-])ccc5F)c5ccc2[nH]5)C=C4)C=C3)cc1
REMARK SMILES IDX 8 1 7 2 6 3 5 4 4 5 3 6 2 7 1 8 41 9 42 10 103 11 43 12
REMARK SMILES IDX 102 13 44 14 45 15 46 16 96 17 47 18 101 19 95 20 97 21
REMARK SMILES IDX 48 22 100 23 94 24 93 25 49 27 81 28 61 29 80 30 62 31 65 32
REMARK SMILES IDX 79 33 98 34 63 35 64 36 78 38 99 39 66 40 50 41 51 42 59 43
REMARK SMILES IDX 52 44 58 45 60 46 57 47 53 48 54 49 55 50 56 51 82 52 83 53
REMARK SMILES IDX 91 54 84 55 90 56 92 57 89 58 85 59 86 60 87 61 88 62 67 63
REMARK SMILES IDX 68 64 76 65 69 66 75 67 77 68 74 69 70 70 71 71 72 72 73 73
REMARK SMILES IDX 9 74 10 75 11 76 12 77 13 78 14 79 15 80 16 81 17 82 18 83
REMARK SMILES IDX 29 84 30 85 40 86 31 88 39 89 32 90 33 91 34 92 38 93 35 94
REMARK SMILES IDX 37 95 36 96 19 97 20 98 28 99 21 100 22 101 27 102 23 104
REMARK SMILES IDX 26 105 24 106 25 107
REMARK H PARENT 97 26 65 37 29 87 21 103
REMARK Flexibility Score: inf
ROOT
ATOM      1  C   UNL A   1      32.106  29.715  25.393  1.00  0.00     0.188 C 
ENDROOT
BRANCH   1   2
ATOM      2  C   UNL A   1      31.441  30.969  25.958  1.00  0.00     0.188 C 
BRANCH   2   3
ATOM      3  O   UNL A   1      32.014  31.300  27.219  1.00  0.00    -0.376 OA
BRANCH   3   4
ATOM      4  C   UNL A   1      32.809  32.480  27.281  1.00  0.00     0.202 C 
BRANCH   4   5
ATOM      5  C   UNL A   1      34.190  32.238  27.880  1.00  0.00     0.261 C 
BRANCH   5   6
ATOM      6  O   UNL A   1      34.371  30.891  28.335  1.00  0.00    -0.460 OA
BRANCH   6   7
ATOM      7  C   UNL A   1      35.370  30.025  28.031  1.00  0.00     0.338 C 
ATOM      8  O   UNL A   1      35.182  29.251  27.091  1.00  0.00    -0.246 OA
BRANCH   7   9
ATOM      9  C   UNL A   1      36.687  29.933  28.743  1.00  0.00     0.060 A 
ATOM     10  C   UNL A   1      37.878  30.565  28.377  1.00  0.00     0.016 A 
ATOM     11  C   UNL A   1      36.683  29.212  29.951  1.00  0.00     0.016 A 
ATOM     12  C   UNL A   1      39.018  30.502  29.166  1.00  0.00     0.010 A 
ATOM     13  C   UNL A   1      37.827  29.131  30.749  1.00  0.00     0.010 A 
ATOM     14  C   UNL A   1      39.000  29.776  30.348  1.00  0.00    -0.014 A 
BRANCH  14  15
ATOM     15  C   UNL A   1      40.277  29.569  31.047  1.00  0.00     0.031 A 
ATOM     16  C   UNL A   1      41.197  28.528  30.492  1.00  0.00     0.074 A 
ATOM     17  C   UNL A   1      40.630  30.377  32.062  1.00  0.00     0.049 A 
ATOM     18  N   UNL A   1      42.305  28.056  30.985  1.00  0.00    -0.248 NA
ATOM     19  C   UNL A   1      40.819  27.948  29.190  1.00  0.00     0.031 C 
ATOM     20  C   UNL A   1      39.850  31.526  32.535  1.00  0.00     0.029 A 
ATOM     21  N   UNL A   1      41.732  30.370  32.872  1.00  0.00    -0.354 N 
ATOM     22  C   UNL A   1      42.730  27.087  30.084  1.00  0.00     0.074 A 
ATOM     23  C   UNL A   1      41.776  27.054  29.001  1.00  0.00     0.031 C 
ATOM     24  C   UNL A   1      40.497  32.101  33.562  1.00  0.00     0.029 A 
ATOM     25  C   UNL A   1      41.678  31.308  33.877  1.00  0.00     0.049 A 
ATOM     26  H   UNL A   1      42.490  29.753  32.747  1.00  0.00     0.167 HD
ATOM     27  C   UNL A   1      43.813  26.285  30.187  1.00  0.00     0.034 A 
ATOM     28  C   UNL A   1      42.460  31.444  34.967  1.00  0.00     0.034 A 
ATOM     29  C   UNL A   1      44.724  26.367  31.298  1.00  0.00     0.049 A 
ATOM     30  C   UNL A   1      43.587  30.447  35.125  1.00  0.00     0.074 A 
ATOM     31  C   UNL A   1      45.841  25.598  31.558  1.00  0.00     0.029 A 
ATOM     32  N   UNL A   1      44.603  27.274  32.345  1.00  0.00    -0.354 N 
ATOM     33  N   UNL A   1      43.965  29.492  34.301  1.00  0.00    -0.248 NA
ATOM     34  C   UNL A   1      44.379  30.526  36.356  1.00  0.00     0.031 C 
ATOM     35  C   UNL A   1      46.345  25.985  32.804  1.00  0.00     0.029 A 
ATOM     36  C   UNL A   1      45.595  27.053  33.280  1.00  0.00     0.049 A 
ATOM     37  H   UNL A   1      43.912  27.972  32.410  1.00  0.00     0.167 HD
ATOM     38  C   UNL A   1      45.045  28.866  34.913  1.00  0.00     0.074 A 
ATOM     39  C   UNL A   1      45.279  29.576  36.156  1.00  0.00     0.031 C 
ATOM     40  C   UNL A   1      45.777  27.797  34.504  1.00  0.00     0.034 A 
BRANCH  27  41
ATOM     41  C   UNL A   1      43.976  25.197  29.160  1.00  0.00     0.023 A 
ATOM     42  C   UNL A   1      44.247  25.468  27.808  1.00  0.00     0.031 A 
ATOM     43  C   UNL A   1      43.801  23.856  29.544  1.00  0.00     0.131 A 
ATOM     44  C   UNL A   1      44.287  24.413  26.881  1.00  0.00     0.055 A 
ATOM     45  C   UNL A   1      43.910  22.807  28.631  1.00  0.00     0.041 A 
ATOM     46  F   UNL A   1      43.500  23.543  30.815  1.00  0.00    -0.206 F 
ATOM     47  C   UNL A   1      44.145  23.084  27.288  1.00  0.00     0.022 A 
BRANCH  44  48
ATOM     48  S   UNL A   1      44.407  24.808  25.114  1.00  0.00     0.124 S 
ATOM     49  O   UNL A   1      45.729  25.426  25.039  1.00  0.00    -0.237 OA
ATOM     50  O   UNL A   1      44.281  23.497  24.487  1.00  0.00    -0.237 OA
ATOM     51  O   UNL A   1      43.286  25.717  24.887  1.00  0.00    -0.744 OA
ENDBRANCH  44  48
ENDBRANCH  27  41
BRANCH  28  52
ATOM     52  C   UNL A   1      42.148  32.442  36.036  1.00  0.00     0.023 A 
ATOM     53  C   UNL A   1      41.064  32.263  36.909  1.00  0.00     0.031 A 
ATOM     54  C   UNL A   1      42.871  33.648  36.137  1.00  0.00     0.131 A 
ATOM     55  C   UNL A   1      40.691  33.296  37.788  1.00  0.00     0.055 A 
ATOM     56  C   UNL A   1      42.543  34.638  37.065  1.00  0.00     0.041 A 
ATOM     57  F   UNL A   1      43.908  33.894  35.320  1.00  0.00    -0.206 F 
ATOM     58  C   UNL A   1      41.433  34.474  37.883  1.00  0.00     0.022 A 
BRANCH  55  59
ATOM     59  S   UNL A   1      39.127  33.137  38.695  1.00  0.00     0.124 S 
ATOM     60  O   UNL A   1      38.301  32.414  37.736  1.00  0.00    -0.237 OA
ATOM     61  O   UNL A   1      39.539  32.390  39.879  1.00  0.00    -0.237 OA
ATOM     62  O   UNL A   1      38.733  34.524  38.938  1.00  0.00    -0.744 OA
ENDBRANCH  55  59
ENDBRANCH  28  52
BRANCH  40  63
ATOM     63  C   UNL A   1      46.903  27.369  35.404  1.00  0.00     0.023 A 
ATOM     64  C   UNL A   1      46.712  26.396  36.398  1.00  0.00     0.031 A 
ATOM     65  C   UNL A   1      48.185  27.921  35.243  1.00  0.00     0.131 A 
ATOM     66  C   UNL A   1      47.779  26.035  37.228  1.00  0.00     0.055 A 
ATOM     67  C   UNL A   1      49.260  27.508  36.027  1.00  0.00     0.041 A 
ATOM     68  F   UNL A   1      48.415  28.855  34.306  1.00  0.00    -0.206 F 
ATOM     69  C   UNL A   1      49.058  26.567  37.032  1.00  0.00     0.022 A 
BRANCH  66  70
ATOM     70  S   UNL A   1      47.457  24.918  38.615  1.00  0.00     0.124 S 
ATOM     71  O   UNL A   1      46.935  25.832  39.625  1.00  0.00    -0.237 OA
ATOM     72  O   UNL A   1      46.494  23.980  38.046  1.00  0.00    -0.237 OA
ATOM     73  O   UNL A   1      48.772  24.351  38.910  1.00  0.00    -0.744 OA
ENDBRANCH  66  70
ENDBRANCH  40  63
ENDBRANCH  14  15
ENDBRANCH   7   9
ENDBRANCH   6   7
ENDBRANCH   5   6
ENDBRANCH   4   5
ENDBRANCH   3   4
ENDBRANCH   2   3
ENDBRANCH   1   2
BRANCH   1  74
ATOM     74  O   UNL A   1      31.190  28.734  24.918  1.00  0.00    -0.377 OA
BRANCH  74  75
ATOM     75  C   UNL A   1      30.653  28.972  23.620  1.00  0.00     0.188 C 
BRANCH  75  76
ATOM     76  C   UNL A   1      30.452  27.765  22.670  1.00  0.00     0.188 C 
BRANCH  76  77
ATOM     77  O   UNL A   1      31.668  27.171  22.252  1.00  0.00    -0.376 OA
BRANCH  77  78
ATOM     78  C   UNL A   1      31.525  26.016  21.434  1.00  0.00     0.202 C 
BRANCH  78  79
ATOM     79  C   UNL A   1      32.842  25.367  20.983  1.00  0.00     0.261 C 
BRANCH  79  80
ATOM     80  O   UNL A   1      33.590  24.637  21.984  1.00  0.00    -0.459 OA
BRANCH  80  81
ATOM     81  C   UNL A   1      33.368  23.296  22.167  1.00  0.00     0.370 C 
ATOM     82  O   UNL A   1      32.752  22.599  21.382  1.00  0.00    -0.245 OA
BRANCH  81  83
ATOM     83  C   UNL A   1      34.077  22.821  23.489  1.00  0.00     0.328 C 
BRANCH  83  84
ATOM     84  N   UNL A   1      35.123  23.829  23.797  1.00  0.00    -0.316 N 
ATOM     85  C   UNL A   1      35.289  24.235  25.200  1.00  0.00     0.284 C 
ATOM     86  C   UNL A   1      36.436  23.413  23.261  1.00  0.00     0.284 C 
ATOM     87  H   UNL A   1      34.761  24.661  23.330  1.00  0.00     0.349 HD
ATOM     88  C   UNL A   1      35.927  23.177  26.121  1.00  0.00     0.178 C 
ATOM     89  C   UNL A   1      37.145  22.320  24.095  1.00  0.00     0.178 C 
ATOM     90  N   UNL A   1      37.158  22.630  25.528  1.00  0.00    -0.360 N 
BRANCH  90  91
ATOM     91  C   UNL A   1      38.307  23.010  26.196  1.00  0.00     0.037 A 
ATOM     92  C   UNL A   1      39.296  22.046  26.440  1.00  0.00     0.026 A 
ATOM     93  C   UNL A   1      38.466  24.283  26.746  1.00  0.00     0.026 A 
ATOM     94  C   UNL A   1      40.395  22.327  27.248  1.00  0.00     0.002 A 
ATOM     95  C   UNL A   1      39.562  24.568  27.563  1.00  0.00     0.002 A 
ATOM     96  C   UNL A   1      40.519  23.588  27.820  1.00  0.00     0.000 A 
ENDBRANCH  90  91
ENDBRANCH  83  84
BRANCH  83  97
ATOM     97  C   UNL A   1      33.108  22.527  24.648  1.00  0.00     0.046 A 
ATOM     98  C   UNL A   1      33.020  21.371  25.407  1.00  0.00     0.094 A 
ATOM     99  C   UNL A   1      32.061  23.402  25.161  1.00  0.00     0.009 A 
ATOM    100  N   UNL A   1      31.972  21.477  26.282  1.00  0.00    -0.361 N 
ATOM    101  C   UNL A   1      31.354  22.696  26.140  1.00  0.00     0.049 A 
ATOM    102  C   UNL A   1      31.616  24.713  24.851  1.00  0.00     0.014 A 
ATOM    103  H   UNL A   1      31.700  20.779  26.920  1.00  0.00     0.166 HD
ATOM    104  C   UNL A   1      30.224  23.213  26.792  1.00  0.00     0.065 A 
ATOM    105  C   UNL A   1      30.492  25.247  25.498  1.00  0.00     0.040 A 
ATOM    106  C   UNL A   1      29.810  24.496  26.443  1.00  0.00     0.125 A 
ATOM    107  F   UNL A   1      28.725  25.017  27.034  1.00  0.00    -0.207 F 
ENDBRANCH  83  97
ENDBRANCH  81  83
ENDBRANCH  80  81
ENDBRANCH  79  80
ENDBRANCH  78  79
ENDBRANCH  77  78
ENDBRANCH  76  77
ENDBRANCH  75  76
ENDBRANCH  74  75
ENDBRANCH   1  74
TORSDOF 26
ENDMDL
MODEL 3
REMARK VINA RESULT:      -9.6      5.023     10.223
REMARK SMILES O=C(OCCOCCOCCOCCOC(=O)[C@H](c1c[nH]c2cc(F)ccc12)[NH+]1CCN(c2ccccc2)CC1)c1ccc(-c2c3nc(c(-c4cc(S(=O)(=O)[O-])ccc4F)c4ccc([nH]4)c(-c4cc(S(=O)(=O)[O-])ccc4F)c4nc(c(-c5cc(S(=O)(=O)[O-])ccc5F)c5ccc2[nH]5)C=C4)C=C3)cc1
REMARK SMILES IDX 8 1 7 2 6 3 5 4 4 5 3 6 2 7 1 8 41 9 42 10 103 11 43 12
REMARK SMILES IDX 102 13 44 14 45 15 46 16 96 17 47 18 101 19 95 20 97 21
REMARK SMILES IDX 48 22 100 23 94 24 93 25 49 27 81 28 61 29 80 30 62 31 65 32
REMARK SMILES IDX 79 33 98 34 63 35 64 36 78 38 99 39 66 40 50 41 51 42 59 43
REMARK SMILES IDX 52 44 58 45 60 46 57 47 53 48 54 49 55 50 56 51 82 52 83 53
REMARK SMILES IDX 91 54 84 55 90 56 92 57 89 58 85 59 86 60 87 61 88 62 67 63
REMARK SMILES IDX 68 64 76 65 69 66 75 67 77 68 74 69 70 70 71 71 72 72 73 73
REMARK SMILES IDX 9 74 10 75 11 76 12 77 13 78 14 79 15 80 16 81 17 82 18 83
REMARK SMILES IDX 29 84 30 85 40 86 31 88 39 89 32 90 33 91 34 92 38 93 35 94
REMARK SMILES IDX 37 95 36 96 19 97 20 98 28 99 21 100 22 101 27 102 23 104
REMARK SMILES IDX 26 105 24 106 25 107
REMARK H PARENT 97 26 65 37 29 87 21 103
REMARK Flexibility Score: inf
ROOT
ATOM      1  C   UNL A   1      31.390  29.995  24.259  1.00  0.00     0.188 C 
ENDROOT
BRANCH   1   2
ATOM      2  C   UNL A   1      31.070  30.600  25.625  1.00  0.00     0.188 C 
BRANCH   2   3
ATOM      3  O   UNL A   1      30.334  31.809  25.465  1.00  0.00    -0.376 OA
BRANCH   3   4
ATOM      4  C   UNL A   1      31.014  33.026  25.755  1.00  0.00     0.202 C 
BRANCH   4   5
ATOM      5  C   UNL A   1      32.134  32.855  26.776  1.00  0.00     0.261 C 
BRANCH   5   6
ATOM      6  O   UNL A   1      32.263  33.980  27.654  1.00  0.00    -0.460 OA
BRANCH   6   7
ATOM      7  C   UNL A   1      33.373  34.432  28.290  1.00  0.00     0.338 C 
ATOM      8  O   UNL A   1      33.518  35.652  28.378  1.00  0.00    -0.246 OA
BRANCH   7   9
ATOM      9  C   UNL A   1      34.439  33.568  28.897  1.00  0.00     0.060 A 
ATOM     10  C   UNL A   1      34.247  32.358  29.568  1.00  0.00     0.016 A 
ATOM     11  C   UNL A   1      35.765  33.983  28.678  1.00  0.00     0.016 A 
ATOM     12  C   UNL A   1      35.311  31.579  30.000  1.00  0.00     0.010 A 
ATOM     13  C   UNL A   1      36.845  33.214  29.117  1.00  0.00     0.010 A 
ATOM     14  C   UNL A   1      36.613  32.010  29.787  1.00  0.00    -0.014 A 
BRANCH  14  15
ATOM     15  C   UNL A   1      37.700  31.259  30.434  1.00  0.00     0.031 A 
ATOM     16  C   UNL A   1      37.990  31.579  31.866  1.00  0.00     0.074 A 
ATOM     17  C   UNL A   1      38.307  30.253  29.781  1.00  0.00     0.049 A 
ATOM     18  N   UNL A   1      38.967  31.171  32.624  1.00  0.00    -0.248 NA
ATOM     19  C   UNL A   1      37.033  32.473  32.544  1.00  0.00     0.031 C 
ATOM     20  C   UNL A   1      37.946  29.778  28.441  1.00  0.00     0.029 A 
ATOM     21  N   UNL A   1      39.343  29.440  30.152  1.00  0.00    -0.354 N 
ATOM     22  C   UNL A   1      38.775  31.799  33.848  1.00  0.00     0.074 A 
ATOM     23  C   UNL A   1      37.576  32.596  33.744  1.00  0.00     0.031 C 
ATOM     24  C   UNL A   1      38.761  28.766  28.102  1.00  0.00     0.029 A 
ATOM     25  C   UNL A   1      39.754  28.588  29.153  1.00  0.00     0.049 A 
ATOM     26  H   UNL A   1      39.753  29.463  31.047  1.00  0.00     0.167 HD
ATOM     27  C   UNL A   1      39.563  31.725  34.944  1.00  0.00     0.034 A 
ATOM     28  C   UNL A   1      40.858  27.817  29.083  1.00  0.00     0.034 A 
ATOM     29  C   UNL A   1      40.750  30.912  34.980  1.00  0.00     0.049 A 
ATOM     30  C   UNL A   1      41.792  27.856  30.272  1.00  0.00     0.074 A 
ATOM     31  C   UNL A   1      41.666  30.764  36.003  1.00  0.00     0.029 A 
ATOM     32  N   UNL A   1      41.188  30.118  33.926  1.00  0.00    -0.354 N 
ATOM     33  N   UNL A   1      41.644  28.490  31.417  1.00  0.00    -0.248 NA
ATOM     34  C   UNL A   1      43.043  27.099  30.163  1.00  0.00     0.031 C 
ATOM     35  C   UNL A   1      42.700  29.948  35.535  1.00  0.00     0.029 A 
ATOM     36  C   UNL A   1      42.388  29.516  34.253  1.00  0.00     0.049 A 
ATOM     37  H   UNL A   1      40.713  30.001  33.072  1.00  0.00     0.167 HD
ATOM     38  C   UNL A   1      42.780  28.197  32.164  1.00  0.00     0.074 A 
ATOM     39  C   UNL A   1      43.583  27.302  31.354  1.00  0.00     0.031 C 
ATOM     40  C   UNL A   1      43.144  28.630  33.400  1.00  0.00     0.034 A 
BRANCH  27  41
ATOM     41  C   UNL A   1      39.234  32.627  36.103  1.00  0.00     0.023 A 
ATOM     42  C   UNL A   1      39.734  33.936  36.208  1.00  0.00     0.031 A 
ATOM     43  C   UNL A   1      38.441  32.134  37.154  1.00  0.00     0.131 A 
ATOM     44  C   UNL A   1      39.473  34.689  37.365  1.00  0.00     0.055 A 
ATOM     45  C   UNL A   1      38.128  32.912  38.269  1.00  0.00     0.041 A 
ATOM     46  F   UNL A   1      37.972  30.876  37.124  1.00  0.00    -0.206 F 
ATOM     47  C   UNL A   1      38.652  34.195  38.383  1.00  0.00     0.022 A 
BRANCH  44  48
ATOM     48  S   UNL A   1      40.316  36.282  37.578  1.00  0.00     0.124 S 
ATOM     49  O   UNL A   1      39.408  36.976  38.488  1.00  0.00    -0.237 OA
ATOM     50  O   UNL A   1      41.602  35.887  38.141  1.00  0.00    -0.237 OA
ATOM     51  O   UNL A   1      40.370  36.827  36.224  1.00  0.00    -0.744 OA
ENDBRANCH  44  48
ENDBRANCH  27  41
BRANCH  28  52
ATOM     52  C   UNL A   1      41.214  27.069  27.838  1.00  0.00     0.023 A 
ATOM     53  C   UNL A   1      41.044  25.679  27.747  1.00  0.00     0.031 A 
ATOM     54  C   UNL A   1      41.830  27.720  26.750  1.00  0.00     0.131 A 
ATOM     55  C   UNL A   1      41.546  24.980  26.635  1.00  0.00     0.055 A 
ATOM     56  C   UNL A   1      42.257  27.031  25.613  1.00  0.00     0.041 A 
ATOM     57  F   UNL A   1      42.041  29.046  26.778  1.00  0.00    -0.206 F 
ATOM     58  C   UNL A   1      42.135  25.648  25.561  1.00  0.00     0.022 A 
BRANCH  55  59
ATOM     59  S   UNL A   1      41.555  23.166  26.684  1.00  0.00     0.124 S 
ATOM     60  O   UNL A   1      42.360  22.842  25.513  1.00  0.00    -0.237 OA
ATOM     61  O   UNL A   1      42.170  22.901  27.980  1.00  0.00    -0.237 OA
ATOM     62  O   UNL A   1      40.139  22.817  26.584  1.00  0.00    -0.744 OA
ENDBRANCH  55  59
ENDBRANCH  28  52
BRANCH  40  63
ATOM     63  C   UNL A   1      44.448  28.111  33.937  1.00  0.00     0.023 A 
ATOM     64  C   UNL A   1      44.517  26.892  34.630  1.00  0.00     0.031 A 
ATOM     65  C   UNL A   1      45.637  28.830  33.724  1.00  0.00     0.131 A 
ATOM     66  C   UNL A   1      45.747  26.449  35.130  1.00  0.00     0.055 A 
ATOM     67  C   UNL A   1      46.868  28.350  34.164  1.00  0.00     0.041 A 
ATOM     68  F   UNL A   1      45.619  30.001  33.066  1.00  0.00    -0.206 F 
ATOM     69  C   UNL A   1      46.926  27.159  34.880  1.00  0.00     0.022 A 
BRANCH  66  70
ATOM     70  S   UNL A   1      45.774  24.972  36.177  1.00  0.00     0.124 S 
ATOM     71  O   UNL A   1      45.513  23.912  35.209  1.00  0.00    -0.237 OA
ATOM     72  O   UNL A   1      47.122  25.006  36.734  1.00  0.00    -0.237 OA
ATOM     73  O   UNL A   1      44.701  25.215  37.138  1.00  0.00    -0.744 OA
ENDBRANCH  66  70
ENDBRANCH  40  63
ENDBRANCH  14  15
ENDBRANCH   7   9
ENDBRANCH   6   7
ENDBRANCH   5   6
ENDBRANCH   4   5
ENDBRANCH   3   4
ENDBRANCH   2   3
ENDBRANCH   1   2
BRANCH   1  74
ATOM     74  O   UNL A   1      30.322  30.076  23.321  1.00  0.00    -0.377 OA
BRANCH  74  75
ATOM     75  C   UNL A   1      29.103  29.457  23.723  1.00  0.00     0.188 C 
BRANCH  75  76
ATOM     76  C   UNL A   1      28.397  28.499  22.730  1.00  0.00     0.188 C 
BRANCH  76  77
ATOM     77  O   UNL A   1      27.952  27.297  23.332  1.00  0.00    -0.376 OA
BRANCH  77  78
ATOM     78  C   UNL A   1      28.922  26.626  24.126  1.00  0.00     0.202 C 
BRANCH  78  79
ATOM     79  C   UNL A   1      29.909  25.742  23.346  1.00  0.00     0.261 C 
BRANCH  79  80
ATOM     80  O   UNL A   1      30.194  24.434  23.897  1.00  0.00    -0.459 OA
BRANCH  80  81
ATOM     81  C   UNL A   1      30.956  24.316  25.030  1.00  0.00     0.370 C 
ATOM     82  O   UNL A   1      30.492  24.229  26.152  1.00  0.00    -0.245 OA
BRANCH  81  83
ATOM     83  C   UNL A   1      32.478  24.254  24.636  1.00  0.00     0.328 C 
BRANCH  83  84
ATOM     84  N   UNL A   1      32.600  23.229  23.568  1.00  0.00    -0.316 N 
ATOM     85  C   UNL A   1      33.927  22.644  23.330  1.00  0.00     0.284 C 
ATOM     86  C   UNL A   1      31.625  22.137  23.768  1.00  0.00     0.284 C 
ATOM     87  H   UNL A   1      32.405  23.774  22.728  1.00  0.00     0.349 HD
ATOM     88  C   UNL A   1      34.428  21.679  24.422  1.00  0.00     0.178 C 
ATOM     89  C   UNL A   1      32.016  21.130  24.876  1.00  0.00     0.178 C 
ATOM     90  N   UNL A   1      33.404  20.675  24.752  1.00  0.00    -0.360 N 
BRANCH  90  91
ATOM     91  C   UNL A   1      33.732  19.397  24.339  1.00  0.00     0.037 A 
ATOM     92  C   UNL A   1      32.807  18.677  23.567  1.00  0.00     0.026 A 
ATOM     93  C   UNL A   1      34.893  18.749  24.765  1.00  0.00     0.026 A 
ATOM     94  C   UNL A   1      33.011  17.334  23.263  1.00  0.00     0.002 A 
ATOM     95  C   UNL A   1      35.098  17.400  24.469  1.00  0.00     0.002 A 
ATOM     96  C   UNL A   1      34.154  16.692  23.727  1.00  0.00     0.000 A 
ENDBRANCH  90  91
ENDBRANCH  83  84
BRANCH  83  97
ATOM     97  C   UNL A   1      33.090  25.623  24.284  1.00  0.00     0.046 A 
ATOM     98  C   UNL A   1      33.556  26.050  23.051  1.00  0.00     0.094 A 
ATOM     99  C   UNL A   1      33.329  26.738  25.191  1.00  0.00     0.009 A 
ATOM    100  N   UNL A   1      34.100  27.300  23.176  1.00  0.00    -0.361 N 
ATOM    101  C   UNL A   1      33.997  27.738  24.475  1.00  0.00     0.049 A 
ATOM    102  C   UNL A   1      33.085  26.973  26.569  1.00  0.00     0.014 A 
ATOM    103  H   UNL A   1      34.507  27.812  22.441  1.00  0.00     0.166 HD
ATOM    104  C   UNL A   1      34.452  28.927  25.063  1.00  0.00     0.065 A 
ATOM    105  C   UNL A   1      33.529  28.160  27.171  1.00  0.00     0.040 A 
ATOM    106  C   UNL A   1      34.209  29.108  26.422  1.00  0.00     0.125 A 
ATOM    107  F   UNL A   1      34.644  30.227  27.021  1.00  0.00    -0.207 F 
ENDBRANCH  83  97
ENDBRANCH  81  83
ENDBRANCH  80  81
ENDBRANCH  79  80
ENDBRANCH  78  79
ENDBRANCH  77  78
ENDBRANCH  76  77
ENDBRANCH  75  76
ENDBRANCH  74  75
ENDBRANCH   1  74
TORSDOF 26
ENDMDL
