MODEL 1
REMARK VINA RESULT:      -9.4      0.000      0.000
REMARK SMILES NS(=O)(=O)c1ccc(/N=N/c2ccc(O)c(C(=O)OCCOCCOCCOCCOC(=O)c3ccc(-c4c5nc(c(-c6cc(S(=O)(=O)[O-])ccc6F)c6ccc([nH]6)c(-c6cc(S(=O)(=O)[O-])ccc6F)c6nc(c(-c7cc(S(=O)(=O)[O-])ccc7F)c7ccc4[nH]7)C=C6)C=C5)cc3)c2)cc1
REMARK SMILES IDX 24 1 23 2 22 3 21 4 20 5 19 6 17 7 18 8 16 9 11 10 12 11
REMARK SMILES IDX 97 12 13 13 14 14 10 15 9 16 8 17 5 18 6 19 99 20 7 21 98 22
REMARK SMILES IDX 2 23 3 24 4 25 1 26 15 29 25 31 26 32 27 33 28 34 29 35
REMARK SMILES IDX 30 36 31 37 32 38 33 39 34 40 35 41 96 42 36 43 95 44 37 45
REMARK SMILES IDX 38 46 39 47 89 48 40 49 94 50 88 51 90 52 41 53 93 54 87 55
REMARK SMILES IDX 86 56 42 58 74 59 54 60 73 61 55 62 58 63 72 64 91 65 56 66
REMARK SMILES IDX 57 67 71 69 92 70 59 71 43 72 44 73 52 74 45 75 51 76 53 77
REMARK SMILES IDX 50 78 46 79 47 80 48 81 49 82 75 83 76 84 84 85 77 86 83 87
REMARK SMILES IDX 85 88 82 89 78 90 79 91 80 92 81 93 60 94 61 95 69 96 62 97
REMARK SMILES IDX 68 98 70 99 67 100 63 101 64 102 65 103 66 104
REMARK H PARENT 1 27 1 28 15 30 90 57 58 68
REMARK Flexibility Score: inf
ROOT
ATOM      1  C   UNL A   1      34.465  22.877  24.532  1.00  0.00     0.188 C 
ENDROOT
BRANCH   1   2
ATOM      2  C   UNL A   1      33.200  22.847  25.408  1.00  0.00     0.188 C 
BRANCH   2   3
ATOM      3  O   UNL A   1      31.989  22.801  24.680  1.00  0.00    -0.376 OA
BRANCH   3   4
ATOM      4  C   UNL A   1      31.622  23.810  23.758  1.00  0.00     0.202 C 
BRANCH   4   5
ATOM      5  C   UNL A   1      30.683  24.999  24.045  1.00  0.00     0.261 C 
BRANCH   5   6
ATOM      6  O   UNL A   1      31.247  26.217  24.526  1.00  0.00    -0.460 OA
BRANCH   6   7
ATOM      7  C   UNL A   1      31.459  26.335  25.851  1.00  0.00     0.342 C 
ATOM      8  O   UNL A   1      31.047  25.599  26.733  1.00  0.00    -0.246 OA
BRANCH   7   9
ATOM      9  C   UNL A   1      32.528  27.337  26.064  1.00  0.00     0.104 A 
ATOM     10  C   UNL A   1      33.277  29.484  26.938  1.00  0.00     0.087 A 
ATOM     11  C   UNL A   1      34.466  29.331  26.213  1.00  0.00     0.034 A 
ATOM     12  C   UNL A   1      32.302  28.479  26.846  1.00  0.00     0.049 A 
ATOM     13  C   UNL A   1      34.694  28.202  25.423  1.00  0.00     0.049 A 
ATOM     14  C   UNL A   1      33.729  27.204  25.356  1.00  0.00     0.130 A 
BRANCH  10  15
ATOM     15  N   UNL A   1      33.104  30.682  27.661  1.00  0.00    -0.151 NA
ATOM     16  N   UNL A   1      34.185  31.239  27.939  1.00  0.00    -0.151 NA
BRANCH  16  17
ATOM     17  C   UNL A   1      34.027  32.444  28.660  1.00  0.00     0.086 A 
ATOM     18  C   UNL A   1      33.558  34.885  29.982  1.00  0.00     0.082 A 
ATOM     19  C   UNL A   1      33.022  34.672  28.712  1.00  0.00     0.024 A 
ATOM     20  C   UNL A   1      34.337  33.902  30.594  1.00  0.00     0.024 A 
ATOM     21  C   UNL A   1      33.261  33.455  28.061  1.00  0.00     0.031 A 
ATOM     22  C   UNL A   1      34.565  32.689  29.935  1.00  0.00     0.031 A 
BRANCH  18  23
ATOM     23  S   UNL A   1      33.296  36.402  30.854  1.00  0.00     0.238 S 
ATOM     24  O   UNL A   1      34.312  36.514  31.880  1.00  0.00    -0.207 OA
ATOM     25  O   UNL A   1      31.891  36.515  31.140  1.00  0.00    -0.207 OA
BRANCH  23  26
ATOM     26  N   UNL A   1      33.647  37.603  29.737  1.00  0.00    -0.225 NA
ATOM     27  H   UNL A   1      32.886  37.673  29.063  1.00  0.00     0.137 HD
ATOM     28  H   UNL A   1      34.513  37.370  29.249  1.00  0.00     0.137 HD
ENDBRANCH  23  26
ENDBRANCH  18  23
ENDBRANCH  16  17
ENDBRANCH  10  15
BRANCH  14  29
ATOM     29  O   UNL A   1      34.000  26.150  24.522  1.00  0.00    -0.507 OA
ATOM     30  H   UNL A   1      34.453  25.399  24.849  1.00  0.00     0.293 HD
ENDBRANCH  14  29
ENDBRANCH   7   9
ENDBRANCH   6   7
ENDBRANCH   5   6
ENDBRANCH   4   5
ENDBRANCH   3   4
ENDBRANCH   2   3
ENDBRANCH   1   2
BRANCH   1  31
ATOM     31  O   UNL A   1      35.447  23.806  24.956  1.00  0.00    -0.377 OA
BRANCH  31  32
ATOM     32  C   UNL A   1      36.474  23.365  25.846  1.00  0.00     0.188 C 
BRANCH  32  33
ATOM     33  C   UNL A   1      37.629  22.431  25.402  1.00  0.00     0.188 C 
BRANCH  33  34
ATOM     34  O   UNL A   1      37.240  21.101  25.093  1.00  0.00    -0.376 OA
BRANCH  34  35
ATOM     35  C   UNL A   1      38.223  20.081  25.136  1.00  0.00     0.202 C 
BRANCH  35  36
ATOM     36  C   UNL A   1      39.466  20.366  25.990  1.00  0.00     0.261 C 
BRANCH  36  37
ATOM     37  O   UNL A   1      40.707  19.867  25.475  1.00  0.00    -0.460 OA
BRANCH  37  38
ATOM     38  C   UNL A   1      41.736  19.766  26.346  1.00  0.00     0.338 C 
ATOM     39  O   UNL A   1      42.221  18.740  26.788  1.00  0.00    -0.246 OA
BRANCH  38  40
ATOM     40  C   UNL A   1      42.300  21.120  26.524  1.00  0.00     0.060 A 
ATOM     41  C   UNL A   1      42.564  21.587  27.818  1.00  0.00     0.016 A 
ATOM     42  C   UNL A   1      42.587  21.915  25.411  1.00  0.00     0.016 A 
ATOM     43  C   UNL A   1      43.086  22.868  28.003  1.00  0.00     0.010 A 
ATOM     44  C   UNL A   1      43.090  23.205  25.600  1.00  0.00     0.010 A 
ATOM     45  C   UNL A   1      43.313  23.699  26.898  1.00  0.00    -0.014 A 
BRANCH  45  46
ATOM     46  C   UNL A   1      43.585  25.144  27.100  1.00  0.00     0.031 A 
ATOM     47  C   UNL A   1      44.972  25.651  26.809  1.00  0.00     0.074 A 
ATOM     48  C   UNL A   1      42.627  25.990  27.518  1.00  0.00     0.049 A 
ATOM     49  N   UNL A   1      45.474  26.846  26.977  1.00  0.00    -0.248 NA
ATOM     50  C   UNL A   1      45.920  24.669  26.258  1.00  0.00     0.031 C 
ATOM     51  C   UNL A   1      41.235  25.627  27.782  1.00  0.00     0.029 A 
ATOM     52  N   UNL A   1      42.683  27.332  27.802  1.00  0.00    -0.354 N 
ATOM     53  C   UNL A   1      46.799  26.760  26.560  1.00  0.00     0.074 A 
ATOM     54  C   UNL A   1      47.029  25.385  26.169  1.00  0.00     0.031 C 
ATOM     55  C   UNL A   1      40.572  26.719  28.199  1.00  0.00     0.029 A 
ATOM     56  C   UNL A   1      41.499  27.847  28.279  1.00  0.00     0.049 A 
ATOM     57  H   UNL A   1      43.494  27.876  27.678  1.00  0.00     0.167 HD
ATOM     58  C   UNL A   1      47.735  27.739  26.503  1.00  0.00     0.034 A 
ATOM     59  C   UNL A   1      41.210  29.078  28.754  1.00  0.00     0.034 A 
ATOM     60  C   UNL A   1      47.491  29.101  26.911  1.00  0.00     0.049 A 
ATOM     61  C   UNL A   1      42.298  30.129  28.776  1.00  0.00     0.074 A 
ATOM     62  C   UNL A   1      48.364  30.174  26.885  1.00  0.00     0.029 A 
ATOM     63  N   UNL A   1      46.295  29.573  27.434  1.00  0.00    -0.354 N 
ATOM     64  N   UNL A   1      43.546  30.038  28.376  1.00  0.00    -0.248 NA
ATOM     65  C   UNL A   1      41.936  31.449  29.308  1.00  0.00     0.031 C 
ATOM     66  C   UNL A   1      47.725  31.271  27.472  1.00  0.00     0.029 A 
ATOM     67  C   UNL A   1      46.420  30.912  27.771  1.00  0.00     0.049 A 
ATOM     68  H   UNL A   1      45.478  29.036  27.549  1.00  0.00     0.167 HD
ATOM     69  C   UNL A   1      44.103  31.301  28.571  1.00  0.00     0.074 A 
ATOM     70  C   UNL A   1      43.053  32.136  29.114  1.00  0.00     0.031 C 
ATOM     71  C   UNL A   1      45.365  31.735  28.318  1.00  0.00     0.034 A 
BRANCH  58  72
ATOM     72  C   UNL A   1      49.118  27.354  26.037  1.00  0.00     0.023 A 
ATOM     73  C   UNL A   1      50.181  27.167  26.937  1.00  0.00     0.031 A 
ATOM     74  C   UNL A   1      49.384  27.197  24.664  1.00  0.00     0.131 A 
ATOM     75  C   UNL A   1      51.470  26.898  26.452  1.00  0.00     0.055 A 
ATOM     76  C   UNL A   1      50.650  26.846  24.194  1.00  0.00     0.041 A 
ATOM     77  F   UNL A   1      48.416  27.391  23.754  1.00  0.00    -0.206 F 
ATOM     78  C   UNL A   1      51.706  26.708  25.089  1.00  0.00     0.022 A 
BRANCH  75  79
ATOM     79  S   UNL A   1      52.861  26.946  27.616  1.00  0.00     0.124 S 
ATOM     80  O   UNL A   1      53.560  25.705  27.290  1.00  0.00    -0.237 OA
ATOM     81  O   UNL A   1      53.543  28.180  27.242  1.00  0.00    -0.237 OA
ATOM     82  O   UNL A   1      52.212  26.962  28.925  1.00  0.00    -0.744 OA
ENDBRANCH  75  79
ENDBRANCH  58  72
BRANCH  59  83
ATOM     83  C   UNL A   1      39.852  29.385  29.295  1.00  0.00     0.023 A 
ATOM     84  C   UNL A   1      39.621  29.468  30.677  1.00  0.00     0.031 A 
ATOM     85  C   UNL A   1      38.747  29.527  28.435  1.00  0.00     0.131 A 
ATOM     86  C   UNL A   1      38.312  29.631  31.160  1.00  0.00     0.055 A 
ATOM     87  C   UNL A   1      37.458  29.754  28.920  1.00  0.00     0.041 A 
ATOM     88  F   UNL A   1      38.905  29.447  27.105  1.00  0.00    -0.206 F 
ATOM     89  C   UNL A   1      37.232  29.792  30.291  1.00  0.00     0.022 A 
BRANCH  86  90
ATOM     90  S   UNL A   1      38.026  29.519  32.949  1.00  0.00     0.124 S 
ATOM     91  O   UNL A   1      39.380  29.651  33.473  1.00  0.00    -0.237 OA
ATOM     92  O   UNL A   1      37.132  30.648  33.182  1.00  0.00    -0.237 OA
ATOM     93  O   UNL A   1      37.418  28.200  33.113  1.00  0.00    -0.744 OA
ENDBRANCH  86  90
ENDBRANCH  59  83
BRANCH  71  94
ATOM     94  C   UNL A   1      45.663  33.196  28.569  1.00  0.00     0.023 A 
ATOM     95  C   UNL A   1      46.292  33.639  29.745  1.00  0.00     0.031 A 
ATOM     96  C   UNL A   1      45.307  34.160  27.607  1.00  0.00     0.131 A 
ATOM     97  C   UNL A   1      46.495  35.012  29.954  1.00  0.00     0.055 A 
ATOM     98  C   UNL A   1      45.576  35.518  27.790  1.00  0.00     0.041 A 
ATOM     99  F   UNL A   1      44.699  33.798  26.467  1.00  0.00    -0.206 F 
ATOM    100  C   UNL A   1      46.161  35.951  28.976  1.00  0.00     0.022 A 
BRANCH  97 101
ATOM    101  S   UNL A   1      47.108  35.565  31.569  1.00  0.00     0.124 S 
ATOM    102  O   UNL A   1      46.646  34.498  32.450  1.00  0.00    -0.237 OA
ATOM    103  O   UNL A   1      48.549  35.633  31.350  1.00  0.00    -0.237 OA
ATOM    104  O   UNL A   1      46.451  36.857  31.762  1.00  0.00    -0.744 OA
ENDBRANCH  97 101
ENDBRANCH  71  94
ENDBRANCH  45  46
ENDBRANCH  38  40
ENDBRANCH  37  38
ENDBRANCH  36  37
ENDBRANCH  35  36
ENDBRANCH  34  35
ENDBRANCH  33  34
ENDBRANCH  32  33
ENDBRANCH  31  32
ENDBRANCH   1  31
TORSDOF 28
ENDMDL
MODEL 2
REMARK VINA RESULT:      -8.4      5.034     10.911
REMARK SMILES NS(=O)(=O)c1ccc(/N=N/c2ccc(O)c(C(=O)OCCOCCOCCOCCOC(=O)c3ccc(-c4c5nc(c(-c6cc(S(=O)(=O)[O-])ccc6F)c6ccc([nH]6)c(-c6cc(S(=O)(=O)[O-])ccc6F)c6nc(c(-c7cc(S(=O)(=O)[O-])ccc7F)c7ccc4[nH]7)C=C6)C=C5)cc3)c2)cc1
REMARK SMILES IDX 24 1 23 2 22 3 21 4 20 5 19 6 17 7 18 8 16 9 11 10 12 11
REMARK SMILES IDX 97 12 13 13 14 14 10 15 9 16 8 17 5 18 6 19 99 20 7 21 98 22
REMARK SMILES IDX 2 23 3 24 4 25 1 26 15 29 25 31 26 32 27 33 28 34 29 35
REMARK SMILES IDX 30 36 31 37 32 38 33 39 34 40 35 41 96 42 36 43 95 44 37 45
REMARK SMILES IDX 38 46 39 47 89 48 40 49 94 50 88 51 90 52 41 53 93 54 87 55
REMARK SMILES IDX 86 56 42 58 74 59 54 60 73 61 55 62 58 63 72 64 91 65 56 66
REMARK SMILES IDX 57 67 71 69 92 70 59 71 43 72 44 73 52 74 45 75 51 76 53 77
REMARK SMILES IDX 50 78 46 79 47 80 48 81 49 82 75 83 76 84 84 85 77 86 83 87
REMARK SMILES IDX 85 88 82 89 78 90 79 91 80 92 81 93 60 94 61 95 69 96 62 97
REMARK SMILES IDX 68 98 70 99 67 100 63 101 64 102 65 103 66 104
REMARK H PARENT 1 27 1 28 15 30 90 57 58 68
REMARK Flexibility Score: inf
ROOT
ATOM      1  C   UNL A   1      38.546  32.032  34.751  1.00  0.00     0.188 C 
ENDROOT
BRANCH   1   2
ATOM      2  C   UNL A   1      39.565  32.093  33.599  1.00  0.00     0.188 C 
BRANCH   2   3
ATOM      3  O   UNL A   1      40.620  31.159  33.705  1.00  0.00    -0.376 OA
BRANCH   3   4
ATOM      4  C   UNL A   1      40.455  29.791  33.383  1.00  0.00     0.202 C 
BRANCH   4   5
ATOM      5  C   UNL A   1      39.143  29.121  32.927  1.00  0.00     0.261 C 
BRANCH   5   6
ATOM      6  O   UNL A   1      39.201  28.112  31.921  1.00  0.00    -0.460 OA
BRANCH   6   7
ATOM      7  C   UNL A   1      39.876  28.387  30.789  1.00  0.00     0.342 C 
ATOM      8  O   UNL A   1      40.930  27.896  30.419  1.00  0.00    -0.246 OA
BRANCH   7   9
ATOM      9  C   UNL A   1      38.990  29.172  29.899  1.00  0.00     0.104 A 
ATOM     10  C   UNL A   1      37.487  31.054  29.528  1.00  0.00     0.087 A 
ATOM     11  C   UNL A   1      37.115  30.477  28.306  1.00  0.00     0.034 A 
ATOM     12  C   UNL A   1      38.424  30.382  30.328  1.00  0.00     0.049 A 
ATOM     13  C   UNL A   1      37.666  29.267  27.878  1.00  0.00     0.049 A 
ATOM     14  C   UNL A   1      38.608  28.621  28.669  1.00  0.00     0.130 A 
BRANCH  10  15
ATOM     15  N   UNL A   1      36.837  32.244  29.911  1.00  0.00    -0.151 NA
ATOM     16  N   UNL A   1      36.184  32.121  30.967  1.00  0.00    -0.151 NA
BRANCH  16  17
ATOM     17  C   UNL A   1      35.531  33.309  31.365  1.00  0.00     0.086 A 
ATOM     18  C   UNL A   1      34.103  35.646  32.014  1.00  0.00     0.082 A 
ATOM     19  C   UNL A   1      33.977  35.089  30.741  1.00  0.00     0.024 A 
ATOM     20  C   UNL A   1      34.943  35.060  32.961  1.00  0.00     0.024 A 
ATOM     21  C   UNL A   1      34.692  33.927  30.427  1.00  0.00     0.031 A 
ATOM     22  C   UNL A   1      35.649  33.897  32.637  1.00  0.00     0.031 A 
BRANCH  18  23
ATOM     23  S   UNL A   1      33.230  37.116  32.470  1.00  0.00     0.238 S 
ATOM     24  O   UNL A   1      32.844  37.807  31.257  1.00  0.00    -0.207 OA
ATOM     25  O   UNL A   1      33.963  37.759  33.528  1.00  0.00    -0.207 OA
BRANCH  23  26
ATOM     26  N   UNL A   1      31.800  36.569  33.153  1.00  0.00    -0.225 NA
ATOM     27  H   UNL A   1      31.931  36.435  34.155  1.00  0.00     0.137 HD
ATOM     28  H   UNL A   1      31.535  35.681  32.723  1.00  0.00     0.137 HD
ENDBRANCH  23  26
ENDBRANCH  18  23
ENDBRANCH  16  17
ENDBRANCH  10  15
BRANCH  14  29
ATOM     29  O   UNL A   1      39.067  27.415  28.209  1.00  0.00    -0.507 OA
ATOM     30  H   UNL A   1      39.979  27.298  28.031  1.00  0.00     0.293 HD
ENDBRANCH  14  29
ENDBRANCH   7   9
ENDBRANCH   6   7
ENDBRANCH   5   6
ENDBRANCH   4   5
ENDBRANCH   3   4
ENDBRANCH   2   3
ENDBRANCH   1   2
BRANCH   1  31
ATOM     31  O   UNL A   1      38.873  32.843  35.865  1.00  0.00    -0.377 OA
BRANCH  31  32
ATOM     32  C   UNL A   1      37.840  33.201  36.784  1.00  0.00     0.188 C 
BRANCH  32  33
ATOM     33  C   UNL A   1      38.015  33.117  38.322  1.00  0.00     0.188 C 
BRANCH  33  34
ATOM     34  O   UNL A   1      39.096  33.875  38.845  1.00  0.00    -0.376 OA
BRANCH  34  35
ATOM     35  C   UNL A   1      38.947  35.279  38.956  1.00  0.00     0.202 C 
BRANCH  35  36
ATOM     36  C   UNL A   1      40.123  36.045  39.575  1.00  0.00     0.261 C 
BRANCH  36  37
ATOM     37  O   UNL A   1      40.654  37.121  38.790  1.00  0.00    -0.460 OA
BRANCH  37  38
ATOM     38  C   UNL A   1      41.999  37.189  38.673  1.00  0.00     0.338 C 
ATOM     39  O   UNL A   1      42.784  37.599  39.509  1.00  0.00    -0.246 OA
BRANCH  38  40
ATOM     40  C   UNL A   1      42.370  36.496  37.421  1.00  0.00     0.060 A 
ATOM     41  C   UNL A   1      41.368  36.158  36.503  1.00  0.00     0.016 A 
ATOM     42  C   UNL A   1      43.709  36.203  37.150  1.00  0.00     0.016 A 
ATOM     43  C   UNL A   1      41.701  35.494  35.322  1.00  0.00     0.010 A 
ATOM     44  C   UNL A   1      44.037  35.519  35.976  1.00  0.00     0.010 A 
ATOM     45  C   UNL A   1      43.031  35.134  35.072  1.00  0.00    -0.014 A 
BRANCH  45  46
ATOM     46  C   UNL A   1      43.349  34.183  33.977  1.00  0.00     0.031 A 
ATOM     47  C   UNL A   1      43.413  34.717  32.571  1.00  0.00     0.074 A 
ATOM     48  C   UNL A   1      43.590  32.883  34.221  1.00  0.00     0.049 A 
ATOM     49  N   UNL A   1      43.597  34.079  31.445  1.00  0.00    -0.248 NA
ATOM     50  C   UNL A   1      43.239  36.171  32.420  1.00  0.00     0.031 C 
ATOM     51  C   UNL A   1      43.609  32.260  35.544  1.00  0.00     0.029 A 
ATOM     52  N   UNL A   1      43.857  31.847  33.359  1.00  0.00    -0.354 N 
ATOM     53  C   UNL A   1      43.553  35.051  30.450  1.00  0.00     0.074 A 
ATOM     54  C   UNL A   1      43.286  36.313  31.105  1.00  0.00     0.031 C 
ATOM     55  C   UNL A   1      43.863  30.948  35.403  1.00  0.00     0.029 A 
ATOM     56  C   UNL A   1      43.978  30.626  33.981  1.00  0.00     0.049 A 
ATOM     57  H   UNL A   1      43.950  31.967  32.386  1.00  0.00     0.167 HD
ATOM     58  C   UNL A   1      43.725  34.903  29.114  1.00  0.00     0.034 A 
ATOM     59  C   UNL A   1      44.131  29.391  33.459  1.00  0.00     0.034 A 
ATOM     60  C   UNL A   1      43.976  33.634  28.476  1.00  0.00     0.049 A 
ATOM     61  C   UNL A   1      44.220  29.236  31.956  1.00  0.00     0.074 A 
ATOM     62  C   UNL A   1      44.177  33.372  27.133  1.00  0.00     0.029 A 
ATOM     63  N   UNL A   1      44.043  32.413  29.133  1.00  0.00    -0.354 N 
ATOM     64  N   UNL A   1      44.181  30.162  31.024  1.00  0.00    -0.248 NA
ATOM     65  C   UNL A   1      44.380  27.872  31.437  1.00  0.00     0.031 C 
ATOM     66  C   UNL A   1      44.278  31.987  26.968  1.00  0.00     0.029 A 
ATOM     67  C   UNL A   1      44.243  31.391  28.218  1.00  0.00     0.049 A 
ATOM     68  H   UNL A   1      43.961  32.290  30.107  1.00  0.00     0.167 HD
ATOM     69  C   UNL A   1      44.353  29.493  29.814  1.00  0.00     0.074 A 
ATOM     70  C   UNL A   1      44.505  28.089  30.135  1.00  0.00     0.031 C 
ATOM     71  C   UNL A   1      44.389  29.992  28.550  1.00  0.00     0.034 A 
BRANCH  58  72
ATOM     72  C   UNL A   1      43.590  36.136  28.253  1.00  0.00     0.023 A 
ATOM     73  C   UNL A   1      44.693  36.949  27.939  1.00  0.00     0.031 A 
ATOM     74  C   UNL A   1      42.330  36.519  27.759  1.00  0.00     0.131 A 
ATOM     75  C   UNL A   1      44.505  38.133  27.211  1.00  0.00     0.055 A 
ATOM     76  C   UNL A   1      42.163  37.653  26.964  1.00  0.00     0.041 A 
ATOM     77  F   UNL A   1      41.234  35.799  28.050  1.00  0.00    -0.206 F 
ATOM     78  C   UNL A   1      43.253  38.476  26.697  1.00  0.00     0.022 A 
BRANCH  75  79
ATOM     79  S   UNL A   1      45.893  39.294  27.070  1.00  0.00     0.124 S 
ATOM     80  O   UNL A   1      45.238  40.570  27.346  1.00  0.00    -0.237 OA
ATOM     81  O   UNL A   1      46.812  38.812  28.094  1.00  0.00    -0.237 OA
ATOM     82  O   UNL A   1      46.346  39.120  25.691  1.00  0.00    -0.744 OA
ENDBRANCH  75  79
ENDBRANCH  58  72
BRANCH  59  83
ATOM     83  C   UNL A   1      44.164  28.189  34.344  1.00  0.00     0.023 A 
ATOM     84  C   UNL A   1      42.979  27.597  34.813  1.00  0.00     0.031 A 
ATOM     85  C   UNL A   1      45.386  27.657  34.797  1.00  0.00     0.131 A 
ATOM     86  C   UNL A   1      43.041  26.548  35.745  1.00  0.00     0.055 A 
ATOM     87  C   UNL A   1      45.441  26.571  35.673  1.00  0.00     0.041 A 
ATOM     88  F   UNL A   1      46.550  28.187  34.390  1.00  0.00    -0.206 F 
ATOM     89  C   UNL A   1      44.263  26.021  36.164  1.00  0.00     0.022 A 
BRANCH  86  90
ATOM     90  S   UNL A   1      41.495  25.955  36.488  1.00  0.00     0.124 S 
ATOM     91  O   UNL A   1      41.080  27.114  37.269  1.00  0.00    -0.237 OA
ATOM     92  O   UNL A   1      40.691  25.651  35.309  1.00  0.00    -0.237 OA
ATOM     93  O   UNL A   1      41.918  24.793  37.268  1.00  0.00    -0.744 OA
ENDBRANCH  86  90
ENDBRANCH  59  83
BRANCH  71  94
ATOM     94  C   UNL A   1      44.663  29.020  27.426  1.00  0.00     0.023 A 
ATOM     95  C   UNL A   1      43.711  28.076  27.005  1.00  0.00     0.031 A 
ATOM     96  C   UNL A   1      45.905  29.045  26.763  1.00  0.00     0.131 A 
ATOM     97  C   UNL A   1      44.037  27.159  25.993  1.00  0.00     0.055 A 
ATOM     98  C   UNL A   1      46.196  28.177  25.709  1.00  0.00     0.041 A 
ATOM     99  F   UNL A   1      46.856  29.921  27.124  1.00  0.00    -0.206 F 
ATOM    100  C   UNL A   1      45.263  27.217  25.329  1.00  0.00     0.022 A 
BRANCH  97 101
ATOM    101  S   UNL A   1      42.870  25.818  25.626  1.00  0.00     0.124 S 
ATOM    102  O   UNL A   1      42.521  25.346  26.962  1.00  0.00    -0.237 OA
ATOM    103  O   UNL A   1      41.814  26.513  24.899  1.00  0.00    -0.237 OA
ATOM    104  O   UNL A   1      43.662  24.885  24.825  1.00  0.00    -0.744 OA
ENDBRANCH  97 101
ENDBRANCH  71  94
ENDBRANCH  45  46
ENDBRANCH  38  40
ENDBRANCH  37  38
ENDBRANCH  36  37
ENDBRANCH  35  36
ENDBRANCH  34  35
ENDBRANCH  33  34
ENDBRANCH  32  33
ENDBRANCH  31  32
ENDBRANCH   1  31
TORSDOF 28
ENDMDL
MODEL 3
REMARK VINA RESULT:      -8.2      6.441     11.960
REMARK SMILES NS(=O)(=O)c1ccc(/N=N/c2ccc(O)c(C(=O)OCCOCCOCCOCCOC(=O)c3ccc(-c4c5nc(c(-c6cc(S(=O)(=O)[O-])ccc6F)c6ccc([nH]6)c(-c6cc(S(=O)(=O)[O-])ccc6F)c6nc(c(-c7cc(S(=O)(=O)[O-])ccc7F)c7ccc4[nH]7)C=C6)C=C5)cc3)c2)cc1
REMARK SMILES IDX 24 1 23 2 22 3 21 4 20 5 19 6 17 7 18 8 16 9 11 10 12 11
REMARK SMILES IDX 97 12 13 13 14 14 10 15 9 16 8 17 5 18 6 19 99 20 7 21 98 22
REMARK SMILES IDX 2 23 3 24 4 25 1 26 15 29 25 31 26 32 27 33 28 34 29 35
REMARK SMILES IDX 30 36 31 37 32 38 33 39 34 40 35 41 96 42 36 43 95 44 37 45
REMARK SMILES IDX 38 46 39 47 89 48 40 49 94 50 88 51 90 52 41 53 93 54 87 55
REMARK SMILES IDX 86 56 42 58 74 59 54 60 73 61 55 62 58 63 72 64 91 65 56 66
REMARK SMILES IDX 57 67 71 69 92 70 59 71 43 72 44 73 52 74 45 75 51 76 53 77
REMARK SMILES IDX 50 78 46 79 47 80 48 81 49 82 75 83 76 84 84 85 77 86 83 87
REMARK SMILES IDX 85 88 82 89 78 90 79 91 80 92 81 93 60 94 61 95 69 96 62 97
REMARK SMILES IDX 68 98 70 99 67 100 63 101 64 102 65 103 66 104
REMARK H PARENT 1 27 1 28 15 30 90 57 58 68
REMARK Flexibility Score: inf
ROOT
ATOM      1  C   UNL A   1      33.881  36.672  32.668  1.00  0.00     0.188 C 
ENDROOT
BRANCH   1   2
ATOM      2  C   UNL A   1      32.899  36.592  31.485  1.00  0.00     0.188 C 
BRANCH   2   3
ATOM      3  O   UNL A   1      33.278  37.360  30.361  1.00  0.00    -0.376 OA
BRANCH   3   4
ATOM      4  C   UNL A   1      33.265  36.834  29.046  1.00  0.00     0.202 C 
BRANCH   4   5
ATOM      5  C   UNL A   1      34.455  36.168  28.327  1.00  0.00     0.261 C 
BRANCH   5   6
ATOM      6  O   UNL A   1      34.258  34.899  27.707  1.00  0.00    -0.460 OA
BRANCH   6   7
ATOM      7  C   UNL A   1      33.663  33.930  28.428  1.00  0.00     0.342 C 
ATOM      8  O   UNL A   1      32.635  34.019  29.079  1.00  0.00    -0.246 OA
BRANCH   7   9
ATOM      9  C   UNL A   1      34.288  32.636  28.073  1.00  0.00     0.104 A 
ATOM     10  C   UNL A   1      34.095  30.303  27.397  1.00  0.00     0.087 A 
ATOM     11  C   UNL A   1      35.457  30.138  27.680  1.00  0.00     0.034 A 
ATOM     12  C   UNL A   1      33.514  31.562  27.609  1.00  0.00     0.049 A 
ATOM     13  C   UNL A   1      36.233  31.200  28.152  1.00  0.00     0.049 A 
ATOM     14  C   UNL A   1      35.651  32.447  28.340  1.00  0.00     0.130 A 
BRANCH  10  15
ATOM     15  N   UNL A   1      33.374  29.164  26.982  1.00  0.00    -0.151 NA
ATOM     16  N   UNL A   1      34.100  28.295  26.460  1.00  0.00    -0.151 NA
BRANCH  16  17
ATOM     17  C   UNL A   1      33.392  27.146  26.044  1.00  0.00     0.086 A 
ATOM     18  C   UNL A   1      32.144  24.794  25.130  1.00  0.00     0.082 A 
ATOM     19  C   UNL A   1      33.321  25.233  24.524  1.00  0.00     0.024 A 
ATOM     20  C   UNL A   1      31.574  25.521  26.176  1.00  0.00     0.024 A 
ATOM     21  C   UNL A   1      33.935  26.405  24.984  1.00  0.00     0.031 A 
ATOM     22  C   UNL A   1      32.199  26.688  26.630  1.00  0.00     0.031 A 
BRANCH  18  23
ATOM     23  S   UNL A   1      31.319  23.325  24.591  1.00  0.00     0.238 S 
ATOM     24  O   UNL A   1      32.270  22.232  24.631  1.00  0.00    -0.207 OA
ATOM     25  O   UNL A   1      30.559  23.647  23.413  1.00  0.00    -0.207 OA
BRANCH  23  26
ATOM     26  N   UNL A   1      30.202  22.995  25.797  1.00  0.00    -0.225 NA
ATOM     27  H   UNL A   1      30.254  22.008  26.048  1.00  0.00     0.137 HD
ATOM     28  H   UNL A   1      29.263  23.212  25.460  1.00  0.00     0.137 HD
ENDBRANCH  23  26
ENDBRANCH  18  23
ENDBRANCH  16  17
ENDBRANCH  10  15
BRANCH  14  29
ATOM     29  O   UNL A   1      36.460  33.426  28.853  1.00  0.00    -0.507 OA
ATOM     30  H   UNL A   1      36.377  33.679  29.751  1.00  0.00     0.293 HD
ENDBRANCH  14  29
ENDBRANCH   7   9
ENDBRANCH   6   7
ENDBRANCH   5   6
ENDBRANCH   4   5
ENDBRANCH   3   4
ENDBRANCH   2   3
ENDBRANCH   1   2
BRANCH   1  31
ATOM     31  O   UNL A   1      34.866  35.655  32.681  1.00  0.00    -0.377 OA
BRANCH  31  32
ATOM     32  C   UNL A   1      34.611  34.440  31.975  1.00  0.00     0.188 C 
BRANCH  32  33
ATOM     33  C   UNL A   1      34.730  33.041  32.633  1.00  0.00     0.188 C 
BRANCH  33  34
ATOM     34  O   UNL A   1      35.737  32.932  33.629  1.00  0.00    -0.376 OA
BRANCH  34  35
ATOM     35  C   UNL A   1      36.723  31.925  33.486  1.00  0.00     0.202 C 
BRANCH  35  36
ATOM     36  C   UNL A   1      37.740  32.121  32.354  1.00  0.00     0.261 C 
BRANCH  36  37
ATOM     37  O   UNL A   1      38.996  31.450  32.518  1.00  0.00    -0.460 OA
BRANCH  37  38
ATOM     38  C   UNL A   1      40.113  32.205  32.413  1.00  0.00     0.338 C 
ATOM     39  O   UNL A   1      40.186  33.417  32.508  1.00  0.00    -0.246 OA
BRANCH  38  40
ATOM     40  C   UNL A   1      41.267  31.284  32.353  1.00  0.00     0.060 A 
ATOM     41  C   UNL A   1      41.038  29.905  32.259  1.00  0.00     0.016 A 
ATOM     42  C   UNL A   1      42.570  31.786  32.369  1.00  0.00     0.016 A 
ATOM     43  C   UNL A   1      42.117  29.021  32.214  1.00  0.00     0.010 A 
ATOM     44  C   UNL A   1      43.649  30.898  32.344  1.00  0.00     0.010 A 
ATOM     45  C   UNL A   1      43.427  29.510  32.298  1.00  0.00    -0.014 A 
BRANCH  45  46
ATOM     46  C   UNL A   1      44.553  28.575  32.543  1.00  0.00     0.031 A 
ATOM     47  C   UNL A   1      44.836  28.163  33.962  1.00  0.00     0.074 A 
ATOM     48  C   UNL A   1      45.298  28.090  31.533  1.00  0.00     0.049 A 
ATOM     49  N   UNL A   1      45.803  27.421  34.438  1.00  0.00    -0.248 NA
ATOM     50  C   UNL A   1      43.901  28.663  34.983  1.00  0.00     0.031 C 
ATOM     51  C   UNL A   1      45.088  28.374  30.115  1.00  0.00     0.029 A 
ATOM     52  N   UNL A   1      46.393  27.260  31.550  1.00  0.00    -0.354 N 
ATOM     53  C   UNL A   1      45.597  27.372  35.813  1.00  0.00     0.074 A 
ATOM     54  C   UNL A   1      44.438  28.191  36.096  1.00  0.00     0.031 C 
ATOM     55  C   UNL A   1      46.031  27.737  29.399  1.00  0.00     0.029 A 
ATOM     56  C   UNL A   1      46.939  27.038  30.307  1.00  0.00     0.049 A 
ATOM     57  H   UNL A   1      46.754  26.862  32.375  1.00  0.00     0.167 HD
ATOM     58  C   UNL A   1      46.308  26.701  36.752  1.00  0.00     0.034 A 
ATOM     59  C   UNL A   1      48.060  26.376  29.951  1.00  0.00     0.034 A 
ATOM     60  C   UNL A   1      47.471  25.901  36.453  1.00  0.00     0.049 A 
ATOM     61  C   UNL A   1      48.896  25.719  31.028  1.00  0.00     0.074 A 
ATOM     62  C   UNL A   1      48.258  25.171  37.325  1.00  0.00     0.029 A 
ATOM     63  N   UNL A   1      48.023  25.741  35.190  1.00  0.00    -0.354 N 
ATOM     64  N   UNL A   1      48.691  25.675  32.325  1.00  0.00    -0.248 NA
ATOM     65  C   UNL A   1      50.110  25.016  30.590  1.00  0.00     0.031 C 
ATOM     66  C   UNL A   1      49.332  24.641  36.604  1.00  0.00     0.029 A 
ATOM     67  C   UNL A   1      49.162  24.955  35.265  1.00  0.00     0.049 A 
ATOM     68  H   UNL A   1      47.658  26.128  34.361  1.00  0.00     0.167 HD
ATOM     69  C   UNL A   1      49.729  24.906  32.849  1.00  0.00     0.074 A 
ATOM     70  C   UNL A   1      50.550  24.499  31.729  1.00  0.00     0.031 C 
ATOM     71  C   UNL A   1      49.977  24.559  34.139  1.00  0.00     0.034 A 
BRANCH  58  72
ATOM     72  C   UNL A   1      45.879  26.853  38.191  1.00  0.00     0.023 A 
ATOM     73  C   UNL A   1      46.342  27.908  38.998  1.00  0.00     0.031 A 
ATOM     74  C   UNL A   1      45.011  25.912  38.774  1.00  0.00     0.131 A 
ATOM     75  C   UNL A   1      45.987  27.959  40.354  1.00  0.00     0.055 A 
ATOM     76  C   UNL A   1      44.595  26.016  40.102  1.00  0.00     0.041 A 
ATOM     77  F   UNL A   1      44.560  24.867  38.063  1.00  0.00    -0.206 F 
ATOM     78  C   UNL A   1      45.095  27.037  40.905  1.00  0.00     0.022 A 
BRANCH  75  79
ATOM     79  S   UNL A   1      46.825  29.161  41.424  1.00  0.00     0.124 S 
ATOM     80  O   UNL A   1      47.203  30.196  40.465  1.00  0.00    -0.237 OA
ATOM     81  O   UNL A   1      45.778  29.522  42.373  1.00  0.00    -0.237 OA
ATOM     82  O   UNL A   1      47.941  28.402  41.984  1.00  0.00    -0.744 OA
ENDBRANCH  75  79
ENDBRANCH  58  72
BRANCH  59  83
ATOM     83  C   UNL A   1      48.498  26.334  28.524  1.00  0.00     0.023 A 
ATOM     84  C   UNL A   1      49.337  27.325  27.989  1.00  0.00     0.031 A 
ATOM     85  C   UNL A   1      48.022  25.338  27.651  1.00  0.00     0.131 A 
ATOM     86  C   UNL A   1      49.629  27.330  26.615  1.00  0.00     0.055 A 
ATOM     87  C   UNL A   1      48.368  25.311  26.299  1.00  0.00     0.041 A 
ATOM     88  F   UNL A   1      47.209  24.370  28.103  1.00  0.00    -0.206 F 
ATOM     89  C   UNL A   1      49.164  26.321  25.771  1.00  0.00     0.022 A 
BRANCH  86  90
ATOM     90  S   UNL A   1      50.536  28.743  25.926  1.00  0.00     0.124 S 
ATOM     91  O   UNL A   1      51.880  28.509  26.439  1.00  0.00    -0.237 OA
ATOM     92  O   UNL A   1      50.352  28.548  24.492  1.00  0.00    -0.237 OA
ATOM     93  O   UNL A   1      49.843  29.899  26.490  1.00  0.00    -0.744 OA
ENDBRANCH  86  90
ENDBRANCH  59  83
BRANCH  71  94
ATOM     94  C   UNL A   1      51.153  23.647  34.401  1.00  0.00     0.023 A 
ATOM     95  C   UNL A   1      51.028  22.247  34.403  1.00  0.00     0.031 A 
ATOM     96  C   UNL A   1      52.425  24.195  34.652  1.00  0.00     0.131 A 
ATOM     97  C   UNL A   1      52.140  21.446  34.707  1.00  0.00     0.055 A 
ATOM     98  C   UNL A   1      53.542  23.390  34.883  1.00  0.00     0.041 A 
ATOM     99  F   UNL A   1      52.606  25.525  34.669  1.00  0.00    -0.206 F 
ATOM    100  C   UNL A   1      53.399  22.007  34.926  1.00  0.00     0.022 A 
BRANCH  97 101
ATOM    101  S   UNL A   1      51.895  19.660  34.915  1.00  0.00     0.124 S 
ATOM    102  O   UNL A   1      52.439  19.433  36.250  1.00  0.00    -0.237 OA
ATOM    103  O   UNL A   1      50.448  19.525  34.784  1.00  0.00    -0.237 OA
ATOM    104  O   UNL A   1      52.672  19.078  33.821  1.00  0.00    -0.744 OA
ENDBRANCH  97 101
ENDBRANCH  71  94
ENDBRANCH  45  46
ENDBRANCH  38  40
ENDBRANCH  37  38
ENDBRANCH  36  37
ENDBRANCH  35  36
ENDBRANCH  34  35
ENDBRANCH  33  34
ENDBRANCH  32  33
ENDBRANCH  31  32
ENDBRANCH   1  31
TORSDOF 28
ENDMDL
