MODEL 1
REMARK VINA RESULT:      -8.8      0.000      0.000
REMARK SMILES O=C1C[C@@H](C(=O)Nc2cccc(C(=O)OCCOCCOCCOCCOC(=O)c3ccc(-c4c5nc(c(-c6cc(S(=O)(=O)[O-])ccc6F)c6ccc([nH]6)c(-c6cc(S(=O)(=O)[O-])ccc6F)c6nc(c(-c7cc(S(=O)(=O)[O-])ccc7F)c7ccc4[nH]7)C=C6)C=C5)cc3)c2)[C@H](c2ccccc2)O1
REMARK SMILES IDX 21 1 20 2 19 3 18 4 17 5 16 6 15 7 13 8 14 9 12 10 8 11 9 12
REMARK SMILES IDX 93 13 10 14 11 15 7 16 5 17 6 18 4 20 1 21 2 22 3 23 101 24
REMARK SMILES IDX 94 25 95 26 96 27 100 28 97 29 99 30 98 31 22 32 23 33 24 34
REMARK SMILES IDX 25 35 26 36 27 37 28 38 29 39 30 40 31 41 92 42 32 43 91 44
REMARK SMILES IDX 33 45 34 46 35 47 85 48 36 49 90 50 84 51 86 52 37 53 89 54
REMARK SMILES IDX 83 55 82 56 38 58 70 59 50 60 69 61 51 62 54 63 68 64 87 65
REMARK SMILES IDX 52 66 53 67 67 69 88 70 55 71 39 72 40 73 48 74 41 75 47 76
REMARK SMILES IDX 49 77 46 78 42 79 43 80 44 81 45 82 71 83 72 84 80 85 73 86
REMARK SMILES IDX 79 87 81 88 78 89 74 90 75 91 76 92 77 93 56 94 57 95 65 96
REMARK SMILES IDX 58 97 64 98 66 99 63 100 59 101 60 102 61 103 62 104
REMARK H PARENT 7 19 86 57 54 68
REMARK Flexibility Score: inf
ROOT
ATOM      1  O   UNL A   1      32.793  35.158  32.432  1.00  0.00    -0.377 OA
ENDROOT
BRANCH   1   2
ATOM      2  C   UNL A   1      33.999  34.841  33.094  1.00  0.00     0.188 C 
BRANCH   2   3
ATOM      3  C   UNL A   1      34.490  33.406  32.826  1.00  0.00     0.188 C 
BRANCH   3   4
ATOM      4  O   UNL A   1      35.876  33.125  32.746  1.00  0.00    -0.376 OA
BRANCH   4   5
ATOM      5  C   UNL A   1      36.910  33.911  33.317  1.00  0.00     0.202 C 
BRANCH   5   6
ATOM      6  C   UNL A   1      38.415  33.855  33.003  1.00  0.00     0.261 C 
BRANCH   6   7
ATOM      7  O   UNL A   1      38.926  34.770  32.049  1.00  0.00    -0.460 OA
BRANCH   7   8
ATOM      8  C   UNL A   1      38.872  34.383  30.759  1.00  0.00     0.338 C 
ATOM      9  O   UNL A   1      37.881  34.249  30.067  1.00  0.00    -0.246 OA
BRANCH   8  10
ATOM     10  C   UNL A   1      40.266  34.299  30.257  1.00  0.00     0.062 A 
ATOM     11  C   UNL A   1      42.367  33.112  30.156  1.00  0.00     0.042 A 
ATOM     12  C   UNL A   1      42.837  34.040  29.225  1.00  0.00     0.026 A 
ATOM     13  C   UNL A   1      41.143  33.335  30.763  1.00  0.00     0.041 A 
ATOM     14  C   UNL A   1      42.008  35.081  28.789  1.00  0.00     0.003 A 
ATOM     15  C   UNL A   1      40.701  35.179  29.268  1.00  0.00     0.016 A 
BRANCH  11  16
ATOM     16  N   UNL A   1      43.128  31.966  30.416  1.00  0.00    -0.326 N 
ATOM     17  C   UNL A   1      44.049  31.315  29.631  1.00  0.00     0.232 C 
ATOM     18  O   UNL A   1      44.553  30.289  30.096  1.00  0.00    -0.274 OA
ATOM     19  H   UNL A   1      42.980  31.562  31.302  1.00  0.00     0.169 HD
BRANCH  17  20
ATOM     20  C   UNL A   1      44.556  31.913  28.312  1.00  0.00     0.135 C 
ATOM     21  O   UNL A   1      45.377  29.333  26.033  1.00  0.00    -0.252 OA
ATOM     22  C   UNL A   1      45.333  30.253  26.833  1.00  0.00     0.307 C 
ATOM     23  C   UNL A   1      44.128  31.089  27.116  1.00  0.00     0.140 C 
ATOM     24  O   UNL A   1      46.418  30.702  27.524  1.00  0.00    -0.457 OA
ATOM     25  C   UNL A   1      46.080  31.877  28.268  1.00  0.00     0.220 C 
BRANCH  25  26
ATOM     26  C   UNL A   1      46.718  33.111  27.642  1.00  0.00    -0.007 A 
ATOM     27  C   UNL A   1      47.633  33.044  26.581  1.00  0.00     0.007 A 
ATOM     28  C   UNL A   1      46.374  34.384  28.122  1.00  0.00     0.007 A 
ATOM     29  C   UNL A   1      48.133  34.210  25.987  1.00  0.00     0.000 A 
ATOM     30  C   UNL A   1      46.841  35.548  27.505  1.00  0.00     0.000 A 
ATOM     31  C   UNL A   1      47.713  35.461  26.429  1.00  0.00     0.000 A 
ENDBRANCH  25  26
ENDBRANCH  17  20
ENDBRANCH  11  16
ENDBRANCH   8  10
ENDBRANCH   7   8
ENDBRANCH   6   7
ENDBRANCH   5   6
ENDBRANCH   4   5
ENDBRANCH   3   4
ENDBRANCH   2   3
ENDBRANCH   1   2
BRANCH   1  32
ATOM     32  C   UNL A   1      32.768  36.387  31.710  1.00  0.00     0.188 C 
BRANCH  32  33
ATOM     33  C   UNL A   1      32.808  36.365  30.164  1.00  0.00     0.188 C 
BRANCH  33  34
ATOM     34  O   UNL A   1      32.754  35.066  29.586  1.00  0.00    -0.376 OA
BRANCH  34  35
ATOM     35  C   UNL A   1      33.963  34.414  29.238  1.00  0.00     0.202 C 
BRANCH  35  36
ATOM     36  C   UNL A   1      34.049  33.825  27.822  1.00  0.00     0.261 C 
BRANCH  36  37
ATOM     37  O   UNL A   1      35.014  32.781  27.638  1.00  0.00    -0.460 OA
BRANCH  37  38
ATOM     38  C   UNL A   1      34.577  31.512  27.813  1.00  0.00     0.338 C 
ATOM     39  O   UNL A   1      33.457  31.093  27.605  1.00  0.00    -0.246 OA
BRANCH  38  40
ATOM     40  C   UNL A   1      35.756  30.669  28.106  1.00  0.00     0.060 A 
ATOM     41  C   UNL A   1      35.717  29.819  29.218  1.00  0.00     0.016 A 
ATOM     42  C   UNL A   1      36.887  30.715  27.288  1.00  0.00     0.016 A 
ATOM     43  C   UNL A   1      36.828  29.041  29.540  1.00  0.00     0.010 A 
ATOM     44  C   UNL A   1      38.008  29.953  27.625  1.00  0.00     0.010 A 
ATOM     45  C   UNL A   1      37.996  29.141  28.774  1.00  0.00    -0.014 A 
BRANCH  45  46
ATOM     46  C   UNL A   1      39.263  28.578  29.303  1.00  0.00     0.031 A 
ATOM     47  C   UNL A   1      39.871  29.228  30.518  1.00  0.00     0.074 A 
ATOM     48  C   UNL A   1      39.835  27.489  28.757  1.00  0.00     0.049 A 
ATOM     49  N   UNL A   1      40.992  28.960  31.133  1.00  0.00    -0.248 NA
ATOM     50  C   UNL A   1      39.104  30.334  31.117  1.00  0.00     0.031 C 
ATOM     51  C   UNL A   1      39.307  26.738  27.620  1.00  0.00     0.029 A 
ATOM     52  N   UNL A   1      40.992  26.829  29.088  1.00  0.00    -0.354 N 
ATOM     53  C   UNL A   1      41.061  29.853  32.197  1.00  0.00     0.074 A 
ATOM     54  C   UNL A   1      39.894  30.705  32.111  1.00  0.00     0.031 C 
ATOM     55  C   UNL A   1      40.149  25.729  27.337  1.00  0.00     0.029 A 
ATOM     56  C   UNL A   1      41.296  25.787  28.243  1.00  0.00     0.049 A 
ATOM     57  H   UNL A   1      41.554  27.080  29.857  1.00  0.00     0.167 HD
ATOM     58  C   UNL A   1      42.000  29.942  33.169  1.00  0.00     0.034 A 
ATOM     59  C   UNL A   1      42.388  24.996  28.190  1.00  0.00     0.034 A 
ATOM     60  C   UNL A   1      43.169  29.103  33.231  1.00  0.00     0.049 A 
ATOM     61  C   UNL A   1      43.485  25.195  29.215  1.00  0.00     0.074 A 
ATOM     62  C   UNL A   1      44.201  29.128  34.154  1.00  0.00     0.029 A 
ATOM     63  N   UNL A   1      43.467  28.089  32.331  1.00  0.00    -0.354 N 
ATOM     64  N   UNL A   1      43.545  26.052  30.210  1.00  0.00    -0.248 NA
ATOM     65  C   UNL A   1      44.657  24.312  29.118  1.00  0.00     0.031 C 
ATOM     66  C   UNL A   1      45.154  28.180  33.772  1.00  0.00     0.029 A 
ATOM     67  C   UNL A   1      44.677  27.499  32.663  1.00  0.00     0.049 A 
ATOM     68  H   UNL A   1      42.902  27.826  31.568  1.00  0.00     0.167 HD
ATOM     69  C   UNL A   1      44.739  25.779  30.877  1.00  0.00     0.074 A 
ATOM     70  C   UNL A   1      45.357  24.670  30.183  1.00  0.00     0.031 C 
ATOM     71  C   UNL A   1      45.277  26.387  31.966  1.00  0.00     0.034 A 
BRANCH  58  72
ATOM     72  C   UNL A   1      41.814  31.011  34.218  1.00  0.00     0.023 A 
ATOM     73  C   UNL A   1      40.741  30.970  35.125  1.00  0.00     0.031 A 
ATOM     74  C   UNL A   1      42.711  32.089  34.305  1.00  0.00     0.131 A 
ATOM     75  C   UNL A   1      40.560  32.016  36.041  1.00  0.00     0.055 A 
ATOM     76  C   UNL A   1      42.571  33.086  35.272  1.00  0.00     0.041 A 
ATOM     77  F   UNL A   1      43.738  32.195  33.448  1.00  0.00    -0.206 F 
ATOM     78  C   UNL A   1      41.483  33.060  36.139  1.00  0.00     0.022 A 
BRANCH  75  79
ATOM     79  S   UNL A   1      39.030  32.060  37.014  1.00  0.00     0.124 S 
ATOM     80  O   UNL A   1      38.368  33.243  36.468  1.00  0.00    -0.237 OA
ATOM     81  O   UNL A   1      38.414  30.778  36.694  1.00  0.00    -0.237 OA
ATOM     82  O   UNL A   1      39.503  32.200  38.390  1.00  0.00    -0.744 OA
ENDBRANCH  75  79
ENDBRANCH  58  72
BRANCH  59  83
ATOM     83  C   UNL A   1      42.549  23.980  27.106  1.00  0.00     0.023 A 
ATOM     84  C   UNL A   1      41.919  22.727  27.178  1.00  0.00     0.031 A 
ATOM     85  C   UNL A   1      43.422  24.212  26.026  1.00  0.00     0.131 A 
ATOM     86  C   UNL A   1      42.228  21.730  26.239  1.00  0.00     0.055 A 
ATOM     87  C   UNL A   1      43.671  23.242  25.053  1.00  0.00     0.041 A 
ATOM     88  F   UNL A   1      44.058  25.388  25.906  1.00  0.00    -0.206 F 
ATOM     89  C   UNL A   1      43.089  21.985  25.168  1.00  0.00     0.022 A 
BRANCH  86  90
ATOM     90  S   UNL A   1      41.601  20.051  26.519  1.00  0.00     0.124 S 
ATOM     91  O   UNL A   1      42.183  19.328  25.394  1.00  0.00    -0.237 OA
ATOM     92  O   UNL A   1      42.148  19.740  27.835  1.00  0.00    -0.237 OA
ATOM     93  O   UNL A   1      40.149  20.217  26.472  1.00  0.00    -0.744 OA
ENDBRANCH  86  90
ENDBRANCH  59  83
BRANCH  71  94
ATOM     94  C   UNL A   1      46.565  25.817  32.515  1.00  0.00     0.023 A 
ATOM     95  C   UNL A   1      47.811  26.085  31.923  1.00  0.00     0.031 A 
ATOM     96  C   UNL A   1      46.539  24.991  33.654  1.00  0.00     0.131 A 
ATOM     97  C   UNL A   1      48.972  25.485  32.436  1.00  0.00     0.055 A 
ATOM     98  C   UNL A   1      47.704  24.453  34.200  1.00  0.00     0.041 A 
ATOM     99  F   UNL A   1      45.377  24.700  34.261  1.00  0.00    -0.206 F 
ATOM    100  C   UNL A   1      48.928  24.687  33.582  1.00  0.00     0.022 A 
BRANCH  97 101
ATOM    101  S   UNL A   1      50.529  25.681  31.527  1.00  0.00     0.124 S 
ATOM    102  O   UNL A   1      50.787  24.320  31.070  1.00  0.00    -0.237 OA
ATOM    103  O   UNL A   1      50.167  26.643  30.492  1.00  0.00    -0.237 OA
ATOM    104  O   UNL A   1      51.457  26.182  32.540  1.00  0.00    -0.744 OA
ENDBRANCH  97 101
ENDBRANCH  71  94
ENDBRANCH  45  46
ENDBRANCH  38  40
ENDBRANCH  37  38
ENDBRANCH  36  37
ENDBRANCH  35  36
ENDBRANCH  34  35
ENDBRANCH  33  34
ENDBRANCH  32  33
ENDBRANCH   1  32
TORSDOF 26
ENDMDL
MODEL 2
REMARK VINA RESULT:      -8.7      5.079     12.463
REMARK SMILES O=C1C[C@@H](C(=O)Nc2cccc(C(=O)OCCOCCOCCOCCOC(=O)c3ccc(-c4c5nc(c(-c6cc(S(=O)(=O)[O-])ccc6F)c6ccc([nH]6)c(-c6cc(S(=O)(=O)[O-])ccc6F)c6nc(c(-c7cc(S(=O)(=O)[O-])ccc7F)c7ccc4[nH]7)C=C6)C=C5)cc3)c2)[C@H](c2ccccc2)O1
REMARK SMILES IDX 21 1 20 2 19 3 18 4 17 5 16 6 15 7 13 8 14 9 12 10 8 11 9 12
REMARK SMILES IDX 93 13 10 14 11 15 7 16 5 17 6 18 4 20 1 21 2 22 3 23 101 24
REMARK SMILES IDX 94 25 95 26 96 27 100 28 97 29 99 30 98 31 22 32 23 33 24 34
REMARK SMILES IDX 25 35 26 36 27 37 28 38 29 39 30 40 31 41 92 42 32 43 91 44
REMARK SMILES IDX 33 45 34 46 35 47 85 48 36 49 90 50 84 51 86 52 37 53 89 54
REMARK SMILES IDX 83 55 82 56 38 58 70 59 50 60 69 61 51 62 54 63 68 64 87 65
REMARK SMILES IDX 52 66 53 67 67 69 88 70 55 71 39 72 40 73 48 74 41 75 47 76
REMARK SMILES IDX 49 77 46 78 42 79 43 80 44 81 45 82 71 83 72 84 80 85 73 86
REMARK SMILES IDX 79 87 81 88 78 89 74 90 75 91 76 92 77 93 56 94 57 95 65 96
REMARK SMILES IDX 58 97 64 98 66 99 63 100 59 101 60 102 61 103 62 104
REMARK H PARENT 7 19 86 57 54 68
REMARK Flexibility Score: inf
ROOT
ATOM      1  O   UNL A   1      37.068  30.830  29.109  1.00  0.00    -0.377 OA
ENDROOT
BRANCH   1   2
ATOM      2  C   UNL A   1      36.182  30.748  28.012  1.00  0.00     0.188 C 
BRANCH   2   3
ATOM      3  C   UNL A   1      35.153  31.893  27.963  1.00  0.00     0.188 C 
BRANCH   3   4
ATOM      4  O   UNL A   1      33.774  31.626  28.138  1.00  0.00    -0.376 OA
BRANCH   4   5
ATOM      5  C   UNL A   1      32.890  31.159  27.130  1.00  0.00     0.202 C 
BRANCH   5   6
ATOM      6  C   UNL A   1      32.430  29.714  26.879  1.00  0.00     0.261 C 
BRANCH   6   7
ATOM      7  O   UNL A   1      33.247  28.891  26.063  1.00  0.00    -0.460 OA
BRANCH   7   8
ATOM      8  C   UNL A   1      32.848  28.728  24.787  1.00  0.00     0.338 C 
ATOM      9  O   UNL A   1      33.313  29.251  23.793  1.00  0.00    -0.246 OA
BRANCH   8  10
ATOM     10  C   UNL A   1      31.822  27.655  24.771  1.00  0.00     0.062 A 
ATOM     11  C   UNL A   1      30.941  25.613  25.712  1.00  0.00     0.042 A 
ATOM     12  C   UNL A   1      29.840  25.704  24.856  1.00  0.00     0.026 A 
ATOM     13  C   UNL A   1      31.983  26.512  25.558  1.00  0.00     0.041 A 
ATOM     14  C   UNL A   1      29.719  26.789  23.980  1.00  0.00     0.003 A 
ATOM     15  C   UNL A   1      30.686  27.794  23.975  1.00  0.00     0.016 A 
BRANCH  11  16
ATOM     16  N   UNL A   1      30.937  24.644  26.722  1.00  0.00    -0.326 N 
ATOM     17  C   UNL A   1      31.549  23.415  26.776  1.00  0.00     0.232 C 
ATOM     18  O   UNL A   1      31.346  22.734  27.786  1.00  0.00    -0.274 OA
ATOM     19  H   UNL A   1      30.412  24.881  27.521  1.00  0.00     0.169 HD
BRANCH  17  20
ATOM     20  C   UNL A   1      32.567  22.969  25.719  1.00  0.00     0.135 C 
ATOM     21  O   UNL A   1      31.946  19.621  24.754  1.00  0.00    -0.252 OA
ATOM     22  C   UNL A   1      32.353  20.683  25.197  1.00  0.00     0.307 C 
ATOM     23  C   UNL A   1      31.952  22.032  24.701  1.00  0.00     0.140 C 
ATOM     24  O   UNL A   1      33.308  20.777  26.164  1.00  0.00    -0.457 OA
ATOM     25  C   UNL A   1      33.675  22.146  26.367  1.00  0.00     0.220 C 
BRANCH  25  26
ATOM     26  C   UNL A   1      35.066  22.418  25.807  1.00  0.00    -0.007 A 
ATOM     27  C   UNL A   1      35.798  23.576  26.106  1.00  0.00     0.007 A 
ATOM     28  C   UNL A   1      35.669  21.469  24.968  1.00  0.00     0.007 A 
ATOM     29  C   UNL A   1      37.104  23.745  25.630  1.00  0.00     0.000 A 
ATOM     30  C   UNL A   1      36.986  21.617  24.525  1.00  0.00     0.000 A 
ATOM     31  C   UNL A   1      37.709  22.752  24.866  1.00  0.00     0.000 A 
ENDBRANCH  25  26
ENDBRANCH  17  20
ENDBRANCH  11  16
ENDBRANCH   8  10
ENDBRANCH   7   8
ENDBRANCH   6   7
ENDBRANCH   5   6
ENDBRANCH   4   5
ENDBRANCH   3   4
ENDBRANCH   2   3
ENDBRANCH   1   2
BRANCH   1  32
ATOM     32  C   UNL A   1      38.234  30.013  29.048  1.00  0.00     0.188 C 
BRANCH  32  33
ATOM     33  C   UNL A   1      38.177  28.656  28.310  1.00  0.00     0.188 C 
BRANCH  33  34
ATOM     34  O   UNL A   1      39.445  28.131  27.932  1.00  0.00    -0.376 OA
BRANCH  34  35
ATOM     35  C   UNL A   1      39.695  26.745  28.097  1.00  0.00     0.202 C 
BRANCH  35  36
ATOM     36  C   UNL A   1      40.295  26.003  26.893  1.00  0.00     0.261 C 
BRANCH  36  37
ATOM     37  O   UNL A   1      41.707  25.761  26.949  1.00  0.00    -0.460 OA
BRANCH  37  38
ATOM     38  C   UNL A   1      42.474  26.438  26.062  1.00  0.00     0.338 C 
ATOM     39  O   UNL A   1      42.694  26.132  24.909  1.00  0.00    -0.246 OA
BRANCH  38  40
ATOM     40  C   UNL A   1      42.833  27.734  26.678  1.00  0.00     0.060 A 
ATOM     41  C   UNL A   1      43.625  27.734  27.833  1.00  0.00     0.016 A 
ATOM     42  C   UNL A   1      42.395  28.936  26.118  1.00  0.00     0.016 A 
ATOM     43  C   UNL A   1      43.947  28.938  28.456  1.00  0.00     0.010 A 
ATOM     44  C   UNL A   1      42.699  30.140  26.757  1.00  0.00     0.010 A 
ATOM     45  C   UNL A   1      43.445  30.143  27.950  1.00  0.00    -0.014 A 
BRANCH  45  46
ATOM     46  C   UNL A   1      43.508  31.367  28.788  1.00  0.00     0.031 A 
ATOM     47  C   UNL A   1      44.552  32.398  28.450  1.00  0.00     0.074 A 
ATOM     48  C   UNL A   1      42.633  31.586  29.785  1.00  0.00     0.049 A 
ATOM     49  N   UNL A   1      44.844  33.517  29.059  1.00  0.00    -0.248 NA
ATOM     50  C   UNL A   1      45.378  32.124  27.263  1.00  0.00     0.031 C 
ATOM     51  C   UNL A   1      41.541  30.691  30.163  1.00  0.00     0.029 A 
ATOM     52  N   UNL A   1      42.530  32.633  30.668  1.00  0.00    -0.354 N 
ATOM     53  C   UNL A   1      45.878  34.087  28.324  1.00  0.00     0.074 A 
ATOM     54  C   UNL A   1      46.197  33.164  27.256  1.00  0.00     0.031 C 
ATOM     55  C   UNL A   1      40.889  31.220  31.214  1.00  0.00     0.029 A 
ATOM     56  C   UNL A   1      41.540  32.468  31.609  1.00  0.00     0.049 A 
ATOM     57  H   UNL A   1      43.111  33.427  30.631  1.00  0.00     0.167 HD
ATOM     58  C   UNL A   1      46.492  35.280  28.510  1.00  0.00     0.034 A 
ATOM     59  C   UNL A   1      41.223  33.223  32.682  1.00  0.00     0.034 A 
ATOM     60  C   UNL A   1      46.182  36.180  29.591  1.00  0.00     0.049 A 
ATOM     61  C   UNL A   1      42.006  34.493  32.941  1.00  0.00     0.074 A 
ATOM     62  C   UNL A   1      46.763  37.400  29.892  1.00  0.00     0.029 A 
ATOM     63  N   UNL A   1      45.205  35.958  30.553  1.00  0.00    -0.354 N 
ATOM     64  N   UNL A   1      42.992  35.015  32.246  1.00  0.00    -0.248 NA
ATOM     65  C   UNL A   1      41.627  35.282  34.122  1.00  0.00     0.031 C 
ATOM     66  C   UNL A   1      46.189  37.880  31.072  1.00  0.00     0.029 A 
ATOM     67  C   UNL A   1      45.186  37.006  31.460  1.00  0.00     0.049 A 
ATOM     68  H   UNL A   1      44.613  35.172  30.586  1.00  0.00     0.167 HD
ATOM     69  C   UNL A   1      43.316  36.212  32.884  1.00  0.00     0.074 A 
ATOM     70  C   UNL A   1      42.413  36.341  34.007  1.00  0.00     0.031 C 
ATOM     71  C   UNL A   1      44.272  37.125  32.572  1.00  0.00     0.034 A 
BRANCH  58  72
ATOM     72  C   UNL A   1      47.587  35.655  27.542  1.00  0.00     0.023 A 
ATOM     73  C   UNL A   1      48.920  35.261  27.753  1.00  0.00     0.031 A 
ATOM     74  C   UNL A   1      47.300  36.426  26.403  1.00  0.00     0.131 A 
ATOM     75  C   UNL A   1      49.923  35.686  26.870  1.00  0.00     0.055 A 
ATOM     76  C   UNL A   1      48.290  36.779  25.485  1.00  0.00     0.041 A 
ATOM     77  F   UNL A   1      46.051  36.856  26.166  1.00  0.00    -0.206 F 
ATOM     78  C   UNL A   1      49.613  36.419  25.722  1.00  0.00     0.022 A 
BRANCH  75  79
ATOM     79  S   UNL A   1      51.654  35.377  27.312  1.00  0.00     0.124 S 
ATOM     80  O   UNL A   1      52.290  35.326  25.997  1.00  0.00    -0.237 OA
ATOM     81  O   UNL A   1      51.982  36.533  28.137  1.00  0.00    -0.237 OA
ATOM     82  O   UNL A   1      51.604  34.099  28.020  1.00  0.00    -0.744 OA
ENDBRANCH  75  79
ENDBRANCH  58  72
BRANCH  59  83
ATOM     83  C   UNL A   1      40.160  32.788  33.639  1.00  0.00     0.023 A 
ATOM     84  C   UNL A   1      38.825  33.196  33.482  1.00  0.00     0.031 A 
ATOM     85  C   UNL A   1      40.485  32.040  34.786  1.00  0.00     0.131 A 
ATOM     86  C   UNL A   1      37.885  32.922  34.489  1.00  0.00     0.055 A 
ATOM     87  C   UNL A   1      39.531  31.708  35.749  1.00  0.00     0.041 A 
ATOM     88  F   UNL A   1      41.746  31.628  34.993  1.00  0.00    -0.206 F 
ATOM     89  C   UNL A   1      38.226  32.167  35.614  1.00  0.00     0.022 A 
BRANCH  86  90
ATOM     90  S   UNL A   1      36.245  33.689  34.376  1.00  0.00     0.124 S 
ATOM     91  O   UNL A   1      35.545  32.761  33.495  1.00  0.00    -0.237 OA
ATOM     92  O   UNL A   1      35.818  33.697  35.771  1.00  0.00    -0.237 OA
ATOM     93  O   UNL A   1      36.524  35.005  33.803  1.00  0.00    -0.744 OA
ENDBRANCH  86  90
ENDBRANCH  59  83
BRANCH  71  94
ATOM     94  C   UNL A   1      44.341  38.377  33.416  1.00  0.00     0.023 A 
ATOM     95  C   UNL A   1      43.577  39.518  33.121  1.00  0.00     0.031 A 
ATOM     96  C   UNL A   1      45.191  38.423  34.537  1.00  0.00     0.131 A 
ATOM     97  C   UNL A   1      43.721  40.676  33.901  1.00  0.00     0.055 A 
ATOM     98  C   UNL A   1      45.278  39.554  35.349  1.00  0.00     0.041 A 
ATOM     99  F   UNL A   1      45.946  37.362  34.866  1.00  0.00    -0.206 F 
ATOM    100  C   UNL A   1      44.551  40.694  35.024  1.00  0.00     0.022 A 
BRANCH  97 101
ATOM    101  S   UNL A   1      42.881  42.194  33.370  1.00  0.00     0.124 S 
ATOM    102  O   UNL A   1      43.988  43.143  33.297  1.00  0.00    -0.237 OA
ATOM    103  O   UNL A   1      42.295  41.798  32.095  1.00  0.00    -0.237 OA
ATOM    104  O   UNL A   1      41.919  42.446  34.442  1.00  0.00    -0.744 OA
ENDBRANCH  97 101
ENDBRANCH  71  94
ENDBRANCH  45  46
ENDBRANCH  38  40
ENDBRANCH  37  38
ENDBRANCH  36  37
ENDBRANCH  35  36
ENDBRANCH  34  35
ENDBRANCH  33  34
ENDBRANCH  32  33
ENDBRANCH   1  32
TORSDOF 26
ENDMDL
MODEL 3
REMARK VINA RESULT:      -8.5      2.171      7.901
REMARK SMILES O=C1C[C@@H](C(=O)Nc2cccc(C(=O)OCCOCCOCCOCCOC(=O)c3ccc(-c4c5nc(c(-c6cc(S(=O)(=O)[O-])ccc6F)c6ccc([nH]6)c(-c6cc(S(=O)(=O)[O-])ccc6F)c6nc(c(-c7cc(S(=O)(=O)[O-])ccc7F)c7ccc4[nH]7)C=C6)C=C5)cc3)c2)[C@H](c2ccccc2)O1
REMARK SMILES IDX 21 1 20 2 19 3 18 4 17 5 16 6 15 7 13 8 14 9 12 10 8 11 9 12
REMARK SMILES IDX 93 13 10 14 11 15 7 16 5 17 6 18 4 20 1 21 2 22 3 23 101 24
REMARK SMILES IDX 94 25 95 26 96 27 100 28 97 29 99 30 98 31 22 32 23 33 24 34
REMARK SMILES IDX 25 35 26 36 27 37 28 38 29 39 30 40 31 41 92 42 32 43 91 44
REMARK SMILES IDX 33 45 34 46 35 47 85 48 36 49 90 50 84 51 86 52 37 53 89 54
REMARK SMILES IDX 83 55 82 56 38 58 70 59 50 60 69 61 51 62 54 63 68 64 87 65
REMARK SMILES IDX 52 66 53 67 67 69 88 70 55 71 39 72 40 73 48 74 41 75 47 76
REMARK SMILES IDX 49 77 46 78 42 79 43 80 44 81 45 82 71 83 72 84 80 85 73 86
REMARK SMILES IDX 79 87 81 88 78 89 74 90 75 91 76 92 77 93 56 94 57 95 65 96
REMARK SMILES IDX 58 97 64 98 66 99 63 100 59 101 60 102 61 103 62 104
REMARK H PARENT 7 19 86 57 54 68
REMARK Flexibility Score: inf
ROOT
ATOM      1  O   UNL A   1      34.168  37.269  31.873  1.00  0.00    -0.377 OA
ENDROOT
BRANCH   1   2
ATOM      2  C   UNL A   1      33.414  36.870  32.998  1.00  0.00     0.188 C 
BRANCH   2   3
ATOM      3  C   UNL A   1      33.032  35.378  32.987  1.00  0.00     0.188 C 
BRANCH   3   4
ATOM      4  O   UNL A   1      34.010  34.386  33.237  1.00  0.00    -0.376 OA
BRANCH   4   5
ATOM      5  C   UNL A   1      35.090  34.504  34.151  1.00  0.00     0.202 C 
BRANCH   5   6
ATOM      6  C   UNL A   1      36.419  33.730  34.140  1.00  0.00     0.261 C 
BRANCH   6   7
ATOM      7  O   UNL A   1      37.425  34.130  35.054  1.00  0.00    -0.460 OA
BRANCH   7   8
ATOM      8  C   UNL A   1      38.599  33.473  34.977  1.00  0.00     0.338 C 
ATOM      9  O   UNL A   1      38.789  32.339  34.580  1.00  0.00    -0.246 OA
BRANCH   8  10
ATOM     10  C   UNL A   1      39.676  34.437  35.315  1.00  0.00     0.062 A 
ATOM     11  C   UNL A   1      41.649  35.661  34.650  1.00  0.00     0.042 A 
ATOM     12  C   UNL A   1      41.627  36.342  35.869  1.00  0.00     0.026 A 
ATOM     13  C   UNL A   1      40.758  34.620  34.450  1.00  0.00     0.041 A 
ATOM     14  C   UNL A   1      40.609  36.090  36.797  1.00  0.00     0.003 A 
ATOM     15  C   UNL A   1      39.602  35.173  36.497  1.00  0.00     0.016 A 
BRANCH  11  16
ATOM     16  N   UNL A   1      42.542  36.078  33.656  1.00  0.00    -0.326 N 
ATOM     17  C   UNL A   1      42.795  35.551  32.413  1.00  0.00     0.232 C 
ATOM     18  O   UNL A   1      43.675  36.100  31.742  1.00  0.00    -0.274 OA
ATOM     19  H   UNL A   1      43.071  36.876  33.883  1.00  0.00     0.169 HD
BRANCH  17  20
ATOM     20  C   UNL A   1      41.926  34.440  31.810  1.00  0.00     0.135 C 
ATOM     21  O   UNL A   1      43.700  32.739  29.263  1.00  0.00    -0.252 OA
ATOM     22  C   UNL A   1      42.960  33.416  29.959  1.00  0.00     0.307 C 
ATOM     23  C   UNL A   1      42.745  33.227  31.424  1.00  0.00     0.140 C 
ATOM     24  O   UNL A   1      42.155  34.398  29.465  1.00  0.00    -0.457 OA
ATOM     25  C   UNL A   1      41.306  34.909  30.498  1.00  0.00     0.220 C 
BRANCH  25  26
ATOM     26  C   UNL A   1      39.867  34.451  30.286  1.00  0.00    -0.007 A 
ATOM     27  C   UNL A   1      39.310  34.245  29.016  1.00  0.00     0.007 A 
ATOM     28  C   UNL A   1      39.052  34.201  31.400  1.00  0.00     0.007 A 
ATOM     29  C   UNL A   1      38.008  33.749  28.874  1.00  0.00     0.000 A 
ATOM     30  C   UNL A   1      37.767  33.669  31.261  1.00  0.00     0.000 A 
ATOM     31  C   UNL A   1      37.249  33.433  29.996  1.00  0.00     0.000 A 
ENDBRANCH  25  26
ENDBRANCH  17  20
ENDBRANCH  11  16
ENDBRANCH   8  10
ENDBRANCH   7   8
ENDBRANCH   6   7
ENDBRANCH   5   6
ENDBRANCH   4   5
ENDBRANCH   3   4
ENDBRANCH   2   3
ENDBRANCH   1   2
BRANCH   1  32
ATOM     32  C   UNL A   1      33.434  37.575  30.690  1.00  0.00     0.188 C 
BRANCH  32  33
ATOM     33  C   UNL A   1      32.726  36.440  29.916  1.00  0.00     0.188 C 
BRANCH  33  34
ATOM     34  O   UNL A   1      33.598  35.584  29.185  1.00  0.00    -0.376 OA
BRANCH  34  35
ATOM     35  C   UNL A   1      33.245  34.222  29.013  1.00  0.00     0.202 C 
BRANCH  35  36
ATOM     36  C   UNL A   1      34.088  33.410  28.018  1.00  0.00     0.261 C 
BRANCH  36  37
ATOM     37  O   UNL A   1      34.871  32.351  28.584  1.00  0.00    -0.460 OA
BRANCH  37  38
ATOM     38  C   UNL A   1      34.863  31.170  27.923  1.00  0.00     0.338 C 
ATOM     39  O   UNL A   1      34.091  30.829  27.052  1.00  0.00    -0.246 OA
BRANCH  38  40
ATOM     40  C   UNL A   1      36.094  30.440  28.298  1.00  0.00     0.060 A 
ATOM     41  C   UNL A   1      36.102  29.700  29.487  1.00  0.00     0.016 A 
ATOM     42  C   UNL A   1      37.225  30.482  27.481  1.00  0.00     0.016 A 
ATOM     43  C   UNL A   1      37.259  29.032  29.884  1.00  0.00     0.010 A 
ATOM     44  C   UNL A   1      38.392  29.832  27.892  1.00  0.00     0.010 A 
ATOM     45  C   UNL A   1      38.424  29.135  29.114  1.00  0.00    -0.014 A 
BRANCH  45  46
ATOM     46  C   UNL A   1      39.722  28.711  29.697  1.00  0.00     0.031 A 
ATOM     47  C   UNL A   1      40.447  27.565  29.043  1.00  0.00     0.074 A 
ATOM     48  C   UNL A   1      40.270  29.355  30.743  1.00  0.00     0.049 A 
ATOM     49  N   UNL A   1      41.560  26.976  29.393  1.00  0.00    -0.248 NA
ATOM     50  C   UNL A   1      39.826  27.010  27.829  1.00  0.00     0.031 C 
ATOM     51  C   UNL A   1      39.693  30.515  31.418  1.00  0.00     0.029 A 
ATOM     52  N   UNL A   1      41.439  29.117  31.424  1.00  0.00    -0.354 N 
ATOM     53  C   UNL A   1      41.780  25.990  28.437  1.00  0.00     0.074 A 
ATOM     54  C   UNL A   1      40.658  26.026  27.525  1.00  0.00     0.031 C 
ATOM     55  C   UNL A   1      40.503  30.877  32.429  1.00  0.00     0.029 A 
ATOM     56  C   UNL A   1      41.632  29.952  32.500  1.00  0.00     0.049 A 
ATOM     57  H   UNL A   1      42.078  28.414  31.166  1.00  0.00     0.167 HD
ATOM     58  C   UNL A   1      42.832  25.144  28.319  1.00  0.00     0.034 A 
ATOM     59  C   UNL A   1      42.593  29.944  33.449  1.00  0.00     0.034 A 
ATOM     60  C   UNL A   1      43.933  25.102  29.247  1.00  0.00     0.049 A 
ATOM     61  C   UNL A   1      43.695  28.909  33.365  1.00  0.00     0.074 A 
ATOM     62  C   UNL A   1      45.035  24.264  29.241  1.00  0.00     0.029 A 
ATOM     63  N   UNL A   1      44.071  25.931  30.353  1.00  0.00    -0.354 N 
ATOM     64  N   UNL A   1      43.885  27.971  32.463  1.00  0.00    -0.248 NA
ATOM     65  C   UNL A   1      44.718  28.937  34.420  1.00  0.00     0.031 C 
ATOM     66  C   UNL A   1      45.800  24.539  30.377  1.00  0.00     0.029 A 
ATOM     67  C   UNL A   1      45.226  25.608  31.047  1.00  0.00     0.049 A 
ATOM     68  H   UNL A   1      43.441  26.644  30.606  1.00  0.00     0.167 HD
ATOM     69  C   UNL A   1      45.071  27.332  32.823  1.00  0.00     0.074 A 
ATOM     70  C   UNL A   1      45.558  27.999  34.011  1.00  0.00     0.031 C 
ATOM     71  C   UNL A   1      45.704  26.289  32.227  1.00  0.00     0.034 A 
BRANCH  58  72
ATOM     72  C   UNL A   1      42.815  24.173  27.164  1.00  0.00     0.023 A 
ATOM     73  C   UNL A   1      42.127  22.950  27.244  1.00  0.00     0.031 A 
ATOM     74  C   UNL A   1      43.507  24.465  25.976  1.00  0.00     0.131 A 
ATOM     75  C   UNL A   1      42.190  22.042  26.177  1.00  0.00     0.055 A 
ATOM     76  C   UNL A   1      43.500  23.591  24.888  1.00  0.00     0.041 A 
ATOM     77  F   UNL A   1      44.206  25.604  25.854  1.00  0.00    -0.206 F 
ATOM     78  C   UNL A   1      42.849  22.366  24.989  1.00  0.00     0.022 A 
BRANCH  75  79
ATOM     79  S   UNL A   1      41.508  20.378  26.416  1.00  0.00     0.124 S 
ATOM     80  O   UNL A   1      40.079  20.614  26.218  1.00  0.00    -0.237 OA
ATOM     81  O   UNL A   1      42.179  19.609  25.375  1.00  0.00    -0.237 OA
ATOM     82  O   UNL A   1      41.893  20.044  27.786  1.00  0.00    -0.744 OA
ENDBRANCH  75  79
ENDBRANCH  58  72
BRANCH  59  83
ATOM     83  C   UNL A   1      42.543  30.897  34.599  1.00  0.00     0.023 A 
ATOM     84  C   UNL A   1      43.480  31.935  34.729  1.00  0.00     0.031 A 
ATOM     85  C   UNL A   1      41.615  30.719  35.642  1.00  0.00     0.131 A 
ATOM     86  C   UNL A   1      43.520  32.701  35.905  1.00  0.00     0.055 A 
ATOM     87  C   UNL A   1      41.613  31.530  36.778  1.00  0.00     0.041 A 
ATOM     88  F   UNL A   1      40.699  29.740  35.577  1.00  0.00    -0.206 F 
ATOM     89  C   UNL A   1      42.583  32.515  36.924  1.00  0.00     0.022 A 
BRANCH  86  90
ATOM     90  S   UNL A   1      44.905  33.848  36.146  1.00  0.00     0.124 S 
ATOM     91  O   UNL A   1      44.544  34.486  37.407  1.00  0.00    -0.237 OA
ATOM     92  O   UNL A   1      46.045  32.939  36.189  1.00  0.00    -0.237 OA
ATOM     93  O   UNL A   1      44.842  34.711  34.968  1.00  0.00    -0.744 OA
ENDBRANCH  86  90
ENDBRANCH  59  83
BRANCH  71  94
ATOM     94  C   UNL A   1      47.029  25.853  32.810  1.00  0.00     0.023 A 
ATOM     95  C   UNL A   1      48.250  26.392  32.372  1.00  0.00     0.031 A 
ATOM     96  C   UNL A   1      47.063  24.877  33.823  1.00  0.00     0.131 A 
ATOM     97  C   UNL A   1      49.457  25.911  32.905  1.00  0.00     0.055 A 
ATOM     98  C   UNL A   1      48.262  24.452  34.396  1.00  0.00     0.041 A 
ATOM     99  F   UNL A   1      45.927  24.325  34.280  1.00  0.00    -0.206 F 
ATOM    100  C   UNL A   1      49.469  24.960  33.927  1.00  0.00     0.022 A 
BRANCH  97 101
ATOM    101  S   UNL A   1      51.018  26.475  32.173  1.00  0.00     0.124 S 
ATOM    102  O   UNL A   1      51.839  25.271  32.244  1.00  0.00    -0.237 OA
ATOM    103  O   UNL A   1      50.605  26.887  30.836  1.00  0.00    -0.237 OA
ATOM    104  O   UNL A   1      51.436  27.564  33.054  1.00  0.00    -0.744 OA
ENDBRANCH  97 101
ENDBRANCH  71  94
ENDBRANCH  45  46
ENDBRANCH  38  40
ENDBRANCH  37  38
ENDBRANCH  36  37
ENDBRANCH  35  36
ENDBRANCH  34  35
ENDBRANCH  33  34
ENDBRANCH  32  33
ENDBRANCH   1  32
TORSDOF 26
ENDMDL
