MODEL 1
REMARK VINA RESULT:      -8.9      0.000      0.000
REMARK SMILES O=C(Nc1ccc(N2CCCCC2)cc1C(=O)OCCOCCOCCOCCOC(=O)c1ccc(-c2c3nc(c(-c4cc(S(=O)(=O)[O-])ccc4F)c4ccc([nH]4)c(-c4cc(S(=O)(=O)[O-])ccc4F)c4nc(c(-c5cc(S(=O)(=O)[O-])ccc5F)c5ccc2[nH]5)C=C4)C=C3)cc1)c1ccccc1
REMARK SMILES IDX 25 1 24 2 23 3 22 4 21 5 20 6 19 7 18 8 16 9 17 10 15 11
REMARK SMILES IDX 4 12 5 13 6 14 14 15 7 16 3 17 1 18 2 19 96 21 97 22 101 23
REMARK SMILES IDX 98 24 100 25 99 26 8 27 9 28 13 29 10 30 12 31 11 32 26 33
REMARK SMILES IDX 27 34 28 35 29 36 30 37 31 38 32 39 33 40 34 41 95 42 35 43
REMARK SMILES IDX 94 44 36 45 37 46 38 47 88 48 39 49 93 50 87 51 89 52 40 53
REMARK SMILES IDX 92 54 86 55 85 56 41 58 73 59 53 60 72 61 54 62 57 63 71 64
REMARK SMILES IDX 90 65 55 66 56 67 70 69 91 70 58 71 42 72 43 73 51 74 44 75
REMARK SMILES IDX 50 76 52 77 49 78 45 79 46 80 47 81 48 82 74 83 75 84 83 85
REMARK SMILES IDX 76 86 82 87 84 88 81 89 77 90 78 91 79 92 80 93 59 94 60 95
REMARK SMILES IDX 68 96 61 97 67 98 69 99 66 100 62 101 63 102 64 103 65 104
REMARK H PARENT 3 20 89 57 57 68
REMARK Flexibility Score: inf
ROOT
ATOM      1  C   UNL A   1      40.078  28.895  29.491  1.00  0.00     0.188 C 
ENDROOT
BRANCH   1   2
ATOM      2  O   UNL A   1      38.952  29.733  29.701  1.00  0.00    -0.377 OA
BRANCH   2   3
ATOM      3  C   UNL A   1      38.001  29.790  28.647  1.00  0.00     0.188 C 
BRANCH   3   4
ATOM      4  C   UNL A   1      37.160  31.071  28.433  1.00  0.00     0.188 C 
BRANCH   4   5
ATOM      5  O   UNL A   1      35.831  30.859  28.007  1.00  0.00    -0.376 OA
BRANCH   5   6
ATOM      6  C   UNL A   1      35.315  29.604  27.633  1.00  0.00     0.202 C 
BRANCH   6   7
ATOM      7  C   UNL A   1      33.826  29.372  27.402  1.00  0.00     0.261 C 
BRANCH   7   8
ATOM      8  O   UNL A   1      33.415  28.979  26.095  1.00  0.00    -0.460 OA
BRANCH   8   9
ATOM      9  C   UNL A   1      33.127  27.674  25.915  1.00  0.00     0.340 C 
ATOM     10  O   UNL A   1      33.829  26.735  26.254  1.00  0.00    -0.246 OA
BRANCH   9  11
ATOM     11  C   UNL A   1      31.730  27.528  25.418  1.00  0.00     0.085 A 
ATOM     12  C   UNL A   1      30.873  26.423  25.623  1.00  0.00     0.056 A 
ATOM     13  C   UNL A   1      29.663  26.388  24.915  1.00  0.00     0.029 A 
ATOM     14  C   UNL A   1      29.261  27.462  24.122  1.00  0.00     0.028 A 
ATOM     15  C   UNL A   1      31.317  28.590  24.583  1.00  0.00     0.043 A 
ATOM     16  C   UNL A   1      30.074  28.583  23.956  1.00  0.00     0.038 A 
BRANCH  12  17
ATOM     17  N   UNL A   1      31.051  25.317  26.487  1.00  0.00    -0.321 N 
ATOM     18  O   UNL A   1      31.373  23.207  27.199  1.00  0.00    -0.269 OA
ATOM     19  C   UNL A   1      31.482  24.024  26.288  1.00  0.00     0.255 C 
ATOM     20  H   UNL A   1      30.816  25.512  27.423  1.00  0.00     0.170 HD
BRANCH  19  21
ATOM     21  C   UNL A   1      32.125  23.610  25.022  1.00  0.00     0.040 A 
ATOM     22  C   UNL A   1      31.375  23.221  23.908  1.00  0.00     0.014 A 
ATOM     23  C   UNL A   1      33.519  23.497  25.005  1.00  0.00     0.014 A 
ATOM     24  C   UNL A   1      31.998  22.526  22.872  1.00  0.00     0.001 A 
ATOM     25  C   UNL A   1      34.140  22.820  23.956  1.00  0.00     0.001 A 
ATOM     26  C   UNL A   1      33.372  22.293  22.918  1.00  0.00     0.000 A 
ENDBRANCH  19  21
ENDBRANCH  12  17
BRANCH  16  27
ATOM     27  N   UNL A   1      29.613  29.644  23.214  1.00  0.00    -0.372 N 
ATOM     28  C   UNL A   1      29.482  30.934  23.878  1.00  0.00     0.116 C 
ATOM     29  C   UNL A   1      29.670  29.648  21.761  1.00  0.00     0.116 C 
ATOM     30  C   UNL A   1      28.176  31.575  23.420  1.00  0.00     0.021 C 
ATOM     31  C   UNL A   1      28.373  30.279  21.244  1.00  0.00     0.021 C 
ATOM     32  C   UNL A   1      28.098  31.642  21.892  1.00  0.00     0.004 C 
ENDBRANCH  16  27
ENDBRANCH   9  11
ENDBRANCH   8   9
ENDBRANCH   7   8
ENDBRANCH   6   7
ENDBRANCH   5   6
ENDBRANCH   4   5
ENDBRANCH   3   4
ENDBRANCH   2   3
ENDBRANCH   1   2
BRANCH   1  33
ATOM     33  C   UNL A   1      39.797  27.776  28.471  1.00  0.00     0.188 C 
BRANCH  33  34
ATOM     34  O   UNL A   1      39.843  26.425  28.897  1.00  0.00    -0.376 OA
BRANCH  34  35
ATOM     35  C   UNL A   1      39.871  25.348  27.977  1.00  0.00     0.202 C 
BRANCH  35  36
ATOM     36  C   UNL A   1      41.052  24.381  27.736  1.00  0.00     0.261 C 
BRANCH  36  37
ATOM     37  O   UNL A   1      41.609  24.264  26.429  1.00  0.00    -0.460 OA
BRANCH  37  38
ATOM     38  C   UNL A   1      41.919  25.417  25.804  1.00  0.00     0.338 C 
ATOM     39  O   UNL A   1      41.146  26.191  25.263  1.00  0.00    -0.246 OA
BRANCH  38  40
ATOM     40  C   UNL A   1      43.352  25.673  26.054  1.00  0.00     0.060 A 
ATOM     41  C   UNL A   1      44.266  24.613  25.957  1.00  0.00     0.016 A 
ATOM     42  C   UNL A   1      43.792  26.960  26.373  1.00  0.00     0.016 A 
ATOM     43  C   UNL A   1      45.617  24.828  26.209  1.00  0.00     0.010 A 
ATOM     44  C   UNL A   1      45.141  27.168  26.663  1.00  0.00     0.010 A 
ATOM     45  C   UNL A   1      46.049  26.094  26.620  1.00  0.00    -0.014 A 
BRANCH  45  46
ATOM     46  C   UNL A   1      47.381  26.234  27.250  1.00  0.00     0.031 A 
ATOM     47  C   UNL A   1      48.541  26.586  26.359  1.00  0.00     0.074 A 
ATOM     48  C   UNL A   1      47.554  26.078  28.572  1.00  0.00     0.049 A 
ATOM     49  N   UNL A   1      49.809  26.698  26.646  1.00  0.00    -0.248 NA
ATOM     50  C   UNL A   1      48.215  26.835  24.947  1.00  0.00     0.031 C 
ATOM     51  C   UNL A   1      46.492  25.809  29.539  1.00  0.00     0.029 A 
ATOM     52  N   UNL A   1      48.698  26.124  29.327  1.00  0.00    -0.354 N 
ATOM     53  C   UNL A   1      50.438  27.014  25.446  1.00  0.00     0.074 A 
ATOM     54  C   UNL A   1      49.413  27.034  24.426  1.00  0.00     0.031 C 
ATOM     55  C   UNL A   1      47.038  25.713  30.764  1.00  0.00     0.029 A 
ATOM     56  C   UNL A   1      48.488  25.864  30.660  1.00  0.00     0.049 A 
ATOM     57  H   UNL A   1      49.586  26.323  28.950  1.00  0.00     0.167 HD
ATOM     58  C   UNL A   1      51.751  27.266  25.221  1.00  0.00     0.034 A 
ATOM     59  C   UNL A   1      49.374  25.739  31.668  1.00  0.00     0.034 A 
ATOM     60  C   UNL A   1      52.758  27.221  26.252  1.00  0.00     0.049 A 
ATOM     61  C   UNL A   1      50.847  25.904  31.372  1.00  0.00     0.074 A 
ATOM     62  C   UNL A   1      54.113  27.475  26.147  1.00  0.00     0.029 A 
ATOM     63  N   UNL A   1      52.521  26.877  27.580  1.00  0.00    -0.354 N 
ATOM     64  N   UNL A   1      51.438  26.206  30.238  1.00  0.00    -0.248 NA
ATOM     65  C   UNL A   1      51.771  25.713  32.497  1.00  0.00     0.031 C 
ATOM     66  C   UNL A   1      54.707  27.193  27.382  1.00  0.00     0.029 A 
ATOM     67  C   UNL A   1      53.711  26.864  28.289  1.00  0.00     0.049 A 
ATOM     68  H   UNL A   1      51.636  26.674  27.959  1.00  0.00     0.167 HD
ATOM     69  C   UNL A   1      52.800  26.280  30.525  1.00  0.00     0.074 A 
ATOM     70  C   UNL A   1      52.938  25.997  31.939  1.00  0.00     0.031 C 
ATOM     71  C   UNL A   1      53.839  26.566  29.698  1.00  0.00     0.034 A 
BRANCH  58  72
ATOM     72  C   UNL A   1      52.166  27.529  23.791  1.00  0.00     0.023 A 
ATOM     73  C   UNL A   1      51.816  28.714  23.119  1.00  0.00     0.031 A 
ATOM     74  C   UNL A   1      52.862  26.547  23.066  1.00  0.00     0.131 A 
ATOM     75  C   UNL A   1      52.073  28.843  21.746  1.00  0.00     0.055 A 
ATOM     76  C   UNL A   1      53.204  26.723  21.723  1.00  0.00     0.041 A 
ATOM     77  F   UNL A   1      53.201  25.383  23.641  1.00  0.00    -0.206 F 
ATOM     78  C   UNL A   1      52.789  27.867  21.049  1.00  0.00     0.022 A 
BRANCH  75  79
ATOM     79  S   UNL A   1      51.287  30.207  20.842  1.00  0.00     0.124 S 
ATOM     80  O   UNL A   1      51.783  31.370  21.575  1.00  0.00    -0.237 OA
ATOM     81  O   UNL A   1      51.809  30.032  19.492  1.00  0.00    -0.237 OA
ATOM     82  O   UNL A   1      49.858  29.945  21.000  1.00  0.00    -0.744 OA
ENDBRANCH  75  79
ENDBRANCH  58  72
BRANCH  59  83
ATOM     83  C   UNL A   1      48.909  25.424  33.049  1.00  0.00     0.023 A 
ATOM     84  C   UNL A   1      48.875  24.098  33.511  1.00  0.00     0.031 A 
ATOM     85  C   UNL A   1      48.449  26.435  33.912  1.00  0.00     0.131 A 
ATOM     86  C   UNL A   1      48.355  23.813  34.782  1.00  0.00     0.055 A 
ATOM     87  C   UNL A   1      47.986  26.152  35.198  1.00  0.00     0.041 A 
ATOM     88  F   UNL A   1      48.450  27.718  33.517  1.00  0.00    -0.206 F 
ATOM     89  C   UNL A   1      47.926  24.833  35.636  1.00  0.00     0.022 A 
BRANCH  86  90
ATOM     90  S   UNL A   1      48.171  22.078  35.273  1.00  0.00     0.124 S 
ATOM     91  O   UNL A   1      49.381  21.482  34.718  1.00  0.00    -0.237 OA
ATOM     92  O   UNL A   1      48.114  22.178  36.728  1.00  0.00    -0.237 OA
ATOM     93  O   UNL A   1      46.923  21.671  34.631  1.00  0.00    -0.744 OA
ENDBRANCH  86  90
ENDBRANCH  59  83
BRANCH  71  94
ATOM     94  C   UNL A   1      55.216  26.644  30.319  1.00  0.00     0.023 A 
ATOM     95  C   UNL A   1      56.072  25.530  30.383  1.00  0.00     0.031 A 
ATOM     96  C   UNL A   1      55.677  27.859  30.860  1.00  0.00     0.131 A 
ATOM     97  C   UNL A   1      57.315  25.638  31.027  1.00  0.00     0.055 A 
ATOM     98  C   UNL A   1      56.944  27.978  31.434  1.00  0.00     0.041 A 
ATOM     99  F   UNL A   1      54.903  28.957  30.833  1.00  0.00    -0.206 F 
ATOM    100  C   UNL A   1      57.764  26.860  31.533  1.00  0.00     0.022 A 
BRANCH  97 101
ATOM    101  S   UNL A   1      58.294  24.135  31.291  1.00  0.00     0.124 S 
ATOM    102  O   UNL A   1      58.149  23.927  32.729  1.00  0.00    -0.237 OA
ATOM    103  O   UNL A   1      57.617  23.165  30.436  1.00  0.00    -0.237 OA
ATOM    104  O   UNL A   1      59.635  24.516  30.853  1.00  0.00    -0.744 OA
ENDBRANCH  97 101
ENDBRANCH  71  94
ENDBRANCH  45  46
ENDBRANCH  38  40
ENDBRANCH  37  38
ENDBRANCH  36  37
ENDBRANCH  35  36
ENDBRANCH  34  35
ENDBRANCH  33  34
ENDBRANCH   1  33
TORSDOF 26
ENDMDL
MODEL 2
REMARK VINA RESULT:      -8.8      5.887     12.868
REMARK SMILES O=C(Nc1ccc(N2CCCCC2)cc1C(=O)OCCOCCOCCOCCOC(=O)c1ccc(-c2c3nc(c(-c4cc(S(=O)(=O)[O-])ccc4F)c4ccc([nH]4)c(-c4cc(S(=O)(=O)[O-])ccc4F)c4nc(c(-c5cc(S(=O)(=O)[O-])ccc5F)c5ccc2[nH]5)C=C4)C=C3)cc1)c1ccccc1
REMARK SMILES IDX 25 1 24 2 23 3 22 4 21 5 20 6 19 7 18 8 16 9 17 10 15 11
REMARK SMILES IDX 4 12 5 13 6 14 14 15 7 16 3 17 1 18 2 19 96 21 97 22 101 23
REMARK SMILES IDX 98 24 100 25 99 26 8 27 9 28 13 29 10 30 12 31 11 32 26 33
REMARK SMILES IDX 27 34 28 35 29 36 30 37 31 38 32 39 33 40 34 41 95 42 35 43
REMARK SMILES IDX 94 44 36 45 37 46 38 47 88 48 39 49 93 50 87 51 89 52 40 53
REMARK SMILES IDX 92 54 86 55 85 56 41 58 73 59 53 60 72 61 54 62 57 63 71 64
REMARK SMILES IDX 90 65 55 66 56 67 70 69 91 70 58 71 42 72 43 73 51 74 44 75
REMARK SMILES IDX 50 76 52 77 49 78 45 79 46 80 47 81 48 82 74 83 75 84 83 85
REMARK SMILES IDX 76 86 82 87 84 88 81 89 77 90 78 91 79 92 80 93 59 94 60 95
REMARK SMILES IDX 68 96 61 97 67 98 69 99 66 100 62 101 63 102 64 103 65 104
REMARK H PARENT 3 20 89 57 57 68
REMARK Flexibility Score: inf
ROOT
ATOM      1  C   UNL A   1      37.912  31.151  29.046  1.00  0.00     0.188 C 
ENDROOT
BRANCH   1   2
ATOM      2  O   UNL A   1      38.507  29.913  29.403  1.00  0.00    -0.377 OA
BRANCH   2   3
ATOM      3  C   UNL A   1      39.665  29.534  28.673  1.00  0.00     0.188 C 
BRANCH   3   4
ATOM      4  C   UNL A   1      39.546  29.153  27.177  1.00  0.00     0.188 C 
BRANCH   4   5
ATOM      5  O   UNL A   1      40.634  28.426  26.649  1.00  0.00    -0.376 OA
BRANCH   5   6
ATOM      6  C   UNL A   1      40.713  27.020  26.645  1.00  0.00     0.202 C 
BRANCH   6   7
ATOM      7  C   UNL A   1      41.463  26.250  25.563  1.00  0.00     0.261 C 
BRANCH   7   8
ATOM      8  O   UNL A   1      42.733  26.752  25.156  1.00  0.00    -0.460 OA
BRANCH   8   9
ATOM      9  C   UNL A   1      43.816  26.041  25.530  1.00  0.00     0.340 C 
ATOM     10  O   UNL A   1      43.916  24.825  25.500  1.00  0.00    -0.246 OA
BRANCH   9  11
ATOM     11  C   UNL A   1      44.956  26.961  25.799  1.00  0.00     0.085 A 
ATOM     12  C   UNL A   1      44.929  28.126  26.598  1.00  0.00     0.056 A 
ATOM     13  C   UNL A   1      46.052  28.967  26.576  1.00  0.00     0.029 A 
ATOM     14  C   UNL A   1      47.206  28.609  25.879  1.00  0.00     0.028 A 
ATOM     15  C   UNL A   1      46.125  26.635  25.074  1.00  0.00     0.043 A 
ATOM     16  C   UNL A   1      47.263  27.434  25.131  1.00  0.00     0.038 A 
BRANCH  12  17
ATOM     17  N   UNL A   1      43.909  28.574  27.470  1.00  0.00    -0.321 N 
ATOM     18  O   UNL A   1      42.510  28.678  29.229  1.00  0.00    -0.269 OA
ATOM     19  C   UNL A   1      43.566  28.255  28.765  1.00  0.00     0.255 C 
ATOM     20  H   UNL A   1      43.323  29.255  27.066  1.00  0.00     0.170 HD
BRANCH  19  21
ATOM     21  C   UNL A   1      44.466  27.460  29.629  1.00  0.00     0.040 A 
ATOM     22  C   UNL A   1      45.789  27.194  29.266  1.00  0.00     0.014 A 
ATOM     23  C   UNL A   1      43.917  26.869  30.772  1.00  0.00     0.014 A 
ATOM     24  C   UNL A   1      46.488  26.181  29.921  1.00  0.00     0.001 A 
ATOM     25  C   UNL A   1      44.629  25.871  31.437  1.00  0.00     0.001 A 
ATOM     26  C   UNL A   1      45.891  25.495  30.979  1.00  0.00     0.000 A 
ENDBRANCH  19  21
ENDBRANCH  12  17
BRANCH  16  27
ATOM     27  N   UNL A   1      48.440  27.091  24.509  1.00  0.00    -0.372 N 
ATOM     28  C   UNL A   1      49.373  26.241  25.237  1.00  0.00     0.116 C 
ATOM     29  C   UNL A   1      48.594  27.161  23.065  1.00  0.00     0.116 C 
ATOM     30  C   UNL A   1      50.783  26.773  25.002  1.00  0.00     0.021 C 
ATOM     31  C   UNL A   1      49.999  27.698  22.770  1.00  0.00     0.021 C 
ATOM     32  C   UNL A   1      51.085  26.903  23.506  1.00  0.00     0.004 C 
ENDBRANCH  16  27
ENDBRANCH   9  11
ENDBRANCH   8   9
ENDBRANCH   7   8
ENDBRANCH   6   7
ENDBRANCH   5   6
ENDBRANCH   4   5
ENDBRANCH   3   4
ENDBRANCH   2   3
ENDBRANCH   1   2
BRANCH   1  33
ATOM     33  C   UNL A   1      36.382  31.049  28.906  1.00  0.00     0.188 C 
BRANCH  33  34
ATOM     34  O   UNL A   1      35.619  32.236  28.779  1.00  0.00    -0.376 OA
BRANCH  34  35
ATOM     35  C   UNL A   1      34.664  32.623  29.752  1.00  0.00     0.202 C 
BRANCH  35  36
ATOM     36  C   UNL A   1      34.968  33.140  31.177  1.00  0.00     0.261 C 
BRANCH  36  37
ATOM     37  O   UNL A   1      34.929  32.232  32.276  1.00  0.00    -0.460 OA
BRANCH  37  38
ATOM     38  C   UNL A   1      35.548  32.630  33.405  1.00  0.00     0.338 C 
ATOM     39  O   UNL A   1      35.036  33.165  34.375  1.00  0.00    -0.246 OA
BRANCH  38  40
ATOM     40  C   UNL A   1      36.936  32.129  33.337  1.00  0.00     0.060 A 
ATOM     41  C   UNL A   1      37.979  32.934  33.818  1.00  0.00     0.016 A 
ATOM     42  C   UNL A   1      37.203  30.865  32.808  1.00  0.00     0.016 A 
ATOM     43  C   UNL A   1      39.296  32.491  33.744  1.00  0.00     0.010 A 
ATOM     44  C   UNL A   1      38.527  30.436  32.699  1.00  0.00     0.010 A 
ATOM     45  C   UNL A   1      39.578  31.266  33.131  1.00  0.00    -0.014 A 
BRANCH  45  46
ATOM     46  C   UNL A   1      40.966  30.971  32.708  1.00  0.00     0.031 A 
ATOM     47  C   UNL A   1      41.760  30.005  33.545  1.00  0.00     0.074 A 
ATOM     48  C   UNL A   1      41.498  31.522  31.606  1.00  0.00     0.049 A 
ATOM     49  N   UNL A   1      43.007  29.634  33.433  1.00  0.00    -0.248 NA
ATOM     50  C   UNL A   1      41.041  29.385  34.668  1.00  0.00     0.031 C 
ATOM     51  C   UNL A   1      40.798  32.412  30.682  1.00  0.00     0.029 A 
ATOM     52  N   UNL A   1      42.760  31.410  31.081  1.00  0.00    -0.354 N 
ATOM     53  C   UNL A   1      43.229  28.748  34.482  1.00  0.00     0.074 A 
ATOM     54  C   UNL A   1      41.998  28.673  35.238  1.00  0.00     0.031 C 
ATOM     55  C   UNL A   1      41.644  32.767  29.699  1.00  0.00     0.029 A 
ATOM     56  C   UNL A   1      42.955  32.170  29.952  1.00  0.00     0.049 A 
ATOM     57  H   UNL A   1      43.459  30.840  31.474  1.00  0.00     0.167 HD
ATOM     58  C   UNL A   1      44.357  28.060  34.783  1.00  0.00     0.034 A 
ATOM     59  C   UNL A   1      44.073  32.375  29.228  1.00  0.00     0.034 A 
ATOM     60  C   UNL A   1      45.579  28.166  34.023  1.00  0.00     0.049 A 
ATOM     61  C   UNL A   1      45.353  31.692  29.651  1.00  0.00     0.074 A 
ATOM     62  C   UNL A   1      46.778  27.505  34.221  1.00  0.00     0.029 A 
ATOM     63  N   UNL A   1      45.765  29.006  32.930  1.00  0.00    -0.354 N 
ATOM     64  N   UNL A   1      45.560  30.853  30.641  1.00  0.00    -0.248 NA
ATOM     65  C   UNL A   1      46.551  31.985  28.855  1.00  0.00     0.031 C 
ATOM     66  C   UNL A   1      47.712  28.014  33.312  1.00  0.00     0.029 A 
ATOM     67  C   UNL A   1      47.071  28.917  32.477  1.00  0.00     0.049 A 
ATOM     68  H   UNL A   1      45.069  29.579  32.536  1.00  0.00     0.167 HD
ATOM     69  C   UNL A   1      46.902  30.488  30.560  1.00  0.00     0.074 A 
ATOM     70  C   UNL A   1      47.452  31.194  29.420  1.00  0.00     0.031 C 
ATOM     71  C   UNL A   1      47.613  29.638  31.347  1.00  0.00     0.034 A 
BRANCH  58  72
ATOM     72  C   UNL A   1      44.330  27.202  36.028  1.00  0.00     0.023 A 
ATOM     73  C   UNL A   1      44.762  27.686  37.276  1.00  0.00     0.031 A 
ATOM     74  C   UNL A   1      43.933  25.856  35.949  1.00  0.00     0.131 A 
ATOM     75  C   UNL A   1      44.881  26.808  38.363  1.00  0.00     0.055 A 
ATOM     76  C   UNL A   1      43.959  25.012  37.061  1.00  0.00     0.041 A 
ATOM     77  F   UNL A   1      43.537  25.327  34.781  1.00  0.00    -0.206 F 
ATOM     78  C   UNL A   1      44.456  25.481  38.273  1.00  0.00     0.022 A 
BRANCH  75  79
ATOM     79  S   UNL A   1      45.780  27.371  39.836  1.00  0.00     0.124 S 
ATOM     80  O   UNL A   1      44.689  27.836  40.689  1.00  0.00    -0.237 OA
ATOM     81  O   UNL A   1      46.462  26.158  40.273  1.00  0.00    -0.237 OA
ATOM     82  O   UNL A   1      46.651  28.428  39.324  1.00  0.00    -0.744 OA
ENDBRANCH  75  79
ENDBRANCH  58  72
BRANCH  59  83
ATOM     83  C   UNL A   1      44.052  33.276  28.041  1.00  0.00     0.023 A 
ATOM     84  C   UNL A   1      44.039  34.671  28.197  1.00  0.00     0.031 A 
ATOM     85  C   UNL A   1      43.997  32.758  26.734  1.00  0.00     0.131 A 
ATOM     86  C   UNL A   1      43.934  35.500  27.071  1.00  0.00     0.055 A 
ATOM     87  C   UNL A   1      43.950  33.590  25.613  1.00  0.00     0.041 A 
ATOM     88  F   UNL A   1      43.995  31.432  26.528  1.00  0.00    -0.206 F 
ATOM     89  C   UNL A   1      43.906  34.970  25.779  1.00  0.00     0.022 A 
BRANCH  86  90
ATOM     90  S   UNL A   1      43.749  37.286  27.325  1.00  0.00     0.124 S 
ATOM     91  O   UNL A   1      44.978  37.799  26.729  1.00  0.00    -0.237 OA
ATOM     92  O   UNL A   1      42.516  37.571  26.598  1.00  0.00    -0.237 OA
ATOM     93  O   UNL A   1      43.657  37.418  28.777  1.00  0.00    -0.744 OA
ENDBRANCH  86  90
ENDBRANCH  59  83
BRANCH  71  94
ATOM     94  C   UNL A   1      49.053  29.382  30.964  1.00  0.00     0.023 A 
ATOM     95  C   UNL A   1      49.436  28.272  30.189  1.00  0.00     0.031 A 
ATOM     96  C   UNL A   1      50.062  30.267  31.387  1.00  0.00     0.131 A 
ATOM     97  C   UNL A   1      50.794  28.044  29.915  1.00  0.00     0.055 A 
ATOM     98  C   UNL A   1      51.403  30.075  31.049  1.00  0.00     0.041 A 
ATOM     99  F   UNL A   1      49.760  31.342  32.134  1.00  0.00    -0.206 F 
ATOM    100  C   UNL A   1      51.776  28.951  30.322  1.00  0.00     0.022 A 
BRANCH  97 101
ATOM    101  S   UNL A   1      51.273  26.491  29.111  1.00  0.00     0.124 S 
ATOM    102  O   UNL A   1      49.987  25.982  28.642  1.00  0.00    -0.237 OA
ATOM    103  O   UNL A   1      52.194  26.946  28.074  1.00  0.00    -0.237 OA
ATOM    104  O   UNL A   1      51.887  25.720  30.190  1.00  0.00    -0.744 OA
ENDBRANCH  97 101
ENDBRANCH  71  94
ENDBRANCH  45  46
ENDBRANCH  38  40
ENDBRANCH  37  38
ENDBRANCH  36  37
ENDBRANCH  35  36
ENDBRANCH  34  35
ENDBRANCH  33  34
ENDBRANCH   1  33
TORSDOF 26
ENDMDL
MODEL 3
REMARK VINA RESULT:      -8.8      2.803      4.699
REMARK SMILES O=C(Nc1ccc(N2CCCCC2)cc1C(=O)OCCOCCOCCOCCOC(=O)c1ccc(-c2c3nc(c(-c4cc(S(=O)(=O)[O-])ccc4F)c4ccc([nH]4)c(-c4cc(S(=O)(=O)[O-])ccc4F)c4nc(c(-c5cc(S(=O)(=O)[O-])ccc5F)c5ccc2[nH]5)C=C4)C=C3)cc1)c1ccccc1
REMARK SMILES IDX 25 1 24 2 23 3 22 4 21 5 20 6 19 7 18 8 16 9 17 10 15 11
REMARK SMILES IDX 4 12 5 13 6 14 14 15 7 16 3 17 1 18 2 19 96 21 97 22 101 23
REMARK SMILES IDX 98 24 100 25 99 26 8 27 9 28 13 29 10 30 12 31 11 32 26 33
REMARK SMILES IDX 27 34 28 35 29 36 30 37 31 38 32 39 33 40 34 41 95 42 35 43
REMARK SMILES IDX 94 44 36 45 37 46 38 47 88 48 39 49 93 50 87 51 89 52 40 53
REMARK SMILES IDX 92 54 86 55 85 56 41 58 73 59 53 60 72 61 54 62 57 63 71 64
REMARK SMILES IDX 90 65 55 66 56 67 70 69 91 70 58 71 42 72 43 73 51 74 44 75
REMARK SMILES IDX 50 76 52 77 49 78 45 79 46 80 47 81 48 82 74 83 75 84 83 85
REMARK SMILES IDX 76 86 82 87 84 88 81 89 77 90 78 91 79 92 80 93 59 94 60 95
REMARK SMILES IDX 68 96 61 97 67 98 69 99 66 100 62 101 63 102 64 103 65 104
REMARK H PARENT 3 20 89 57 57 68
REMARK Flexibility Score: inf
ROOT
ATOM      1  C   UNL A   1      39.152  28.879  29.247  1.00  0.00     0.188 C 
ENDROOT
BRANCH   1   2
ATOM      2  O   UNL A   1      37.867  29.462  29.410  1.00  0.00    -0.377 OA
BRANCH   2   3
ATOM      3  C   UNL A   1      37.022  29.459  28.269  1.00  0.00     0.188 C 
BRANCH   3   4
ATOM      4  C   UNL A   1      36.019  30.616  28.046  1.00  0.00     0.188 C 
BRANCH   4   5
ATOM      5  O   UNL A   1      34.785  30.246  27.470  1.00  0.00    -0.376 OA
BRANCH   5   6
ATOM      6  C   UNL A   1      34.558  29.021  26.816  1.00  0.00     0.202 C 
BRANCH   6   7
ATOM      7  C   UNL A   1      33.179  28.374  26.755  1.00  0.00     0.261 C 
BRANCH   7   8
ATOM      8  O   UNL A   1      33.119  26.950  26.719  1.00  0.00    -0.460 OA
BRANCH   8   9
ATOM      9  C   UNL A   1      31.901  26.397  26.545  1.00  0.00     0.340 C 
ATOM     10  O   UNL A   1      30.835  26.907  26.851  1.00  0.00    -0.246 OA
BRANCH   9  11
ATOM     11  C   UNL A   1      32.023  25.151  25.737  1.00  0.00     0.085 A 
ATOM     12  C   UNL A   1      31.025  24.574  24.921  1.00  0.00     0.056 A 
ATOM     13  C   UNL A   1      31.263  23.297  24.391  1.00  0.00     0.029 A 
ATOM     14  C   UNL A   1      32.492  22.663  24.567  1.00  0.00     0.028 A 
ATOM     15  C   UNL A   1      33.248  24.475  25.929  1.00  0.00     0.043 A 
ATOM     16  C   UNL A   1      33.505  23.247  25.325  1.00  0.00     0.038 A 
BRANCH  12  17
ATOM     17  N   UNL A   1      29.783  25.124  24.523  1.00  0.00    -0.321 N 
ATOM     18  O   UNL A   1      28.233  26.616  23.862  1.00  0.00    -0.269 OA
ATOM     19  C   UNL A   1      29.424  26.321  23.943  1.00  0.00     0.255 C 
ATOM     20  H   UNL A   1      29.019  24.529  24.698  1.00  0.00     0.170 HD
BRANCH  19  21
ATOM     21  C   UNL A   1      30.433  27.233  23.365  1.00  0.00     0.040 A 
ATOM     22  C   UNL A   1      31.501  26.759  22.598  1.00  0.00     0.014 A 
ATOM     23  C   UNL A   1      30.364  28.587  23.713  1.00  0.00     0.014 A 
ATOM     24  C   UNL A   1      32.597  27.589  22.363  1.00  0.00     0.001 A 
ATOM     25  C   UNL A   1      31.454  29.418  23.456  1.00  0.00     0.001 A 
ATOM     26  C   UNL A   1      32.587  28.904  22.827  1.00  0.00     0.000 A 
ENDBRANCH  19  21
ENDBRANCH  12  17
BRANCH  16  27
ATOM     27  N   UNL A   1      34.721  22.614  25.422  1.00  0.00    -0.372 N 
ATOM     28  C   UNL A   1      35.917  23.443  25.501  1.00  0.00     0.116 C 
ATOM     29  C   UNL A   1      34.837  21.238  25.879  1.00  0.00     0.116 C 
ATOM     30  C   UNL A   1      36.992  22.810  24.623  1.00  0.00     0.021 C 
ATOM     31  C   UNL A   1      35.905  20.550  25.023  1.00  0.00     0.021 C 
ATOM     32  C   UNL A   1      37.218  21.342  24.995  1.00  0.00     0.004 C 
ENDBRANCH  16  27
ENDBRANCH   9  11
ENDBRANCH   8   9
ENDBRANCH   7   8
ENDBRANCH   6   7
ENDBRANCH   5   6
ENDBRANCH   4   5
ENDBRANCH   3   4
ENDBRANCH   2   3
ENDBRANCH   1   2
BRANCH   1  33
ATOM     33  C   UNL A   1      39.163  27.772  28.177  1.00  0.00     0.188 C 
BRANCH  33  34
ATOM     34  O   UNL A   1      39.256  26.418  28.584  1.00  0.00    -0.376 OA
BRANCH  34  35
ATOM     35  C   UNL A   1      39.322  25.356  27.648  1.00  0.00     0.202 C 
BRANCH  35  36
ATOM     36  C   UNL A   1      40.507  24.383  27.451  1.00  0.00     0.261 C 
BRANCH  36  37
ATOM     37  O   UNL A   1      41.167  24.328  26.189  1.00  0.00    -0.460 OA
BRANCH  37  38
ATOM     38  C   UNL A   1      41.702  25.481  25.740  1.00  0.00     0.338 C 
ATOM     39  O   UNL A   1      41.151  26.333  25.063  1.00  0.00    -0.246 OA
BRANCH  38  40
ATOM     40  C   UNL A   1      43.029  25.619  26.376  1.00  0.00     0.060 A 
ATOM     41  C   UNL A   1      43.868  24.498  26.462  1.00  0.00     0.016 A 
ATOM     42  C   UNL A   1      43.445  26.855  26.875  1.00  0.00     0.016 A 
ATOM     43  C   UNL A   1      45.112  24.601  27.076  1.00  0.00     0.010 A 
ATOM     44  C   UNL A   1      44.677  26.950  27.524  1.00  0.00     0.010 A 
ATOM     45  C   UNL A   1      45.495  25.813  27.659  1.00  0.00    -0.014 A 
BRANCH  45  46
ATOM     46  C   UNL A   1      46.615  25.827  28.627  1.00  0.00     0.031 A 
ATOM     47  C   UNL A   1      47.995  26.099  28.093  1.00  0.00     0.074 A 
ATOM     48  C   UNL A   1      46.414  25.631  29.940  1.00  0.00     0.049 A 
ATOM     49  N   UNL A   1      49.144  26.099  28.713  1.00  0.00    -0.248 NA
ATOM     50  C   UNL A   1      48.081  26.403  26.657  1.00  0.00     0.031 C 
ATOM     51  C   UNL A   1      45.114  25.433  30.576  1.00  0.00     0.029 A 
ATOM     52  N   UNL A   1      47.313  25.565  30.973  1.00  0.00    -0.354 N 
ATOM     53  C   UNL A   1      50.095  26.384  27.738  1.00  0.00     0.074 A 
ATOM     54  C   UNL A   1      49.386  26.512  26.483  1.00  0.00     0.031 C 
ATOM     55  C   UNL A   1      45.301  25.266  31.898  1.00  0.00     0.029 A 
ATOM     56  C   UNL A   1      46.733  25.296  32.190  1.00  0.00     0.049 A 
ATOM     57  H   UNL A   1      48.282  25.696  30.855  1.00  0.00     0.167 HD
ATOM     58  C   UNL A   1      51.435  26.530  27.881  1.00  0.00     0.034 A 
ATOM     59  C   UNL A   1      47.303  25.077  33.392  1.00  0.00     0.034 A 
ATOM     60  C   UNL A   1      52.121  26.379  29.141  1.00  0.00     0.049 A 
ATOM     61  C   UNL A   1      48.809  25.123  33.506  1.00  0.00     0.074 A 
ATOM     62  C   UNL A   1      53.469  26.520  29.411  1.00  0.00     0.029 A 
ATOM     63  N   UNL A   1      51.510  26.030  30.341  1.00  0.00    -0.354 N 
ATOM     64  N   UNL A   1      49.705  25.397  32.584  1.00  0.00    -0.248 NA
ATOM     65  C   UNL A   1      49.380  24.832  34.827  1.00  0.00     0.031 C 
ATOM     66  C   UNL A   1      53.687  26.165  30.746  1.00  0.00     0.029 A 
ATOM     67  C   UNL A   1      52.462  25.902  31.341  1.00  0.00     0.049 A 
ATOM     68  H   UNL A   1      50.543  25.894  30.462  1.00  0.00     0.167 HD
ATOM     69  C   UNL A   1      50.941  25.351  33.226  1.00  0.00     0.074 A 
ATOM     70  C   UNL A   1      50.672  25.029  34.613  1.00  0.00     0.031 C 
ATOM     71  C   UNL A   1      52.183  25.566  32.719  1.00  0.00     0.034 A 
BRANCH  58  72
ATOM     72  C   UNL A   1      52.238  26.787  26.626  1.00  0.00     0.023 A 
ATOM     73  C   UNL A   1      52.521  28.089  26.175  1.00  0.00     0.031 A 
ATOM     74  C   UNL A   1      52.666  25.711  25.829  1.00  0.00     0.131 A 
ATOM     75  C   UNL A   1      53.118  28.281  24.920  1.00  0.00     0.055 A 
ATOM     76  C   UNL A   1      53.350  25.907  24.628  1.00  0.00     0.041 A 
ATOM     77  F   UNL A   1      52.403  24.445  26.190  1.00  0.00    -0.206 F 
ATOM     78  C   UNL A   1      53.560  27.199  24.156  1.00  0.00     0.022 A 
BRANCH  75  79
ATOM     79  S   UNL A   1      53.131  29.953  24.215  1.00  0.00     0.124 S 
ATOM     80  O   UNL A   1      53.830  30.706  25.254  1.00  0.00    -0.237 OA
ATOM     81  O   UNL A   1      53.857  29.763  22.965  1.00  0.00    -0.237 OA
ATOM     82  O   UNL A   1      51.713  30.276  24.071  1.00  0.00    -0.744 OA
ENDBRANCH  75  79
ENDBRANCH  58  72
BRANCH  59  83
ATOM     83  C   UNL A   1      46.461  24.773  34.584  1.00  0.00     0.023 A 
ATOM     84  C   UNL A   1      45.901  25.807  35.350  1.00  0.00     0.031 A 
ATOM     85  C   UNL A   1      46.243  23.448  35.003  1.00  0.00     0.131 A 
ATOM     86  C   UNL A   1      45.183  25.503  36.516  1.00  0.00     0.055 A 
ATOM     87  C   UNL A   1      45.479  23.149  36.133  1.00  0.00     0.041 A 
ATOM     88  F   UNL A   1      46.766  22.422  34.313  1.00  0.00    -0.206 F 
ATOM     89  C   UNL A   1      44.953  24.180  36.904  1.00  0.00     0.022 A 
BRANCH  86  90
ATOM     90  S   UNL A   1      44.621  26.869  37.568  1.00  0.00     0.124 S 
ATOM     91  O   UNL A   1      44.465  27.946  36.597  1.00  0.00    -0.237 OA
ATOM     92  O   UNL A   1      43.387  26.330  38.133  1.00  0.00    -0.237 OA
ATOM     93  O   UNL A   1      45.716  27.040  38.521  1.00  0.00    -0.744 OA
ENDBRANCH  86  90
ENDBRANCH  59  83
BRANCH  71  94
ATOM     94  C   UNL A   1      53.344  25.515  33.687  1.00  0.00     0.023 A 
ATOM     95  C   UNL A   1      53.746  26.638  34.432  1.00  0.00     0.031 A 
ATOM     96  C   UNL A   1      54.062  24.318  33.863  1.00  0.00     0.131 A 
ATOM     97  C   UNL A   1      54.870  26.557  35.270  1.00  0.00     0.055 A 
ATOM     98  C   UNL A   1      55.134  24.224  34.753  1.00  0.00     0.041 A 
ATOM     99  F   UNL A   1      53.729  23.213  33.175  1.00  0.00    -0.206 F 
ATOM    100  C   UNL A   1      55.552  25.351  35.450  1.00  0.00     0.022 A 
BRANCH  97 101
ATOM    101  S   UNL A   1      55.496  28.075  36.040  1.00  0.00     0.124 S 
ATOM    102  O   UNL A   1      54.262  28.753  36.421  1.00  0.00    -0.237 OA
ATOM    103  O   UNL A   1      56.305  27.558  37.139  1.00  0.00    -0.237 OA
ATOM    104  O   UNL A   1      56.250  28.719  34.967  1.00  0.00    -0.744 OA
ENDBRANCH  97 101
ENDBRANCH  71  94
ENDBRANCH  45  46
ENDBRANCH  38  40
ENDBRANCH  37  38
ENDBRANCH  36  37
ENDBRANCH  35  36
ENDBRANCH  34  35
ENDBRANCH  33  34
ENDBRANCH   1  33
TORSDOF 26
ENDMDL
