MODEL 1
REMARK VINA RESULT:      -5.2      0.000      0.000
REMARK SMILES CCCCCCNC(=O)Oc1cccc(-c2ccc([C@@H](C)C(=O)OCCOCCOCCOCCOC(=O)c3ccc(-c4c5nc(c(-c6cc(S(=O)(=O)[O-])ccc6F)c6ccc([nH]6)c(-c6cc(S(=O)(=O)[O-])ccc6F)c6nc(c(-c7cc(S(=O)(=O)[O-])ccc7F)c7ccc4[nH]7)C=C6)C=C5)cc3)cc2C(F)(F)F)c1
REMARK SMILES IDX 27 1 26 2 25 3 24 4 22 5 23 6 20 7 21 8 19 9 16 10 17 11
REMARK SMILES IDX 103 12 18 13 102 14 15 15 11 16 12 17 108 18 13 19 14 20
REMARK SMILES IDX 10 21 8 22 7 23 9 25 6 26 5 27 4 28 3 29 2 30 1 31 104 32
REMARK SMILES IDX 105 33 106 34 107 35 28 36 29 37 30 38 31 39 32 40 33 41
REMARK SMILES IDX 34 42 35 43 36 44 37 45 38 46 39 47 40 48 101 49 41 50
REMARK SMILES IDX 100 51 42 52 43 53 44 54 94 55 45 56 99 57 93 58 95 59 46 60
REMARK SMILES IDX 98 61 92 62 91 63 47 65 79 66 59 67 78 68 60 69 63 70 77 71
REMARK SMILES IDX 96 72 61 73 62 74 76 76 97 77 64 78 48 79 49 80 57 81 50 82
REMARK SMILES IDX 56 83 58 84 55 85 51 86 52 87 53 88 54 89 80 90 81 91 89 92
REMARK SMILES IDX 82 93 88 94 90 95 87 96 83 97 84 98 85 99 86 100 65 101
REMARK SMILES IDX 66 102 74 103 67 104 73 105 75 106 72 107 68 108 69 109
REMARK SMILES IDX 70 110 71 111
REMARK H PARENT 7 24 95 64 63 75
REMARK Flexibility Score: inf
ROOT
ATOM      1  O   UNL A   1      43.898  34.979  28.465  1.00  0.00    -0.376 OA
ENDROOT
BRANCH   1   2
ATOM      2  C   UNL A   1      43.264  34.303  27.387  1.00  0.00     0.202 C 
BRANCH   2   3
ATOM      3  C   UNL A   1      43.954  34.182  26.016  1.00  0.00     0.261 C 
BRANCH   3   4
ATOM      4  O   UNL A   1      44.384  32.864  25.614  1.00  0.00    -0.463 OA
BRANCH   4   5
ATOM      5  C   UNL A   1      45.549  32.426  26.140  1.00  0.00     0.313 C 
ATOM      6  O   UNL A   1      46.620  33.015  26.001  1.00  0.00    -0.252 OA
BRANCH   5   7
ATOM      7  C   UNL A   1      45.484  31.111  26.913  1.00  0.00     0.126 C 
ATOM      8  C   UNL A   1      46.136  30.020  26.070  1.00  0.00     0.025 C 
BRANCH   7   9
ATOM      9  C   UNL A   1      44.187  30.616  27.554  1.00  0.00    -0.033 A 
ATOM     10  C   UNL A   1      41.705  29.603  28.615  1.00  0.00    -0.006 A 
ATOM     11  C   UNL A   1      42.466  30.594  29.277  1.00  0.00     0.009 A 
ATOM     12  C   UNL A   1      42.217  29.099  27.401  1.00  0.00     0.064 A 
ATOM     13  C   UNL A   1      43.677  31.096  28.759  1.00  0.00     0.005 A 
ATOM     14  C   UNL A   1      43.438  29.618  26.894  1.00  0.00     0.018 A 
BRANCH  10  15
ATOM     15  C   UNL A   1      40.379  29.223  29.160  1.00  0.00    -0.014 A 
ATOM     16  C   UNL A   1      38.039  29.668  29.655  1.00  0.00     0.133 A 
ATOM     17  C   UNL A   1      37.959  28.529  30.454  1.00  0.00     0.047 A 
ATOM     18  C   UNL A   1      39.225  30.011  28.993  1.00  0.00     0.056 A 
ATOM     19  C   UNL A   1      39.075  27.712  30.588  1.00  0.00     0.004 A 
ATOM     20  C   UNL A   1      40.271  28.062  29.955  1.00  0.00     0.009 A 
BRANCH  16  21
ATOM     21  O   UNL A   1      36.920  30.528  29.709  1.00  0.00    -0.410 OA
BRANCH  21  22
ATOM     22  C   UNL A   1      36.030  30.606  28.650  1.00  0.00     0.412 C 
ATOM     23  N   UNL A   1      35.988  31.847  28.073  1.00  0.00    -0.321 N 
ATOM     24  H   UNL A   1      35.349  31.962  27.332  1.00  0.00     0.167 HD
ATOM     25  O   UNL A   1      35.325  29.693  28.236  1.00  0.00    -0.224 OA
BRANCH  23  26
ATOM     26  C   UNL A   1      36.779  33.012  28.427  1.00  0.00     0.119 C 
BRANCH  26  27
ATOM     27  C   UNL A   1      36.714  33.316  29.926  1.00  0.00     0.021 C 
BRANCH  27  28
ATOM     28  C   UNL A   1      38.074  33.550  30.601  1.00  0.00     0.002 C 
BRANCH  28  29
ATOM     29  C   UNL A   1      39.186  34.070  29.684  1.00  0.00    -0.000 C 
BRANCH  29  30
ATOM     30  C   UNL A   1      40.614  33.791  30.159  1.00  0.00    -0.003 C 
ATOM     31  C   UNL A   1      40.811  34.024  31.651  1.00  0.00     0.004 C 
ENDBRANCH  29  30
ENDBRANCH  28  29
ENDBRANCH  27  28
ENDBRANCH  26  27
ENDBRANCH  23  26
ENDBRANCH  21  22
ENDBRANCH  16  21
ENDBRANCH  10  15
BRANCH  12  32
ATOM     32  C   UNL A   1      41.566  27.987  26.606  1.00  0.00     0.417 C 
ATOM     33  F   UNL A   1      41.904  26.747  27.075  1.00  0.00    -0.166 F 
ATOM     34  F   UNL A   1      40.205  28.036  26.689  1.00  0.00    -0.166 F 
ATOM     35  F   UNL A   1      41.861  27.942  25.279  1.00  0.00    -0.166 F 
ENDBRANCH  12  32
ENDBRANCH   7   9
ENDBRANCH   5   7
ENDBRANCH   4   5
ENDBRANCH   3   4
ENDBRANCH   2   3
ENDBRANCH   1   2
BRANCH   1  36
ATOM     36  C   UNL A   1      43.428  36.246  28.906  1.00  0.00     0.188 C 
BRANCH  36  37
ATOM     37  C   UNL A   1      42.674  37.196  27.966  1.00  0.00     0.188 C 
BRANCH  37  38
ATOM     38  O   UNL A   1      43.484  38.116  27.266  1.00  0.00    -0.377 OA
BRANCH  38  39
ATOM     39  C   UNL A   1      43.124  39.484  27.369  1.00  0.00     0.188 C 
BRANCH  39  40
ATOM     40  C   UNL A   1      42.730  39.996  28.766  1.00  0.00     0.188 C 
BRANCH  40  41
ATOM     41  O   UNL A   1      43.584  41.021  29.264  1.00  0.00    -0.376 OA
BRANCH  41  42
ATOM     42  C   UNL A   1      43.383  41.482  30.594  1.00  0.00     0.202 C 
BRANCH  42  43
ATOM     43  C   UNL A   1      44.578  42.094  31.347  1.00  0.00     0.261 C 
BRANCH  43  44
ATOM     44  O   UNL A   1      45.182  41.296  32.372  1.00  0.00    -0.460 OA
BRANCH  44  45
ATOM     45  C   UNL A   1      44.383  40.713  33.295  1.00  0.00     0.338 C 
ATOM     46  O   UNL A   1      43.529  41.247  33.965  1.00  0.00    -0.246 OA
BRANCH  45  47
ATOM     47  C   UNL A   1      44.586  39.249  33.176  1.00  0.00     0.060 A 
ATOM     48  C   UNL A   1      45.497  38.612  34.033  1.00  0.00     0.016 A 
ATOM     49  C   UNL A   1      43.868  38.511  32.236  1.00  0.00     0.016 A 
ATOM     50  C   UNL A   1      45.716  37.235  33.927  1.00  0.00     0.010 A 
ATOM     51  C   UNL A   1      44.110  37.140  32.111  1.00  0.00     0.010 A 
ATOM     52  C   UNL A   1      45.058  36.501  32.933  1.00  0.00    -0.014 A 
BRANCH  52  53
ATOM     53  C   UNL A   1      45.511  35.133  32.571  1.00  0.00     0.031 A 
ATOM     54  C   UNL A   1      46.711  35.016  31.671  1.00  0.00     0.074 A 
ATOM     55  C   UNL A   1      44.863  34.031  32.986  1.00  0.00     0.049 A 
ATOM     56  N   UNL A   1      47.185  33.971  31.046  1.00  0.00    -0.248 NA
ATOM     57  C   UNL A   1      47.468  36.256  31.437  1.00  0.00     0.031 C 
ATOM     58  C   UNL A   1      43.739  34.010  33.919  1.00  0.00     0.029 A 
ATOM     59  N   UNL A   1      45.045  32.710  32.649  1.00  0.00    -0.354 N 
ATOM     60  C   UNL A   1      48.280  34.433  30.322  1.00  0.00     0.074 A 
ATOM     61  C   UNL A   1      48.388  35.853  30.576  1.00  0.00     0.031 C 
ATOM     62  C   UNL A   1      43.308  32.742  34.053  1.00  0.00     0.029 A 
ATOM     63  C   UNL A   1      44.086  31.871  33.171  1.00  0.00     0.049 A 
ATOM     64  H   UNL A   1      45.789  32.396  32.086  1.00  0.00     0.167 HD
ATOM     65  C   UNL A   1      49.112  33.734  29.514  1.00  0.00     0.034 A 
ATOM     66  C   UNL A   1      43.836  30.567  32.921  1.00  0.00     0.034 A 
ATOM     67  C   UNL A   1      48.980  32.321  29.266  1.00  0.00     0.049 A 
ATOM     68  C   UNL A   1      44.711  29.827  31.931  1.00  0.00     0.074 A 
ATOM     69  C   UNL A   1      49.773  31.509  28.476  1.00  0.00     0.029 A 
ATOM     70  N   UNL A   1      47.980  31.513  29.790  1.00  0.00    -0.354 N 
ATOM     71  N   UNL A   1      45.736  30.272  31.239  1.00  0.00    -0.248 NA
ATOM     72  C   UNL A   1      44.399  28.411  31.686  1.00  0.00     0.031 C 
ATOM     73  C   UNL A   1      49.203  30.234  28.452  1.00  0.00     0.029 A 
ATOM     74  C   UNL A   1      48.114  30.221  29.309  1.00  0.00     0.049 A 
ATOM     75  H   UNL A   1      47.278  31.814  30.412  1.00  0.00     0.167 HD
ATOM     76  C   UNL A   1      46.214  29.179  30.516  1.00  0.00     0.074 A 
ATOM     77  C   UNL A   1      45.365  28.056  30.851  1.00  0.00     0.031 C 
ATOM     78  C   UNL A   1      47.267  29.106  29.663  1.00  0.00     0.034 A 
BRANCH  65  79
ATOM     79  C   UNL A   1      50.189  34.500  28.788  1.00  0.00     0.023 A 
ATOM     80  C   UNL A   1      51.488  34.635  29.306  1.00  0.00     0.031 A 
ATOM     81  C   UNL A   1      49.903  35.117  27.557  1.00  0.00     0.131 A 
ATOM     82  C   UNL A   1      52.434  35.417  28.627  1.00  0.00     0.055 A 
ATOM     83  C   UNL A   1      50.872  35.827  26.846  1.00  0.00     0.041 A 
ATOM     84  F   UNL A   1      48.672  35.048  27.027  1.00  0.00    -0.206 F 
ATOM     85  C   UNL A   1      52.144  35.990  27.386  1.00  0.00     0.022 A 
BRANCH  82  86
ATOM     86  S   UNL A   1      54.007  35.787  29.450  1.00  0.00     0.124 S 
ATOM     87  O   UNL A   1      54.972  35.449  28.407  1.00  0.00    -0.237 OA
ATOM     88  O   UNL A   1      53.874  37.204  29.763  1.00  0.00    -0.237 OA
ATOM     89  O   UNL A   1      54.009  34.889  30.604  1.00  0.00    -0.744 OA
ENDBRANCH  82  86
ENDBRANCH  65  79
BRANCH  66  90
ATOM     90  C   UNL A   1      42.668  29.881  33.553  1.00  0.00     0.023 A 
ATOM     91  C   UNL A   1      42.832  29.048  34.671  1.00  0.00     0.031 A 
ATOM     92  C   UNL A   1      41.379  29.986  32.997  1.00  0.00     0.131 A 
ATOM     93  C   UNL A   1      41.741  28.311  35.163  1.00  0.00     0.055 A 
ATOM     94  C   UNL A   1      40.285  29.302  33.531  1.00  0.00     0.041 A 
ATOM     95  F   UNL A   1      41.163  30.757  31.920  1.00  0.00    -0.206 F 
ATOM     96  C   UNL A   1      40.466  28.445  34.611  1.00  0.00     0.022 A 
BRANCH  93  97
ATOM     97  S   UNL A   1      42.039  27.080  36.462  1.00  0.00     0.124 S 
ATOM     98  O   UNL A   1      42.176  25.855  35.681  1.00  0.00    -0.237 OA
ATOM     99  O   UNL A   1      43.260  27.585  37.083  1.00  0.00    -0.237 OA
ATOM    100  O   UNL A   1      40.839  27.163  37.291  1.00  0.00    -0.744 OA
ENDBRANCH  93  97
ENDBRANCH  66  90
BRANCH  78 101
ATOM    101  C   UNL A   1      47.626  27.756  29.094  1.00  0.00     0.023 A 
ATOM    102  C   UNL A   1      46.935  27.187  28.010  1.00  0.00     0.031 A 
ATOM    103  C   UNL A   1      48.727  27.053  29.620  1.00  0.00     0.131 A 
ATOM    104  C   UNL A   1      47.339  25.941  27.504  1.00  0.00     0.055 A 
ATOM    105  C   UNL A   1      49.158  25.844  29.075  1.00  0.00     0.041 A 
ATOM    106  F   UNL A   1      49.422  27.549  30.656  1.00  0.00    -0.206 F 
ATOM    107  C   UNL A   1      48.458  25.278  28.015  1.00  0.00     0.022 A 
BRANCH 104 108
ATOM    108  S   UNL A   1      46.350  25.164  26.196  1.00  0.00     0.124 S 
ATOM    109  O   UNL A   1      47.294  25.128  25.083  1.00  0.00    -0.237 OA
ATOM    110  O   UNL A   1      46.009  23.873  26.784  1.00  0.00    -0.237 OA
ATOM    111  O   UNL A   1      45.225  26.082  26.025  1.00  0.00    -0.744 OA
ENDBRANCH 104 108
ENDBRANCH  78 101
ENDBRANCH  52  53
ENDBRANCH  45  47
ENDBRANCH  44  45
ENDBRANCH  43  44
ENDBRANCH  42  43
ENDBRANCH  41  42
ENDBRANCH  40  41
ENDBRANCH  39  40
ENDBRANCH  38  39
ENDBRANCH  37  38
ENDBRANCH  36  37
ENDBRANCH   1  36
TORSDOF 33
ENDMDL
MODEL 2
REMARK VINA RESULT:      -4.9      4.067     10.582
REMARK SMILES CCCCCCNC(=O)Oc1cccc(-c2ccc([C@@H](C)C(=O)OCCOCCOCCOCCOC(=O)c3ccc(-c4c5nc(c(-c6cc(S(=O)(=O)[O-])ccc6F)c6ccc([nH]6)c(-c6cc(S(=O)(=O)[O-])ccc6F)c6nc(c(-c7cc(S(=O)(=O)[O-])ccc7F)c7ccc4[nH]7)C=C6)C=C5)cc3)cc2C(F)(F)F)c1
REMARK SMILES IDX 27 1 26 2 25 3 24 4 22 5 23 6 20 7 21 8 19 9 16 10 17 11
REMARK SMILES IDX 103 12 18 13 102 14 15 15 11 16 12 17 108 18 13 19 14 20
REMARK SMILES IDX 10 21 8 22 7 23 9 25 6 26 5 27 4 28 3 29 2 30 1 31 104 32
REMARK SMILES IDX 105 33 106 34 107 35 28 36 29 37 30 38 31 39 32 40 33 41
REMARK SMILES IDX 34 42 35 43 36 44 37 45 38 46 39 47 40 48 101 49 41 50
REMARK SMILES IDX 100 51 42 52 43 53 44 54 94 55 45 56 99 57 93 58 95 59 46 60
REMARK SMILES IDX 98 61 92 62 91 63 47 65 79 66 59 67 78 68 60 69 63 70 77 71
REMARK SMILES IDX 96 72 61 73 62 74 76 76 97 77 64 78 48 79 49 80 57 81 50 82
REMARK SMILES IDX 56 83 58 84 55 85 51 86 52 87 53 88 54 89 80 90 81 91 89 92
REMARK SMILES IDX 82 93 88 94 90 95 87 96 83 97 84 98 85 99 86 100 65 101
REMARK SMILES IDX 66 102 74 103 67 104 73 105 75 106 72 107 68 108 69 109
REMARK SMILES IDX 70 110 71 111
REMARK H PARENT 7 24 95 64 63 75
REMARK Flexibility Score: inf
ROOT
ATOM      1  O   UNL A   1      37.263  31.855  34.641  1.00  0.00    -0.376 OA
ENDROOT
BRANCH   1   2
ATOM      2  C   UNL A   1      38.156  30.939  35.262  1.00  0.00     0.202 C 
BRANCH   2   3
ATOM      3  C   UNL A   1      39.400  30.422  34.516  1.00  0.00     0.261 C 
BRANCH   3   4
ATOM      4  O   UNL A   1      40.109  29.317  35.116  1.00  0.00    -0.463 OA
BRANCH   4   5
ATOM      5  C   UNL A   1      40.766  28.495  34.269  1.00  0.00     0.313 C 
ATOM      6  O   UNL A   1      40.397  28.272  33.116  1.00  0.00    -0.252 OA
BRANCH   5   7
ATOM      7  C   UNL A   1      42.009  27.807  34.829  1.00  0.00     0.126 C 
ATOM      8  C   UNL A   1      42.475  28.573  36.062  1.00  0.00     0.025 C 
BRANCH   7   9
ATOM      9  C   UNL A   1      43.189  27.425  33.934  1.00  0.00    -0.033 A 
ATOM     10  C   UNL A   1      45.404  26.546  32.311  1.00  0.00    -0.006 A 
ATOM     11  C   UNL A   1      45.058  27.909  32.450  1.00  0.00     0.009 A 
ATOM     12  C   UNL A   1      44.604  25.604  32.991  1.00  0.00     0.064 A 
ATOM     13  C   UNL A   1      43.980  28.344  33.246  1.00  0.00     0.005 A 
ATOM     14  C   UNL A   1      43.523  26.061  33.791  1.00  0.00     0.018 A 
BRANCH  10  15
ATOM     15  C   UNL A   1      46.630  26.182  31.561  1.00  0.00    -0.014 A 
ATOM     16  C   UNL A   1      49.026  25.787  31.397  1.00  0.00     0.133 A 
ATOM     17  C   UNL A   1      48.954  25.736  30.006  1.00  0.00     0.047 A 
ATOM     18  C   UNL A   1      47.880  25.986  32.178  1.00  0.00     0.056 A 
ATOM     19  C   UNL A   1      47.720  25.876  29.382  1.00  0.00     0.004 A 
ATOM     20  C   UNL A   1      46.575  26.105  30.152  1.00  0.00     0.009 A 
BRANCH  16  21
ATOM     21  O   UNL A   1      50.330  25.806  31.938  1.00  0.00    -0.410 OA
BRANCH  21  22
ATOM     22  C   UNL A   1      51.057  24.637  32.086  1.00  0.00     0.412 C 
ATOM     23  N   UNL A   1      52.411  24.835  32.026  1.00  0.00    -0.321 N 
ATOM     24  H   UNL A   1      52.973  24.029  32.099  1.00  0.00     0.167 HD
ATOM     25  O   UNL A   1      50.589  23.516  32.250  1.00  0.00    -0.224 OA
BRANCH  23  26
ATOM     26  C   UNL A   1      53.112  26.096  31.869  1.00  0.00     0.119 C 
BRANCH  26  27
ATOM     27  C   UNL A   1      52.871  26.720  30.492  1.00  0.00     0.021 C 
BRANCH  27  28
ATOM     28  C   UNL A   1      53.775  27.913  30.152  1.00  0.00     0.002 C 
BRANCH  28  29
ATOM     29  C   UNL A   1      54.132  28.830  31.327  1.00  0.00    -0.000 C 
BRANCH  29  30
ATOM     30  C   UNL A   1      54.113  30.329  31.021  1.00  0.00    -0.003 C 
ATOM     31  C   UNL A   1      53.868  30.643  29.552  1.00  0.00     0.004 C 
ENDBRANCH  29  30
ENDBRANCH  28  29
ENDBRANCH  27  28
ENDBRANCH  26  27
ENDBRANCH  23  26
ENDBRANCH  21  22
ENDBRANCH  16  21
ENDBRANCH  10  15
BRANCH  12  32
ATOM     32  C   UNL A   1      44.792  24.105  32.891  1.00  0.00     0.417 C 
ATOM     33  F   UNL A   1      43.863  23.416  33.623  1.00  0.00    -0.166 F 
ATOM     34  F   UNL A   1      44.633  23.660  31.611  1.00  0.00    -0.166 F 
ATOM     35  F   UNL A   1      45.988  23.617  33.314  1.00  0.00    -0.166 F 
ENDBRANCH  12  32
ENDBRANCH   7   9
ENDBRANCH   5   7
ENDBRANCH   4   5
ENDBRANCH   3   4
ENDBRANCH   2   3
ENDBRANCH   1   2
BRANCH   1  36
ATOM     36  C   UNL A   1      37.033  33.140  35.203  1.00  0.00     0.188 C 
BRANCH  36  37
ATOM     37  C   UNL A   1      35.787  33.962  34.847  1.00  0.00     0.188 C 
BRANCH  37  38
ATOM     38  O   UNL A   1      34.809  33.276  34.097  1.00  0.00    -0.377 OA
BRANCH  38  39
ATOM     39  C   UNL A   1      34.874  33.419  32.687  1.00  0.00     0.188 C 
BRANCH  39  40
ATOM     40  C   UNL A   1      35.324  32.185  31.884  1.00  0.00     0.188 C 
BRANCH  40  41
ATOM     41  O   UNL A   1      36.083  32.502  30.720  1.00  0.00    -0.376 OA
BRANCH  41  42
ATOM     42  C   UNL A   1      36.868  33.687  30.728  1.00  0.00     0.202 C 
BRANCH  42  43
ATOM     43  C   UNL A   1      37.941  33.848  31.820  1.00  0.00     0.261 C 
BRANCH  43  44
ATOM     44  O   UNL A   1      39.149  33.095  31.663  1.00  0.00    -0.460 OA
BRANCH  44  45
ATOM     45  C   UNL A   1      40.197  33.373  32.473  1.00  0.00     0.338 C 
ATOM     46  O   UNL A   1      40.159  33.636  33.653  1.00  0.00    -0.246 OA
BRANCH  45  47
ATOM     47  C   UNL A   1      41.427  33.074  31.701  1.00  0.00     0.060 A 
ATOM     48  C   UNL A   1      41.562  33.585  30.401  1.00  0.00     0.016 A 
ATOM     49  C   UNL A   1      42.446  32.308  32.267  1.00  0.00     0.016 A 
ATOM     50  C   UNL A   1      42.707  33.301  29.650  1.00  0.00     0.010 A 
ATOM     51  C   UNL A   1      43.576  32.001  31.505  1.00  0.00     0.010 A 
ATOM     52  C   UNL A   1      43.698  32.468  30.182  1.00  0.00    -0.014 A 
BRANCH  52  53
ATOM     53  C   UNL A   1      44.744  31.876  29.309  1.00  0.00     0.031 A 
ATOM     54  C   UNL A   1      44.425  30.568  28.634  1.00  0.00     0.074 A 
ATOM     55  C   UNL A   1      45.950  32.446  29.148  1.00  0.00     0.049 A 
ATOM     56  N   UNL A   1      45.213  29.746  27.996  1.00  0.00    -0.248 NA
ATOM     57  C   UNL A   1      43.022  30.129  28.706  1.00  0.00     0.031 C 
ATOM     58  C   UNL A   1      46.352  33.744  29.684  1.00  0.00     0.029 A 
ATOM     59  N   UNL A   1      47.075  31.986  28.504  1.00  0.00    -0.354 N 
ATOM     60  C   UNL A   1      44.409  28.677  27.614  1.00  0.00     0.074 A 
ATOM     61  C   UNL A   1      43.077  28.952  28.105  1.00  0.00     0.031 C 
ATOM     62  C   UNL A   1      47.644  33.962  29.376  1.00  0.00     0.029 A 
ATOM     63  C   UNL A   1      48.177  32.793  28.675  1.00  0.00     0.049 A 
ATOM     64  H   UNL A   1      47.090  31.157  27.973  1.00  0.00     0.167 HD
ATOM     65  C   UNL A   1      44.756  27.566  26.922  1.00  0.00     0.034 A 
ATOM     66  C   UNL A   1      49.472  32.585  28.351  1.00  0.00     0.034 A 
ATOM     67  C   UNL A   1      46.093  27.307  26.451  1.00  0.00     0.049 A 
ATOM     68  C   UNL A   1      49.861  31.288  27.673  1.00  0.00     0.074 A 
ATOM     69  C   UNL A   1      46.555  26.220  25.730  1.00  0.00     0.029 A 
ATOM     70  N   UNL A   1      47.186  28.134  26.669  1.00  0.00    -0.354 N 
ATOM     71  N   UNL A   1      49.099  30.275  27.326  1.00  0.00    -0.248 NA
ATOM     72  C   UNL A   1      51.282  31.102  27.343  1.00  0.00     0.031 C 
ATOM     73  C   UNL A   1      47.939  26.347  25.589  1.00  0.00     0.029 A 
ATOM     74  C   UNL A   1      48.327  27.563  26.130  1.00  0.00     0.049 A 
ATOM     75  H   UNL A   1      47.155  29.000  27.137  1.00  0.00     0.167 HD
ATOM     76  C   UNL A   1      49.942  29.358  26.699  1.00  0.00     0.074 A 
ATOM     77  C   UNL A   1      51.270  29.933  26.718  1.00  0.00     0.031 C 
ATOM     78  C   UNL A   1      49.644  28.156  26.144  1.00  0.00     0.034 A 
BRANCH  65  79
ATOM     79  C   UNL A   1      43.693  26.520  26.698  1.00  0.00     0.023 A 
ATOM     80  C   UNL A   1      43.649  25.330  27.443  1.00  0.00     0.031 A 
ATOM     81  C   UNL A   1      42.713  26.716  25.708  1.00  0.00     0.131 A 
ATOM     82  C   UNL A   1      42.682  24.356  27.148  1.00  0.00     0.055 A 
ATOM     83  C   UNL A   1      41.705  25.779  25.474  1.00  0.00     0.041 A 
ATOM     84  F   UNL A   1      42.722  27.820  24.945  1.00  0.00    -0.206 F 
ATOM     85  C   UNL A   1      41.693  24.585  26.188  1.00  0.00     0.022 A 
BRANCH  82  86
ATOM     86  S   UNL A   1      42.817  22.732  27.942  1.00  0.00     0.124 S 
ATOM     87  O   UNL A   1      41.998  21.904  27.061  1.00  0.00    -0.237 OA
ATOM     88  O   UNL A   1      44.252  22.479  27.903  1.00  0.00    -0.237 OA
ATOM     89  O   UNL A   1      42.257  22.954  29.273  1.00  0.00    -0.744 OA
ENDBRANCH  82  86
ENDBRANCH  65  79
BRANCH  66  90
ATOM     90  C   UNL A   1      50.520  33.585  28.719  1.00  0.00     0.023 A 
ATOM     91  C   UNL A   1      50.935  34.572  27.811  1.00  0.00     0.031 A 
ATOM     92  C   UNL A   1      51.179  33.519  29.961  1.00  0.00     0.131 A 
ATOM     93  C   UNL A   1      52.014  35.413  28.134  1.00  0.00     0.055 A 
ATOM     94  C   UNL A   1      52.206  34.401  30.303  1.00  0.00     0.041 A 
ATOM     95  F   UNL A   1      50.834  32.589  30.866  1.00  0.00    -0.206 F 
ATOM     96  C   UNL A   1      52.640  35.346  29.380  1.00  0.00     0.022 A 
BRANCH  93  97
ATOM     97  S   UNL A   1      52.665  36.521  26.853  1.00  0.00     0.124 S 
ATOM     98  O   UNL A   1      53.468  35.603  26.051  1.00  0.00    -0.237 OA
ATOM     99  O   UNL A   1      51.442  37.015  26.229  1.00  0.00    -0.237 OA
ATOM    100  O   UNL A   1      53.421  37.513  27.613  1.00  0.00    -0.744 OA
ENDBRANCH  93  97
ENDBRANCH  66  90
BRANCH  78 101
ATOM    101  C   UNL A   1      50.747  27.411  25.432  1.00  0.00     0.023 A 
ATOM    102  C   UNL A   1      51.106  27.686  24.102  1.00  0.00     0.031 A 
ATOM    103  C   UNL A   1      51.491  26.442  26.132  1.00  0.00     0.131 A 
ATOM    104  C   UNL A   1      52.164  26.981  23.507  1.00  0.00     0.055 A 
ATOM    105  C   UNL A   1      52.577  25.787  25.553  1.00  0.00     0.041 A 
ATOM    106  F   UNL A   1      51.190  26.138  27.406  1.00  0.00    -0.206 F 
ATOM    107  C   UNL A   1      52.915  26.050  24.230  1.00  0.00     0.022 A 
BRANCH 104 108
ATOM    108  S   UNL A   1      52.521  27.255  21.749  1.00  0.00     0.124 S 
ATOM    109  O   UNL A   1      53.619  26.323  21.513  1.00  0.00    -0.237 OA
ATOM    110  O   UNL A   1      51.251  26.916  21.114  1.00  0.00    -0.237 OA
ATOM    111  O   UNL A   1      52.883  28.670  21.689  1.00  0.00    -0.744 OA
ENDBRANCH 104 108
ENDBRANCH  78 101
ENDBRANCH  52  53
ENDBRANCH  45  47
ENDBRANCH  44  45
ENDBRANCH  43  44
ENDBRANCH  42  43
ENDBRANCH  41  42
ENDBRANCH  40  41
ENDBRANCH  39  40
ENDBRANCH  38  39
ENDBRANCH  37  38
ENDBRANCH  36  37
ENDBRANCH   1  36
TORSDOF 33
ENDMDL
MODEL 3
REMARK VINA RESULT:      -4.8      4.111     11.533
REMARK SMILES CCCCCCNC(=O)Oc1cccc(-c2ccc([C@@H](C)C(=O)OCCOCCOCCOCCOC(=O)c3ccc(-c4c5nc(c(-c6cc(S(=O)(=O)[O-])ccc6F)c6ccc([nH]6)c(-c6cc(S(=O)(=O)[O-])ccc6F)c6nc(c(-c7cc(S(=O)(=O)[O-])ccc7F)c7ccc4[nH]7)C=C6)C=C5)cc3)cc2C(F)(F)F)c1
REMARK SMILES IDX 27 1 26 2 25 3 24 4 22 5 23 6 20 7 21 8 19 9 16 10 17 11
REMARK SMILES IDX 103 12 18 13 102 14 15 15 11 16 12 17 108 18 13 19 14 20
REMARK SMILES IDX 10 21 8 22 7 23 9 25 6 26 5 27 4 28 3 29 2 30 1 31 104 32
REMARK SMILES IDX 105 33 106 34 107 35 28 36 29 37 30 38 31 39 32 40 33 41
REMARK SMILES IDX 34 42 35 43 36 44 37 45 38 46 39 47 40 48 101 49 41 50
REMARK SMILES IDX 100 51 42 52 43 53 44 54 94 55 45 56 99 57 93 58 95 59 46 60
REMARK SMILES IDX 98 61 92 62 91 63 47 65 79 66 59 67 78 68 60 69 63 70 77 71
REMARK SMILES IDX 96 72 61 73 62 74 76 76 97 77 64 78 48 79 49 80 57 81 50 82
REMARK SMILES IDX 56 83 58 84 55 85 51 86 52 87 53 88 54 89 80 90 81 91 89 92
REMARK SMILES IDX 82 93 88 94 90 95 87 96 83 97 84 98 85 99 86 100 65 101
REMARK SMILES IDX 66 102 74 103 67 104 73 105 75 106 72 107 68 108 69 109
REMARK SMILES IDX 70 110 71 111
REMARK H PARENT 7 24 95 64 63 75
REMARK Flexibility Score: inf
ROOT
ATOM      1  O   UNL A   1      48.628  26.230  26.779  1.00  0.00    -0.376 OA
ENDROOT
BRANCH   1   2
ATOM      2  C   UNL A   1      49.955  26.174  27.285  1.00  0.00     0.202 C 
BRANCH   2   3
ATOM      3  C   UNL A   1      51.165  26.259  26.336  1.00  0.00     0.261 C 
BRANCH   3   4
ATOM      4  O   UNL A   1      52.426  25.771  26.841  1.00  0.00    -0.463 OA
BRANCH   4   5
ATOM      5  C   UNL A   1      53.539  26.273  26.262  1.00  0.00     0.313 C 
ATOM      6  O   UNL A   1      54.666  26.159  26.744  1.00  0.00    -0.252 OA
BRANCH   5   7
ATOM      7  C   UNL A   1      53.330  27.039  24.958  1.00  0.00     0.126 C 
ATOM      8  C   UNL A   1      54.405  26.611  23.964  1.00  0.00     0.025 C 
BRANCH   7   9
ATOM      9  C   UNL A   1      53.129  28.555  24.939  1.00  0.00    -0.033 A 
ATOM     10  C   UNL A   1      52.792  31.416  25.070  1.00  0.00    -0.006 A 
ATOM     11  C   UNL A   1      52.384  30.653  23.951  1.00  0.00     0.009 A 
ATOM     12  C   UNL A   1      53.400  30.723  26.137  1.00  0.00     0.064 A 
ATOM     13  C   UNL A   1      52.543  29.254  23.885  1.00  0.00     0.005 A 
ATOM     14  C   UNL A   1      53.549  29.313  26.053  1.00  0.00     0.018 A 
BRANCH  10  15
ATOM     15  C   UNL A   1      52.472  32.863  25.116  1.00  0.00    -0.014 A 
ATOM     16  C   UNL A   1      50.975  34.732  25.547  1.00  0.00     0.133 A 
ATOM     17  C   UNL A   1      51.852  35.619  24.925  1.00  0.00     0.047 A 
ATOM     18  C   UNL A   1      51.280  33.370  25.667  1.00  0.00     0.056 A 
ATOM     19  C   UNL A   1      53.057  35.144  24.422  1.00  0.00     0.004 A 
ATOM     20  C   UNL A   1      53.357  33.781  24.509  1.00  0.00     0.009 A 
BRANCH  16  21
ATOM     21  O   UNL A   1      49.709  35.261  25.877  1.00  0.00    -0.410 OA
BRANCH  21  22
ATOM     22  C   UNL A   1      49.098  36.206  25.069  1.00  0.00     0.412 C 
ATOM     23  N   UNL A   1      47.846  36.554  25.501  1.00  0.00    -0.321 N 
ATOM     24  H   UNL A   1      47.357  37.204  24.945  1.00  0.00     0.167 HD
ATOM     25  O   UNL A   1      49.580  36.707  24.060  1.00  0.00    -0.224 OA
BRANCH  23  26
ATOM     26  C   UNL A   1      47.157  36.076  26.686  1.00  0.00     0.119 C 
BRANCH  26  27
ATOM     27  C   UNL A   1      45.788  36.739  26.861  1.00  0.00     0.021 C 
BRANCH  27  28
ATOM     28  C   UNL A   1      45.827  38.254  27.109  1.00  0.00     0.002 C 
BRANCH  28  29
ATOM     29  C   UNL A   1      44.487  38.899  27.482  1.00  0.00    -0.000 C 
BRANCH  29  30
ATOM     30  C   UNL A   1      43.879  39.816  26.417  1.00  0.00    -0.003 C 
ATOM     31  C   UNL A   1      42.383  40.033  26.592  1.00  0.00     0.004 C 
ENDBRANCH  29  30
ENDBRANCH  28  29
ENDBRANCH  27  28
ENDBRANCH  26  27
ENDBRANCH  23  26
ENDBRANCH  21  22
ENDBRANCH  16  21
ENDBRANCH  10  15
BRANCH  12  32
ATOM     32  C   UNL A   1      53.958  31.395  27.374  1.00  0.00     0.417 C 
ATOM     33  F   UNL A   1      52.996  32.069  28.076  1.00  0.00    -0.166 F 
ATOM     34  F   UNL A   1      54.467  30.486  28.256  1.00  0.00    -0.166 F 
ATOM     35  F   UNL A   1      54.939  32.313  27.171  1.00  0.00    -0.166 F 
ENDBRANCH  12  32
ENDBRANCH   7   9
ENDBRANCH   5   7
ENDBRANCH   4   5
ENDBRANCH   3   4
ENDBRANCH   2   3
ENDBRANCH   1   2
BRANCH   1  36
ATOM     36  C   UNL A   1      48.110  25.176  25.978  1.00  0.00     0.188 C 
BRANCH  36  37
ATOM     37  C   UNL A   1      46.661  25.187  25.472  1.00  0.00     0.188 C 
BRANCH  37  38
ATOM     38  O   UNL A   1      45.995  23.945  25.528  1.00  0.00    -0.377 OA
BRANCH  38  39
ATOM     39  C   UNL A   1      46.041  23.147  24.356  1.00  0.00     0.188 C 
BRANCH  39  40
ATOM     40  C   UNL A   1      44.800  22.289  24.051  1.00  0.00     0.188 C 
BRANCH  40  41
ATOM     41  O   UNL A   1      43.880  22.203  25.135  1.00  0.00    -0.376 OA
BRANCH  41  42
ATOM     42  C   UNL A   1      43.636  20.927  25.715  1.00  0.00     0.202 C 
BRANCH  42  43
ATOM     43  C   UNL A   1      42.223  20.621  26.243  1.00  0.00     0.261 C 
BRANCH  43  44
ATOM     44  O   UNL A   1      41.713  21.472  27.276  1.00  0.00    -0.460 OA
BRANCH  44  45
ATOM     45  C   UNL A   1      40.689  22.305  26.984  1.00  0.00     0.338 C 
ATOM     46  O   UNL A   1      39.543  21.999  26.748  1.00  0.00    -0.246 OA
BRANCH  45  47
ATOM     47  C   UNL A   1      41.174  23.685  27.229  1.00  0.00     0.060 A 
ATOM     48  C   UNL A   1      41.733  24.004  28.476  1.00  0.00     0.016 A 
ATOM     49  C   UNL A   1      41.092  24.649  26.225  1.00  0.00     0.016 A 
ATOM     50  C   UNL A   1      42.182  25.303  28.733  1.00  0.00     0.010 A 
ATOM     51  C   UNL A   1      41.513  25.955  26.494  1.00  0.00     0.010 A 
ATOM     52  C   UNL A   1      42.029  26.296  27.758  1.00  0.00    -0.014 A 
BRANCH  52  53
ATOM     53  C   UNL A   1      42.174  27.733  28.107  1.00  0.00     0.031 A 
ATOM     54  C   UNL A   1      43.568  28.300  28.146  1.00  0.00     0.074 A 
ATOM     55  C   UNL A   1      41.119  28.504  28.421  1.00  0.00     0.049 A 
ATOM     56  N   UNL A   1      43.989  29.446  28.610  1.00  0.00    -0.248 NA
ATOM     57  C   UNL A   1      44.630  27.443  27.594  1.00  0.00     0.031 C 
ATOM     58  C   UNL A   1      39.719  28.095  28.346  1.00  0.00     0.029 A 
ATOM     59  N   UNL A   1      41.067  29.793  28.896  1.00  0.00    -0.354 N 
ATOM     60  C   UNL A   1      45.369  29.437  28.433  1.00  0.00     0.074 A 
ATOM     61  C   UNL A   1      45.712  28.167  27.832  1.00  0.00     0.031 C 
ATOM     62  C   UNL A   1      38.946  29.101  28.794  1.00  0.00     0.029 A 
ATOM     63  C   UNL A   1      39.799  30.202  29.243  1.00  0.00     0.049 A 
ATOM     64  H   UNL A   1      41.862  30.368  28.982  1.00  0.00     0.167 HD
ATOM     65  C   UNL A   1      46.266  30.401  28.751  1.00  0.00     0.034 A 
ATOM     66  C   UNL A   1      39.386  31.311  29.896  1.00  0.00     0.034 A 
ATOM     67  C   UNL A   1      45.904  31.655  29.360  1.00  0.00     0.049 A 
ATOM     68  C   UNL A   1      40.415  32.330  30.341  1.00  0.00     0.074 A 
ATOM     69  C   UNL A   1      46.728  32.709  29.714  1.00  0.00     0.029 A 
ATOM     70  N   UNL A   1      44.614  32.019  29.722  1.00  0.00    -0.354 N 
ATOM     71  N   UNL A   1      41.720  32.310  30.183  1.00  0.00    -0.248 NA
ATOM     72  C   UNL A   1      39.921  33.518  31.052  1.00  0.00     0.031 C 
ATOM     73  C   UNL A   1      45.952  33.669  30.367  1.00  0.00     0.029 A 
ATOM     74  C   UNL A   1      44.627  33.264  30.329  1.00  0.00     0.049 A 
ATOM     75  H   UNL A   1      43.809  31.474  29.568  1.00  0.00     0.167 HD
ATOM     76  C   UNL A   1      42.190  33.502  30.734  1.00  0.00     0.074 A 
ATOM     77  C   UNL A   1      41.034  34.215  31.231  1.00  0.00     0.031 C 
ATOM     78  C   UNL A   1      43.462  33.971  30.808  1.00  0.00     0.034 A 
BRANCH  65  79
ATOM     79  C   UNL A   1      47.725  30.105  28.512  1.00  0.00     0.023 A 
ATOM     80  C   UNL A   1      48.481  29.317  29.397  1.00  0.00     0.031 A 
ATOM     81  C   UNL A   1      48.374  30.634  27.382  1.00  0.00     0.131 A 
ATOM     82  C   UNL A   1      49.853  29.130  29.168  1.00  0.00     0.055 A 
ATOM     83  C   UNL A   1      49.720  30.377  27.117  1.00  0.00     0.041 A 
ATOM     84  F   UNL A   1      47.710  31.418  26.517  1.00  0.00    -0.206 F 
ATOM     85  C   UNL A   1      50.471  29.631  28.020  1.00  0.00     0.022 A 
BRANCH  82  86
ATOM     86  S   UNL A   1      50.848  28.337  30.461  1.00  0.00     0.124 S 
ATOM     87  O   UNL A   1      50.013  27.192  30.814  1.00  0.00    -0.237 OA
ATOM     88  O   UNL A   1      52.089  28.031  29.761  1.00  0.00    -0.237 OA
ATOM     89  O   UNL A   1      50.950  29.366  31.494  1.00  0.00    -0.744 OA
ENDBRANCH  82  86
ENDBRANCH  65  79
BRANCH  66  90
ATOM     90  C   UNL A   1      37.944  31.499  30.241  1.00  0.00     0.023 A 
ATOM     91  C   UNL A   1      37.088  32.239  29.410  1.00  0.00     0.031 A 
ATOM     92  C   UNL A   1      37.419  31.006  31.450  1.00  0.00     0.131 A 
ATOM     93  C   UNL A   1      35.773  32.513  29.823  1.00  0.00     0.055 A 
ATOM     94  C   UNL A   1      36.091  31.225  31.825  1.00  0.00     0.041 A 
ATOM     95  F   UNL A   1      38.192  30.302  32.292  1.00  0.00    -0.206 F 
ATOM     96  C   UNL A   1      35.264  31.997  31.017  1.00  0.00     0.022 A 
BRANCH  93  97
ATOM     97  S   UNL A   1      34.771  33.657  28.833  1.00  0.00     0.124 S 
ATOM     98  O   UNL A   1      34.925  34.903  29.577  1.00  0.00    -0.237 OA
ATOM     99  O   UNL A   1      35.437  33.597  27.536  1.00  0.00    -0.237 OA
ATOM    100  O   UNL A   1      33.436  33.064  28.875  1.00  0.00    -0.744 OA
ENDBRANCH  93  97
ENDBRANCH  66  90
BRANCH  78 101
ATOM    101  C   UNL A   1      43.674  35.355  31.370  1.00  0.00     0.023 A 
ATOM    102  C   UNL A   1      43.920  35.586  32.734  1.00  0.00     0.031 A 
ATOM    103  C   UNL A   1      43.686  36.461  30.499  1.00  0.00     0.131 A 
ATOM    104  C   UNL A   1      44.142  36.895  33.190  1.00  0.00     0.055 A 
ATOM    105  C   UNL A   1      43.965  37.751  30.949  1.00  0.00     0.041 A 
ATOM    106  F   UNL A   1      43.456  36.298  29.185  1.00  0.00    -0.206 F 
ATOM    107  C   UNL A   1      44.189  37.975  32.303  1.00  0.00     0.022 A 
BRANCH 104 108
ATOM    108  S   UNL A   1      44.321  37.185  34.972  1.00  0.00     0.124 S 
ATOM    109  O   UNL A   1      45.140  38.393  35.003  1.00  0.00    -0.237 OA
ATOM    110  O   UNL A   1      42.937  37.343  35.405  1.00  0.00    -0.237 OA
ATOM    111  O   UNL A   1      44.984  35.974  35.452  1.00  0.00    -0.744 OA
ENDBRANCH 104 108
ENDBRANCH  78 101
ENDBRANCH  52  53
ENDBRANCH  45  47
ENDBRANCH  44  45
ENDBRANCH  43  44
ENDBRANCH  42  43
ENDBRANCH  41  42
ENDBRANCH  40  41
ENDBRANCH  39  40
ENDBRANCH  38  39
ENDBRANCH  37  38
ENDBRANCH  36  37
ENDBRANCH   1  36
TORSDOF 33
ENDMDL
