MODEL 1
REMARK VINA RESULT:      -7.4      0.000      0.000
REMARK SMILES CN(C)c1cccc2c(S(=O)(=O)N[C@H](CO)C(=O)OCCOCCOCCOCCOC(=O)c3ccc(-c4c5nc(c(-c6cc(S(=O)(=O)[O-])ccc6F)c6ccc([nH]6)c(-c6cc(S(=O)(=O)[O-])ccc6F)c6nc(c(-c7cc(S(=O)(=O)[O-])ccc7F)c7ccc4[nH]7)C=C6)C=C5)cc3)cccc12
REMARK SMILES IDX 24 1 23 2 22 3 21 4 20 5 19 6 17 7 18 8 14 9 13 10 10 12
REMARK SMILES IDX 11 13 12 14 9 15 4 16 5 17 100 18 6 19 8 20 99 21 7 22 98 23
REMARK SMILES IDX 97 24 2 25 1 26 3 27 15 28 16 29 25 31 26 32 27 33 28 34
REMARK SMILES IDX 29 35 30 36 31 37 32 38 33 39 34 40 35 41 96 42 36 43 95 44
REMARK SMILES IDX 37 45 38 46 39 47 89 48 40 49 94 50 88 51 90 52 41 53 93 54
REMARK SMILES IDX 87 55 86 56 42 58 74 59 54 60 73 61 55 62 58 63 72 64 91 65
REMARK SMILES IDX 56 66 57 67 71 69 92 70 59 71 43 72 44 73 52 74 45 75 51 76
REMARK SMILES IDX 53 77 50 78 46 79 47 80 48 81 49 82 75 83 76 84 84 85 77 86
REMARK SMILES IDX 83 87 85 88 82 89 78 90 79 91 80 92 81 93 60 94 61 95 69 96
REMARK SMILES IDX 62 97 68 98 70 99 67 100 63 101 64 102 65 103 66 104
REMARK H PARENT 13 11 16 30 90 57 58 68
REMARK Flexibility Score: inf
ROOT
ATOM      1  C   UNL A   1      37.743  29.307  28.017  1.00  0.00     0.188 C 
ENDROOT
BRANCH   1   2
ATOM      2  C   UNL A   1      39.129  28.799  28.461  1.00  0.00     0.188 C 
BRANCH   2   3
ATOM      3  O   UNL A   1      40.124  28.477  27.494  1.00  0.00    -0.376 OA
BRANCH   3   4
ATOM      4  C   UNL A   1      41.185  27.570  27.800  1.00  0.00     0.202 C 
BRANCH   4   5
ATOM      5  C   UNL A   1      42.603  28.069  28.123  1.00  0.00     0.261 C 
BRANCH   5   6
ATOM      6  O   UNL A   1      43.562  27.553  27.202  1.00  0.00    -0.462 OA
BRANCH   6   7
ATOM      7  C   UNL A   1      44.389  28.418  26.564  1.00  0.00     0.326 C 
ATOM      8  O   UNL A   1      44.260  29.634  26.553  1.00  0.00    -0.250 OA
BRANCH   7   9
ATOM      9  C   UNL A   1      45.552  27.639  25.953  1.00  0.00     0.205 C 
BRANCH   9  10
ATOM     10  N   UNL A   1      46.027  26.484  26.783  1.00  0.00    -0.194 NA
ATOM     11  H   UNL A   1      46.882  26.780  27.256  1.00  0.00     0.142 HD
BRANCH  10  12
ATOM     12  S   UNL A   1      46.366  25.039  25.999  1.00  0.00     0.242 S 
ATOM     13  O   UNL A   1      47.591  24.488  26.560  1.00  0.00    -0.207 OA
ATOM     14  O   UNL A   1      46.246  25.362  24.603  1.00  0.00    -0.207 OA
BRANCH  12  15
ATOM     15  C   UNL A   1      45.111  23.802  26.315  1.00  0.00     0.090 A 
ATOM     16  C   UNL A   1      43.688  20.391  25.531  1.00  0.00     0.044 A 
ATOM     17  C   UNL A   1      44.719  19.848  24.748  1.00  0.00     0.026 A 
ATOM     18  C   UNL A   1      43.852  21.709  26.069  1.00  0.00     0.006 A 
ATOM     19  C   UNL A   1      45.901  20.536  24.549  1.00  0.00     0.003 A 
ATOM     20  C   UNL A   1      45.041  22.467  25.814  1.00  0.00     0.004 A 
ATOM     21  C   UNL A   1      42.857  22.282  26.893  1.00  0.00     0.011 A 
ATOM     22  C   UNL A   1      46.058  21.805  25.095  1.00  0.00     0.010 A 
ATOM     23  C   UNL A   1      42.946  23.575  27.391  1.00  0.00     0.002 A 
ATOM     24  C   UNL A   1      44.060  24.334  27.090  1.00  0.00     0.022 A 
BRANCH  16  25
ATOM     25  N   UNL A   1      42.529  19.624  25.766  1.00  0.00    -0.377 N 
ATOM     26  C   UNL A   1      41.370  20.308  26.329  1.00  0.00     0.143 C 
ATOM     27  C   UNL A   1      42.743  18.238  26.173  1.00  0.00     0.143 C 
ENDBRANCH  16  25
ENDBRANCH  12  15
ENDBRANCH  10  12
ENDBRANCH   9  10
BRANCH   9  28
ATOM     28  C   UNL A   1      46.757  28.572  25.681  1.00  0.00     0.188 C 
BRANCH  28  29
ATOM     29  O   UNL A   1      46.380  29.705  24.892  1.00  0.00    -0.394 OA
ATOM     30  H   UNL A   1      47.100  30.356  24.894  1.00  0.00     0.210 HD
ENDBRANCH  28  29
ENDBRANCH   9  28
ENDBRANCH   7   9
ENDBRANCH   6   7
ENDBRANCH   5   6
ENDBRANCH   4   5
ENDBRANCH   3   4
ENDBRANCH   2   3
ENDBRANCH   1   2
BRANCH   1  31
ATOM     31  O   UNL A   1      37.047  30.018  29.020  1.00  0.00    -0.377 OA
BRANCH  31  32
ATOM     32  C   UNL A   1      35.963  30.849  28.614  1.00  0.00     0.188 C 
BRANCH  32  33
ATOM     33  C   UNL A   1      35.642  32.120  29.427  1.00  0.00     0.188 C 
BRANCH  33  34
ATOM     34  O   UNL A   1      35.482  31.884  30.823  1.00  0.00    -0.376 OA
BRANCH  34  35
ATOM     35  C   UNL A   1      35.478  33.024  31.673  1.00  0.00     0.202 C 
BRANCH  35  36
ATOM     36  C   UNL A   1      35.899  32.756  33.125  1.00  0.00     0.261 C 
BRANCH  36  37
ATOM     37  O   UNL A   1      36.617  31.533  33.362  1.00  0.00    -0.460 OA
BRANCH  37  38
ATOM     38  C   UNL A   1      37.681  31.566  34.191  1.00  0.00     0.338 C 
ATOM     39  O   UNL A   1      37.663  31.555  35.412  1.00  0.00    -0.246 OA
BRANCH  38  40
ATOM     40  C   UNL A   1      38.897  31.424  33.368  1.00  0.00     0.060 A 
ATOM     41  C   UNL A   1      38.804  30.827  32.104  1.00  0.00     0.016 A 
ATOM     42  C   UNL A   1      40.128  31.872  33.854  1.00  0.00     0.016 A 
ATOM     43  C   UNL A   1      39.956  30.637  31.336  1.00  0.00     0.010 A 
ATOM     44  C   UNL A   1      41.278  31.664  33.093  1.00  0.00     0.010 A 
ATOM     45  C   UNL A   1      41.203  31.015  31.848  1.00  0.00    -0.014 A 
BRANCH  45  46
ATOM     46  C   UNL A   1      42.458  30.538  31.215  1.00  0.00     0.031 A 
ATOM     47  C   UNL A   1      43.023  29.225  31.683  1.00  0.00     0.074 A 
ATOM     48  C   UNL A   1      43.103  31.262  30.284  1.00  0.00     0.049 A 
ATOM     49  N   UNL A   1      44.178  28.672  31.425  1.00  0.00    -0.248 NA
ATOM     50  C   UNL A   1      42.163  28.438  32.583  1.00  0.00     0.031 C 
ATOM     51  C   UNL A   1      42.626  32.519  29.711  1.00  0.00     0.029 A 
ATOM     52  N   UNL A   1      44.313  31.049  29.674  1.00  0.00    -0.354 N 
ATOM     53  C   UNL A   1      44.190  27.476  32.136  1.00  0.00     0.074 A 
ATOM     54  C   UNL A   1      42.941  27.407  32.865  1.00  0.00     0.031 C 
ATOM     55  C   UNL A   1      43.553  32.982  28.853  1.00  0.00     0.029 A 
ATOM     56  C   UNL A   1      44.705  32.080  28.853  1.00  0.00     0.049 A 
ATOM     57  H   UNL A   1      44.850  30.235  29.811  1.00  0.00     0.167 HD
ATOM     58  C   UNL A   1      45.153  26.524  32.175  1.00  0.00     0.034 A 
ATOM     59  C   UNL A   1      45.874  32.290  28.214  1.00  0.00     0.034 A 
ATOM     60  C   UNL A   1      46.404  26.625  31.463  1.00  0.00     0.049 A 
ATOM     61  C   UNL A   1      46.981  31.267  28.351  1.00  0.00     0.074 A 
ATOM     62  C   UNL A   1      47.457  25.729  31.438  1.00  0.00     0.029 A 
ATOM     63  N   UNL A   1      46.775  27.696  30.660  1.00  0.00    -0.354 N 
ATOM     64  N   UNL A   1      46.992  30.147  29.038  1.00  0.00    -0.248 NA
ATOM     65  C   UNL A   1      48.230  31.537  27.625  1.00  0.00     0.031 C 
ATOM     66  C   UNL A   1      48.491  26.289  30.679  1.00  0.00     0.029 A 
ATOM     67  C   UNL A   1      48.051  27.495  30.158  1.00  0.00     0.049 A 
ATOM     68  H   UNL A   1      46.212  28.483  30.474  1.00  0.00     0.167 HD
ATOM     69  C   UNL A   1      48.234  29.562  28.793  1.00  0.00     0.074 A 
ATOM     70  C   UNL A   1      48.940  30.450  27.894  1.00  0.00     0.031 C 
ATOM     71  C   UNL A   1      48.742  28.392  29.260  1.00  0.00     0.034 A 
BRANCH  58  72
ATOM     72  C   UNL A   1      44.906  25.332  33.066  1.00  0.00     0.023 A 
ATOM     73  C   UNL A   1      45.330  25.311  34.407  1.00  0.00     0.031 A 
ATOM     74  C   UNL A   1      44.286  24.177  32.556  1.00  0.00     0.131 A 
ATOM     75  C   UNL A   1      45.204  24.137  35.164  1.00  0.00     0.055 A 
ATOM     76  C   UNL A   1      44.085  23.041  33.341  1.00  0.00     0.041 A 
ATOM     77  F   UNL A   1      43.885  24.126  31.276  1.00  0.00    -0.206 F 
ATOM     78  C   UNL A   1      44.560  23.010  34.649  1.00  0.00     0.022 A 
BRANCH  75  79
ATOM     79  S   UNL A   1      46.038  24.051  36.773  1.00  0.00     0.124 S 
ATOM     80  O   UNL A   1      45.037  23.365  37.587  1.00  0.00    -0.237 OA
ATOM     81  O   UNL A   1      47.241  23.289  36.464  1.00  0.00    -0.237 OA
ATOM     82  O   UNL A   1      46.257  25.453  37.121  1.00  0.00    -0.744 OA
ENDBRANCH  75  79
ENDBRANCH  58  72
BRANCH  59  83
ATOM     83  C   UNL A   1      46.096  33.540  27.431  1.00  0.00     0.023 A 
ATOM     84  C   UNL A   1      46.739  34.652  27.999  1.00  0.00     0.031 A 
ATOM     85  C   UNL A   1      45.612  33.662  26.115  1.00  0.00     0.131 A 
ATOM     86  C   UNL A   1      46.839  35.850  27.274  1.00  0.00     0.055 A 
ATOM     87  C   UNL A   1      45.764  34.839  25.377  1.00  0.00     0.041 A 
ATOM     88  F   UNL A   1      44.984  32.634  25.524  1.00  0.00    -0.206 F 
ATOM     89  C   UNL A   1      46.369  35.946  25.962  1.00  0.00     0.022 A 
BRANCH  86  90
ATOM     90  S   UNL A   1      47.516  37.313  28.105  1.00  0.00     0.124 S 
ATOM     91  O   UNL A   1      48.885  37.333  27.604  1.00  0.00    -0.237 OA
ATOM     92  O   UNL A   1      46.639  38.372  27.617  1.00  0.00    -0.237 OA
ATOM     93  O   UNL A   1      47.373  36.994  29.524  1.00  0.00    -0.744 OA
ENDBRANCH  86  90
ENDBRANCH  59  83
BRANCH  71  94
ATOM     94  C   UNL A   1      50.100  27.972  28.751  1.00  0.00     0.023 A 
ATOM     95  C   UNL A   1      50.271  27.327  27.514  1.00  0.00     0.031 A 
ATOM     96  C   UNL A   1      51.249  28.236  29.521  1.00  0.00     0.131 A 
ATOM     97  C   UNL A   1      51.552  26.925  27.106  1.00  0.00     0.055 A 
ATOM     98  C   UNL A   1      52.527  27.888  29.082  1.00  0.00     0.041 A 
ATOM     99  F   UNL A   1      51.147  28.850  30.711  1.00  0.00    -0.206 F 
ATOM    100  C   UNL A   1      52.683  27.217  27.874  1.00  0.00     0.022 A 
BRANCH  97 101
ATOM    101  S   UNL A   1      51.719  25.938  25.592  1.00  0.00     0.124 S 
ATOM    102  O   UNL A   1      50.332  25.814  25.156  1.00  0.00    -0.237 OA
ATOM    103  O   UNL A   1      52.575  26.780  24.763  1.00  0.00    -0.237 OA
ATOM    104  O   UNL A   1      52.335  24.697  26.057  1.00  0.00    -0.744 OA
ENDBRANCH  97 101
ENDBRANCH  71  94
ENDBRANCH  45  46
ENDBRANCH  38  40
ENDBRANCH  37  38
ENDBRANCH  36  37
ENDBRANCH  35  36
ENDBRANCH  34  35
ENDBRANCH  33  34
ENDBRANCH  32  33
ENDBRANCH  31  32
ENDBRANCH   1  31
TORSDOF 29
ENDMDL
MODEL 2
REMARK VINA RESULT:      -7.0      4.740      9.420
REMARK SMILES CN(C)c1cccc2c(S(=O)(=O)N[C@H](CO)C(=O)OCCOCCOCCOCCOC(=O)c3ccc(-c4c5nc(c(-c6cc(S(=O)(=O)[O-])ccc6F)c6ccc([nH]6)c(-c6cc(S(=O)(=O)[O-])ccc6F)c6nc(c(-c7cc(S(=O)(=O)[O-])ccc7F)c7ccc4[nH]7)C=C6)C=C5)cc3)cccc12
REMARK SMILES IDX 24 1 23 2 22 3 21 4 20 5 19 6 17 7 18 8 14 9 13 10 10 12
REMARK SMILES IDX 11 13 12 14 9 15 4 16 5 17 100 18 6 19 8 20 99 21 7 22 98 23
REMARK SMILES IDX 97 24 2 25 1 26 3 27 15 28 16 29 25 31 26 32 27 33 28 34
REMARK SMILES IDX 29 35 30 36 31 37 32 38 33 39 34 40 35 41 96 42 36 43 95 44
REMARK SMILES IDX 37 45 38 46 39 47 89 48 40 49 94 50 88 51 90 52 41 53 93 54
REMARK SMILES IDX 87 55 86 56 42 58 74 59 54 60 73 61 55 62 58 63 72 64 91 65
REMARK SMILES IDX 56 66 57 67 71 69 92 70 59 71 43 72 44 73 52 74 45 75 51 76
REMARK SMILES IDX 53 77 50 78 46 79 47 80 48 81 49 82 75 83 76 84 84 85 77 86
REMARK SMILES IDX 83 87 85 88 82 89 78 90 79 91 80 92 81 93 60 94 61 95 69 96
REMARK SMILES IDX 62 97 68 98 70 99 67 100 63 101 64 102 65 103 66 104
REMARK H PARENT 13 11 16 30 90 57 58 68
REMARK Flexibility Score: inf
ROOT
ATOM      1  C   UNL A   1      35.133  30.968  28.039  1.00  0.00     0.188 C 
ENDROOT
BRANCH   1   2
ATOM      2  C   UNL A   1      36.000  32.242  27.991  1.00  0.00     0.188 C 
BRANCH   2   3
ATOM      3  O   UNL A   1      35.392  33.528  27.930  1.00  0.00    -0.376 OA
BRANCH   3   4
ATOM      4  C   UNL A   1      34.290  33.866  28.775  1.00  0.00     0.202 C 
BRANCH   4   5
ATOM      5  C   UNL A   1      34.471  34.090  30.285  1.00  0.00     0.261 C 
BRANCH   5   6
ATOM      6  O   UNL A   1      34.141  32.920  31.031  1.00  0.00    -0.462 OA
BRANCH   6   7
ATOM      7  C   UNL A   1      35.116  32.297  31.738  1.00  0.00     0.326 C 
ATOM      8  O   UNL A   1      35.534  31.170  31.514  1.00  0.00    -0.250 OA
BRANCH   7   9
ATOM      9  C   UNL A   1      35.668  33.261  32.785  1.00  0.00     0.205 C 
BRANCH   9  10
ATOM     10  N   UNL A   1      37.021  32.891  33.316  1.00  0.00    -0.194 NA
ATOM     11  H   UNL A   1      36.899  32.612  34.290  1.00  0.00     0.142 HD
BRANCH  10  12
ATOM     12  S   UNL A   1      38.227  34.057  33.277  1.00  0.00     0.242 S 
ATOM     13  O   UNL A   1      37.731  35.254  33.941  1.00  0.00    -0.207 OA
ATOM     14  O   UNL A   1      38.657  34.070  31.906  1.00  0.00    -0.207 OA
BRANCH  12  15
ATOM     15  C   UNL A   1      39.662  33.560  34.227  1.00  0.00     0.090 A 
ATOM     16  C   UNL A   1      43.421  33.545  34.604  1.00  0.00     0.044 A 
ATOM     17  C   UNL A   1      43.789  34.472  33.616  1.00  0.00     0.026 A 
ATOM     18  C   UNL A   1      42.029  33.274  34.810  1.00  0.00     0.006 A 
ATOM     19  C   UNL A   1      42.834  35.165  32.896  1.00  0.00     0.003 A 
ATOM     20  C   UNL A   1      41.026  33.929  34.024  1.00  0.00     0.004 A 
ATOM     21  C   UNL A   1      41.610  32.377  35.817  1.00  0.00     0.011 A 
ATOM     22  C   UNL A   1      41.486  34.910  33.121  1.00  0.00     0.010 A 
ATOM     23  C   UNL A   1      40.278  32.040  36.017  1.00  0.00     0.002 A 
ATOM     24  C   UNL A   1      39.313  32.618  35.216  1.00  0.00     0.022 A 
BRANCH  16  25
ATOM     25  N   UNL A   1      44.428  32.915  35.362  1.00  0.00    -0.377 N 
ATOM     26  C   UNL A   1      44.574  31.471  35.221  1.00  0.00     0.143 C 
ATOM     27  C   UNL A   1      44.695  33.483  36.680  1.00  0.00     0.143 C 
ENDBRANCH  16  25
ENDBRANCH  12  15
ENDBRANCH  10  12
ENDBRANCH   9  10
BRANCH   9  28
ATOM     28  C   UNL A   1      34.694  33.393  33.980  1.00  0.00     0.188 C 
BRANCH  28  29
ATOM     29  O   UNL A   1      33.339  33.544  33.545  1.00  0.00    -0.394 OA
ATOM     30  H   UNL A   1      33.004  34.411  33.822  1.00  0.00     0.210 HD
ENDBRANCH  28  29
ENDBRANCH   9  28
ENDBRANCH   7   9
ENDBRANCH   6   7
ENDBRANCH   5   6
ENDBRANCH   4   5
ENDBRANCH   3   4
ENDBRANCH   2   3
ENDBRANCH   1   2
BRANCH   1  31
ATOM     31  O   UNL A   1      35.831  29.817  28.467  1.00  0.00    -0.377 OA
BRANCH  31  32
ATOM     32  C   UNL A   1      37.245  29.794  28.288  1.00  0.00     0.188 C 
BRANCH  32  33
ATOM     33  C   UNL A   1      38.057  28.608  28.849  1.00  0.00     0.188 C 
BRANCH  33  34
ATOM     34  O   UNL A   1      37.717  28.262  30.189  1.00  0.00    -0.376 OA
BRANCH  34  35
ATOM     35  C   UNL A   1      38.580  27.351  30.858  1.00  0.00     0.202 C 
BRANCH  35  36
ATOM     36  C   UNL A   1      38.593  27.469  32.389  1.00  0.00     0.261 C 
BRANCH  36  37
ATOM     37  O   UNL A   1      39.476  28.461  32.941  1.00  0.00    -0.460 OA
BRANCH  37  38
ATOM     38  C   UNL A   1      39.305  29.747  32.572  1.00  0.00     0.338 C 
ATOM     39  O   UNL A   1      38.396  30.492  32.902  1.00  0.00    -0.246 OA
BRANCH  38  40
ATOM     40  C   UNL A   1      40.517  30.171  31.846  1.00  0.00     0.060 A 
ATOM     41  C   UNL A   1      41.638  30.597  32.570  1.00  0.00     0.016 A 
ATOM     42  C   UNL A   1      40.538  30.155  30.449  1.00  0.00     0.016 A 
ATOM     43  C   UNL A   1      42.773  31.052  31.895  1.00  0.00     0.010 A 
ATOM     44  C   UNL A   1      41.665  30.627  29.777  1.00  0.00     0.010 A 
ATOM     45  C   UNL A   1      42.774  31.111  30.495  1.00  0.00    -0.014 A 
BRANCH  45  46
ATOM     46  C   UNL A   1      43.813  31.881  29.769  1.00  0.00     0.031 A 
ATOM     47  C   UNL A   1      45.124  31.199  29.490  1.00  0.00     0.074 A 
ATOM     48  C   UNL A   1      43.621  33.160  29.402  1.00  0.00     0.049 A 
ATOM     49  N   UNL A   1      46.243  31.694  29.034  1.00  0.00    -0.248 NA
ATOM     50  C   UNL A   1      45.175  29.757  29.787  1.00  0.00     0.031 C 
ATOM     51  C   UNL A   1      42.377  33.910  29.568  1.00  0.00     0.029 A 
ATOM     52  N   UNL A   1      44.486  34.061  28.834  1.00  0.00    -0.354 N 
ATOM     53  C   UNL A   1      47.137  30.628  28.995  1.00  0.00     0.074 A 
ATOM     54  C   UNL A   1      46.437  29.471  29.512  1.00  0.00     0.031 C 
ATOM     55  C   UNL A   1      42.571  35.169  29.137  1.00  0.00     0.029 A 
ATOM     56  C   UNL A   1      43.962  35.326  28.712  1.00  0.00     0.049 A 
ATOM     57  H   UNL A   1      45.396  33.824  28.542  1.00  0.00     0.167 HD
ATOM     58  C   UNL A   1      48.423  30.616  28.567  1.00  0.00     0.034 A 
ATOM     59  C   UNL A   1      44.551  36.483  28.342  1.00  0.00     0.034 A 
ATOM     60  C   UNL A   1      49.113  31.787  28.083  1.00  0.00     0.049 A 
ATOM     61  C   UNL A   1      46.016  36.473  27.967  1.00  0.00     0.074 A 
ATOM     62  C   UNL A   1      50.417  31.896  27.635  1.00  0.00     0.029 A 
ATOM     63  N   UNL A   1      48.556  33.056  27.995  1.00  0.00    -0.354 N 
ATOM     64  N   UNL A   1      46.860  35.466  27.948  1.00  0.00    -0.248 NA
ATOM     65  C   UNL A   1      46.607  37.756  27.560  1.00  0.00     0.031 C 
ATOM     66  C   UNL A   1      50.669  33.242  27.345  1.00  0.00     0.029 A 
ATOM     67  C   UNL A   1      49.498  33.959  27.528  1.00  0.00     0.049 A 
ATOM     68  H   UNL A   1      47.626  33.282  28.232  1.00  0.00     0.167 HD
ATOM     69  C   UNL A   1      48.069  35.990  27.490  1.00  0.00     0.074 A 
ATOM     70  C   UNL A   1      47.842  37.398  27.241  1.00  0.00     0.031 C 
ATOM     71  C   UNL A   1      49.256  35.362  27.285  1.00  0.00     0.034 A 
BRANCH  58  72
ATOM     72  C   UNL A   1      49.170  29.309  28.669  1.00  0.00     0.023 A 
ATOM     73  C   UNL A   1      49.035  28.304  27.695  1.00  0.00     0.031 A 
ATOM     74  C   UNL A   1      49.986  29.040  29.782  1.00  0.00     0.131 A 
ATOM     75  C   UNL A   1      49.637  27.052  27.892  1.00  0.00     0.055 A 
ATOM     76  C   UNL A   1      50.653  27.822  29.929  1.00  0.00     0.041 A 
ATOM     77  F   UNL A   1      50.131  29.950  30.759  1.00  0.00    -0.206 F 
ATOM     78  C   UNL A   1      50.468  26.814  28.989  1.00  0.00     0.022 A 
BRANCH  75  79
ATOM     79  S   UNL A   1      49.189  25.691  26.779  1.00  0.00     0.124 S 
ATOM     80  O   UNL A   1      49.713  26.171  25.502  1.00  0.00    -0.237 OA
ATOM     81  O   UNL A   1      49.888  24.557  27.370  1.00  0.00    -0.237 OA
ATOM     82  O   UNL A   1      47.731  25.644  26.866  1.00  0.00    -0.744 OA
ENDBRANCH  75  79
ENDBRANCH  58  72
BRANCH  59  83
ATOM     83  C   UNL A   1      43.784  37.763  28.361  1.00  0.00     0.023 A 
ATOM     84  C   UNL A   1      43.899  38.664  29.431  1.00  0.00     0.031 A 
ATOM     85  C   UNL A   1      42.877  38.075  27.331  1.00  0.00     0.131 A 
ATOM     86  C   UNL A   1      43.087  39.810  29.472  1.00  0.00     0.055 A 
ATOM     87  C   UNL A   1      42.113  39.244  27.349  1.00  0.00     0.041 A 
ATOM     88  F   UNL A   1      42.723  37.246  26.288  1.00  0.00    -0.206 F 
ATOM     89  C   UNL A   1      42.206  40.112  28.431  1.00  0.00     0.022 A 
BRANCH  86  90
ATOM     90  S   UNL A   1      43.136  40.855  30.954  1.00  0.00     0.124 S 
ATOM     91  O   UNL A   1      44.531  41.280  30.971  1.00  0.00    -0.237 OA
ATOM     92  O   UNL A   1      42.155  41.886  30.629  1.00  0.00    -0.237 OA
ATOM     93  O   UNL A   1      42.746  39.943  32.027  1.00  0.00    -0.744 OA
ENDBRANCH  86  90
ENDBRANCH  59  83
BRANCH  71  94
ATOM     94  C   UNL A   1      50.381  36.181  26.698  1.00  0.00     0.023 A 
ATOM     95  C   UNL A   1      51.227  36.972  27.494  1.00  0.00     0.031 A 
ATOM     96  C   UNL A   1      50.614  36.157  25.309  1.00  0.00     0.131 A 
ATOM     97  C   UNL A   1      52.235  37.742  26.892  1.00  0.00     0.055 A 
ATOM     98  C   UNL A   1      51.655  36.878  24.724  1.00  0.00     0.041 A 
ATOM     99  F   UNL A   1      49.837  35.420  24.500  1.00  0.00    -0.206 F 
ATOM    100  C   UNL A   1      52.465  37.686  25.515  1.00  0.00     0.022 A 
BRANCH  97 101
ATOM    101  S   UNL A   1      53.193  38.887  27.922  1.00  0.00     0.124 S 
ATOM    102  O   UNL A   1      53.384  38.111  29.143  1.00  0.00    -0.237 OA
ATOM    103  O   UNL A   1      54.389  39.108  27.115  1.00  0.00    -0.237 OA
ATOM    104  O   UNL A   1      52.315  40.047  28.057  1.00  0.00    -0.744 OA
ENDBRANCH  97 101
ENDBRANCH  71  94
ENDBRANCH  45  46
ENDBRANCH  38  40
ENDBRANCH  37  38
ENDBRANCH  36  37
ENDBRANCH  35  36
ENDBRANCH  34  35
ENDBRANCH  33  34
ENDBRANCH  32  33
ENDBRANCH  31  32
ENDBRANCH   1  31
TORSDOF 29
ENDMDL
MODEL 3
REMARK VINA RESULT:      -6.8      4.857     10.280
REMARK SMILES CN(C)c1cccc2c(S(=O)(=O)N[C@H](CO)C(=O)OCCOCCOCCOCCOC(=O)c3ccc(-c4c5nc(c(-c6cc(S(=O)(=O)[O-])ccc6F)c6ccc([nH]6)c(-c6cc(S(=O)(=O)[O-])ccc6F)c6nc(c(-c7cc(S(=O)(=O)[O-])ccc7F)c7ccc4[nH]7)C=C6)C=C5)cc3)cccc12
REMARK SMILES IDX 24 1 23 2 22 3 21 4 20 5 19 6 17 7 18 8 14 9 13 10 10 12
REMARK SMILES IDX 11 13 12 14 9 15 4 16 5 17 100 18 6 19 8 20 99 21 7 22 98 23
REMARK SMILES IDX 97 24 2 25 1 26 3 27 15 28 16 29 25 31 26 32 27 33 28 34
REMARK SMILES IDX 29 35 30 36 31 37 32 38 33 39 34 40 35 41 96 42 36 43 95 44
REMARK SMILES IDX 37 45 38 46 39 47 89 48 40 49 94 50 88 51 90 52 41 53 93 54
REMARK SMILES IDX 87 55 86 56 42 58 74 59 54 60 73 61 55 62 58 63 72 64 91 65
REMARK SMILES IDX 56 66 57 67 71 69 92 70 59 71 43 72 44 73 52 74 45 75 51 76
REMARK SMILES IDX 53 77 50 78 46 79 47 80 48 81 49 82 75 83 76 84 84 85 77 86
REMARK SMILES IDX 83 87 85 88 82 89 78 90 79 91 80 92 81 93 60 94 61 95 69 96
REMARK SMILES IDX 62 97 68 98 70 99 67 100 63 101 64 102 65 103 66 104
REMARK H PARENT 13 11 16 30 90 57 58 68
REMARK Flexibility Score: inf
ROOT
ATOM      1  C   UNL A   1      34.623  31.259  27.872  1.00  0.00     0.188 C 
ENDROOT
BRANCH   1   2
ATOM      2  C   UNL A   1      35.496  32.528  27.942  1.00  0.00     0.188 C 
BRANCH   2   3
ATOM      3  O   UNL A   1      34.984  33.783  27.506  1.00  0.00    -0.376 OA
BRANCH   3   4
ATOM      4  C   UNL A   1      33.646  34.182  27.810  1.00  0.00     0.202 C 
BRANCH   4   5
ATOM      5  C   UNL A   1      33.348  35.267  28.858  1.00  0.00     0.261 C 
BRANCH   5   6
ATOM      6  O   UNL A   1      32.928  34.698  30.096  1.00  0.00    -0.462 OA
BRANCH   6   7
ATOM      7  C   UNL A   1      33.865  34.192  30.936  1.00  0.00     0.326 C 
ATOM      8  O   UNL A   1      34.188  33.015  31.001  1.00  0.00    -0.250 OA
BRANCH   7   9
ATOM      9  C   UNL A   1      34.513  35.338  31.709  1.00  0.00     0.205 C 
BRANCH   9  10
ATOM     10  N   UNL A   1      35.825  34.991  32.348  1.00  0.00    -0.194 NA
ATOM     11  H   UNL A   1      36.287  34.311  31.743  1.00  0.00     0.142 HD
BRANCH  10  12
ATOM     12  S   UNL A   1      35.798  34.343  33.896  1.00  0.00     0.242 S 
ATOM     13  O   UNL A   1      35.303  32.976  33.815  1.00  0.00    -0.207 OA
ATOM     14  O   UNL A   1      35.136  35.347  34.684  1.00  0.00    -0.207 OA
BRANCH  12  15
ATOM     15  C   UNL A   1      37.445  34.201  34.585  1.00  0.00     0.090 A 
ATOM     16  C   UNL A   1      39.625  33.701  37.630  1.00  0.00     0.044 A 
ATOM     17  C   UNL A   1      38.666  33.325  38.583  1.00  0.00     0.026 A 
ATOM     18  C   UNL A   1      39.197  33.965  36.288  1.00  0.00     0.006 A 
ATOM     19  C   UNL A   1      37.342  33.144  38.230  1.00  0.00     0.003 A 
ATOM     20  C   UNL A   1      37.817  33.853  35.918  1.00  0.00     0.004 A 
ATOM     21  C   UNL A   1      40.132  34.311  35.287  1.00  0.00     0.011 A 
ATOM     22  C   UNL A   1      36.942  33.380  36.919  1.00  0.00     0.010 A 
ATOM     23  C   UNL A   1      39.759  34.629  33.988  1.00  0.00     0.002 A 
ATOM     24  C   UNL A   1      38.422  34.589  33.645  1.00  0.00     0.022 A 
BRANCH  16  25
ATOM     25  N   UNL A   1      40.976  33.805  38.020  1.00  0.00    -0.377 N 
ATOM     26  C   UNL A   1      41.637  32.593  38.490  1.00  0.00     0.143 C 
ATOM     27  C   UNL A   1      41.372  35.062  38.647  1.00  0.00     0.143 C 
ENDBRANCH  16  25
ENDBRANCH  12  15
ENDBRANCH  10  12
ENDBRANCH   9  10
BRANCH   9  28
ATOM     28  C   UNL A   1      33.562  35.870  32.808  1.00  0.00     0.188 C 
BRANCH  28  29
ATOM     29  O   UNL A   1      32.553  36.727  32.264  1.00  0.00    -0.394 OA
ATOM     30  H   UNL A   1      31.809  36.787  32.884  1.00  0.00     0.210 HD
ENDBRANCH  28  29
ENDBRANCH   9  28
ENDBRANCH   7   9
ENDBRANCH   6   7
ENDBRANCH   5   6
ENDBRANCH   4   5
ENDBRANCH   3   4
ENDBRANCH   2   3
ENDBRANCH   1   2
BRANCH   1  31
ATOM     31  O   UNL A   1      35.305  30.076  28.235  1.00  0.00    -0.377 OA
BRANCH  31  32
ATOM     32  C   UNL A   1      36.698  29.997  27.943  1.00  0.00     0.188 C 
BRANCH  32  33
ATOM     33  C   UNL A   1      37.574  28.990  28.717  1.00  0.00     0.188 C 
BRANCH  33  34
ATOM     34  O   UNL A   1      37.181  28.813  30.075  1.00  0.00    -0.376 OA
BRANCH  34  35
ATOM     35  C   UNL A   1      38.045  28.040  30.900  1.00  0.00     0.202 C 
BRANCH  35  36
ATOM     36  C   UNL A   1      37.972  28.361  32.400  1.00  0.00     0.261 C 
BRANCH  36  37
ATOM     37  O   UNL A   1      38.839  29.409  32.868  1.00  0.00    -0.460 OA
BRANCH  37  38
ATOM     38  C   UNL A   1      38.680  30.647  32.358  1.00  0.00     0.338 C 
ATOM     39  O   UNL A   1      37.757  31.418  32.572  1.00  0.00    -0.246 OA
BRANCH  38  40
ATOM     40  C   UNL A   1      39.918  30.999  31.636  1.00  0.00     0.060 A 
ATOM     41  C   UNL A   1      41.059  31.358  32.365  1.00  0.00     0.016 A 
ATOM     42  C   UNL A   1      39.943  30.983  30.239  1.00  0.00     0.016 A 
ATOM     43  C   UNL A   1      42.222  31.744  31.695  1.00  0.00     0.010 A 
ATOM     44  C   UNL A   1      41.099  31.388  29.573  1.00  0.00     0.010 A 
ATOM     45  C   UNL A   1      42.232  31.804  30.296  1.00  0.00    -0.014 A 
BRANCH  45  46
ATOM     46  C   UNL A   1      43.318  32.512  29.574  1.00  0.00     0.031 A 
ATOM     47  C   UNL A   1      44.460  31.689  29.047  1.00  0.00     0.074 A 
ATOM     48  C   UNL A   1      43.316  33.848  29.424  1.00  0.00     0.049 A 
ATOM     49  N   UNL A   1      45.602  32.071  28.540  1.00  0.00    -0.248 NA
ATOM     50  C   UNL A   1      44.289  30.228  29.120  1.00  0.00     0.031 C 
ATOM     51  C   UNL A   1      42.240  34.744  29.842  1.00  0.00     0.029 A 
ATOM     52  N   UNL A   1      44.268  34.684  28.897  1.00  0.00    -0.354 N 
ATOM     53  C   UNL A   1      46.292  30.901  28.241  1.00  0.00     0.074 A 
ATOM     54  C   UNL A   1      45.453  29.798  28.660  1.00  0.00     0.031 C 
ATOM     55  C   UNL A   1      42.608  36.012  29.581  1.00  0.00     0.029 A 
ATOM     56  C   UNL A   1      43.961  36.018  29.025  1.00  0.00     0.049 A 
ATOM     57  H   UNL A   1      45.093  34.359  28.469  1.00  0.00     0.167 HD
ATOM     58  C   UNL A   1      47.512  30.759  27.669  1.00  0.00     0.034 A 
ATOM     59  C   UNL A   1      44.704  37.113  28.763  1.00  0.00     0.034 A 
ATOM     60  C   UNL A   1      48.346  31.872  27.285  1.00  0.00     0.049 A 
ATOM     61  C   UNL A   1      46.105  36.938  28.221  1.00  0.00     0.074 A 
ATOM     62  C   UNL A   1      49.604  31.849  26.709  1.00  0.00     0.029 A 
ATOM     63  N   UNL A   1      48.010  33.209  27.450  1.00  0.00    -0.354 N 
ATOM     64  N   UNL A   1      46.758  35.829  27.956  1.00  0.00    -0.248 NA
ATOM     65  C   UNL A   1      46.868  38.162  27.941  1.00  0.00     0.031 C 
ATOM     66  C   UNL A   1      50.056  33.168  26.592  1.00  0.00     0.029 A 
ATOM     67  C   UNL A   1      49.047  34.019  27.014  1.00  0.00     0.049 A 
ATOM     68  H   UNL A   1      47.159  33.535  27.824  1.00  0.00     0.167 HD
ATOM     69  C   UNL A   1      47.992  36.226  27.443  1.00  0.00     0.074 A 
ATOM     70  C   UNL A   1      47.989  37.673  27.431  1.00  0.00     0.031 C 
ATOM     71  C   UNL A   1      49.030  35.463  27.009  1.00  0.00     0.034 A 
BRANCH  58  72
ATOM     72  C   UNL A   1      48.029  29.353  27.490  1.00  0.00     0.023 A 
ATOM     73  C   UNL A   1      47.638  28.556  26.399  1.00  0.00     0.031 A 
ATOM     74  C   UNL A   1      48.882  28.780  28.449  1.00  0.00     0.131 A 
ATOM     75  C   UNL A   1      48.030  27.211  26.337  1.00  0.00     0.055 A 
ATOM     76  C   UNL A   1      49.340  27.466  28.337  1.00  0.00     0.041 A 
ATOM     77  F   UNL A   1      49.267  29.482  29.527  1.00  0.00    -0.206 F 
ATOM     78  C   UNL A   1      48.901  26.668  27.285  1.00  0.00     0.022 A 
BRANCH  75  79
ATOM     79  S   UNL A   1      47.258  26.139  25.094  1.00  0.00     0.124 S 
ATOM     80  O   UNL A   1      47.662  24.813  25.556  1.00  0.00    -0.237 OA
ATOM     81  O   UNL A   1      45.843  26.461  25.236  1.00  0.00    -0.237 OA
ATOM     82  O   UNL A   1      47.875  26.568  23.841  1.00  0.00    -0.744 OA
ENDBRANCH  75  79
ENDBRANCH  58  72
BRANCH  59  83
ATOM     83  C   UNL A   1      44.174  38.476  29.059  1.00  0.00     0.023 A 
ATOM     84  C   UNL A   1      44.239  39.018  30.353  1.00  0.00     0.031 A 
ATOM     85  C   UNL A   1      43.539  39.236  28.059  1.00  0.00     0.131 A 
ATOM     86  C   UNL A   1      43.638  40.258  30.624  1.00  0.00     0.055 A 
ATOM     87  C   UNL A   1      42.993  40.495  28.322  1.00  0.00     0.041 A 
ATOM     88  F   UNL A   1      43.444  38.765  26.806  1.00  0.00    -0.206 F 
ATOM     89  C   UNL A   1      43.030  41.006  29.614  1.00  0.00     0.022 A 
BRANCH  86  90
ATOM     90  S   UNL A   1      43.587  40.840  32.342  1.00  0.00     0.124 S 
ATOM     91  O   UNL A   1      44.012  39.650  33.071  1.00  0.00    -0.237 OA
ATOM     92  O   UNL A   1      44.535  41.949  32.314  1.00  0.00    -0.237 OA
ATOM     93  O   UNL A   1      42.189  41.222  32.530  1.00  0.00    -0.744 OA
ENDBRANCH  86  90
ENDBRANCH  59  83
BRANCH  71  94
ATOM     94  C   UNL A   1      50.221  36.182  26.422  1.00  0.00     0.023 A 
ATOM     95  C   UNL A   1      51.206  36.781  27.225  1.00  0.00     0.031 A 
ATOM     96  C   UNL A   1      50.374  36.256  25.024  1.00  0.00     0.131 A 
ATOM     97  C   UNL A   1      52.274  37.468  26.626  1.00  0.00     0.055 A 
ATOM     98  C   UNL A   1      51.469  36.889  24.435  1.00  0.00     0.041 A 
ATOM     99  F   UNL A   1      49.464  35.702  24.208  1.00  0.00    -0.206 F 
ATOM    100  C   UNL A   1      52.420  37.511  25.237  1.00  0.00     0.022 A 
BRANCH  97 101
ATOM    101  S   UNL A   1      53.430  38.381  27.685  1.00  0.00     0.124 S 
ATOM    102  O   UNL A   1      53.133  37.833  29.004  1.00  0.00    -0.237 OA
ATOM    103  O   UNL A   1      54.726  38.016  27.121  1.00  0.00    -0.237 OA
ATOM    104  O   UNL A   1      53.044  39.777  27.493  1.00  0.00    -0.744 OA
ENDBRANCH  97 101
ENDBRANCH  71  94
ENDBRANCH  45  46
ENDBRANCH  38  40
ENDBRANCH  37  38
ENDBRANCH  36  37
ENDBRANCH  35  36
ENDBRANCH  34  35
ENDBRANCH  33  34
ENDBRANCH  32  33
ENDBRANCH  31  32
ENDBRANCH   1  31
TORSDOF 29
ENDMDL
