MODEL 1
REMARK VINA RESULT:      -8.3      0.000      0.000
REMARK SMILES CC(C)Cn1c([C@@H](O)[C@@H](O)C(=O)OCCOCCOCCOCCOC(=O)c2ccc(-c3c4nc(c(-c5cc(S(=O)(=O)[O-])ccc5F)c5ccc([nH]5)c(-c5cc(S(=O)(=O)[O-])ccc5F)c5nc(c(-c6cc(S(=O)(=O)[O-])ccc6F)c6ccc3[nH]6)C=C5)C=C4)cc2)nc2cc(Cl)ccc21
REMARK SMILES IDX 18 1 17 2 16 3 15 4 14 5 13 6 11 7 12 8 9 9 7 10 6 11 5 12
REMARK SMILES IDX 98 13 91 14 92 15 97 16 93 17 96 18 94 19 95 20 4 21 2 22
REMARK SMILES IDX 1 23 3 24 8 25 10 27 19 29 20 30 21 31 22 32 23 33 24 34
REMARK SMILES IDX 25 35 26 36 27 37 28 38 29 39 90 40 30 41 89 42 31 43 32 44
REMARK SMILES IDX 33 45 83 46 34 47 88 48 82 49 84 50 35 51 87 52 81 53 80 54
REMARK SMILES IDX 36 56 68 57 48 58 67 59 49 60 52 61 66 62 85 63 50 64 51 65
REMARK SMILES IDX 65 67 86 68 53 69 37 70 38 71 46 72 39 73 45 74 47 75 44 76
REMARK SMILES IDX 40 77 41 78 42 79 43 80 69 81 70 82 78 83 71 84 77 85 79 86
REMARK SMILES IDX 76 87 72 88 73 89 74 90 75 91 54 92 55 93 63 94 56 95 62 96
REMARK SMILES IDX 64 97 61 98 57 99 58 100 59 101 60 102
REMARK H PARENT 8 26 10 28 84 55 52 66
REMARK Flexibility Score: inf
ROOT
ATOM      1  C   UNL A   1      39.358  23.523  26.945  1.00  0.00     0.188 C 
ENDROOT
BRANCH   1   2
ATOM      2  C   UNL A   1      38.875  22.562  25.855  1.00  0.00     0.188 C 
BRANCH   2   3
ATOM      3  O   UNL A   1      37.471  22.461  25.807  1.00  0.00    -0.376 OA
BRANCH   3   4
ATOM      4  C   UNL A   1      36.891  21.411  25.053  1.00  0.00     0.202 C 
BRANCH   4   5
ATOM      5  C   UNL A   1      35.370  21.327  24.783  1.00  0.00     0.261 C 
BRANCH   5   6
ATOM      6  O   UNL A   1      34.537  22.481  25.025  1.00  0.00    -0.461 OA
BRANCH   6   7
ATOM      7  C   UNL A   1      33.345  22.234  25.623  1.00  0.00     0.338 C 
ATOM      8  O   UNL A   1      33.132  21.237  26.314  1.00  0.00    -0.249 OA
BRANCH   7   9
ATOM      9  C   UNL A   1      32.240  23.260  25.353  1.00  0.00     0.260 C 
BRANCH   9  10
ATOM     10  C   UNL A   1      31.988  24.440  26.309  1.00  0.00     0.220 C 
BRANCH  10  11
ATOM     11  C   UNL A   1      31.484  25.609  25.488  1.00  0.00     0.142 A 
ATOM     12  N   UNL A   1      32.097  26.839  25.386  1.00  0.00    -0.325 N 
ATOM     13  C   UNL A   1      31.304  27.641  24.589  1.00  0.00     0.068 A 
ATOM     14  N   UNL A   1      30.351  25.593  24.802  1.00  0.00    -0.230 NA
ATOM     15  C   UNL A   1      30.212  26.840  24.273  1.00  0.00     0.090 A 
ATOM     16  C   UNL A   1      31.418  28.959  24.130  1.00  0.00     0.030 A 
ATOM     17  C   UNL A   1      29.158  27.347  23.503  1.00  0.00     0.051 A 
ATOM     18  C   UNL A   1      30.363  29.454  23.350  1.00  0.00     0.023 A 
ATOM     19  C   UNL A   1      29.251  28.663  23.053  1.00  0.00     0.043 A 
ATOM     20  Cl  UNL A   1      27.963  29.324  22.117  1.00  0.00    -0.084 Cl
BRANCH  12  21
ATOM     21  C   UNL A   1      33.357  27.226  25.993  1.00  0.00     0.127 C 
BRANCH  21  22
ATOM     22  C   UNL A   1      33.228  28.197  27.182  1.00  0.00     0.003 C 
ATOM     23  C   UNL A   1      33.658  29.631  26.857  1.00  0.00     0.009 C 
ATOM     24  C   UNL A   1      31.779  28.207  27.674  1.00  0.00     0.009 C 
ENDBRANCH  21  22
ENDBRANCH  12  21
ENDBRANCH  10  11
BRANCH  10  25
ATOM     25  O   UNL A   1      30.912  24.259  27.222  1.00  0.00    -0.382 OA
ATOM     26  H   UNL A   1      30.152  24.789  26.935  1.00  0.00     0.211 HD
ENDBRANCH  10  25
ENDBRANCH   9  10
BRANCH   9  27
ATOM     27  O   UNL A   1      32.535  23.800  24.044  1.00  0.00    -0.379 OA
ATOM     28  H   UNL A   1      33.432  23.541  23.782  1.00  0.00     0.211 HD
ENDBRANCH   9  27
ENDBRANCH   7   9
ENDBRANCH   6   7
ENDBRANCH   5   6
ENDBRANCH   4   5
ENDBRANCH   3   4
ENDBRANCH   2   3
ENDBRANCH   1   2
BRANCH   1  29
ATOM     29  O   UNL A   1      40.733  23.903  26.955  1.00  0.00    -0.377 OA
BRANCH  29  30
ATOM     30  C   UNL A   1      41.588  23.300  27.920  1.00  0.00     0.188 C 
BRANCH  30  31
ATOM     31  C   UNL A   1      42.902  22.673  27.432  1.00  0.00     0.188 C 
BRANCH  31  32
ATOM     32  O   UNL A   1      44.113  23.088  28.020  1.00  0.00    -0.376 OA
BRANCH  32  33
ATOM     33  C   UNL A   1      45.235  23.454  27.246  1.00  0.00     0.202 C 
BRANCH  33  34
ATOM     34  C   UNL A   1      45.205  23.892  25.765  1.00  0.00     0.261 C 
BRANCH  34  35
ATOM     35  O   UNL A   1      45.070  25.288  25.501  1.00  0.00    -0.460 OA
BRANCH  35  36
ATOM     36  C   UNL A   1      43.826  25.821  25.380  1.00  0.00     0.338 C 
ATOM     37  O   UNL A   1      42.935  25.432  24.663  1.00  0.00    -0.246 OA
BRANCH  36  38
ATOM     38  C   UNL A   1      43.684  26.760  26.533  1.00  0.00     0.060 A 
ATOM     39  C   UNL A   1      42.451  26.966  27.162  1.00  0.00     0.016 A 
ATOM     40  C   UNL A   1      44.747  27.650  26.761  1.00  0.00     0.016 A 
ATOM     41  C   UNL A   1      42.268  28.108  27.943  1.00  0.00     0.010 A 
ATOM     42  C   UNL A   1      44.552  28.801  27.531  1.00  0.00     0.010 A 
ATOM     43  C   UNL A   1      43.306  29.048  28.111  1.00  0.00    -0.014 A 
BRANCH  43  44
ATOM     44  C   UNL A   1      43.113  30.094  29.133  1.00  0.00     0.031 A 
ATOM     45  C   UNL A   1      43.147  29.524  30.510  1.00  0.00     0.074 A 
ATOM     46  C   UNL A   1      43.073  31.440  29.011  1.00  0.00     0.049 A 
ATOM     47  N   UNL A   1      42.171  29.415  31.351  1.00  0.00    -0.248 NA
ATOM     48  C   UNL A   1      44.383  28.845  30.920  1.00  0.00     0.031 C 
ATOM     49  C   UNL A   1      43.373  32.258  27.837  1.00  0.00     0.029 A 
ATOM     50  N   UNL A   1      42.827  32.379  29.985  1.00  0.00    -0.354 N 
ATOM     51  C   UNL A   1      42.715  28.802  32.479  1.00  0.00     0.074 A 
ATOM     52  C   UNL A   1      44.020  28.331  32.094  1.00  0.00     0.031 C 
ATOM     53  C   UNL A   1      43.501  33.555  28.217  1.00  0.00     0.029 A 
ATOM     54  C   UNL A   1      43.149  33.681  29.623  1.00  0.00     0.049 A 
ATOM     55  H   UNL A   1      42.452  32.147  30.865  1.00  0.00     0.167 HD
ATOM     56  C   UNL A   1      42.131  28.901  33.706  1.00  0.00     0.034 A 
ATOM     57  C   UNL A   1      43.173  34.777  30.427  1.00  0.00     0.034 A 
ATOM     58  C   UNL A   1      40.807  29.444  33.613  1.00  0.00     0.049 A 
ATOM     59  C   UNL A   1      42.347  34.517  31.624  1.00  0.00     0.074 A 
ATOM     60  C   UNL A   1      39.585  29.018  33.144  1.00  0.00     0.029 A 
ATOM     61  N   UNL A   1      40.721  30.801  33.786  1.00  0.00    -0.354 N 
ATOM     62  N   UNL A   1      41.049  34.436  31.617  1.00  0.00    -0.248 NA
ATOM     63  C   UNL A   1      42.996  34.066  32.847  1.00  0.00     0.031 C 
ATOM     64  C   UNL A   1      38.894  30.197  32.745  1.00  0.00     0.029 A 
ATOM     65  C   UNL A   1      39.712  31.299  33.006  1.00  0.00     0.049 A 
ATOM     66  H   UNL A   1      41.296  31.335  34.378  1.00  0.00     0.167 HD
ATOM     67  C   UNL A   1      40.765  33.512  32.603  1.00  0.00     0.074 A 
ATOM     68  C   UNL A   1      41.956  33.476  33.441  1.00  0.00     0.031 C 
ATOM     69  C   UNL A   1      39.726  32.643  32.458  1.00  0.00     0.034 A 
BRANCH  56  70
ATOM     70  C   UNL A   1      42.887  28.875  35.017  1.00  0.00     0.023 A 
ATOM     71  C   UNL A   1      42.913  27.753  35.864  1.00  0.00     0.031 A 
ATOM     72  C   UNL A   1      43.803  29.902  35.332  1.00  0.00     0.131 A 
ATOM     73  C   UNL A   1      43.784  27.676  36.959  1.00  0.00     0.055 A 
ATOM     74  C   UNL A   1      44.723  29.795  36.383  1.00  0.00     0.041 A 
ATOM     75  F   UNL A   1      43.874  31.018  34.590  1.00  0.00    -0.206 F 
ATOM     76  C   UNL A   1      44.717  28.676  37.206  1.00  0.00     0.022 A 
BRANCH  73  77
ATOM     77  S   UNL A   1      43.721  26.248  38.075  1.00  0.00     0.124 S 
ATOM     78  O   UNL A   1      44.236  26.814  39.317  1.00  0.00    -0.237 OA
ATOM     79  O   UNL A   1      42.296  25.928  38.065  1.00  0.00    -0.237 OA
ATOM     80  O   UNL A   1      44.579  25.265  37.419  1.00  0.00    -0.744 OA
ENDBRANCH  73  77
ENDBRANCH  56  70
BRANCH  57  81
ATOM     81  C   UNL A   1      44.109  35.927  30.418  1.00  0.00     0.023 A 
ATOM     82  C   UNL A   1      43.588  37.221  30.255  1.00  0.00     0.031 A 
ATOM     83  C   UNL A   1      45.489  35.750  30.193  1.00  0.00     0.131 A 
ATOM     84  C   UNL A   1      44.411  38.264  29.807  1.00  0.00     0.055 A 
ATOM     85  C   UNL A   1      46.313  36.800  29.769  1.00  0.00     0.041 A 
ATOM     86  F   UNL A   1      46.048  34.535  30.298  1.00  0.00    -0.206 F 
ATOM     87  C   UNL A   1      45.770  38.061  29.554  1.00  0.00     0.022 A 
BRANCH  84  88
ATOM     88  S   UNL A   1      43.699  39.888  29.429  1.00  0.00     0.124 S 
ATOM     89  O   UNL A   1      42.439  39.528  28.782  1.00  0.00    -0.237 OA
ATOM     90  O   UNL A   1      43.578  40.473  30.760  1.00  0.00    -0.237 OA
ATOM     91  O   UNL A   1      44.692  40.499  28.551  1.00  0.00    -0.744 OA
ENDBRANCH  84  88
ENDBRANCH  57  81
BRANCH  69  92
ATOM     92  C   UNL A   1      38.624  32.998  31.491  1.00  0.00     0.023 A 
ATOM     93  C   UNL A   1      37.463  33.565  32.046  1.00  0.00     0.031 A 
ATOM     94  C   UNL A   1      38.596  32.665  30.124  1.00  0.00     0.131 A 
ATOM     95  C   UNL A   1      36.316  33.737  31.267  1.00  0.00     0.055 A 
ATOM     96  C   UNL A   1      37.477  32.923  29.327  1.00  0.00     0.041 A 
ATOM     97  F   UNL A   1      39.610  32.012  29.536  1.00  0.00    -0.206 F 
ATOM     98  C   UNL A   1      36.322  33.442  29.902  1.00  0.00     0.022 A 
BRANCH  95  99
ATOM     99  S   UNL A   1      34.747  34.192  32.049  1.00  0.00     0.124 S 
ATOM    100  O   UNL A   1      34.040  32.916  32.089  1.00  0.00    -0.237 OA
ATOM    101  O   UNL A   1      35.189  34.706  33.343  1.00  0.00    -0.237 OA
ATOM    102  O   UNL A   1      34.182  35.194  31.150  1.00  0.00    -0.744 OA
ENDBRANCH  95  99
ENDBRANCH  69  92
ENDBRANCH  43  44
ENDBRANCH  36  38
ENDBRANCH  35  36
ENDBRANCH  34  35
ENDBRANCH  33  34
ENDBRANCH  32  33
ENDBRANCH  31  32
ENDBRANCH  30  31
ENDBRANCH  29  30
ENDBRANCH   1  29
TORSDOF 29
ENDMDL
MODEL 2
REMARK VINA RESULT:      -8.2      3.760      9.052
REMARK SMILES CC(C)Cn1c([C@@H](O)[C@@H](O)C(=O)OCCOCCOCCOCCOC(=O)c2ccc(-c3c4nc(c(-c5cc(S(=O)(=O)[O-])ccc5F)c5ccc([nH]5)c(-c5cc(S(=O)(=O)[O-])ccc5F)c5nc(c(-c6cc(S(=O)(=O)[O-])ccc6F)c6ccc3[nH]6)C=C5)C=C4)cc2)nc2cc(Cl)ccc21
REMARK SMILES IDX 18 1 17 2 16 3 15 4 14 5 13 6 11 7 12 8 9 9 7 10 6 11 5 12
REMARK SMILES IDX 98 13 91 14 92 15 97 16 93 17 96 18 94 19 95 20 4 21 2 22
REMARK SMILES IDX 1 23 3 24 8 25 10 27 19 29 20 30 21 31 22 32 23 33 24 34
REMARK SMILES IDX 25 35 26 36 27 37 28 38 29 39 90 40 30 41 89 42 31 43 32 44
REMARK SMILES IDX 33 45 83 46 34 47 88 48 82 49 84 50 35 51 87 52 81 53 80 54
REMARK SMILES IDX 36 56 68 57 48 58 67 59 49 60 52 61 66 62 85 63 50 64 51 65
REMARK SMILES IDX 65 67 86 68 53 69 37 70 38 71 46 72 39 73 45 74 47 75 44 76
REMARK SMILES IDX 40 77 41 78 42 79 43 80 69 81 70 82 78 83 71 84 77 85 79 86
REMARK SMILES IDX 76 87 72 88 73 89 74 90 75 91 54 92 55 93 63 94 56 95 62 96
REMARK SMILES IDX 64 97 61 98 57 99 58 100 59 101 60 102
REMARK H PARENT 8 26 10 28 84 55 52 66
REMARK Flexibility Score: inf
ROOT
ATOM      1  C   UNL A   1      38.176  28.497  30.076  1.00  0.00     0.188 C 
ENDROOT
BRANCH   1   2
ATOM      2  C   UNL A   1      38.699  27.998  28.726  1.00  0.00     0.188 C 
BRANCH   2   3
ATOM      3  O   UNL A   1      39.769  27.092  28.864  1.00  0.00    -0.376 OA
BRANCH   3   4
ATOM      4  C   UNL A   1      39.598  25.764  28.400  1.00  0.00     0.202 C 
BRANCH   4   5
ATOM      5  C   UNL A   1      39.598  25.404  26.895  1.00  0.00     0.261 C 
BRANCH   5   6
ATOM      6  O   UNL A   1      38.554  24.560  26.363  1.00  0.00    -0.461 OA
BRANCH   6   7
ATOM      7  C   UNL A   1      38.771  23.225  26.454  1.00  0.00     0.338 C 
ATOM      8  O   UNL A   1      39.804  22.740  26.918  1.00  0.00    -0.249 OA
BRANCH   7   9
ATOM      9  C   UNL A   1      37.658  22.331  25.897  1.00  0.00     0.260 C 
BRANCH   9  10
ATOM     10  C   UNL A   1      36.198  22.811  25.833  1.00  0.00     0.220 C 
BRANCH  10  11
ATOM     11  C   UNL A   1      35.361  21.691  25.251  1.00  0.00     0.142 A 
ATOM     12  N   UNL A   1      34.122  21.839  24.665  1.00  0.00    -0.325 N 
ATOM     13  C   UNL A   1      33.671  20.583  24.307  1.00  0.00     0.068 A 
ATOM     14  N   UNL A   1      35.714  20.415  25.282  1.00  0.00    -0.230 NA
ATOM     15  C   UNL A   1      34.675  19.722  24.738  1.00  0.00     0.090 A 
ATOM     16  C   UNL A   1      32.511  20.118  23.677  1.00  0.00     0.030 A 
ATOM     17  C   UNL A   1      34.537  18.337  24.584  1.00  0.00     0.051 A 
ATOM     18  C   UNL A   1      32.388  18.730  23.516  1.00  0.00     0.023 A 
ATOM     19  C   UNL A   1      33.380  17.859  23.973  1.00  0.00     0.043 A 
ATOM     20  Cl  UNL A   1      33.171  16.158  23.782  1.00  0.00    -0.084 Cl
BRANCH  12  21
ATOM     21  C   UNL A   1      33.417  23.088  24.446  1.00  0.00     0.127 C 
BRANCH  21  22
ATOM     22  C   UNL A   1      32.174  23.291  25.334  1.00  0.00     0.003 C 
ATOM     23  C   UNL A   1      32.321  24.426  26.352  1.00  0.00     0.009 C 
ATOM     24  C   UNL A   1      30.957  23.566  24.447  1.00  0.00     0.009 C 
ENDBRANCH  21  22
ENDBRANCH  12  21
ENDBRANCH  10  11
BRANCH  10  25
ATOM     25  O   UNL A   1      35.568  22.999  27.095  1.00  0.00    -0.382 OA
ATOM     26  H   UNL A   1      35.965  22.401  27.747  1.00  0.00     0.211 HD
ENDBRANCH  10  25
ENDBRANCH   9  10
BRANCH   9  27
ATOM     27  O   UNL A   1      38.079  21.996  24.553  1.00  0.00    -0.379 OA
ATOM     28  H   UNL A   1      38.343  22.804  24.086  1.00  0.00     0.211 HD
ENDBRANCH   9  27
ENDBRANCH   7   9
ENDBRANCH   6   7
ENDBRANCH   5   6
ENDBRANCH   4   5
ENDBRANCH   3   4
ENDBRANCH   2   3
ENDBRANCH   1   2
BRANCH   1  29
ATOM     29  O   UNL A   1      37.470  29.736  30.114  1.00  0.00    -0.377 OA
BRANCH  29  30
ATOM     30  C   UNL A   1      37.656  30.647  29.036  1.00  0.00     0.188 C 
BRANCH  30  31
ATOM     31  C   UNL A   1      36.578  31.715  28.796  1.00  0.00     0.188 C 
BRANCH  31  32
ATOM     32  O   UNL A   1      36.523  32.830  29.656  1.00  0.00    -0.376 OA
BRANCH  32  33
ATOM     33  C   UNL A   1      35.378  33.650  29.746  1.00  0.00     0.202 C 
BRANCH  33  34
ATOM     34  C   UNL A   1      34.437  33.756  30.967  1.00  0.00     0.261 C 
BRANCH  34  35
ATOM     35  O   UNL A   1      34.519  32.718  31.943  1.00  0.00    -0.460 OA
BRANCH  35  36
ATOM     36  C   UNL A   1      35.033  33.000  33.169  1.00  0.00     0.338 C 
ATOM     37  O   UNL A   1      34.415  33.201  34.187  1.00  0.00    -0.246 OA
BRANCH  36  38
ATOM     38  C   UNL A   1      36.490  32.689  33.068  1.00  0.00     0.060 A 
ATOM     39  C   UNL A   1      36.952  31.373  32.966  1.00  0.00     0.016 A 
ATOM     40  C   UNL A   1      37.383  33.724  33.389  1.00  0.00     0.016 A 
ATOM     41  C   UNL A   1      38.284  31.093  33.270  1.00  0.00     0.010 A 
ATOM     42  C   UNL A   1      38.714  33.436  33.710  1.00  0.00     0.010 A 
ATOM     43  C   UNL A   1      39.168  32.117  33.671  1.00  0.00    -0.014 A 
BRANCH  43  44
ATOM     44  C   UNL A   1      40.603  31.782  33.744  1.00  0.00     0.031 A 
ATOM     45  C   UNL A   1      41.285  32.017  32.440  1.00  0.00     0.074 A 
ATOM     46  C   UNL A   1      41.375  31.464  34.808  1.00  0.00     0.049 A 
ATOM     47  N   UNL A   1      41.772  31.139  31.627  1.00  0.00    -0.248 NA
ATOM     48  C   UNL A   1      41.262  33.388  31.913  1.00  0.00     0.031 C 
ATOM     49  C   UNL A   1      41.035  31.518  36.230  1.00  0.00     0.029 A 
ATOM     50  N   UNL A   1      42.699  31.096  34.823  1.00  0.00    -0.354 N 
ATOM     51  C   UNL A   1      42.280  31.865  30.549  1.00  0.00     0.074 A 
ATOM     52  C   UNL A   1      41.792  33.212  30.704  1.00  0.00     0.031 C 
ATOM     53  C   UNL A   1      42.171  31.407  36.965  1.00  0.00     0.029 A 
ATOM     54  C   UNL A   1      43.291  31.126  36.080  1.00  0.00     0.049 A 
ATOM     55  H   UNL A   1      43.188  30.833  34.010  1.00  0.00     0.167 HD
ATOM     56  C   UNL A   1      43.227  31.353  29.715  1.00  0.00     0.034 A 
ATOM     57  C   UNL A   1      44.610  30.980  36.372  1.00  0.00     0.034 A 
ATOM     58  C   UNL A   1      43.396  29.942  29.920  1.00  0.00     0.049 A 
ATOM     59  C   UNL A   1      45.283  30.301  35.246  1.00  0.00     0.074 A 
ATOM     60  C   UNL A   1      42.662  28.804  29.672  1.00  0.00     0.029 A 
ATOM     61  N   UNL A   1      44.395  29.596  30.792  1.00  0.00    -0.354 N 
ATOM     62  N   UNL A   1      45.118  29.047  34.939  1.00  0.00    -0.248 NA
ATOM     63  C   UNL A   1      45.976  31.104  34.248  1.00  0.00     0.031 C 
ATOM     64  C   UNL A   1      43.062  27.866  30.666  1.00  0.00     0.029 A 
ATOM     65  C   UNL A   1      44.039  28.461  31.468  1.00  0.00     0.049 A 
ATOM     66  H   UNL A   1      45.237  30.089  30.914  1.00  0.00     0.167 HD
ATOM     67  C   UNL A   1      45.247  29.019  33.565  1.00  0.00     0.074 A 
ATOM     68  C   UNL A   1      45.960  30.243  33.227  1.00  0.00     0.031 C 
ATOM     69  C   UNL A   1      44.490  28.169  32.816  1.00  0.00     0.034 A 
BRANCH  56  70
ATOM     70  C   UNL A   1      44.270  32.179  28.995  1.00  0.00     0.023 A 
ATOM     71  C   UNL A   1      44.129  32.595  27.658  1.00  0.00     0.031 A 
ATOM     72  C   UNL A   1      45.327  32.778  29.714  1.00  0.00     0.131 A 
ATOM     73  C   UNL A   1      44.997  33.530  27.082  1.00  0.00     0.055 A 
ATOM     74  C   UNL A   1      46.151  33.766  29.160  1.00  0.00     0.041 A 
ATOM     75  F   UNL A   1      45.553  32.465  31.000  1.00  0.00    -0.206 F 
ATOM     76  C   UNL A   1      45.990  34.148  27.835  1.00  0.00     0.022 A 
BRANCH  73  77
ATOM     77  S   UNL A   1      44.831  33.970  25.330  1.00  0.00     0.124 S 
ATOM     78  O   UNL A   1      43.701  34.891  25.357  1.00  0.00    -0.237 OA
ATOM     79  O   UNL A   1      46.134  34.568  25.052  1.00  0.00    -0.237 OA
ATOM     80  O   UNL A   1      44.591  32.685  24.678  1.00  0.00    -0.744 OA
ENDBRANCH  73  77
ENDBRANCH  56  70
BRANCH  57  81
ATOM     81  C   UNL A   1      45.424  31.662  37.407  1.00  0.00     0.023 A 
ATOM     82  C   UNL A   1      45.587  33.055  37.329  1.00  0.00     0.031 A 
ATOM     83  C   UNL A   1      46.325  30.948  38.223  1.00  0.00     0.131 A 
ATOM     84  C   UNL A   1      46.660  33.679  37.981  1.00  0.00     0.055 A 
ATOM     85  C   UNL A   1      47.381  31.579  38.893  1.00  0.00     0.041 A 
ATOM     86  F   UNL A   1      46.249  29.612  38.318  1.00  0.00    -0.206 F 
ATOM     87  C   UNL A   1      47.565  32.950  38.756  1.00  0.00     0.022 A 
BRANCH  84  88
ATOM     88  S   UNL A   1      46.969  35.449  37.735  1.00  0.00     0.124 S 
ATOM     89  O   UNL A   1      48.360  35.580  38.163  1.00  0.00    -0.237 OA
ATOM     90  O   UNL A   1      46.735  35.592  36.303  1.00  0.00    -0.237 OA
ATOM     91  O   UNL A   1      45.990  36.090  38.608  1.00  0.00    -0.744 OA
ENDBRANCH  84  88
ENDBRANCH  57  81
BRANCH  69  92
ATOM     92  C   UNL A   1      43.892  26.958  33.490  1.00  0.00     0.023 A 
ATOM     93  C   UNL A   1      42.960  27.209  34.513  1.00  0.00     0.031 A 
ATOM     94  C   UNL A   1      44.304  25.627  33.295  1.00  0.00     0.131 A 
ATOM     95  C   UNL A   1      42.509  26.170  35.330  1.00  0.00     0.055 A 
ATOM     96  C   UNL A   1      43.780  24.577  34.056  1.00  0.00     0.041 A 
ATOM     97  F   UNL A   1      45.275  25.308  32.427  1.00  0.00    -0.206 F 
ATOM     98  C   UNL A   1      42.893  24.848  35.093  1.00  0.00     0.022 A 
BRANCH  95  99
ATOM     99  S   UNL A   1      41.543  26.538  36.817  1.00  0.00     0.124 S 
ATOM    100  O   UNL A   1      41.118  27.913  36.578  1.00  0.00    -0.237 OA
ATOM    101  O   UNL A   1      40.484  25.532  36.750  1.00  0.00    -0.237 OA
ATOM    102  O   UNL A   1      42.494  26.357  37.910  1.00  0.00    -0.744 OA
ENDBRANCH  95  99
ENDBRANCH  69  92
ENDBRANCH  43  44
ENDBRANCH  36  38
ENDBRANCH  35  36
ENDBRANCH  34  35
ENDBRANCH  33  34
ENDBRANCH  32  33
ENDBRANCH  31  32
ENDBRANCH  30  31
ENDBRANCH  29  30
ENDBRANCH   1  29
TORSDOF 29
ENDMDL
MODEL 3
REMARK VINA RESULT:      -7.9      5.812     10.468
REMARK SMILES CC(C)Cn1c([C@@H](O)[C@@H](O)C(=O)OCCOCCOCCOCCOC(=O)c2ccc(-c3c4nc(c(-c5cc(S(=O)(=O)[O-])ccc5F)c5ccc([nH]5)c(-c5cc(S(=O)(=O)[O-])ccc5F)c5nc(c(-c6cc(S(=O)(=O)[O-])ccc6F)c6ccc3[nH]6)C=C5)C=C4)cc2)nc2cc(Cl)ccc21
REMARK SMILES IDX 18 1 17 2 16 3 15 4 14 5 13 6 11 7 12 8 9 9 7 10 6 11 5 12
REMARK SMILES IDX 98 13 91 14 92 15 97 16 93 17 96 18 94 19 95 20 4 21 2 22
REMARK SMILES IDX 1 23 3 24 8 25 10 27 19 29 20 30 21 31 22 32 23 33 24 34
REMARK SMILES IDX 25 35 26 36 27 37 28 38 29 39 90 40 30 41 89 42 31 43 32 44
REMARK SMILES IDX 33 45 83 46 34 47 88 48 82 49 84 50 35 51 87 52 81 53 80 54
REMARK SMILES IDX 36 56 68 57 48 58 67 59 49 60 52 61 66 62 85 63 50 64 51 65
REMARK SMILES IDX 65 67 86 68 53 69 37 70 38 71 46 72 39 73 45 74 47 75 44 76
REMARK SMILES IDX 40 77 41 78 42 79 43 80 69 81 70 82 78 83 71 84 77 85 79 86
REMARK SMILES IDX 76 87 72 88 73 89 74 90 75 91 54 92 55 93 63 94 56 95 62 96
REMARK SMILES IDX 64 97 61 98 57 99 58 100 59 101 60 102
REMARK H PARENT 8 26 10 28 84 55 52 66
REMARK Flexibility Score: inf
ROOT
ATOM      1  C   UNL A   1      46.301  22.835  26.004  1.00  0.00     0.188 C 
ENDROOT
BRANCH   1   2
ATOM      2  C   UNL A   1      45.581  23.498  27.182  1.00  0.00     0.188 C 
BRANCH   2   3
ATOM      3  O   UNL A   1      46.335  24.537  27.760  1.00  0.00    -0.376 OA
BRANCH   3   4
ATOM      4  C   UNL A   1      45.653  25.667  28.274  1.00  0.00     0.202 C 
BRANCH   4   5
ATOM      5  C   UNL A   1      45.333  26.909  27.407  1.00  0.00     0.261 C 
BRANCH   5   6
ATOM      6  O   UNL A   1      45.169  26.760  25.980  1.00  0.00    -0.461 OA
BRANCH   6   7
ATOM      7  C   UNL A   1      46.272  27.007  25.230  1.00  0.00     0.338 C 
ATOM      8  O   UNL A   1      46.603  26.311  24.269  1.00  0.00    -0.249 OA
BRANCH   7   9
ATOM      9  C   UNL A   1      47.129  28.195  25.678  1.00  0.00     0.260 C 
BRANCH   9  10
ATOM     10  C   UNL A   1      48.666  28.143  25.622  1.00  0.00     0.220 C 
BRANCH  10  11
ATOM     11  C   UNL A   1      49.170  27.705  26.981  1.00  0.00     0.142 A 
ATOM     12  N   UNL A   1      49.860  28.497  27.874  1.00  0.00    -0.325 N 
ATOM     13  C   UNL A   1      50.183  27.718  28.968  1.00  0.00     0.068 A 
ATOM     14  N   UNL A   1      49.042  26.473  27.452  1.00  0.00    -0.230 NA
ATOM     15  C   UNL A   1      49.685  26.458  28.652  1.00  0.00     0.090 A 
ATOM     16  C   UNL A   1      50.854  27.974  30.170  1.00  0.00     0.030 A 
ATOM     17  C   UNL A   1      49.874  25.380  29.526  1.00  0.00     0.051 A 
ATOM     18  C   UNL A   1      51.027  26.890  31.043  1.00  0.00     0.023 A 
ATOM     19  C   UNL A   1      50.554  25.617  30.719  1.00  0.00     0.043 A 
ATOM     20  Cl  UNL A   1      50.819  24.308  31.810  1.00  0.00    -0.084 Cl
BRANCH  12  21
ATOM     21  C   UNL A   1      50.182  29.902  27.707  1.00  0.00     0.127 C 
BRANCH  21  22
ATOM     22  C   UNL A   1      49.004  30.866  27.947  1.00  0.00     0.003 C 
ATOM     23  C   UNL A   1      48.852  31.303  29.407  1.00  0.00     0.009 C 
ATOM     24  C   UNL A   1      49.178  32.106  27.067  1.00  0.00     0.009 C 
ENDBRANCH  21  22
ENDBRANCH  12  21
ENDBRANCH  10  11
BRANCH  10  25
ATOM     25  O   UNL A   1      49.206  27.128  24.786  1.00  0.00    -0.382 OA
ATOM     26  H   UNL A   1      48.527  26.827  24.162  1.00  0.00     0.211 HD
ENDBRANCH  10  25
ENDBRANCH   9  10
BRANCH   9  27
ATOM     27  O   UNL A   1      46.688  29.308  24.865  1.00  0.00    -0.379 OA
ATOM     28  H   UNL A   1      47.032  29.207  23.964  1.00  0.00     0.211 HD
ENDBRANCH   9  27
ENDBRANCH   7   9
ENDBRANCH   6   7
ENDBRANCH   5   6
ENDBRANCH   4   5
ENDBRANCH   3   4
ENDBRANCH   2   3
ENDBRANCH   1   2
BRANCH   1  29
ATOM     29  O   UNL A   1      45.950  21.495  25.662  1.00  0.00    -0.377 OA
BRANCH  29  30
ATOM     30  C   UNL A   1      45.074  21.292  24.559  1.00  0.00     0.188 C 
BRANCH  30  31
ATOM     31  C   UNL A   1      44.523  22.529  23.835  1.00  0.00     0.188 C 
BRANCH  31  32
ATOM     32  O   UNL A   1      43.219  22.969  24.139  1.00  0.00    -0.376 OA
BRANCH  32  33
ATOM     33  C   UNL A   1      42.552  22.577  25.319  1.00  0.00     0.202 C 
BRANCH  33  34
ATOM     34  C   UNL A   1      42.070  23.525  26.440  1.00  0.00     0.261 C 
BRANCH  34  35
ATOM     35  O   UNL A   1      41.465  24.753  26.039  1.00  0.00    -0.460 OA
BRANCH  35  36
ATOM     36  C   UNL A   1      40.249  25.089  26.543  1.00  0.00     0.338 C 
ATOM     37  O   UNL A   1      39.233  24.439  26.481  1.00  0.00    -0.246 OA
BRANCH  36  38
ATOM     38  C   UNL A   1      40.503  26.244  27.455  1.00  0.00     0.060 A 
ATOM     39  C   UNL A   1      40.280  27.563  27.045  1.00  0.00     0.016 A 
ATOM     40  C   UNL A   1      41.259  25.986  28.610  1.00  0.00     0.016 A 
ATOM     41  C   UNL A   1      40.885  28.606  27.746  1.00  0.00     0.010 A 
ATOM     42  C   UNL A   1      41.878  27.034  29.299  1.00  0.00     0.010 A 
ATOM     43  C   UNL A   1      41.712  28.349  28.860  1.00  0.00    -0.014 A 
BRANCH  43  44
ATOM     44  C   UNL A   1      42.118  29.504  29.682  1.00  0.00     0.031 A 
ATOM     45  C   UNL A   1      40.977  30.035  30.479  1.00  0.00     0.074 A 
ATOM     46  C   UNL A   1      43.345  30.020  29.922  1.00  0.00     0.049 A 
ATOM     47  N   UNL A   1      40.361  31.162  30.335  1.00  0.00    -0.248 NA
ATOM     48  C   UNL A   1      40.349  29.116  31.438  1.00  0.00     0.031 C 
ATOM     49  C   UNL A   1      44.651  29.472  29.557  1.00  0.00     0.029 A 
ATOM     50  N   UNL A   1      43.674  31.140  30.646  1.00  0.00    -0.354 N 
ATOM     51  C   UNL A   1      39.363  31.172  31.310  1.00  0.00     0.074 A 
ATOM     52  C   UNL A   1      39.300  29.833  31.838  1.00  0.00     0.031 C 
ATOM     53  C   UNL A   1      45.620  30.135  30.237  1.00  0.00     0.029 A 
ATOM     54  C   UNL A   1      45.023  31.243  30.967  1.00  0.00     0.049 A 
ATOM     55  H   UNL A   1      43.009  31.814  30.916  1.00  0.00     0.167 HD
ATOM     56  C   UNL A   1      38.796  32.329  31.752  1.00  0.00     0.034 A 
ATOM     57  C   UNL A   1      45.603  32.141  31.806  1.00  0.00     0.034 A 
ATOM     58  C   UNL A   1      39.145  33.437  30.909  1.00  0.00     0.049 A 
ATOM     59  C   UNL A   1      44.706  33.304  31.966  1.00  0.00     0.074 A 
ATOM     60  C   UNL A   1      38.838  33.855  29.634  1.00  0.00     0.029 A 
ATOM     61  N   UNL A   1      40.237  34.158  31.317  1.00  0.00    -0.354 N 
ATOM     62  N   UNL A   1      44.473  34.185  31.037  1.00  0.00    -0.248 NA
ATOM     63  C   UNL A   1      43.819  33.361  33.120  1.00  0.00     0.031 C 
ATOM     64  C   UNL A   1      39.967  34.602  29.193  1.00  0.00     0.029 A 
ATOM     65  C   UNL A   1      40.910  34.629  30.223  1.00  0.00     0.049 A 
ATOM     66  H   UNL A   1      40.498  34.312  32.253  1.00  0.00     0.167 HD
ATOM     67  C   UNL A   1      43.166  34.569  31.261  1.00  0.00     0.074 A 
ATOM     68  C   UNL A   1      42.892  34.193  32.641  1.00  0.00     0.031 C 
ATOM     69  C   UNL A   1      42.343  34.861  30.215  1.00  0.00     0.034 A 
BRANCH  56  70
ATOM     70  C   UNL A   1      38.253  32.538  33.148  1.00  0.00     0.023 A 
ATOM     71  C   UNL A   1      39.044  32.410  34.305  1.00  0.00     0.031 A 
ATOM     72  C   UNL A   1      36.978  33.111  33.340  1.00  0.00     0.131 A 
ATOM     73  C   UNL A   1      38.580  32.812  35.564  1.00  0.00     0.055 A 
ATOM     74  C   UNL A   1      36.540  33.579  34.586  1.00  0.00     0.041 A 
ATOM     75  F   UNL A   1      36.138  33.291  32.308  1.00  0.00    -0.206 F 
ATOM     76  C   UNL A   1      37.343  33.430  35.709  1.00  0.00     0.022 A 
BRANCH  73  77
ATOM     77  S   UNL A   1      39.600  32.546  37.040  1.00  0.00     0.124 S 
ATOM     78  O   UNL A   1      38.589  32.337  38.070  1.00  0.00    -0.237 OA
ATOM     79  O   UNL A   1      40.371  31.366  36.657  1.00  0.00    -0.237 OA
ATOM     80  O   UNL A   1      40.373  33.780  37.146  1.00  0.00    -0.744 OA
ENDBRANCH  73  77
ENDBRANCH  56  70
BRANCH  57  81
ATOM     81  C   UNL A   1      46.730  31.950  32.751  1.00  0.00     0.023 A 
ATOM     82  C   UNL A   1      46.553  31.096  33.851  1.00  0.00     0.031 A 
ATOM     83  C   UNL A   1      47.810  32.856  32.800  1.00  0.00     0.131 A 
ATOM     84  C   UNL A   1      47.380  31.213  34.978  1.00  0.00     0.055 A 
ATOM     85  C   UNL A   1      48.649  32.952  33.916  1.00  0.00     0.041 A 
ATOM     86  F   UNL A   1      48.019  33.724  31.798  1.00  0.00    -0.206 F 
ATOM     87  C   UNL A   1      48.423  32.141  35.023  1.00  0.00     0.022 A 
BRANCH  84  88
ATOM     88  S   UNL A   1      47.038  30.231  36.463  1.00  0.00     0.124 S 
ATOM     89  O   UNL A   1      46.419  31.216  37.347  1.00  0.00    -0.237 OA
ATOM     90  O   UNL A   1      46.144  29.205  35.939  1.00  0.00    -0.237 OA
ATOM     91  O   UNL A   1      48.361  29.772  36.879  1.00  0.00    -0.744 OA
ENDBRANCH  84  88
ENDBRANCH  57  81
BRANCH  69  92
ATOM     92  C   UNL A   1      42.968  35.232  28.892  1.00  0.00     0.023 A 
ATOM     93  C   UNL A   1      43.485  34.172  28.126  1.00  0.00     0.031 A 
ATOM     94  C   UNL A   1      43.218  36.543  28.445  1.00  0.00     0.131 A 
ATOM     95  C   UNL A   1      44.260  34.431  26.993  1.00  0.00     0.055 A 
ATOM     96  C   UNL A   1      43.916  36.794  27.260  1.00  0.00     0.041 A 
ATOM     97  F   UNL A   1      42.868  37.615  29.170  1.00  0.00    -0.206 F 
ATOM     98  C   UNL A   1      44.460  35.736  26.538  1.00  0.00     0.022 A 
BRANCH  95  99
ATOM     99  S   UNL A   1      45.160  33.084  26.182  1.00  0.00     0.124 S 
ATOM    100  O   UNL A   1      44.241  32.695  25.117  1.00  0.00    -0.237 OA
ATOM    101  O   UNL A   1      46.383  33.753  25.745  1.00  0.00    -0.237 OA
ATOM    102  O   UNL A   1      45.345  32.096  27.241  1.00  0.00    -0.744 OA
ENDBRANCH  95  99
ENDBRANCH  69  92
ENDBRANCH  43  44
ENDBRANCH  36  38
ENDBRANCH  35  36
ENDBRANCH  34  35
ENDBRANCH  33  34
ENDBRANCH  32  33
ENDBRANCH  31  32
ENDBRANCH  30  31
ENDBRANCH  29  30
ENDBRANCH   1  29
TORSDOF 29
ENDMDL
