MODEL 1
REMARK VINA RESULT:      -9.1      0.000      0.000
REMARK SMILES CC(=O)[C@@H]1CCCC[N@H+]1CC(C)(C)C(=O)OCCOCCOCCOCCOC(=O)c1ccc(-c2c3nc(c(-c4cc(S(=O)(=O)[O-])ccc4F)c4ccc([nH]4)c(-c4cc(S(=O)(=O)[O-])ccc4F)c4nc(c(-c5cc(S(=O)(=O)[O-])ccc5F)c5ccc2[nH]5)C=C4)C=C3)cc1
REMARK SMILES IDX 22 1 21 2 20 3 19 4 18 5 17 6 16 7 14 8 15 9 11 10 12 11
REMARK SMILES IDX 13 12 10 13 9 14 4 15 5 16 6 17 8 18 7 20 2 21 1 22 3 23
REMARK SMILES IDX 23 24 24 25 25 26 26 27 27 28 28 29 29 30 30 31 31 32 32 33
REMARK SMILES IDX 93 34 33 35 92 36 34 37 35 38 36 39 86 40 37 41 91 42 85 43
REMARK SMILES IDX 87 44 38 45 90 46 84 47 83 48 39 50 71 51 51 52 70 53 52 54
REMARK SMILES IDX 55 55 69 56 88 57 53 58 54 59 68 61 89 62 56 63 40 64 41 65
REMARK SMILES IDX 49 66 42 67 48 68 50 69 47 70 43 71 44 72 45 73 46 74 72 75
REMARK SMILES IDX 73 76 81 77 74 78 80 79 82 80 79 81 75 82 76 83 77 84 78 85
REMARK SMILES IDX 57 86 58 87 66 88 59 89 65 90 67 91 64 92 60 93 61 94 62 95
REMARK SMILES IDX 63 96
REMARK H PARENT 9 19 87 49 55 60
REMARK Flexibility Score: inf
ROOT
ATOM      1  O   UNL A   1      33.835  17.980  24.564  1.00  0.00    -0.377 OA
ENDROOT
BRANCH   1   2
ATOM      2  C   UNL A   1      33.413  17.528  23.291  1.00  0.00     0.188 C 
BRANCH   2   3
ATOM      3  C   UNL A   1      32.456  18.415  22.487  1.00  0.00     0.188 C 
BRANCH   3   4
ATOM      4  O   UNL A   1      32.022  19.597  23.148  1.00  0.00    -0.376 OA
BRANCH   4   5
ATOM      5  C   UNL A   1      32.069  20.788  22.366  1.00  0.00     0.202 C 
BRANCH   5   6
ATOM      6  C   UNL A   1      32.387  22.075  23.140  1.00  0.00     0.261 C 
BRANCH   6   7
ATOM      7  O   UNL A   1      32.524  23.216  22.274  1.00  0.00    -0.463 OA
BRANCH   7   8
ATOM      8  C   UNL A   1      33.437  24.161  22.584  1.00  0.00     0.317 C 
ATOM      9  O   UNL A   1      34.631  23.931  22.743  1.00  0.00    -0.251 OA
BRANCH   8  10
ATOM     10  C   UNL A   1      32.820  25.566  22.651  1.00  0.00     0.111 C 
ATOM     11  C   UNL A   1      31.767  25.641  21.529  1.00  0.00     0.029 C 
ATOM     12  C   UNL A   1      33.838  26.693  22.295  1.00  0.00     0.029 C 
BRANCH  10  13
ATOM     13  C   UNL A   1      32.243  25.855  24.086  1.00  0.00     0.281 C 
BRANCH  13  14
ATOM     14  N   UNL A   1      32.487  27.090  24.870  1.00  0.00    -0.325 N 
ATOM     15  C   UNL A   1      31.303  27.915  25.150  1.00  0.00     0.251 C 
ATOM     16  C   UNL A   1      31.574  29.127  26.056  1.00  0.00     0.074 C 
ATOM     17  C   UNL A   1      32.358  28.733  27.295  1.00  0.00     0.012 C 
ATOM     18  C   UNL A   1      33.423  26.902  25.979  1.00  0.00     0.262 C 
ATOM     19  H   UNL A   1      32.993  27.700  24.228  1.00  0.00     0.348 HD
ATOM     20  C   UNL A   1      33.676  28.130  26.850  1.00  0.00     0.062 C 
BRANCH  15  21
ATOM     21  C   UNL A   1      30.728  28.466  23.828  1.00  0.00     0.186 C 
ATOM     22  C   UNL A   1      29.344  28.007  23.449  1.00  0.00     0.094 C 
ATOM     23  O   UNL A   1      31.312  29.294  23.123  1.00  0.00    -0.293 OA
ENDBRANCH  15  21
ENDBRANCH  13  14
ENDBRANCH  10  13
ENDBRANCH   8  10
ENDBRANCH   7   8
ENDBRANCH   6   7
ENDBRANCH   5   6
ENDBRANCH   4   5
ENDBRANCH   3   4
ENDBRANCH   2   3
ENDBRANCH   1   2
BRANCH   1  24
ATOM     24  C   UNL A   1      34.975  18.831  24.637  1.00  0.00     0.188 C 
BRANCH  24  25
ATOM     25  C   UNL A   1      34.821  20.322  25.011  1.00  0.00     0.188 C 
BRANCH  25  26
ATOM     26  O   UNL A   1      35.930  20.905  25.682  1.00  0.00    -0.376 OA
BRANCH  26  27
ATOM     27  C   UNL A   1      37.139  21.012  24.943  1.00  0.00     0.202 C 
BRANCH  27  28
ATOM     28  C   UNL A   1      38.054  22.185  25.325  1.00  0.00     0.261 C 
BRANCH  28  29
ATOM     29  O   UNL A   1      38.948  21.946  26.425  1.00  0.00    -0.460 OA
BRANCH  29  30
ATOM     30  C   UNL A   1      40.215  22.412  26.315  1.00  0.00     0.338 C 
ATOM     31  O   UNL A   1      41.151  21.873  25.768  1.00  0.00    -0.246 OA
BRANCH  30  32
ATOM     32  C   UNL A   1      40.214  23.808  26.806  1.00  0.00     0.060 A 
ATOM     33  C   UNL A   1      40.669  24.823  25.955  1.00  0.00     0.016 A 
ATOM     34  C   UNL A   1      39.750  24.106  28.089  1.00  0.00     0.016 A 
ATOM     35  C   UNL A   1      40.700  26.143  26.404  1.00  0.00     0.010 A 
ATOM     36  C   UNL A   1      39.807  25.424  28.546  1.00  0.00     0.010 A 
ATOM     37  C   UNL A   1      40.318  26.440  27.719  1.00  0.00    -0.014 A 
BRANCH  37  38
ATOM     38  C   UNL A   1      40.691  27.748  28.309  1.00  0.00     0.031 A 
ATOM     39  C   UNL A   1      42.156  28.026  28.515  1.00  0.00     0.074 A 
ATOM     40  C   UNL A   1      39.769  28.670  28.633  1.00  0.00     0.049 A 
ATOM     41  N   UNL A   1      42.740  29.062  29.055  1.00  0.00    -0.248 NA
ATOM     42  C   UNL A   1      43.085  26.982  28.049  1.00  0.00     0.031 C 
ATOM     43  C   UNL A   1      38.327  28.533  28.433  1.00  0.00     0.029 A 
ATOM     44  N   UNL A   1      39.913  29.907  29.211  1.00  0.00    -0.354 N 
ATOM     45  C   UNL A   1      44.104  28.797  28.994  1.00  0.00     0.074 A 
ATOM     46  C   UNL A   1      44.256  27.486  28.402  1.00  0.00     0.031 C 
ATOM     47  C   UNL A   1      37.717  29.640  28.895  1.00  0.00     0.029 A 
ATOM     48  C   UNL A   1      38.720  30.545  29.455  1.00  0.00     0.049 A 
ATOM     49  H   UNL A   1      40.788  30.299  29.430  1.00  0.00     0.167 HD
ATOM     50  C   UNL A   1      45.137  29.580  29.388  1.00  0.00     0.034 A 
ATOM     51  C   UNL A   1      38.470  31.712  30.085  1.00  0.00     0.034 A 
ATOM     52  C   UNL A   1      44.970  30.873  30.001  1.00  0.00     0.049 A 
ATOM     53  C   UNL A   1      39.634  32.524  30.610  1.00  0.00     0.074 A 
ATOM     54  C   UNL A   1      45.944  31.752  30.441  1.00  0.00     0.029 A 
ATOM     55  N   UNL A   1      43.745  31.467  30.277  1.00  0.00    -0.354 N 
ATOM     56  N   UNL A   1      40.921  32.269  30.541  1.00  0.00    -0.248 NA
ATOM     57  C   UNL A   1      39.309  33.783  31.294  1.00  0.00     0.031 C 
ATOM     58  C   UNL A   1      45.308  32.841  31.047  1.00  0.00     0.029 A 
ATOM     59  C   UNL A   1      43.938  32.684  30.913  1.00  0.00     0.049 A 
ATOM     60  H   UNL A   1      42.867  31.079  30.055  1.00  0.00     0.167 HD
ATOM     61  C   UNL A   1      41.558  33.354  31.141  1.00  0.00     0.074 A 
ATOM     62  C   UNL A   1      40.514  34.268  31.555  1.00  0.00     0.031 C 
ATOM     63  C   UNL A   1      42.884  33.580  31.326  1.00  0.00     0.034 A 
BRANCH  50  64
ATOM     64  C   UNL A   1      46.529  29.018  29.220  1.00  0.00     0.023 A 
ATOM     65  C   UNL A   1      47.223  29.115  28.001  1.00  0.00     0.031 A 
ATOM     66  C   UNL A   1      47.150  28.335  30.280  1.00  0.00     0.131 A 
ATOM     67  C   UNL A   1      48.463  28.476  27.850  1.00  0.00     0.055 A 
ATOM     68  C   UNL A   1      48.419  27.771  30.148  1.00  0.00     0.041 A 
ATOM     69  F   UNL A   1      46.523  28.188  31.458  1.00  0.00    -0.206 F 
ATOM     70  C   UNL A   1      49.077  27.826  28.923  1.00  0.00     0.022 A 
BRANCH  67  71
ATOM     71  S   UNL A   1      49.191  28.379  26.192  1.00  0.00     0.124 S 
ATOM     72  O   UNL A   1      49.920  29.642  26.114  1.00  0.00    -0.237 OA
ATOM     73  O   UNL A   1      50.009  27.174  26.277  1.00  0.00    -0.237 OA
ATOM     74  O   UNL A   1      48.028  28.284  25.312  1.00  0.00    -0.744 OA
ENDBRANCH  67  71
ENDBRANCH  50  64
BRANCH  51  75
ATOM     75  C   UNL A   1      37.068  32.174  30.304  1.00  0.00     0.023 A 
ATOM     76  C   UNL A   1      36.355  32.845  29.297  1.00  0.00     0.031 A 
ATOM     77  C   UNL A   1      36.445  32.013  31.555  1.00  0.00     0.131 A 
ATOM     78  C   UNL A   1      35.083  33.372  29.573  1.00  0.00     0.055 A 
ATOM     79  C   UNL A   1      35.158  32.492  31.807  1.00  0.00     0.041 A 
ATOM     80  F   UNL A   1      37.083  31.383  32.556  1.00  0.00    -0.206 F 
ATOM     81  C   UNL A   1      34.474  33.189  30.817  1.00  0.00     0.022 A 
BRANCH  78  82
ATOM     82  S   UNL A   1      34.268  34.385  28.307  1.00  0.00     0.124 S 
ATOM     83  O   UNL A   1      34.098  35.653  29.005  1.00  0.00    -0.237 OA
ATOM     84  O   UNL A   1      35.253  34.371  27.230  1.00  0.00    -0.237 OA
ATOM     85  O   UNL A   1      33.034  33.653  28.029  1.00  0.00    -0.744 OA
ENDBRANCH  78  82
ENDBRANCH  51  75
BRANCH  63  86
ATOM     86  C   UNL A   1      43.280  34.893  31.961  1.00  0.00     0.023 A 
ATOM     87  C   UNL A   1      43.452  35.026  33.350  1.00  0.00     0.031 A 
ATOM     88  C   UNL A   1      43.488  36.028  31.158  1.00  0.00     0.131 A 
ATOM     89  C   UNL A   1      43.769  36.278  33.899  1.00  0.00     0.055 A 
ATOM     90  C   UNL A   1      43.863  37.257  31.703  1.00  0.00     0.041 A 
ATOM     91  F   UNL A   1      43.336  35.960  29.826  1.00  0.00    -0.206 F 
ATOM     92  C   UNL A   1      43.993  37.391  33.082  1.00  0.00     0.022 A 
BRANCH  89  93
ATOM     93  S   UNL A   1      43.799  36.459  35.702  1.00  0.00     0.124 S 
ATOM     94  O   UNL A   1      43.708  35.072  36.148  1.00  0.00    -0.237 OA
ATOM     95  O   UNL A   1      45.079  37.120  35.930  1.00  0.00    -0.237 OA
ATOM     96  O   UNL A   1      42.621  37.278  35.985  1.00  0.00    -0.744 OA
ENDBRANCH  89  93
ENDBRANCH  63  86
ENDBRANCH  37  38
ENDBRANCH  30  32
ENDBRANCH  29  30
ENDBRANCH  28  29
ENDBRANCH  27  28
ENDBRANCH  26  27
ENDBRANCH  25  26
ENDBRANCH  24  25
ENDBRANCH   1  24
TORSDOF 26
ENDMDL
MODEL 2
REMARK VINA RESULT:      -8.9      3.470      8.525
REMARK SMILES CC(=O)[C@@H]1CCCC[N@H+]1CC(C)(C)C(=O)OCCOCCOCCOCCOC(=O)c1ccc(-c2c3nc(c(-c4cc(S(=O)(=O)[O-])ccc4F)c4ccc([nH]4)c(-c4cc(S(=O)(=O)[O-])ccc4F)c4nc(c(-c5cc(S(=O)(=O)[O-])ccc5F)c5ccc2[nH]5)C=C4)C=C3)cc1
REMARK SMILES IDX 22 1 21 2 20 3 19 4 18 5 17 6 16 7 14 8 15 9 11 10 12 11
REMARK SMILES IDX 13 12 10 13 9 14 4 15 5 16 6 17 8 18 7 20 2 21 1 22 3 23
REMARK SMILES IDX 23 24 24 25 25 26 26 27 27 28 28 29 29 30 30 31 31 32 32 33
REMARK SMILES IDX 93 34 33 35 92 36 34 37 35 38 36 39 86 40 37 41 91 42 85 43
REMARK SMILES IDX 87 44 38 45 90 46 84 47 83 48 39 50 71 51 51 52 70 53 52 54
REMARK SMILES IDX 55 55 69 56 88 57 53 58 54 59 68 61 89 62 56 63 40 64 41 65
REMARK SMILES IDX 49 66 42 67 48 68 50 69 47 70 43 71 44 72 45 73 46 74 72 75
REMARK SMILES IDX 73 76 81 77 74 78 80 79 82 80 79 81 75 82 76 83 77 84 78 85
REMARK SMILES IDX 57 86 58 87 66 88 59 89 65 90 67 91 64 92 60 93 61 94 62 95
REMARK SMILES IDX 63 96
REMARK H PARENT 9 19 87 49 55 60
REMARK Flexibility Score: inf
ROOT
ATOM      1  O   UNL A   1      34.382  18.251  24.669  1.00  0.00    -0.377 OA
ENDROOT
BRANCH   1   2
ATOM      2  C   UNL A   1      33.519  18.274  23.548  1.00  0.00     0.188 C 
BRANCH   2   3
ATOM      3  C   UNL A   1      32.139  18.921  23.709  1.00  0.00     0.188 C 
BRANCH   3   4
ATOM      4  O   UNL A   1      32.149  20.313  23.995  1.00  0.00    -0.376 OA
BRANCH   4   5
ATOM      5  C   UNL A   1      32.256  21.171  22.862  1.00  0.00     0.202 C 
BRANCH   5   6
ATOM      6  C   UNL A   1      33.234  22.344  23.009  1.00  0.00     0.261 C 
BRANCH   6   7
ATOM      7  O   UNL A   1      33.067  23.044  24.255  1.00  0.00    -0.463 OA
BRANCH   7   8
ATOM      8  C   UNL A   1      32.731  24.352  24.225  1.00  0.00     0.317 C 
ATOM      9  O   UNL A   1      33.461  25.235  23.787  1.00  0.00    -0.251 OA
BRANCH   8  10
ATOM     10  C   UNL A   1      31.306  24.598  24.743  1.00  0.00     0.111 C 
ATOM     11  C   UNL A   1      30.894  23.334  25.522  1.00  0.00     0.029 C 
ATOM     12  C   UNL A   1      30.254  24.701  23.596  1.00  0.00     0.029 C 
BRANCH  10  13
ATOM     13  C   UNL A   1      31.241  25.920  25.594  1.00  0.00     0.281 C 
BRANCH  13  14
ATOM     14  N   UNL A   1      32.149  27.082  25.435  1.00  0.00    -0.325 N 
ATOM     15  C   UNL A   1      31.526  28.319  24.944  1.00  0.00     0.251 C 
ATOM     16  C   UNL A   1      32.471  29.530  24.896  1.00  0.00     0.074 C 
ATOM     17  C   UNL A   1      33.230  29.698  26.201  1.00  0.00     0.012 C 
ATOM     18  C   UNL A   1      33.105  27.230  26.533  1.00  0.00     0.262 C 
ATOM     19  H   UNL A   1      32.734  26.836  24.636  1.00  0.00     0.348 HD
ATOM     20  C   UNL A   1      34.035  28.436  26.445  1.00  0.00     0.062 C 
BRANCH  15  21
ATOM     21  C   UNL A   1      31.003  28.104  23.507  1.00  0.00     0.186 C 
ATOM     22  C   UNL A   1      29.542  28.387  23.270  1.00  0.00     0.094 C 
ATOM     23  O   UNL A   1      31.726  27.783  22.559  1.00  0.00    -0.293 OA
ENDBRANCH  15  21
ENDBRANCH  13  14
ENDBRANCH  10  13
ENDBRANCH   8  10
ENDBRANCH   7   8
ENDBRANCH   6   7
ENDBRANCH   5   6
ENDBRANCH   4   5
ENDBRANCH   3   4
ENDBRANCH   2   3
ENDBRANCH   1   2
BRANCH   1  24
ATOM     24  C   UNL A   1      35.549  19.069  24.641  1.00  0.00     0.188 C 
BRANCH  24  25
ATOM     25  C   UNL A   1      35.486  20.546  25.089  1.00  0.00     0.188 C 
BRANCH  25  26
ATOM     26  O   UNL A   1      36.653  21.045  25.728  1.00  0.00    -0.376 OA
BRANCH  26  27
ATOM     27  C   UNL A   1      37.893  20.794  25.080  1.00  0.00     0.202 C 
BRANCH  27  28
ATOM     28  C   UNL A   1      39.141  21.336  25.792  1.00  0.00     0.261 C 
BRANCH  28  29
ATOM     29  O   UNL A   1      39.840  20.400  26.628  1.00  0.00    -0.460 OA
BRANCH  29  30
ATOM     30  C   UNL A   1      41.093  20.043  26.258  1.00  0.00     0.338 C 
ATOM     31  O   UNL A   1      41.430  19.029  25.690  1.00  0.00    -0.246 OA
BRANCH  30  32
ATOM     32  C   UNL A   1      41.968  21.214  26.487  1.00  0.00     0.060 A 
ATOM     33  C   UNL A   1      42.267  21.586  27.803  1.00  0.00     0.016 A 
ATOM     34  C   UNL A   1      42.498  21.924  25.407  1.00  0.00     0.016 A 
ATOM     35  C   UNL A   1      43.070  22.700  28.045  1.00  0.00     0.010 A 
ATOM     36  C   UNL A   1      43.279  23.055  25.651  1.00  0.00     0.010 A 
ATOM     37  C   UNL A   1      43.536  23.468  26.970  1.00  0.00    -0.014 A 
BRANCH  37  38
ATOM     38  C   UNL A   1      44.064  24.831  27.222  1.00  0.00     0.031 A 
ATOM     39  C   UNL A   1      43.101  25.866  27.739  1.00  0.00     0.074 A 
ATOM     40  C   UNL A   1      45.356  25.141  27.021  1.00  0.00     0.049 A 
ATOM     41  N   UNL A   1      43.293  27.133  27.990  1.00  0.00    -0.248 NA
ATOM     42  C   UNL A   1      41.729  25.399  28.002  1.00  0.00     0.031 C 
ATOM     43  C   UNL A   1      46.389  24.210  26.571  1.00  0.00     0.029 A 
ATOM     44  N   UNL A   1      46.016  26.335  27.163  1.00  0.00    -0.354 N 
ATOM     45  C   UNL A   1      42.070  27.616  28.441  1.00  0.00     0.074 A 
ATOM     46  C   UNL A   1      41.133  26.515  28.390  1.00  0.00     0.031 C 
ATOM     47  C   UNL A   1      47.554  24.875  26.461  1.00  0.00     0.029 A 
ATOM     48  C   UNL A   1      47.340  26.282  26.796  1.00  0.00     0.049 A 
ATOM     49  H   UNL A   1      45.582  27.154  27.496  1.00  0.00     0.167 HD
ATOM     50  C   UNL A   1      41.757  28.864  28.867  1.00  0.00     0.034 A 
ATOM     51  C   UNL A   1      48.261  27.265  26.715  1.00  0.00     0.034 A 
ATOM     52  C   UNL A   1      42.694  29.958  28.888  1.00  0.00     0.049 A 
ATOM     53  C   UNL A   1      47.864  28.674  27.099  1.00  0.00     0.074 A 
ATOM     54  C   UNL A   1      42.488  31.263  29.298  1.00  0.00     0.029 A 
ATOM     55  N   UNL A   1      44.015  29.880  28.463  1.00  0.00    -0.354 N 
ATOM     56  N   UNL A   1      46.706  29.120  27.532  1.00  0.00    -0.248 NA
ATOM     57  C   UNL A   1      48.900  29.709  26.986  1.00  0.00     0.031 C 
ATOM     58  C   UNL A   1      43.659  31.989  29.054  1.00  0.00     0.029 A 
ATOM     59  C   UNL A   1      44.624  31.120  28.569  1.00  0.00     0.049 A 
ATOM     60  H   UNL A   1      44.454  29.062  28.134  1.00  0.00     0.167 HD
ATOM     61  C   UNL A   1      46.889  30.480  27.776  1.00  0.00     0.074 A 
ATOM     62  C   UNL A   1      48.269  30.776  27.452  1.00  0.00     0.031 C 
ATOM     63  C   UNL A   1      46.001  31.400  28.234  1.00  0.00     0.034 A 
BRANCH  50  64
ATOM     64  C   UNL A   1      40.327  29.111  29.283  1.00  0.00     0.023 A 
ATOM     65  C   UNL A   1      39.927  29.052  30.629  1.00  0.00     0.031 A 
ATOM     66  C   UNL A   1      39.341  29.361  28.313  1.00  0.00     0.131 A 
ATOM     67  C   UNL A   1      38.569  29.167  30.961  1.00  0.00     0.055 A 
ATOM     68  C   UNL A   1      38.003  29.556  28.657  1.00  0.00     0.041 A 
ATOM     69  F   UNL A   1      39.660  29.401  27.009  1.00  0.00    -0.206 F 
ATOM     70  C   UNL A   1      37.607  29.445  29.987  1.00  0.00     0.022 A 
BRANCH  67  71
ATOM     71  S   UNL A   1      38.058  28.802  32.663  1.00  0.00     0.124 S 
ATOM     72  O   UNL A   1      36.738  29.424  32.715  1.00  0.00    -0.237 OA
ATOM     73  O   UNL A   1      38.080  27.345  32.693  1.00  0.00    -0.237 OA
ATOM     74  O   UNL A   1      39.081  29.459  33.476  1.00  0.00    -0.744 OA
ENDBRANCH  67  71
ENDBRANCH  50  64
BRANCH  51  75
ATOM     75  C   UNL A   1      49.636  26.980  26.210  1.00  0.00     0.023 A 
ATOM     76  C   UNL A   1      50.703  26.742  27.092  1.00  0.00     0.031 A 
ATOM     77  C   UNL A   1      49.917  27.015  24.832  1.00  0.00     0.131 A 
ATOM     78  C   UNL A   1      52.006  26.596  26.591  1.00  0.00     0.055 A 
ATOM     79  C   UNL A   1      51.206  26.814  24.335  1.00  0.00     0.041 A 
ATOM     80  F   UNL A   1      48.936  27.243  23.944  1.00  0.00    -0.206 F 
ATOM     81  C   UNL A   1      52.264  26.617  25.218  1.00  0.00     0.022 A 
BRANCH  78  82
ATOM     82  S   UNL A   1      53.381  26.468  27.767  1.00  0.00     0.124 S 
ATOM     83  O   UNL A   1      52.676  26.289  29.031  1.00  0.00    -0.237 OA
ATOM     84  O   UNL A   1      54.102  25.303  27.264  1.00  0.00    -0.237 OA
ATOM     85  O   UNL A   1      54.079  27.742  27.615  1.00  0.00    -0.744 OA
ENDBRANCH  78  82
ENDBRANCH  51  75
BRANCH  63  86
ATOM     86  C   UNL A   1      46.513  32.803  28.460  1.00  0.00     0.023 A 
ATOM     87  C   UNL A   1      47.170  33.173  29.647  1.00  0.00     0.031 A 
ATOM     88  C   UNL A   1      46.340  33.784  27.468  1.00  0.00     0.131 A 
ATOM     89  C   UNL A   1      47.582  34.502  29.833  1.00  0.00     0.055 A 
ATOM     90  C   UNL A   1      46.806  35.089  27.633  1.00  0.00     0.041 A 
ATOM     91  F   UNL A   1      45.718  33.488  26.315  1.00  0.00    -0.206 F 
ATOM     92  C   UNL A   1      47.420  35.458  28.826  1.00  0.00     0.022 A 
BRANCH  89  93
ATOM     93  S   UNL A   1      48.255  34.989  31.445  1.00  0.00     0.124 S 
ATOM     94  O   UNL A   1      48.281  33.718  32.160  1.00  0.00    -0.237 OA
ATOM     95  O   UNL A   1      49.554  35.547  31.086  1.00  0.00    -0.237 OA
ATOM     96  O   UNL A   1      47.282  35.961  31.943  1.00  0.00    -0.744 OA
ENDBRANCH  89  93
ENDBRANCH  63  86
ENDBRANCH  37  38
ENDBRANCH  30  32
ENDBRANCH  29  30
ENDBRANCH  28  29
ENDBRANCH  27  28
ENDBRANCH  26  27
ENDBRANCH  25  26
ENDBRANCH  24  25
ENDBRANCH   1  24
TORSDOF 26
ENDMDL
MODEL 3
REMARK VINA RESULT:      -8.8      3.692      5.108
REMARK SMILES CC(=O)[C@@H]1CCCC[N@H+]1CC(C)(C)C(=O)OCCOCCOCCOCCOC(=O)c1ccc(-c2c3nc(c(-c4cc(S(=O)(=O)[O-])ccc4F)c4ccc([nH]4)c(-c4cc(S(=O)(=O)[O-])ccc4F)c4nc(c(-c5cc(S(=O)(=O)[O-])ccc5F)c5ccc2[nH]5)C=C4)C=C3)cc1
REMARK SMILES IDX 22 1 21 2 20 3 19 4 18 5 17 6 16 7 14 8 15 9 11 10 12 11
REMARK SMILES IDX 13 12 10 13 9 14 4 15 5 16 6 17 8 18 7 20 2 21 1 22 3 23
REMARK SMILES IDX 23 24 24 25 25 26 26 27 27 28 28 29 29 30 30 31 31 32 32 33
REMARK SMILES IDX 93 34 33 35 92 36 34 37 35 38 36 39 86 40 37 41 91 42 85 43
REMARK SMILES IDX 87 44 38 45 90 46 84 47 83 48 39 50 71 51 51 52 70 53 52 54
REMARK SMILES IDX 55 55 69 56 88 57 53 58 54 59 68 61 89 62 56 63 40 64 41 65
REMARK SMILES IDX 49 66 42 67 48 68 50 69 47 70 43 71 44 72 45 73 46 74 72 75
REMARK SMILES IDX 73 76 81 77 74 78 80 79 82 80 79 81 75 82 76 83 77 84 78 85
REMARK SMILES IDX 57 86 58 87 66 88 59 89 65 90 67 91 64 92 60 93 61 94 62 95
REMARK SMILES IDX 63 96
REMARK H PARENT 9 19 87 49 55 60
REMARK Flexibility Score: inf
ROOT
ATOM      1  O   UNL A   1      36.102  22.854  26.108  1.00  0.00    -0.377 OA
ENDROOT
BRANCH   1   2
ATOM      2  C   UNL A   1      35.477  22.224  25.005  1.00  0.00     0.188 C 
BRANCH   2   3
ATOM      3  C   UNL A   1      34.007  22.549  24.722  1.00  0.00     0.188 C 
BRANCH   3   4
ATOM      4  O   UNL A   1      33.742  23.895  24.351  1.00  0.00    -0.376 OA
BRANCH   4   5
ATOM      5  C   UNL A   1      33.707  24.150  22.949  1.00  0.00     0.202 C 
BRANCH   5   6
ATOM      6  C   UNL A   1      33.911  25.613  22.537  1.00  0.00     0.261 C 
BRANCH   6   7
ATOM      7  O   UNL A   1      33.058  26.513  23.267  1.00  0.00    -0.463 OA
BRANCH   7   8
ATOM      8  C   UNL A   1      33.578  27.672  23.726  1.00  0.00     0.317 C 
ATOM      9  O   UNL A   1      34.217  28.457  23.033  1.00  0.00    -0.251 OA
BRANCH   8  10
ATOM     10  C   UNL A   1      33.223  27.925  25.199  1.00  0.00     0.111 C 
ATOM     11  C   UNL A   1      34.018  29.169  25.639  1.00  0.00     0.029 C 
ATOM     12  C   UNL A   1      33.728  26.794  26.147  1.00  0.00     0.029 C 
BRANCH  10  13
ATOM     13  C   UNL A   1      31.666  28.067  25.382  1.00  0.00     0.281 C 
BRANCH  13  14
ATOM     14  N   UNL A   1      30.665  27.938  24.296  1.00  0.00    -0.325 N 
ATOM     15  C   UNL A   1      29.570  26.989  24.543  1.00  0.00     0.251 C 
ATOM     16  C   UNL A   1      28.494  26.961  23.447  1.00  0.00     0.074 C 
ATOM     17  C   UNL A   1      28.027  28.362  23.088  1.00  0.00     0.012 C 
ATOM     18  C   UNL A   1      30.289  29.217  23.694  1.00  0.00     0.262 C 
ATOM     19  H   UNL A   1      31.165  27.456  23.549  1.00  0.00     0.348 HD
ATOM     20  C   UNL A   1      29.226  29.150  22.601  1.00  0.00     0.062 C 
BRANCH  15  21
ATOM     21  C   UNL A   1      30.136  25.556  24.648  1.00  0.00     0.186 C 
ATOM     22  C   UNL A   1      30.345  25.011  26.037  1.00  0.00     0.094 C 
ATOM     23  O   UNL A   1      30.356  24.837  23.669  1.00  0.00    -0.293 OA
ENDBRANCH  15  21
ENDBRANCH  13  14
ENDBRANCH  10  13
ENDBRANCH   8  10
ENDBRANCH   7   8
ENDBRANCH   6   7
ENDBRANCH   5   6
ENDBRANCH   4   5
ENDBRANCH   3   4
ENDBRANCH   2   3
ENDBRANCH   1   2
BRANCH   1  24
ATOM     24  C   UNL A   1      37.112  23.825  25.849  1.00  0.00     0.188 C 
BRANCH  24  25
ATOM     25  C   UNL A   1      38.593  23.527  26.173  1.00  0.00     0.188 C 
BRANCH  25  26
ATOM     26  O   UNL A   1      38.874  22.199  26.593  1.00  0.00    -0.376 OA
BRANCH  26  27
ATOM     27  C   UNL A   1      38.913  21.203  25.579  1.00  0.00     0.202 C 
BRANCH  27  28
ATOM     28  C   UNL A   1      39.550  19.864  25.981  1.00  0.00     0.261 C 
BRANCH  28  29
ATOM     29  O   UNL A   1      40.758  19.955  26.753  1.00  0.00    -0.460 OA
BRANCH  29  30
ATOM     30  C   UNL A   1      41.933  19.956  26.080  1.00  0.00     0.338 C 
ATOM     31  O   UNL A   1      42.326  19.131  25.288  1.00  0.00    -0.246 OA
BRANCH  30  32
ATOM     32  C   UNL A   1      42.578  21.265  26.327  1.00  0.00     0.060 A 
ATOM     33  C   UNL A   1      42.865  21.638  27.646  1.00  0.00     0.016 A 
ATOM     34  C   UNL A   1      42.908  22.103  25.260  1.00  0.00     0.016 A 
ATOM     35  C   UNL A   1      43.452  22.877  27.905  1.00  0.00     0.010 A 
ATOM     36  C   UNL A   1      43.470  23.355  25.523  1.00  0.00     0.010 A 
ATOM     37  C   UNL A   1      43.707  23.760  26.849  1.00  0.00    -0.014 A 
BRANCH  37  38
ATOM     38  C   UNL A   1      43.977  25.188  27.142  1.00  0.00     0.031 A 
ATOM     39  C   UNL A   1      45.378  25.692  26.920  1.00  0.00     0.074 A 
ATOM     40  C   UNL A   1      43.012  26.020  27.570  1.00  0.00     0.049 A 
ATOM     41  N   UNL A   1      45.885  26.874  27.147  1.00  0.00    -0.248 NA
ATOM     42  C   UNL A   1      46.337  24.718  26.372  1.00  0.00     0.031 C 
ATOM     43  C   UNL A   1      41.610  25.657  27.772  1.00  0.00     0.029 A 
ATOM     44  N   UNL A   1      43.072  27.345  27.921  1.00  0.00    -0.354 N 
ATOM     45  C   UNL A   1      47.221  26.788  26.768  1.00  0.00     0.074 A 
ATOM     46  C   UNL A   1      47.453  25.427  26.337  1.00  0.00     0.031 C 
ATOM     47  C   UNL A   1      40.944  26.735  28.225  1.00  0.00     0.029 A 
ATOM     48  C   UNL A   1      41.878  27.850  28.380  1.00  0.00     0.049 A 
ATOM     49  H   UNL A   1      43.893  27.884  27.850  1.00  0.00     0.167 HD
ATOM     50  C   UNL A   1      48.166  27.759  26.773  1.00  0.00     0.034 A 
ATOM     51  C   UNL A   1      41.586  29.063  28.893  1.00  0.00     0.034 A 
ATOM     52  C   UNL A   1      47.926  29.104  27.231  1.00  0.00     0.049 A 
ATOM     53  C   UNL A   1      42.682  30.103  28.983  1.00  0.00     0.074 A 
ATOM     54  C   UNL A   1      48.809  30.168  27.281  1.00  0.00     0.029 A 
ATOM     55  N   UNL A   1      46.718  29.566  27.735  1.00  0.00    -0.354 N 
ATOM     56  N   UNL A   1      43.940  30.015  28.616  1.00  0.00    -0.248 NA
ATOM     57  C   UNL A   1      42.315  31.406  29.555  1.00  0.00     0.031 C 
ATOM     58  C   UNL A   1      48.156  31.250  27.881  1.00  0.00     0.029 A 
ATOM     59  C   UNL A   1      46.841  30.889  28.131  1.00  0.00     0.049 A 
ATOM     60  H   UNL A   1      45.893  29.032  27.802  1.00  0.00     0.167 HD
ATOM     61  C   UNL A   1      44.503  31.263  28.880  1.00  0.00     0.074 A 
ATOM     62  C   UNL A   1      43.444  32.086  29.427  1.00  0.00     0.031 C 
ATOM     63  C   UNL A   1      45.776  31.694  28.682  1.00  0.00     0.034 A 
BRANCH  50  64
ATOM     64  C   UNL A   1      49.553  27.369  26.324  1.00  0.00     0.023 A 
ATOM     65  C   UNL A   1      50.576  27.084  27.246  1.00  0.00     0.031 A 
ATOM     66  C   UNL A   1      49.870  27.328  24.955  1.00  0.00     0.131 A 
ATOM     67  C   UNL A   1      51.881  26.844  26.791  1.00  0.00     0.055 A 
ATOM     68  C   UNL A   1      51.152  27.009  24.506  1.00  0.00     0.041 A 
ATOM     69  F   UNL A   1      48.940  27.618  24.031  1.00  0.00    -0.206 F 
ATOM     70  C   UNL A   1      52.170  26.779  25.426  1.00  0.00     0.022 A 
BRANCH  67  71
ATOM     71  S   UNL A   1      53.223  26.766  28.008  1.00  0.00     0.124 S 
ATOM     72  O   UNL A   1      52.492  26.467  29.236  1.00  0.00    -0.237 OA
ATOM     73  O   UNL A   1      54.060  25.691  27.486  1.00  0.00    -0.237 OA
ATOM     74  O   UNL A   1      53.815  28.102  27.952  1.00  0.00    -0.744 OA
ENDBRANCH  67  71
ENDBRANCH  50  64
BRANCH  51  75
ATOM     75  C   UNL A   1      40.217  29.364  29.406  1.00  0.00     0.023 A 
ATOM     76  C   UNL A   1      39.939  29.372  30.782  1.00  0.00     0.031 A 
ATOM     77  C   UNL A   1      39.148  29.577  28.517  1.00  0.00     0.131 A 
ATOM     78  C   UNL A   1      38.619  29.540  31.229  1.00  0.00     0.055 A 
ATOM     79  C   UNL A   1      37.845  29.798  28.968  1.00  0.00     0.041 A 
ATOM     80  F   UNL A   1      39.356  29.576  27.190  1.00  0.00    -0.206 F 
ATOM     81  C   UNL A   1      37.571  29.766  30.332  1.00  0.00     0.022 A 
BRANCH  78  82
ATOM     82  S   UNL A   1      38.271  29.366  33.001  1.00  0.00     0.124 S 
ATOM     83  O   UNL A   1      37.445  28.165  33.026  1.00  0.00    -0.237 OA
ATOM     84  O   UNL A   1      39.612  29.235  33.560  1.00  0.00    -0.237 OA
ATOM     85  O   UNL A   1      37.578  30.609  33.334  1.00  0.00    -0.744 OA
ENDBRANCH  78  82
ENDBRANCH  51  75
BRANCH  63  86
ATOM     86  C   UNL A   1      46.076  33.137  29.011  1.00  0.00     0.023 A 
ATOM     87  C   UNL A   1      46.006  34.152  28.041  1.00  0.00     0.031 A 
ATOM     88  C   UNL A   1      46.439  33.499  30.321  1.00  0.00     0.131 A 
ATOM     89  C   UNL A   1      46.345  35.471  28.383  1.00  0.00     0.055 A 
ATOM     90  C   UNL A   1      46.715  34.822  30.669  1.00  0.00     0.041 A 
ATOM     91  F   UNL A   1      46.524  32.572  31.288  1.00  0.00    -0.206 F 
ATOM     92  C   UNL A   1      46.682  35.815  29.695  1.00  0.00     0.022 A 
BRANCH  89  93
ATOM     93  S   UNL A   1      46.427  36.719  27.070  1.00  0.00     0.124 S 
ATOM     94  O   UNL A   1      47.563  37.531  27.493  1.00  0.00    -0.237 OA
ATOM     95  O   UNL A   1      46.633  35.906  25.877  1.00  0.00    -0.237 OA
ATOM     96  O   UNL A   1      45.127  37.384  27.147  1.00  0.00    -0.744 OA
ENDBRANCH  89  93
ENDBRANCH  63  86
ENDBRANCH  37  38
ENDBRANCH  30  32
ENDBRANCH  29  30
ENDBRANCH  28  29
ENDBRANCH  27  28
ENDBRANCH  26  27
ENDBRANCH  25  26
ENDBRANCH  24  25
ENDBRANCH   1  24
TORSDOF 26
ENDMDL
